
     RDKit          3D

 53 57  0  0  0  0  0  0  0  0999 V2000
    1.7205    0.7546    1.4724 C   0  0  0  0  0  0  0  0  0  0  0  0
    2.1098   -0.2155    0.4158 C   0  0  0  0  0  0  0  0  0  0  0  0
    1.2651   -1.1553   -0.2637 C   0  0  0  0  0  0  0  0  0  0  0  0
   -0.1909   -1.3552   -0.1105 C   0  0  0  0  0  0  0  0  0  0  0  0
   -0.7129   -2.4650   -0.0843 O   0  0  0  0  0  0  0  0  0  0  0  0
   -0.9061   -0.1711   -0.0285 N   0  0  0  0  0  0  0  0  0  0  0  0
   -2.3674   -0.0825    0.0151 C   0  0  2  0  0  0  0  0  0  0  0  0
   -3.0130   -0.6427   -1.2758 C   0  0  0  0  0  0  0  0  0  0  0  0
   -4.5429   -0.4825   -1.2287 C   0  0  1  0  0  0  0  0  0  0  0  0
   -5.0943   -1.2351   -0.0056 C   0  0  0  0  0  0  0  0  0  0  0  0
   -4.4887   -0.6615    1.2869 C   0  0  2  0  0  0  0  0  0  0  0  0
   -4.8413    0.8300    1.3942 C   0  0  0  0  0  0  0  0  0  0  0  0
   -4.2842    1.5882    0.1798 C   0  0  2  0  0  0  0  0  0  0  0  0
   -4.8942    1.0088   -1.1063 C   0  0  0  0  0  0  0  0  0  0  0  0
   -2.7577    1.4162    0.1356 C   0  0  0  0  0  0  0  0  0  0  0  0
   -2.9585   -0.8214    1.2429 C   0  0  0  0  0  0  0  0  0  0  0  0
    1.9755   -1.8907   -1.1354 N   0  0  0  0  0  0  0  0  0  0  0  0
    3.2350   -1.4459   -1.0133 N   0  0  0  0  0  0  0  0  0  0  0  0
    4.2759   -2.0648   -1.8024 C   0  0  0  0  0  0  0  0  0  0  0  0
    3.3750   -0.4163   -0.1170 C   0  0  0  0  0  0  0  0  0  0  0  0
    4.6413    0.2440    0.1734 C   0  0  0  0  0  0  0  0  0  0  0  0
    5.3502   -0.0732    1.3372 C   0  0  0  0  0  0  0  0  0  0  0  0
    6.5657    0.5554    1.6131 C   0  0  0  0  0  0  0  0  0  0  0  0
    7.0765    1.5049    0.7289 C   0  0  0  0  0  0  0  0  0  0  0  0
    6.3728    1.8284   -0.4306 C   0  0  0  0  0  0  0  0  0  0  0  0
    5.1572    1.2004   -0.7081 C   0  0  0  0  0  0  0  0  0  0  0  0
    0.9415    0.3388    2.1194 H   0  0  0  0  0  0  0  0  0  0  0  0
    2.5686    1.0147    2.1130 H   0  0  0  0  0  0  0  0  0  0  0  0
    1.3421    1.6765    1.0198 H   0  0  0  0  0  0  0  0  0  0  0  0
   -0.4030    0.6554   -0.3229 H   0  0  0  0  0  0  0  0  0  0  0  0
   -2.7675   -1.7033   -1.4071 H   0  0  0  0  0  0  0  0  0  0  0  0
   -2.6102   -0.1235   -2.1553 H   0  0  0  0  0  0  0  0  0  0  0  0
   -4.9846   -0.8916   -2.1442 H   0  0  0  0  0  0  0  0  0  0  0  0
   -6.1875   -1.1493    0.0241 H   0  0  0  0  0  0  0  0  0  0  0  0
   -4.8611   -2.3038   -0.0868 H   0  0  0  0  0  0  0  0  0  0  0  0
   -4.8906   -1.1987    2.1533 H   0  0  0  0  0  0  0  0  0  0  0  0
   -4.4269    1.2477    2.3200 H   0  0  0  0  0  0  0  0  0  0  0  0
   -5.9298    0.9553    1.4477 H   0  0  0  0  0  0  0  0  0  0  0  0
   -4.5348    2.6518    0.2612 H   0  0  0  0  0  0  0  0  0  0  0  0
   -5.9835    1.1376   -1.0955 H   0  0  0  0  0  0  0  0  0  0  0  0
   -4.5177    1.5555   -1.9795 H   0  0  0  0  0  0  0  0  0  0  0  0
   -2.3085    1.8514    1.0384 H   0  0  0  0  0  0  0  0  0  0  0  0
   -2.3486    1.9821   -0.7122 H   0  0  0  0  0  0  0  0  0  0  0  0
   -2.7173   -1.8899    1.2154 H   0  0  0  0  0  0  0  0  0  0  0  0
   -2.5145   -0.4305    2.1678 H   0  0  0  0  0  0  0  0  0  0  0  0
    5.1253   -2.2919   -1.1537 H   0  0  0  0  0  0  0  0  0  0  0  0
    4.5649   -1.3688   -2.5935 H   0  0  0  0  0  0  0  0  0  0  0  0
    3.8967   -2.9919   -2.2410 H   0  0  0  0  0  0  0  0  0  0  0  0
    4.9600   -0.8127    2.0330 H   0  0  0  0  0  0  0  0  0  0  0  0
    7.1130    0.3046    2.5182 H   0  0  0  0  0  0  0  0  0  0  0  0
    8.0226    1.9948    0.9451 H   0  0  0  0  0  0  0  0  0  0  0  0
    6.7694    2.5718   -1.1174 H   0  0  0  0  0  0  0  0  0  0  0  0
    4.6134    1.4655   -1.6119 H   0  0  0  0  0  0  0  0  0  0  0  0
  1  2  1  0
  2  3  1  0
  3  4  1  0
  4  5  2  0
  4  6  1  0
  7  6  1  6
  7  8  1  0
  8  9  1  0
  9 10  1  0
 10 11  1  0
 11 12  1  0
 12 13  1  0
 13 14  1  0
 13 15  1  0
 11 16  1  0
  3 17  2  0
 17 18  1  0
 18 19  1  0
 18 20  1  0
 20 21  1  0
 21 22  2  0
 22 23  1  0
 23 24  2  0
 24 25  1  0
 25 26  2  0
 20  2  2  0
 26 21  1  0
 15  7  1  0
 16  7  1  0
 14  9  1  0
  1 27  1  0
  1 28  1  0
  1 29  1  0
  6 30  1  0
  8 31  1  0
  8 32  1  0
  9 33  1  6
 10 34  1  0
 10 35  1  0
 11 36  1  1
 12 37  1  0
 12 38  1  0
 13 39  1  1
 14 40  1  0
 14 41  1  0
 15 42  1  0
 15 43  1  0
 16 44  1  0
 16 45  1  0
 19 46  1  0
 19 47  1  0
 19 48  1  0
 22 49  1  0
 23 50  1  0
 24 51  1  0
 25 52  1  0
 26 53  1  0
M  END
>  <_SMILES>  (1) 
Cc1c(C(=O)N[C@]23C[C@H]4C[C@H](C[C@H](C4)C2)C3)nn(C)c1-c1ccccc1

$$$$

     RDKit          3D

 62 66  0  0  0  0  0  0  0  0999 V2000
   -1.4044    3.0433    0.3299 C   0  0  0  0  0  0  0  0  0  0  0  0
   -1.5200    1.6262   -0.1130 C   0  0  0  0  0  0  0  0  0  0  0  0
   -0.4563    0.6760   -0.1888 C   0  0  0  0  0  0  0  0  0  0  0  0
    0.9652    0.8781    0.1663 C   0  0  0  0  0  0  0  0  0  0  0  0
    1.3810    1.9248    0.6478 O   0  0  0  0  0  0  0  0  0  0  0  0
    1.7443   -0.2270   -0.0982 N   0  0  0  0  0  0  0  0  0  0  0  0
    3.1939   -0.3130    0.0692 C   0  0  2  0  0  0  0  0  0  0  0  0
    3.6161   -0.0868    1.5424 C   0  0  0  0  0  0  0  0  0  0  0  0
    5.1406   -0.2304    1.6968 C   0  0  1  0  0  0  0  0  0  0  0  0
    5.5635   -1.6454    1.2720 C   0  0  0  0  0  0  0  0  0  0  0  0
    5.1744   -1.8910   -0.1941 C   0  0  2  0  0  0  0  0  0  0  0  0
    5.8763   -0.8560   -1.0874 C   0  0  0  0  0  0  0  0  0  0  0  0
    5.4557    0.5639   -0.6762 C   0  0  2  0  0  0  0  0  0  0  0  0
    5.8397    0.8007    0.7944 C   0  0  0  0  0  0  0  0  0  0  0  0
    3.9315    0.7079   -0.8315 C   0  0  0  0  0  0  0  0  0  0  0  0
    3.6526   -1.7370   -0.3441 C   0  0  0  0  0  0  0  0  0  0  0  0
   -0.9107   -0.5168   -0.6244 N   0  0  0  0  0  0  0  0  0  0  0  0
   -2.2104   -0.3087   -0.8835 N   0  0  0  0  0  0  0  0  0  0  0  0
   -2.9839   -1.4452   -1.3521 C   0  0  0  0  0  0  0  0  0  0  0  0
   -3.1750   -2.5280   -0.2871 C   0  0  0  0  0  0  0  0  0  0  0  0
   -3.8336   -2.0570    1.0037 C   0  0  0  0  0  0  0  0  0  0  0  0
   -5.2470   -1.6650    0.7790 N   0  0  0  0  0  0  0  0  0  0  0  0
   -2.6559    0.9438   -0.5300 C   0  0  0  0  0  0  0  0  0  0  0  0
   -4.0482    1.3828   -0.5605 C   0  0  0  0  0  0  0  0  0  0  0  0
   -4.7697    1.4255   -1.7584 C   0  0  0  0  0  0  0  0  0  0  0  0
   -6.1158    1.7963   -1.7573 C   0  0  0  0  0  0  0  0  0  0  0  0
   -6.7450    2.1427   -0.5625 C   0  0  0  0  0  0  0  0  0  0  0  0
   -6.0272    2.1334    0.6317 C   0  0  0  0  0  0  0  0  0  0  0  0
   -4.6826    1.7587    0.6326 C   0  0  0  0  0  0  0  0  0  0  0  0
   -0.5984    3.5510   -0.2095 H   0  0  0  0  0  0  0  0  0  0  0  0
   -1.1919    3.0896    1.4027 H   0  0  0  0  0  0  0  0  0  0  0  0
   -2.3242    3.6050    0.1417 H   0  0  0  0  0  0  0  0  0  0  0  0
    1.2487   -0.9866   -0.5560 H   0  0  0  0  0  0  0  0  0  0  0  0
    3.1048   -0.8056    2.1962 H   0  0  0  0  0  0  0  0  0  0  0  0
    3.3161    0.9093    1.8883 H   0  0  0  0  0  0  0  0  0  0  0  0
    5.4232   -0.0589    2.7415 H   0  0  0  0  0  0  0  0  0  0  0  0
    5.0824   -2.3903    1.9178 H   0  0  0  0  0  0  0  0  0  0  0  0
    6.6464   -1.7668    1.3979 H   0  0  0  0  0  0  0  0  0  0  0  0
    5.4755   -2.9015   -0.4922 H   0  0  0  0  0  0  0  0  0  0  0  0
    5.6203   -1.0331   -2.1392 H   0  0  0  0  0  0  0  0  0  0  0  0
    6.9646   -0.9640   -1.0021 H   0  0  0  0  0  0  0  0  0  0  0  0
    5.9621    1.2978   -1.3131 H   0  0  0  0  0  0  0  0  0  0  0  0
    5.5566    1.8164    1.0968 H   0  0  0  0  0  0  0  0  0  0  0  0
    6.9275    0.7247    0.9134 H   0  0  0  0  0  0  0  0  0  0  0  0
    3.6474    0.5594   -1.8816 H   0  0  0  0  0  0  0  0  0  0  0  0
    3.6402    1.7342   -0.5774 H   0  0  0  0  0  0  0  0  0  0  0  0
    3.3617   -1.9403   -1.3835 H   0  0  0  0  0  0  0  0  0  0  0  0
    3.1414   -2.4911    0.2694 H   0  0  0  0  0  0  0  0  0  0  0  0
   -3.9503   -1.1017   -1.7247 H   0  0  0  0  0  0  0  0  0  0  0  0
   -2.4445   -1.8589   -2.2129 H   0  0  0  0  0  0  0  0  0  0  0  0
   -3.7594   -3.3487   -0.7212 H   0  0  0  0  0  0  0  0  0  0  0  0
   -2.1954   -2.9512   -0.0306 H   0  0  0  0  0  0  0  0  0  0  0  0
   -3.8607   -2.8736    1.7320 H   0  0  0  0  0  0  0  0  0  0  0  0
   -3.3271   -1.2034    1.4613 H   0  0  0  0  0  0  0  0  0  0  0  0
   -5.6928   -1.4143    1.6726 H   0  0  0  0  0  0  0  0  0  0  0  0
   -5.8072   -2.4245    0.3705 H   0  0  0  0  0  0  0  0  0  0  0  0
   -5.3488   -0.8348    0.1772 H   0  0  0  0  0  0  0  0  0  0  0  0
   -4.2851    1.2005   -2.7076 H   0  0  0  0  0  0  0  0  0  0  0  0
   -6.6661    1.8512   -2.6953 H   0  0  0  0  0  0  0  0  0  0  0  0
   -7.7849    2.4660   -0.5712 H   0  0  0  0  0  0  0  0  0  0  0  0
   -6.5063    2.4573    1.5540 H   0  0  0  0  0  0  0  0  0  0  0  0
   -4.1250    1.7898    1.5680 H   0  0  0  0  0  0  0  0  0  0  0  0
  1  2  1  0
  2  3  1  0
  3  4  1  0
  4  5  2  0
  4  6  1  0
  7  6  1  1
  7  8  1  0
  8  9  1  0
  9 10  1  0
 10 11  1  0
 11 12  1  0
 12 13  1  0
 13 14  1  0
 13 15  1  0
 11 16  1  0
  3 17  2  0
 17 18  1  0
 18 19  1  0
 19 20  1  0
 20 21  1  0
 21 22  1  0
 18 23  1  0
 23 24  1  0
 24 25  2  0
 25 26  1  0
 26 27  2  0
 27 28  1  0
 28 29  2  0
 23  2  2  0
 29 24  1  0
 15  7  1  0
 16  7  1  0
 14  9  1  0
  1 30  1  0
  1 31  1  0
  1 32  1  0
  6 33  1  0
  8 34  1  0
  8 35  1  0
  9 36  1  1
 10 37  1  0
 10 38  1  0
 11 39  1  6
 12 40  1  0
 12 41  1  0
 13 42  1  6
 14 43  1  0
 14 44  1  0
 15 45  1  0
 15 46  1  0
 16 47  1  0
 16 48  1  0
 19 49  1  0
 19 50  1  0
 20 51  1  0
 20 52  1  0
 21 53  1  0
 21 54  1  0
 22 55  1  0
 22 56  1  0
 22 57  1  0
 25 58  1  0
 26 59  1  0
 27 60  1  0
 28 61  1  0
 29 62  1  0
M  CHG  1  22   1
M  END
>  <_SMILES>  (2) 
Cc1c(C(=O)N[C@]23C[C@H]4C[C@H](C[C@H](C4)C2)C3)nn(CCC[NH3+])c1-c1ccccc1

$$$$

     RDKit          3D

 65 69  0  0  0  0  0  0  0  0999 V2000
   -0.0593    1.7034   -1.9653 C   0  0  0  0  0  0  0  0  0  0  0  0
    0.7006    1.0242   -0.8818 C   0  0  0  0  0  0  0  0  0  0  0  0
    0.2415   -0.0176   -0.0084 C   0  0  0  0  0  0  0  0  0  0  0  0
   -1.0896   -0.6590    0.0553 C   0  0  0  0  0  0  0  0  0  0  0  0
   -1.2287   -1.8579    0.2769 O   0  0  0  0  0  0  0  0  0  0  0  0
   -2.1465    0.2153   -0.1273 N   0  0  0  0  0  0  0  0  0  0  0  0
   -3.5616   -0.1519   -0.0179 C   0  0  2  0  0  0  0  0  0  0  0  0
   -3.9189   -0.6300    1.4106 C   0  0  0  0  0  0  0  0  0  0  0  0
   -5.4202   -0.9524    1.5130 C   0  0  1  0  0  0  0  0  0  0  0  0
   -6.2343    0.3121    1.1958 C   0  0  0  0  0  0  0  0  0  0  0  0
   -5.9164    0.7982   -0.2270 C   0  0  2  0  0  0  0  0  0  0  0  0
   -6.2727   -0.3059   -1.2340 C   0  0  0  0  0  0  0  0  0  0  0  0
   -5.4581   -1.5730   -0.9317 C   0  0  2  0  0  0  0  0  0  0  0  0
   -5.7736   -2.0511    0.4961 C   0  0  0  0  0  0  0  0  0  0  0  0
   -3.9568   -1.2508   -1.0371 C   0  0  0  0  0  0  0  0  0  0  0  0
   -4.4146    1.1081   -0.3299 C   0  0  0  0  0  0  0  0  0  0  0  0
    1.2282   -0.4121    0.8150 N   0  0  0  0  0  0  0  0  0  0  0  0
    2.2795    0.3509    0.4848 N   0  0  0  0  0  0  0  0  0  0  0  0
    3.5352    0.0922    1.1691 C   0  0  0  0  0  0  0  0  0  0  0  0
    4.1478   -1.2370    0.7210 C   0  0  0  0  0  0  0  0  0  0  0  0
    5.3433   -1.6387    1.5833 C   0  0  0  0  0  0  0  0  0  0  0  0
    5.8571   -3.0135    1.1761 C   0  0  0  0  0  0  0  0  0  0  0  0
    6.9737   -3.4036    2.0693 N   0  0  0  0  0  0  0  0  0  0  0  0
    2.0236    1.2437   -0.5213 C   0  0  0  0  0  0  0  0  0  0  0  0
    3.0100    2.1635   -1.0716 C   0  0  0  0  0  0  0  0  0  0  0  0
    3.6889    1.8426   -2.2525 C   0  0  0  0  0  0  0  0  0  0  0  0
    4.6380    2.7214   -2.7774 C   0  0  0  0  0  0  0  0  0  0  0  0
    4.9107    3.9237   -2.1259 C   0  0  0  0  0  0  0  0  0  0  0  0
    4.2325    4.2516   -0.9524 C   0  0  0  0  0  0  0  0  0  0  0  0
    3.2822    3.3748   -0.4264 C   0  0  0  0  0  0  0  0  0  0  0  0
    0.6082    2.1210   -2.7254 H   0  0  0  0  0  0  0  0  0  0  0  0
   -0.6569    2.5226   -1.5533 H   0  0  0  0  0  0  0  0  0  0  0  0
   -0.7294    1.0025   -2.4731 H   0  0  0  0  0  0  0  0  0  0  0  0
   -1.9227    1.1977   -0.0437 H   0  0  0  0  0  0  0  0  0  0  0  0
   -3.6517    0.1415    2.1447 H   0  0  0  0  0  0  0  0  0  0  0  0
   -3.3413   -1.5223    1.6800 H   0  0  0  0  0  0  0  0  0  0  0  0
   -5.6547   -1.2975    2.5263 H   0  0  0  0  0  0  0  0  0  0  0  0
   -6.0013    1.1001    1.9224 H   0  0  0  0  0  0  0  0  0  0  0  0
   -7.3067    0.1005    1.2886 H   0  0  0  0  0  0  0  0  0  0  0  0
   -6.4967    1.7011   -0.4475 H   0  0  0  0  0  0  0  0  0  0  0  0
   -7.3456   -0.5284   -1.1826 H   0  0  0  0  0  0  0  0  0  0  0  0
   -6.0673    0.0372   -2.2555 H   0  0  0  0  0  0  0  0  0  0  0  0
   -5.7179   -2.3585   -1.6501 H   0  0  0  0  0  0  0  0  0  0  0  0
   -5.2080   -2.9641    0.7192 H   0  0  0  0  0  0  0  0  0  0  0  0
   -6.8370   -2.3076    0.5776 H   0  0  0  0  0  0  0  0  0  0  0  0
   -3.3866   -2.1710   -0.8674 H   0  0  0  0  0  0  0  0  0  0  0  0
   -3.7149   -0.9237   -2.0569 H   0  0  0  0  0  0  0  0  0  0  0  0
   -4.1583    1.9191    0.3651 H   0  0  0  0  0  0  0  0  0  0  0  0
   -4.1805    1.4824   -1.3356 H   0  0  0  0  0  0  0  0  0  0  0  0
    3.3106    0.0810    2.2424 H   0  0  0  0  0  0  0  0  0  0  0  0
    4.2262    0.9198    0.9862 H   0  0  0  0  0  0  0  0  0  0  0  0
    4.4524   -1.1647   -0.3308 H   0  0  0  0  0  0  0  0  0  0  0  0
    3.3932   -2.0324    0.7705 H   0  0  0  0  0  0  0  0  0  0  0  0
    5.0459   -1.6537    2.6392 H   0  0  0  0  0  0  0  0  0  0  0  0
    6.1403   -0.8920    1.4828 H   0  0  0  0  0  0  0  0  0  0  0  0
    5.0887   -3.7856    1.2778 H   0  0  0  0  0  0  0  0  0  0  0  0
    6.2493   -3.0170    0.1548 H   0  0  0  0  0  0  0  0  0  0  0  0
    6.6711   -3.4584    3.0513 H   0  0  0  0  0  0  0  0  0  0  0  0
    7.7578   -2.7402    2.0179 H   0  0  0  0  0  0  0  0  0  0  0  0
    7.3395   -4.3309    1.8144 H   0  0  0  0  0  0  0  0  0  0  0  0
    3.4724    0.9148   -2.7771 H   0  0  0  0  0  0  0  0  0  0  0  0
    5.1551    2.4763   -3.7020 H   0  0  0  0  0  0  0  0  0  0  0  0
    5.6418    4.6137   -2.5412 H   0  0  0  0  0  0  0  0  0  0  0  0
    4.4351    5.1970   -0.4545 H   0  0  0  0  0  0  0  0  0  0  0  0
    2.7485    3.6489    0.4810 H   0  0  0  0  0  0  0  0  0  0  0  0
  1  2  1  0
  2  3  1  0
  3  4  1  0
  4  5  2  0
  4  6  1  0
  7  6  1  1
  7  8  1  0
  8  9  1  0
  9 10  1  0
 10 11  1  0
 11 12  1  0
 12 13  1  0
 13 14  1  0
 13 15  1  0
 11 16  1  0
  3 17  2  0
 17 18  1  0
 18 19  1  0
 19 20  1  0
 20 21  1  0
 21 22  1  0
 22 23  1  0
 18 24  1  0
 24 25  1  0
 25 26  2  0
 26 27  1  0
 27 28  2  0
 28 29  1  0
 29 30  2  0
 24  2  2  0
 30 25  1  0
 15  7  1  0
 16  7  1  0
 14  9  1  0
  1 31  1  0
  1 32  1  0
  1 33  1  0
  6 34  1  0
  8 35  1  0
  8 36  1  0
  9 37  1  1
 10 38  1  0
 10 39  1  0
 11 40  1  6
 12 41  1  0
 12 42  1  0
 13 43  1  6
 14 44  1  0
 14 45  1  0
 15 46  1  0
 15 47  1  0
 16 48  1  0
 16 49  1  0
 19 50  1  0
 19 51  1  0
 20 52  1  0
 20 53  1  0
 21 54  1  0
 21 55  1  0
 22 56  1  0
 22 57  1  0
 23 58  1  0
 23 59  1  0
 23 60  1  0
 26 61  1  0
 27 62  1  0
 28 63  1  0
 29 64  1  0
 30 65  1  0
M  CHG  1  23   1
M  END
>  <_SMILES>  (3) 
Cc1c(C(=O)N[C@]23C[C@H]4C[C@H](C[C@H](C4)C2)C3)nn(CCCC[NH3+])c1-c1ccccc1

$$$$

     RDKit          3D

 60 64  0  0  0  0  0  0  0  0999 V2000
   -1.5151    3.1628   -0.7937 C   0  0  0  0  0  0  0  0  0  0  0  0
   -1.6781    1.7552   -0.3466 C   0  0  0  0  0  0  0  0  0  0  0  0
   -0.6345    0.8165   -0.0855 C   0  0  0  0  0  0  0  0  0  0  0  0
    0.8238    1.0283   -0.1947 C   0  0  0  0  0  0  0  0  0  0  0  0
    1.3213    2.0951   -0.5375 O   0  0  0  0  0  0  0  0  0  0  0  0
    1.5462   -0.0991    0.1318 N   0  0  0  0  0  0  0  0  0  0  0  0
    2.9996   -0.2230    0.1374 C   0  0  2  0  0  0  0  0  0  0  0  0
    3.5992    0.0249   -1.2689 C   0  0  0  0  0  0  0  0  0  0  0  0
    5.1270   -0.1588   -1.2460 C   0  0  1  0  0  0  0  0  0  0  0  0
    5.7407    0.8311   -0.2412 C   0  0  0  0  0  0  0  0  0  0  0  0
    5.1791    0.5722    1.1673 C   0  0  2  0  0  0  0  0  0  0  0  0
    5.5114   -0.8679    1.5887 C   0  0  0  0  0  0  0  0  0  0  0  0
    4.8937   -1.8619    0.5927 C   0  0  2  0  0  0  0  0  0  0  0  0
    5.4597   -1.5946   -0.8107 C   0  0  0  0  0  0  0  0  0  0  0  0
    3.3692   -1.6678    0.5668 C   0  0  0  0  0  0  0  0  0  0  0  0
    3.6513    0.7561    1.1450 C   0  0  0  0  0  0  0  0  0  0  0  0
   -1.1363   -0.3753    0.3014 N   0  0  0  0  0  0  0  0  0  0  0  0
   -2.4714   -0.1928    0.2874 N   0  0  0  0  0  0  0  0  0  0  0  0
   -3.3243   -1.3033    0.6787 C   0  0  0  0  0  0  0  0  0  0  0  0
   -3.5499   -2.2787   -0.4693 C   0  0  0  0  0  0  0  0  0  0  0  0
   -4.4252   -3.4425   -0.0348 C   0  0  0  0  0  0  0  0  0  0  0  0
   -4.6528   -4.3114   -1.1353 O   0  0  0  0  0  0  0  0  0  0  0  0
   -2.8559    1.0675   -0.0969 C   0  0  0  0  0  0  0  0  0  0  0  0
   -4.2406    1.5115   -0.1886 C   0  0  0  0  0  0  0  0  0  0  0  0
   -5.0038    1.2180   -1.3237 C   0  0  0  0  0  0  0  0  0  0  0  0
   -6.3332    1.6364   -1.4034 C   0  0  0  0  0  0  0  0  0  0  0  0
   -6.9031    2.3539   -0.3523 C   0  0  0  0  0  0  0  0  0  0  0  0
   -6.1445    2.6575    0.7776 C   0  0  0  0  0  0  0  0  0  0  0  0
   -4.8152    2.2391    0.8592 C   0  0  0  0  0  0  0  0  0  0  0  0
   -0.9670    3.2024   -1.7405 H   0  0  0  0  0  0  0  0  0  0  0  0
   -2.4793    3.6563   -0.9484 H   0  0  0  0  0  0  0  0  0  0  0  0
   -0.9615    3.7390   -0.0454 H   0  0  0  0  0  0  0  0  0  0  0  0
    0.9650   -0.8897    0.4026 H   0  0  0  0  0  0  0  0  0  0  0  0
    3.3663    1.0369   -1.6208 H   0  0  0  0  0  0  0  0  0  0  0  0
    3.1511   -0.6639   -1.9971 H   0  0  0  0  0  0  0  0  0  0  0  0
    5.5358    0.0280   -2.2453 H   0  0  0  0  0  0  0  0  0  0  0  0
    5.5218    1.8611   -0.5485 H   0  0  0  0  0  0  0  0  0  0  0  0
    6.8326    0.7266   -0.2331 H   0  0  0  0  0  0  0  0  0  0  0  0
    5.6249    1.2769    1.8781 H   0  0  0  0  0  0  0  0  0  0  0  0
    5.1282   -1.0610    2.5982 H   0  0  0  0  0  0  0  0  0  0  0  0
    6.5990   -1.0050    1.6293 H   0  0  0  0  0  0  0  0  0  0  0  0
    5.1311   -2.8871    0.8981 H   0  0  0  0  0  0  0  0  0  0  0  0
    6.5464   -1.7443   -0.8114 H   0  0  0  0  0  0  0  0  0  0  0  0
    5.0393   -2.3107   -1.5275 H   0  0  0  0  0  0  0  0  0  0  0  0
    2.9518   -1.8850    1.5592 H   0  0  0  0  0  0  0  0  0  0  0  0
    2.9154   -2.3937   -0.1212 H   0  0  0  0  0  0  0  0  0  0  0  0
    3.2408    0.5923    2.1500 H   0  0  0  0  0  0  0  0  0  0  0  0
    3.4199    1.7959    0.8852 H   0  0  0  0  0  0  0  0  0  0  0  0
   -4.2727   -0.9002    1.0480 H   0  0  0  0  0  0  0  0  0  0  0  0
   -2.8343   -1.8015    1.5241 H   0  0  0  0  0  0  0  0  0  0  0  0
   -2.5919   -2.6611   -0.8442 H   0  0  0  0  0  0  0  0  0  0  0  0
   -4.0133   -1.7707   -1.3240 H   0  0  0  0  0  0  0  0  0  0  0  0
   -3.9563   -4.0169    0.7707 H   0  0  0  0  0  0  0  0  0  0  0  0
   -5.3982   -3.0877    0.3190 H   0  0  0  0  0  0  0  0  0  0  0  0
   -3.7902   -4.6522   -1.4294 H   0  0  0  0  0  0  0  0  0  0  0  0
   -4.5665    0.6691   -2.1545 H   0  0  0  0  0  0  0  0  0  0  0  0
   -6.9224    1.4069   -2.2877 H   0  0  0  0  0  0  0  0  0  0  0  0
   -7.9375    2.6822   -0.4168 H   0  0  0  0  0  0  0  0  0  0  0  0
   -6.5867    3.2233    1.5936 H   0  0  0  0  0  0  0  0  0  0  0  0
   -4.2300    2.4850    1.7424 H   0  0  0  0  0  0  0  0  0  0  0  0
  1  2  1  0
  2  3  1  0
  3  4  1  0
  4  5  2  0
  4  6  1  0
  7  6  1  6
  7  8  1  0
  8  9  1  0
  9 10  1  0
 10 11  1  0
 11 12  1  0
 12 13  1  0
 13 14  1  0
 13 15  1  0
 11 16  1  0
  3 17  2  0
 17 18  1  0
 18 19  1  0
 19 20  1  0
 20 21  1  0
 21 22  1  0
 18 23  1  0
 23 24  1  0
 24 25  2  0
 25 26  1  0
 26 27  2  0
 27 28  1  0
 28 29  2  0
 23  2  2  0
 29 24  1  0
 15  7  1  0
 16  7  1  0
 14  9  1  0
  1 30  1  0
  1 31  1  0
  1 32  1  0
  6 33  1  0
  8 34  1  0
  8 35  1  0
  9 36  1  6
 10 37  1  0
 10 38  1  0
 11 39  1  1
 12 40  1  0
 12 41  1  0
 13 42  1  1
 14 43  1  0
 14 44  1  0
 15 45  1  0
 15 46  1  0
 16 47  1  0
 16 48  1  0
 19 49  1  0
 19 50  1  0
 20 51  1  0
 20 52  1  0
 21 53  1  0
 21 54  1  0
 22 55  1  0
 25 56  1  0
 26 57  1  0
 27 58  1  0
 28 59  1  0
 29 60  1  0
M  END
>  <_SMILES>  (4) 
Cc1c(C(=O)N[C@]23C[C@H]4C[C@H](C[C@H](C4)C2)C3)nn(CCCO)c1-c1ccccc1

$$$$

     RDKit          3D

 63 67  0  0  0  0  0  0  0  0999 V2000
    1.2324    2.3256   -2.4472 C   0  0  0  0  0  0  0  0  0  0  0  0
    1.3611    1.4431   -1.2587 C   0  0  0  0  0  0  0  0  0  0  0  0
    0.3059    0.7452   -0.5980 C   0  0  0  0  0  0  0  0  0  0  0  0
   -1.1310    0.7361   -0.9414 C   0  0  0  0  0  0  0  0  0  0  0  0
   -1.5970    1.3557   -1.8915 O   0  0  0  0  0  0  0  0  0  0  0  0
   -1.8735   -0.0420   -0.0795 N   0  0  0  0  0  0  0  0  0  0  0  0
   -3.3144   -0.2603   -0.1340 C   0  0  2  0  0  0  0  0  0  0  0  0
   -3.7143   -1.2035    1.0317 C   0  0  0  0  0  0  0  0  0  0  0  0
   -5.2275   -1.4727    1.0282 C   0  0  1  0  0  0  0  0  0  0  0  0
   -5.9769   -0.1397    1.1804 C   0  0  0  0  0  0  0  0  0  0  0  0
   -5.6149    0.8013    0.0205 C   0  0  2  0  0  0  0  0  0  0  0  0
   -6.0020    0.1368   -1.3117 C   0  0  0  0  0  0  0  0  0  0  0  0
   -5.2556   -1.1984   -1.4739 C   0  0  2  0  0  0  0  0  0  0  0  0
   -5.6198   -2.1279   -0.3054 C   0  0  0  0  0  0  0  0  0  0  0  0
   -3.7393   -0.9356   -1.4615 C   0  0  0  0  0  0  0  0  0  0  0  0
   -4.0987    1.0646    0.0333 C   0  0  0  0  0  0  0  0  0  0  0  0
    0.7722    0.0339    0.4492 N   0  0  0  0  0  0  0  0  0  0  0  0
    2.0981    0.2787    0.4538 N   0  0  0  0  0  0  0  0  0  0  0  0
    2.9208   -0.3756    1.4625 C   0  0  0  0  0  0  0  0  0  0  0  0
    3.5108   -1.6887    0.9505 C   0  0  0  0  0  0  0  0  0  0  0  0
    4.1881   -2.5364    2.0335 C   0  0  0  0  0  0  0  0  0  0  0  0
    5.3632   -1.8459    2.7151 C   0  0  0  0  0  0  0  0  0  0  0  0
    4.8981   -0.8650    3.6312 O   0  0  0  0  0  0  0  0  0  0  0  0
    2.5103    1.1189   -0.5527 C   0  0  0  0  0  0  0  0  0  0  0  0
    3.8955    1.5132   -0.7828 C   0  0  0  0  0  0  0  0  0  0  0  0
    4.5117    2.4611    0.0414 C   0  0  0  0  0  0  0  0  0  0  0  0
    5.8392    2.8310   -0.1822 C   0  0  0  0  0  0  0  0  0  0  0  0
    6.5549    2.2608   -1.2342 C   0  0  0  0  0  0  0  0  0  0  0  0
    5.9441    1.3232   -2.0658 C   0  0  0  0  0  0  0  0  0  0  0  0
    4.6171    0.9518   -1.8425 C   0  0  0  0  0  0  0  0  0  0  0  0
    2.1855    2.7907   -2.7163 H   0  0  0  0  0  0  0  0  0  0  0  0
    0.8835    1.7518   -3.3117 H   0  0  0  0  0  0  0  0  0  0  0  0
    0.5170    3.1308   -2.2509 H   0  0  0  0  0  0  0  0  0  0  0  0
   -1.3168   -0.4792    0.6525 H   0  0  0  0  0  0  0  0  0  0  0  0
   -3.4194   -0.7615    1.9929 H   0  0  0  0  0  0  0  0  0  0  0  0
   -3.1692   -2.1537    0.9523 H   0  0  0  0  0  0  0  0  0  0  0  0
   -5.4868   -2.1395    1.8581 H   0  0  0  0  0  0  0  0  0  0  0  0
   -5.7185    0.3288    2.1379 H   0  0  0  0  0  0  0  0  0  0  0  0
   -7.0592   -0.3177    1.1948 H   0  0  0  0  0  0  0  0  0  0  0  0
   -6.1545    1.7484    0.1315 H   0  0  0  0  0  0  0  0  0  0  0  0
   -5.7610    0.8048   -2.1477 H   0  0  0  0  0  0  0  0  0  0  0  0
   -7.0851   -0.0343   -1.3430 H   0  0  0  0  0  0  0  0  0  0  0  0
   -5.5407   -1.6683   -2.4218 H   0  0  0  0  0  0  0  0  0  0  0  0
   -6.6959   -2.3401   -0.3165 H   0  0  0  0  0  0  0  0  0  0  0  0
   -5.1044   -3.0898   -0.4168 H   0  0  0  0  0  0  0  0  0  0  0  0
   -3.4785   -0.3070   -2.3212 H   0  0  0  0  0  0  0  0  0  0  0  0
   -3.1955   -1.8799   -1.5957 H   0  0  0  0  0  0  0  0  0  0  0  0
   -3.8129    1.5565    0.9723 H   0  0  0  0  0  0  0  0  0  0  0  0
   -3.8513    1.7694   -0.7695 H   0  0  0  0  0  0  0  0  0  0  0  0
    2.2813   -0.5499    2.3361 H   0  0  0  0  0  0  0  0  0  0  0  0
    3.6990    0.3317    1.7603 H   0  0  0  0  0  0  0  0  0  0  0  0
    4.2318   -1.4831    0.1499 H   0  0  0  0  0  0  0  0  0  0  0  0
    2.7162   -2.2933    0.4941 H   0  0  0  0  0  0  0  0  0  0  0  0
    4.5497   -3.4575    1.5612 H   0  0  0  0  0  0  0  0  0  0  0  0
    3.4393   -2.8230    2.7816 H   0  0  0  0  0  0  0  0  0  0  0  0
    6.0156   -1.3587    1.9838 H   0  0  0  0  0  0  0  0  0  0  0  0
    5.9632   -2.5719    3.2734 H   0  0  0  0  0  0  0  0  0  0  0  0
    4.4993   -1.3357    4.3842 H   0  0  0  0  0  0  0  0  0  0  0  0
    3.9610    2.9188    0.8600 H   0  0  0  0  0  0  0  0  0  0  0  0
    6.3130    3.5663    0.4630 H   0  0  0  0  0  0  0  0  0  0  0  0
    7.5877    2.5515   -1.4089 H   0  0  0  0  0  0  0  0  0  0  0  0
    6.4994    0.8834   -2.8900 H   0  0  0  0  0  0  0  0  0  0  0  0
    4.1482    0.2219   -2.4985 H   0  0  0  0  0  0  0  0  0  0  0  0
  1  2  1  0
  2  3  1  0
  3  4  1  0
  4  5  2  0
  4  6  1  0
  7  6  1  6
  7  8  1  0
  8  9  1  0
  9 10  1  0
 10 11  1  0
 11 12  1  0
 12 13  1  0
 13 14  1  0
 13 15  1  0
 11 16  1  0
  3 17  2  0
 17 18  1  0
 18 19  1  0
 19 20  1  0
 20 21  1  0
 21 22  1  0
 22 23  1  0
 18 24  1  0
 24 25  1  0
 25 26  2  0
 26 27  1  0
 27 28  2  0
 28 29  1  0
 29 30  2  0
 24  2  2  0
 30 25  1  0
 15  7  1  0
 16  7  1  0
 14  9  1  0
  1 31  1  0
  1 32  1  0
  1 33  1  0
  6 34  1  0
  8 35  1  0
  8 36  1  0
  9 37  1  1
 10 38  1  0
 10 39  1  0
 11 40  1  1
 12 41  1  0
 12 42  1  0
 13 43  1  6
 14 44  1  0
 14 45  1  0
 15 46  1  0
 15 47  1  0
 16 48  1  0
 16 49  1  0
 19 50  1  0
 19 51  1  0
 20 52  1  0
 20 53  1  0
 21 54  1  0
 21 55  1  0
 22 56  1  0
 22 57  1  0
 23 58  1  0
 26 59  1  0
 27 60  1  0
 28 61  1  0
 29 62  1  0
 30 63  1  0
M  END
>  <_SMILES>  (5) 
Cc1c(C(=O)N[C@]23C[C@H]4C[C@H](C[C@H](C4)C2)C3)nn(CCCCO)c1-c1ccccc1

$$$$

     RDKit          3D

 57 62  0  0  0  0  0  0  0  0999 V2000
    1.9738    2.8856   -0.1319 C   0  0  0  0  0  0  0  0  0  0  0  0
    2.0064    1.4027   -0.2231 C   0  0  0  0  0  0  0  0  0  0  0  0
    0.8884    0.5169   -0.1232 C   0  0  0  0  0  0  0  0  0  0  0  0
   -0.5288    0.8669    0.1015 C   0  0  0  0  0  0  0  0  0  0  0  0
   -0.9162    2.0210    0.2457 O   0  0  0  0  0  0  0  0  0  0  0  0
   -1.3478   -0.2408    0.1315 N   0  0  0  0  0  0  0  0  0  0  0  0
   -2.7919   -0.2427    0.3391 C   0  0  2  0  0  0  0  0  0  0  0  0
   -3.5289    0.5481   -0.7700 C   0  0  0  0  0  0  0  0  0  0  0  0
   -5.0516    0.4906   -0.5549 C   0  0  1  0  0  0  0  0  0  0  0  0
   -5.5158   -0.9738   -0.5976 C   0  0  0  0  0  0  0  0  0  0  0  0
   -4.8148   -1.7789    0.5079 C   0  0  2  0  0  0  0  0  0  0  0  0
   -5.1594   -1.1712    1.8767 C   0  0  0  0  0  0  0  0  0  0  0  0
   -4.6931    0.2921    1.9336 C   0  0  2  0  0  0  0  0  0  0  0  0
   -5.3915    1.0908    0.8199 C   0  0  0  0  0  0  0  0  0  0  0  0
   -3.1703    0.3495    1.7192 C   0  0  0  0  0  0  0  0  0  0  0  0
   -3.2943   -1.7103    0.2943 C   0  0  0  0  0  0  0  0  0  0  0  0
    1.2686   -0.7692   -0.2657 N   0  0  0  0  0  0  0  0  0  0  0  0
    2.5984   -0.6975   -0.4257 N   0  0  0  0  0  0  0  0  0  0  0  0
    3.4068   -1.9303   -0.5950 C   0  0  0  0  0  0  0  0  0  0  0  0
    3.1592   -3.1736    0.2293 C   0  0  0  0  0  0  0  0  0  0  0  0
    4.4152   -2.3822    0.4361 C   0  0  0  0  0  0  0  0  0  0  0  0
    3.1039    0.5786   -0.4322 C   0  0  0  0  0  0  0  0  0  0  0  0
    4.5148    0.9059   -0.6026 C   0  0  0  0  0  0  0  0  0  0  0  0
    5.1397    0.7386   -1.8440 C   0  0  0  0  0  0  0  0  0  0  0  0
    6.4912    1.0526   -2.0002 C   0  0  0  0  0  0  0  0  0  0  0  0
    7.2242    1.5389   -0.9187 C   0  0  0  0  0  0  0  0  0  0  0  0
    6.6071    1.7153    0.3189 C   0  0  0  0  0  0  0  0  0  0  0  0
    5.2558    1.4022    0.4764 C   0  0  0  0  0  0  0  0  0  0  0  0
    2.9552    3.3287   -0.3259 H   0  0  0  0  0  0  0  0  0  0  0  0
    1.6557    3.1984    0.8677 H   0  0  0  0  0  0  0  0  0  0  0  0
    1.2755    3.2997   -0.8662 H   0  0  0  0  0  0  0  0  0  0  0  0
   -0.8519   -1.1202   -0.0017 H   0  0  0  0  0  0  0  0  0  0  0  0
   -3.2088    1.5968   -0.7812 H   0  0  0  0  0  0  0  0  0  0  0  0
   -3.2753    0.1394   -1.7570 H   0  0  0  0  0  0  0  0  0  0  0  0
   -5.5570    1.0610   -1.3423 H   0  0  0  0  0  0  0  0  0  0  0  0
   -6.6037   -1.0262   -0.4669 H   0  0  0  0  0  0  0  0  0  0  0  0
   -5.2917   -1.4098   -1.5788 H   0  0  0  0  0  0  0  0  0  0  0  0
   -5.1469   -2.8224    0.4725 H   0  0  0  0  0  0  0  0  0  0  0  0
   -4.6788   -1.7492    2.6755 H   0  0  0  0  0  0  0  0  0  0  0  0
   -6.2411   -1.2270    2.0499 H   0  0  0  0  0  0  0  0  0  0  0  0
   -4.9445    0.7218    2.9098 H   0  0  0  0  0  0  0  0  0  0  0  0
   -5.0773    2.1411    0.8584 H   0  0  0  0  0  0  0  0  0  0  0  0
   -6.4774    1.0776    0.9753 H   0  0  0  0  0  0  0  0  0  0  0  0
   -2.8364    1.3906    1.8028 H   0  0  0  0  0  0  0  0  0  0  0  0
   -2.6594   -0.2018    2.5195 H   0  0  0  0  0  0  0  0  0  0  0  0
   -3.0350   -2.1687   -0.6695 H   0  0  0  0  0  0  0  0  0  0  0  0
   -2.7854   -2.3071    1.0632 H   0  0  0  0  0  0  0  0  0  0  0  0
    3.6593   -2.0943   -1.6378 H   0  0  0  0  0  0  0  0  0  0  0  0
    2.3988   -3.1333    1.0015 H   0  0  0  0  0  0  0  0  0  0  0  0
    3.2333   -4.1322   -0.2701 H   0  0  0  0  0  0  0  0  0  0  0  0
    4.5075   -1.8125    1.3540 H   0  0  0  0  0  0  0  0  0  0  0  0
    5.3496   -2.7972    0.0768 H   0  0  0  0  0  0  0  0  0  0  0  0
    4.5775    0.3710   -2.6992 H   0  0  0  0  0  0  0  0  0  0  0  0
    6.9707    0.9219   -2.9669 H   0  0  0  0  0  0  0  0  0  0  0  0
    8.2760    1.7849   -1.0414 H   0  0  0  0  0  0  0  0  0  0  0  0
    7.1772    2.0984    1.1614 H   0  0  0  0  0  0  0  0  0  0  0  0
    4.7852    1.5443    1.4467 H   0  0  0  0  0  0  0  0  0  0  0  0
  1  2  1  0
  2  3  1  0
  3  4  1  0
  4  5  2  0
  4  6  1  0
  7  6  1  6
  7  8  1  0
  8  9  1  0
  9 10  1  0
 10 11  1  0
 11 12  1  0
 12 13  1  0
 13 14  1  0
 13 15  1  0
 11 16  1  0
  3 17  2  0
 17 18  1  0
 18 19  1  0
 19 20  1  0
 20 21  1  0
 18 22  1  0
 22 23  1  0
 23 24  2  0
 24 25  1  0
 25 26  2  0
 26 27  1  0
 27 28  2  0
 22  2  2  0
 28 23  1  0
 15  7  1  0
 21 19  1  0
 16  7  1  0
 14  9  1  0
  1 29  1  0
  1 30  1  0
  1 31  1  0
  6 32  1  0
  8 33  1  0
  8 34  1  0
  9 35  1  6
 10 36  1  0
 10 37  1  0
 11 38  1  1
 12 39  1  0
 12 40  1  0
 13 41  1  1
 14 42  1  0
 14 43  1  0
 15 44  1  0
 15 45  1  0
 16 46  1  0
 16 47  1  0
 19 48  1  0
 20 49  1  0
 20 50  1  0
 21 51  1  0
 21 52  1  0
 24 53  1  0
 25 54  1  0
 26 55  1  0
 27 56  1  0
 28 57  1  0
M  END
>  <_SMILES>  (6) 
Cc1c(C(=O)N[C@]23C[C@H]4C[C@H](C[C@H](C4)C2)C3)nn(C2CC2)c1-c1ccccc1

$$$$

     RDKit          3D

 57 61  0  0  0  0  0  0  0  0999 V2000
    1.3212   -1.9416   -0.2786 C   0  0  0  0  0  0  0  0  0  0  0  0
    1.7679   -0.5464   -0.5307 C   0  0  0  0  0  0  0  0  0  0  0  0
    0.9696    0.5694   -0.9475 C   0  0  0  0  0  0  0  0  0  0  0  0
   -0.4893    0.6206   -1.1813 C   0  0  0  0  0  0  0  0  0  0  0  0
   -0.9946    1.2526   -2.1034 O   0  0  0  0  0  0  0  0  0  0  0  0
   -1.2281   -0.0833   -0.2437 N   0  0  0  0  0  0  0  0  0  0  0  0
   -2.6915   -0.1068   -0.1836 C   0  0  2  0  0  0  0  0  0  0  0  0
   -3.3180   -0.6764   -1.4819 C   0  0  0  0  0  0  0  0  0  0  0  0
   -4.8513   -0.7376   -1.3624 C   0  0  1  0  0  0  0  0  0  0  0  0
   -5.2339   -1.6531   -0.1895 C   0  0  0  0  0  0  0  0  0  0  0  0
   -4.6423   -1.1040    1.1176 C   0  0  2  0  0  0  0  0  0  0  0  0
   -5.1904    0.3093    1.3708 C   0  0  0  0  0  0  0  0  0  0  0  0
   -4.8085    1.2371    0.2066 C   0  0  2  0  0  0  0  0  0  0  0  0
   -5.3949    0.6775   -1.1008 C   0  0  0  0  0  0  0  0  0  0  0  0
   -3.2754    1.3011    0.0886 C   0  0  0  0  0  0  0  0  0  0  0  0
   -3.1125   -1.0355    0.9883 C   0  0  0  0  0  0  0  0  0  0  0  0
    1.7320    1.6640   -1.1094 N   0  0  0  0  0  0  0  0  0  0  0  0
    2.9817    1.2628   -0.8227 N   0  0  0  0  0  0  0  0  0  0  0  0
    4.0597    2.2254   -0.9406 C   0  0  0  0  0  0  0  0  0  0  0  0
    4.0537    3.2227    0.2070 C   0  0  0  0  0  0  0  0  0  0  0  0
    5.1993    4.0676    0.1207 O   0  0  0  0  0  0  0  0  0  0  0  0
    3.0600   -0.0504   -0.4311 C   0  0  0  0  0  0  0  0  0  0  0  0
    4.2937   -0.7188   -0.0395 C   0  0  0  0  0  0  0  0  0  0  0  0
    4.7513   -0.6364    1.2799 C   0  0  0  0  0  0  0  0  0  0  0  0
    5.9356   -1.2745    1.6528 C   0  0  0  0  0  0  0  0  0  0  0  0
    6.6644   -1.9992    0.7104 C   0  0  0  0  0  0  0  0  0  0  0  0
    6.2100   -2.0891   -0.6048 C   0  0  0  0  0  0  0  0  0  0  0  0
    5.0262   -1.4517   -0.9797 C   0  0  0  0  0  0  0  0  0  0  0  0
    2.1370   -2.6569   -0.4222 H   0  0  0  0  0  0  0  0  0  0  0  0
    0.9572   -2.0438    0.7485 H   0  0  0  0  0  0  0  0  0  0  0  0
    0.5168   -2.2268   -0.9640 H   0  0  0  0  0  0  0  0  0  0  0  0
   -0.7288   -0.3364    0.5981 H   0  0  0  0  0  0  0  0  0  0  0  0
   -2.9181   -1.6785   -1.6853 H   0  0  0  0  0  0  0  0  0  0  0  0
   -3.0572   -0.0609   -2.3501 H   0  0  0  0  0  0  0  0  0  0  0  0
   -5.2779   -1.1313   -2.2918 H   0  0  0  0  0  0  0  0  0  0  0  0
   -6.3257   -1.7214   -0.1075 H   0  0  0  0  0  0  0  0  0  0  0  0
   -4.8640   -2.6697   -0.3710 H   0  0  0  0  0  0  0  0  0  0  0  0
   -4.9144   -1.7609    1.9513 H   0  0  0  0  0  0  0  0  0  0  0  0
   -6.2814    0.2741    1.4798 H   0  0  0  0  0  0  0  0  0  0  0  0
   -4.7891    0.7043    2.3122 H   0  0  0  0  0  0  0  0  0  0  0  0
   -5.2062    2.2416    0.3897 H   0  0  0  0  0  0  0  0  0  0  0  0
   -5.1399    1.3379   -1.9388 H   0  0  0  0  0  0  0  0  0  0  0  0
   -6.4897    0.6513   -1.0381 H   0  0  0  0  0  0  0  0  0  0  0  0
   -3.0064    1.9978   -0.7142 H   0  0  0  0  0  0  0  0  0  0  0  0
   -2.8470    1.7155    1.0107 H   0  0  0  0  0  0  0  0  0  0  0  0
   -2.7072   -2.0446    0.8340 H   0  0  0  0  0  0  0  0  0  0  0  0
   -2.6799   -0.6737    1.9308 H   0  0  0  0  0  0  0  0  0  0  0  0
    3.9450    2.7401   -1.9021 H   0  0  0  0  0  0  0  0  0  0  0  0
    5.0165    1.6961   -0.9912 H   0  0  0  0  0  0  0  0  0  0  0  0
    4.0810    2.7102    1.1745 H   0  0  0  0  0  0  0  0  0  0  0  0
    3.1567    3.8504    0.1755 H   0  0  0  0  0  0  0  0  0  0  0  0
    5.1048    4.7447    0.8134 H   0  0  0  0  0  0  0  0  0  0  0  0
    4.1887   -0.0783    2.0242 H   0  0  0  0  0  0  0  0  0  0  0  0
    6.2897   -1.2072    2.6783 H   0  0  0  0  0  0  0  0  0  0  0  0
    7.5871   -2.4953    1.0011 H   0  0  0  0  0  0  0  0  0  0  0  0
    6.7775   -2.6552   -1.3391 H   0  0  0  0  0  0  0  0  0  0  0  0
    4.6794   -1.5280   -2.0078 H   0  0  0  0  0  0  0  0  0  0  0  0
  1  2  1  0
  2  3  1  0
  3  4  1  0
  4  5  2  0
  4  6  1  0
  7  6  1  6
  7  8  1  0
  8  9  1  0
  9 10  1  0
 10 11  1  0
 11 12  1  0
 12 13  1  0
 13 14  1  0
 13 15  1  0
 11 16  1  0
  3 17  2  0
 17 18  1  0
 18 19  1  0
 19 20  1  0
 20 21  1  0
 18 22  1  0
 22 23  1  0
 23 24  2  0
 24 25  1  0
 25 26  2  0
 26 27  1  0
 27 28  2  0
 22  2  2  0
 28 23  1  0
 15  7  1  0
 16  7  1  0
 14  9  1  0
  1 29  1  0
  1 30  1  0
  1 31  1  0
  6 32  1  0
  8 33  1  0
  8 34  1  0
  9 35  1  6
 10 36  1  0
 10 37  1  0
 11 38  1  1
 12 39  1  0
 12 40  1  0
 13 41  1  1
 14 42  1  0
 14 43  1  0
 15 44  1  0
 15 45  1  0
 16 46  1  0
 16 47  1  0
 19 48  1  0
 19 49  1  0
 20 50  1  0
 20 51  1  0
 21 52  1  0
 24 53  1  0
 25 54  1  0
 26 55  1  0
 27 56  1  0
 28 57  1  0
M  END
>  <_SMILES>  (7) 
Cc1c(C(=O)N[C@]23C[C@H]4C[C@H](C[C@H](C4)C2)C3)nn(CCO)c1-c1ccccc1

$$$$

     RDKit          3D

 50 54  0  0  0  0  0  0  0  0999 V2000
    2.0840   -0.8002    0.8968 C   0  0  0  0  0  0  0  0  0  0  0  0
    2.3495    0.4655    0.1640 C   0  0  0  0  0  0  0  0  0  0  0  0
    1.4028    1.4883   -0.1849 C   0  0  0  0  0  0  0  0  0  0  0  0
   -0.0580    1.4999    0.0403 C   0  0  0  0  0  0  0  0  0  0  0  0
   -0.6683    2.4990    0.4064 O   0  0  0  0  0  0  0  0  0  0  0  0
   -0.6691    0.2858   -0.2299 N   0  0  0  0  0  0  0  0  0  0  0  0
   -2.1153    0.0562   -0.1950 C   0  0  2  0  0  0  0  0  0  0  0  0
   -2.3758   -1.4386   -0.5276 C   0  0  0  0  0  0  0  0  0  0  0  0
   -3.8799   -1.7537   -0.5164 C   0  0  1  0  0  0  0  0  0  0  0  0
   -4.4479   -1.4481    0.8779 C   0  0  0  0  0  0  0  0  0  0  0  0
   -4.2238    0.0325    1.2213 C   0  0  2  0  0  0  0  0  0  0  0  0
   -4.9264    0.9097    0.1710 C   0  0  0  0  0  0  0  0  0  0  0  0
   -4.3650    0.6115   -1.2298 C   0  0  2  0  0  0  0  0  0  0  0  0
   -4.5870   -0.8733   -1.5588 C   0  0  0  0  0  0  0  0  0  0  0  0
   -2.8566    0.9166   -1.2473 C   0  0  0  0  0  0  0  0  0  0  0  0
   -2.7151    0.3363    1.2066 C   0  0  0  0  0  0  0  0  0  0  0  0
    2.0173    2.5179   -0.7924 N   0  0  0  0  0  0  0  0  0  0  0  0
    3.3059    2.1646   -0.8319 N   0  0  0  0  0  0  0  0  0  0  0  0
    3.5729    0.9376   -0.2885 C   0  0  0  0  0  0  0  0  0  0  0  0
    4.9167    0.3717   -0.2557 C   0  0  0  0  0  0  0  0  0  0  0  0
    5.1520   -0.9231   -0.7344 C   0  0  0  0  0  0  0  0  0  0  0  0
    6.4395   -1.4643   -0.7123 C   0  0  0  0  0  0  0  0  0  0  0  0
    7.5022   -0.7161   -0.2098 C   0  0  0  0  0  0  0  0  0  0  0  0
    7.2791    0.5724    0.2717 C   0  0  0  0  0  0  0  0  0  0  0  0
    5.9920    1.1150    0.2486 C   0  0  0  0  0  0  0  0  0  0  0  0
    1.8072   -1.5941    0.1961 H   0  0  0  0  0  0  0  0  0  0  0  0
    1.2715   -0.6750    1.6195 H   0  0  0  0  0  0  0  0  0  0  0  0
    2.9652   -1.1287    1.4570 H   0  0  0  0  0  0  0  0  0  0  0  0
   -0.1120   -0.3661   -0.7659 H   0  0  0  0  0  0  0  0  0  0  0  0
   -1.8561   -2.0818    0.1953 H   0  0  0  0  0  0  0  0  0  0  0  0
   -1.9561   -1.6849   -1.5123 H   0  0  0  0  0  0  0  0  0  0  0  0
   -4.0386   -2.8109   -0.7567 H   0  0  0  0  0  0  0  0  0  0  0  0
   -5.5193   -1.6818    0.9059 H   0  0  0  0  0  0  0  0  0  0  0  0
   -3.9634   -2.0847    1.6283 H   0  0  0  0  0  0  0  0  0  0  0  0
   -4.6332    0.2465    2.2150 H   0  0  0  0  0  0  0  0  0  0  0  0
   -6.0068    0.7203    0.1884 H   0  0  0  0  0  0  0  0  0  0  0  0
   -4.7854    1.9702    0.4133 H   0  0  0  0  0  0  0  0  0  0  0  0
   -4.8755    1.2344   -1.9728 H   0  0  0  0  0  0  0  0  0  0  0  0
   -5.6607   -1.0976   -1.5724 H   0  0  0  0  0  0  0  0  0  0  0  0
   -4.2025   -1.0966   -2.5616 H   0  0  0  0  0  0  0  0  0  0  0  0
   -2.7047    1.9854   -1.0555 H   0  0  0  0  0  0  0  0  0  0  0  0
   -2.4483    0.7235   -2.2480 H   0  0  0  0  0  0  0  0  0  0  0  0
   -2.5639    1.3812    1.5000 H   0  0  0  0  0  0  0  0  0  0  0  0
   -2.2034   -0.2719    1.9640 H   0  0  0  0  0  0  0  0  0  0  0  0
    3.9645    2.8048   -1.2617 H   0  0  0  0  0  0  0  0  0  0  0  0
    4.3363   -1.5173   -1.1389 H   0  0  0  0  0  0  0  0  0  0  0  0
    6.6125   -2.4692   -1.0889 H   0  0  0  0  0  0  0  0  0  0  0  0
    8.5039   -1.1381   -0.1908 H   0  0  0  0  0  0  0  0  0  0  0  0
    8.1063    1.1539    0.6710 H   0  0  0  0  0  0  0  0  0  0  0  0
    5.8369    2.1151    0.6470 H   0  0  0  0  0  0  0  0  0  0  0  0
  1  2  1  0
  2  3  1  0
  3  4  1  0
  4  5  2  0
  4  6  1  0
  7  6  1  1
  7  8  1  0
  8  9  1  0
  9 10  1  0
 10 11  1  0
 11 12  1  0
 12 13  1  0
 13 14  1  0
 13 15  1  0
 11 16  1  0
  3 17  2  0
 17 18  1  0
 18 19  1  0
 19 20  1  0
 20 21  2  0
 21 22  1  0
 22 23  2  0
 23 24  1  0
 24 25  2  0
 19  2  2  0
 25 20  1  0
 15  7  1  0
 16  7  1  0
 14  9  1  0
  1 26  1  0
  1 27  1  0
  1 28  1  0
  6 29  1  0
  8 30  1  0
  8 31  1  0
  9 32  1  6
 10 33  1  0
 10 34  1  0
 11 35  1  1
 12 36  1  0
 12 37  1  0
 13 38  1  6
 14 39  1  0
 14 40  1  0
 15 41  1  0
 15 42  1  0
 16 43  1  0
 16 44  1  0
 18 45  1  0
 21 46  1  0
 22 47  1  0
 23 48  1  0
 24 49  1  0
 25 50  1  0
M  END
>  <_SMILES>  (8) 
Cc1c(C(=O)N[C@]23C[C@H]4C[C@H](C[C@H](C4)C2)C3)n[nH]c1-c1ccccc1

$$$$

     RDKit          3D

 50 54  0  0  0  0  0  0  0  0999 V2000
    2.9791   -0.9176   -1.5038 C   0  0  0  0  0  0  0  0  0  0  0  0
    2.7011   -0.2385   -0.2105 C   0  0  0  0  0  0  0  0  0  0  0  0
    3.6291    0.4148    0.6639 C   0  0  0  0  0  0  0  0  0  0  0  0
    5.0799    0.5502    0.5275 C   0  0  0  0  0  0  0  0  0  0  0  0
    5.6997    1.7774    0.8031 C   0  0  0  0  0  0  0  0  0  0  0  0
    7.0832    1.9198    0.6740 C   0  0  0  0  0  0  0  0  0  0  0  0
    7.8610    0.8343    0.2754 C   0  0  0  0  0  0  0  0  0  0  0  0
    7.2582   -0.3947    0.0122 C   0  0  0  0  0  0  0  0  0  0  0  0
    5.8739   -0.5378    0.1408 C   0  0  0  0  0  0  0  0  0  0  0  0
    2.9906    0.9572    1.7127 N   0  0  0  0  0  0  0  0  0  0  0  0
    1.7167    0.5879    1.5552 N   0  0  0  0  0  0  0  0  0  0  0  0
    1.4615   -0.0873    0.3974 C   0  0  0  0  0  0  0  0  0  0  0  0
    0.1624   -0.5682   -0.0065 C   0  0  0  0  0  0  0  0  0  0  0  0
    0.0112   -1.5685   -0.6968 O   0  0  0  0  0  0  0  0  0  0  0  0
   -0.8867    0.2173    0.4328 N   0  0  0  0  0  0  0  0  0  0  0  0
   -2.2943   -0.0180    0.0827 C   0  0  2  0  0  0  0  0  0  0  0  0
   -2.5369    0.1253   -1.4400 C   0  0  0  0  0  0  0  0  0  0  0  0
   -4.0281   -0.0638   -1.7701 C   0  0  1  0  0  0  0  0  0  0  0  0
   -4.4781   -1.4587   -1.3031 C   0  0  0  0  0  0  0  0  0  0  0  0
   -4.2783   -1.5992    0.2158 C   0  0  2  0  0  0  0  0  0  0  0  0
   -5.1007   -0.5209    0.9377 C   0  0  0  0  0  0  0  0  0  0  0  0
   -4.6480    0.8746    0.4822 C   0  0  2  0  0  0  0  0  0  0  0  0
   -4.8511    1.0062   -1.0354 C   0  0  0  0  0  0  0  0  0  0  0  0
   -3.1566    1.0516    0.8083 C   0  0  0  0  0  0  0  0  0  0  0  0
   -2.7875   -1.4117    0.5495 C   0  0  0  0  0  0  0  0  0  0  0  0
    3.1659   -1.9835   -1.3401 H   0  0  0  0  0  0  0  0  0  0  0  0
    3.8508   -0.4835   -2.0029 H   0  0  0  0  0  0  0  0  0  0  0  0
    2.1351   -0.8175   -2.1937 H   0  0  0  0  0  0  0  0  0  0  0  0
    5.1014    2.6283    1.1221 H   0  0  0  0  0  0  0  0  0  0  0  0
    7.5512    2.8766    0.8895 H   0  0  0  0  0  0  0  0  0  0  0  0
    8.9380    0.9440    0.1784 H   0  0  0  0  0  0  0  0  0  0  0  0
    7.8658   -1.2451   -0.2861 H   0  0  0  0  0  0  0  0  0  0  0  0
    5.4262   -1.5103   -0.0464 H   0  0  0  0  0  0  0  0  0  0  0  0
    1.0584    0.8227    2.2896 H   0  0  0  0  0  0  0  0  0  0  0  0
   -0.6499    1.1732    0.6604 H   0  0  0  0  0  0  0  0  0  0  0  0
   -2.2005    1.1121   -1.7843 H   0  0  0  0  0  0  0  0  0  0  0  0
   -1.9497   -0.6113   -2.0011 H   0  0  0  0  0  0  0  0  0  0  0  0
   -4.1810    0.0310   -2.8510 H   0  0  0  0  0  0  0  0  0  0  0  0
   -5.5338   -1.6150   -1.5569 H   0  0  0  0  0  0  0  0  0  0  0  0
   -3.9063   -2.2327   -1.8295 H   0  0  0  0  0  0  0  0  0  0  0  0
   -4.6067   -2.5927    0.5412 H   0  0  0  0  0  0  0  0  0  0  0  0
   -4.9780   -0.6196    2.0232 H   0  0  0  0  0  0  0  0  0  0  0  0
   -6.1680   -0.6573    0.7242 H   0  0  0  0  0  0  0  0  0  0  0  0
   -5.2340    1.6411    1.0015 H   0  0  0  0  0  0  0  0  0  0  0  0
   -5.9143    0.8961   -1.2820 H   0  0  0  0  0  0  0  0  0  0  0  0
   -4.5488    2.0064   -1.3691 H   0  0  0  0  0  0  0  0  0  0  0  0
   -2.8340    2.0596    0.5145 H   0  0  0  0  0  0  0  0  0  0  0  0
   -3.0034    0.9863    1.8939 H   0  0  0  0  0  0  0  0  0  0  0  0
   -2.6286   -1.5254    1.6299 H   0  0  0  0  0  0  0  0  0  0  0  0
   -2.2173   -2.2152    0.0701 H   0  0  0  0  0  0  0  0  0  0  0  0
  1  2  1  0
  2  3  1  0
  3  4  1  0
  4  5  2  0
  5  6  1  0
  6  7  2  0
  7  8  1  0
  8  9  2  0
  3 10  2  0
 10 11  1  0
 11 12  1  0
 12 13  1  0
 13 14  2  0
 13 15  1  0
 16 15  1  6
 16 17  1  0
 17 18  1  0
 18 19  1  0
 19 20  1  0
 20 21  1  0
 21 22  1  0
 22 23  1  0
 22 24  1  0
 20 25  1  0
 12  2  2  0
 24 16  1  0
  9  4  1  0
 25 16  1  0
 23 18  1  0
  1 26  1  0
  1 27  1  0
  1 28  1  0
  5 29  1  0
  6 30  1  0
  7 31  1  0
  8 32  1  0
  9 33  1  0
 11 34  1  0
 15 35  1  0
 17 36  1  0
 17 37  1  0
 18 38  1  6
 19 39  1  0
 19 40  1  0
 20 41  1  1
 21 42  1  0
 21 43  1  0
 22 44  1  1
 23 45  1  0
 23 46  1  0
 24 47  1  0
 24 48  1  0
 25 49  1  0
 25 50  1  0
M  END
>  <_SMILES>  (9) 
Cc1c(-c2ccccc2)n[nH]c1C(=O)N[C@]12C[C@H]3C[C@H](C[C@H](C3)C1)C2

$$$$

     RDKit          3D

 59 63  0  0  0  0  0  0  0  0999 V2000
    1.1504   -1.2728   -1.7309 C   0  0  0  0  0  0  0  0  0  0  0  0
    1.7065   -0.3033   -0.7469 C   0  0  0  0  0  0  0  0  0  0  0  0
    0.9907    0.5600    0.1473 C   0  0  0  0  0  0  0  0  0  0  0  0
   -0.4623    0.7489    0.3618 C   0  0  0  0  0  0  0  0  0  0  0  0
   -0.8923    1.8164    0.7911 O   0  0  0  0  0  0  0  0  0  0  0  0
   -1.2516   -0.3487    0.0906 N   0  0  0  0  0  0  0  0  0  0  0  0
   -2.7033   -0.4082    0.3021 C   0  0  2  0  0  0  0  0  0  0  0  0
   -3.2071   -1.7987   -0.1724 C   0  0  0  0  0  0  0  0  0  0  0  0
   -4.7249   -1.9337    0.0270 C   0  0  1  0  0  0  0  0  0  0  0  0
   -5.0550   -1.7583    1.5177 C   0  0  0  0  0  0  0  0  0  0  0  0
   -4.5890   -0.3752    1.9996 C   0  0  2  0  0  0  0  0  0  0  0  0
   -5.2991    0.7138    1.1774 C   0  0  0  0  0  0  0  0  0  0  0  0
   -4.9740    0.5462   -0.3168 C   0  0  2  0  0  0  0  0  0  0  0  0
   -5.4385   -0.8417   -0.7846 C   0  0  0  0  0  0  0  0  0  0  0  0
   -3.4535    0.6699   -0.5207 C   0  0  0  0  0  0  0  0  0  0  0  0
   -3.0682   -0.2520    1.7985 C   0  0  0  0  0  0  0  0  0  0  0  0
    1.8509    1.3269    0.8466 N   0  0  0  0  0  0  0  0  0  0  0  0
    3.0708    0.9654    0.4140 N   0  0  0  0  0  0  0  0  0  0  0  0
    4.2005    1.7095    0.9484 C   0  0  0  0  0  0  0  0  0  0  0  0
    3.9245    3.2192    0.9738 C   0  0  0  0  0  0  0  0  0  0  0  0
    2.7342    3.5594    1.8088 N   0  0  0  0  0  0  0  0  0  0  0  0
    3.0513   -0.0278   -0.5226 C   0  0  0  0  0  0  0  0  0  0  0  0
    4.2477   -0.5903   -1.1352 C   0  0  0  0  0  0  0  0  0  0  0  0
    5.0339   -1.5093   -0.4306 C   0  0  0  0  0  0  0  0  0  0  0  0
    6.1903   -2.0329   -1.0112 C   0  0  0  0  0  0  0  0  0  0  0  0
    6.5638   -1.6433   -2.2965 C   0  0  0  0  0  0  0  0  0  0  0  0
    5.7804   -0.7342   -3.0060 C   0  0  0  0  0  0  0  0  0  0  0  0
    4.6235   -0.2090   -2.4283 C   0  0  0  0  0  0  0  0  0  0  0  0
    0.8800   -2.2079   -1.2307 H   0  0  0  0  0  0  0  0  0  0  0  0
    1.8716   -1.5101   -2.5187 H   0  0  0  0  0  0  0  0  0  0  0  0
    0.2608   -0.8649   -2.2211 H   0  0  0  0  0  0  0  0  0  0  0  0
   -0.7782   -1.2360   -0.0061 H   0  0  0  0  0  0  0  0  0  0  0  0
   -2.9565   -1.9494   -1.2311 H   0  0  0  0  0  0  0  0  0  0  0  0
   -2.6914   -2.5958    0.3800 H   0  0  0  0  0  0  0  0  0  0  0  0
   -5.0564   -2.9217   -0.3113 H   0  0  0  0  0  0  0  0  0  0  0  0
   -6.1348   -1.8667    1.6777 H   0  0  0  0  0  0  0  0  0  0  0  0
   -4.5656   -2.5446    2.1054 H   0  0  0  0  0  0  0  0  0  0  0  0
   -4.8313   -0.2536    3.0613 H   0  0  0  0  0  0  0  0  0  0  0  0
   -4.9845    1.7072    1.5203 H   0  0  0  0  0  0  0  0  0  0  0  0
   -6.3832    0.6521    1.3330 H   0  0  0  0  0  0  0  0  0  0  0  0
   -5.4878    1.3216   -0.8960 H   0  0  0  0  0  0  0  0  0  0  0  0
   -5.2251   -0.9682   -1.8531 H   0  0  0  0  0  0  0  0  0  0  0  0
   -6.5248   -0.9340   -0.6638 H   0  0  0  0  0  0  0  0  0  0  0  0
   -3.1396    1.6786   -0.2291 H   0  0  0  0  0  0  0  0  0  0  0  0
   -3.2092    0.5687   -1.5863 H   0  0  0  0  0  0  0  0  0  0  0  0
   -2.7331    0.7185    2.1834 H   0  0  0  0  0  0  0  0  0  0  0  0
   -2.5496   -1.0141    2.3950 H   0  0  0  0  0  0  0  0  0  0  0  0
    4.3825    1.3237    1.9576 H   0  0  0  0  0  0  0  0  0  0  0  0
    5.0815    1.5105    0.3323 H   0  0  0  0  0  0  0  0  0  0  0  0
    4.7696    3.7713    1.3942 H   0  0  0  0  0  0  0  0  0  0  0  0
    3.7093    3.5969   -0.0312 H   0  0  0  0  0  0  0  0  0  0  0  0
    1.9554    2.9117    1.5327 H   0  0  0  0  0  0  0  0  0  0  0  0
    2.3820    4.5110    1.6572 H   0  0  0  0  0  0  0  0  0  0  0  0
    2.8687    3.4041    2.8136 H   0  0  0  0  0  0  0  0  0  0  0  0
    4.7476   -1.8381    0.5658 H   0  0  0  0  0  0  0  0  0  0  0  0
    6.7959   -2.7547   -0.4673 H   0  0  0  0  0  0  0  0  0  0  0  0
    7.4606   -2.0589   -2.7515 H   0  0  0  0  0  0  0  0  0  0  0  0
    6.0677   -0.4436   -4.0142 H   0  0  0  0  0  0  0  0  0  0  0  0
    4.0171    0.4899   -3.0000 H   0  0  0  0  0  0  0  0  0  0  0  0
  1  2  1  0
  2  3  1  0
  3  4  1  0
  4  5  2  0
  4  6  1  0
  7  6  1  1
  7  8  1  0
  8  9  1  0
  9 10  1  0
 10 11  1  0
 11 12  1  0
 12 13  1  0
 13 14  1  0
 13 15  1  0
 11 16  1  0
  3 17  2  0
 17 18  1  0
 18 19  1  0
 19 20  1  0
 20 21  1  0
 18 22  1  0
 22 23  1  0
 23 24  2  0
 24 25  1  0
 25 26  2  0
 26 27  1  0
 27 28  2  0
 22  2  2  0
 28 23  1  0
 15  7  1  0
 16  7  1  0
 14  9  1  0
  1 29  1  0
  1 30  1  0
  1 31  1  0
  6 32  1  0
  8 33  1  0
  8 34  1  0
  9 35  1  6
 10 36  1  0
 10 37  1  0
 11 38  1  1
 12 39  1  0
 12 40  1  0
 13 41  1  6
 14 42  1  0
 14 43  1  0
 15 44  1  0
 15 45  1  0
 16 46  1  0
 16 47  1  0
 19 48  1  0
 19 49  1  0
 20 50  1  0
 20 51  1  0
 21 52  1  0
 21 53  1  0
 21 54  1  0
 24 55  1  0
 25 56  1  0
 26 57  1  0
 27 58  1  0
 28 59  1  0
M  CHG  1  21   1
M  END
>  <_SMILES>  (10) 
Cc1c(C(=O)N[C@]23C[C@H]4C[C@H](C[C@H](C4)C2)C3)nn(CC[NH3+])c1-c1ccccc1

$$$$

     RDKit          3D

 60 64  0  0  0  0  0  0  0  0999 V2000
   -5.7739    3.8608   -0.6240 C   0  0  0  0  0  0  0  0  0  0  0  0
   -5.5156    2.8944    0.3865 O   0  0  0  0  0  0  0  0  0  0  0  0
   -4.2447    2.2641    0.1983 C   0  0  0  0  0  0  0  0  0  0  0  0
   -4.0046    1.2842    1.3361 C   0  0  0  0  0  0  0  0  0  0  0  0
   -2.7915    0.5154    1.1372 N   0  0  0  0  0  0  0  0  0  0  0  0
   -1.6109    1.1079    1.3815 N   0  0  0  0  0  0  0  0  0  0  0  0
   -0.6901    0.1583    1.1457 C   0  0  0  0  0  0  0  0  0  0  0  0
    0.7512    0.4410    1.3144 C   0  0  0  0  0  0  0  0  0  0  0  0
    1.1941    1.1170    2.2373 O   0  0  0  0  0  0  0  0  0  0  0  0
    1.5447   -0.1014    0.3162 N   0  0  0  0  0  0  0  0  0  0  0  0
    2.9873    0.1183    0.1876 C   0  0  2  0  0  0  0  0  0  0  0  0
    3.3190    1.6112   -0.0544 C   0  0  0  0  0  0  0  0  0  0  0  0
    4.8338    1.8044   -0.2456 C   0  0  1  0  0  0  0  0  0  0  0  0
    5.5709    1.3072    1.0098 C   0  0  0  0  0  0  0  0  0  0  0  0
    5.2795   -0.1857    1.2391 C   0  0  2  0  0  0  0  0  0  0  0  0
    5.7444   -0.9875    0.0137 C   0  0  0  0  0  0  0  0  0  0  0  0
    5.0038   -0.5016   -1.2414 C   0  0  2  0  0  0  0  0  0  0  0  0
    5.3004    0.9900   -1.4626 C   0  0  0  0  0  0  0  0  0  0  0  0
    3.4921   -0.6903   -1.0389 C   0  0  0  0  0  0  0  0  0  0  0  0
    3.7650   -0.3817    1.4316 C   0  0  0  0  0  0  0  0  0  0  0  0
   -1.3164   -1.0612    0.7253 C   0  0  0  0  0  0  0  0  0  0  0  0
   -0.6621   -2.3563    0.4025 C   0  0  0  0  0  0  0  0  0  0  0  0
   -2.6753   -0.7815    0.7033 C   0  0  0  0  0  0  0  0  0  0  0  0
   -3.8024   -1.6317    0.3444 C   0  0  0  0  0  0  0  0  0  0  0  0
   -4.3247   -1.5984   -0.9530 C   0  0  0  0  0  0  0  0  0  0  0  0
   -5.4075   -2.4106   -1.2943 C   0  0  0  0  0  0  0  0  0  0  0  0
   -5.9696   -3.2606   -0.3424 C   0  0  0  0  0  0  0  0  0  0  0  0
   -5.4493   -3.3019    0.9506 C   0  0  0  0  0  0  0  0  0  0  0  0
   -4.3667   -2.4904    1.2939 C   0  0  0  0  0  0  0  0  0  0  0  0
   -5.0217    4.6549   -0.5956 H   0  0  0  0  0  0  0  0  0  0  0  0
   -6.7557    4.3028   -0.4345 H   0  0  0  0  0  0  0  0  0  0  0  0
   -5.7873    3.3885   -1.6110 H   0  0  0  0  0  0  0  0  0  0  0  0
   -4.2442    1.7409   -0.7655 H   0  0  0  0  0  0  0  0  0  0  0  0
   -3.4563    3.0262    0.1782 H   0  0  0  0  0  0  0  0  0  0  0  0
   -3.9130    1.8145    2.2917 H   0  0  0  0  0  0  0  0  0  0  0  0
   -4.8524    0.6007    1.4480 H   0  0  0  0  0  0  0  0  0  0  0  0
    1.0499   -0.4054   -0.5113 H   0  0  0  0  0  0  0  0  0  0  0  0
    2.7812    1.9788   -0.9382 H   0  0  0  0  0  0  0  0  0  0  0  0
    2.9824    2.2279    0.7874 H   0  0  0  0  0  0  0  0  0  0  0  0
    5.0524    2.8660   -0.4063 H   0  0  0  0  0  0  0  0  0  0  0  0
    5.2558    1.8894    1.8845 H   0  0  0  0  0  0  0  0  0  0  0  0
    6.6506    1.4638    0.8955 H   0  0  0  0  0  0  0  0  0  0  0  0
    5.8124   -0.5334    2.1311 H   0  0  0  0  0  0  0  0  0  0  0  0
    6.8269   -0.8724   -0.1213 H   0  0  0  0  0  0  0  0  0  0  0  0
    5.5550   -2.0565    0.1711 H   0  0  0  0  0  0  0  0  0  0  0  0
    5.3354   -1.0776   -2.1125 H   0  0  0  0  0  0  0  0  0  0  0  0
    4.7915    1.3435   -2.3678 H   0  0  0  0  0  0  0  0  0  0  0  0
    6.3753    1.1385   -1.6232 H   0  0  0  0  0  0  0  0  0  0  0  0
    3.2652   -1.7567   -0.9067 H   0  0  0  0  0  0  0  0  0  0  0  0
    2.9578   -0.3745   -1.9451 H   0  0  0  0  0  0  0  0  0  0  0  0
    3.4532    0.1542    2.3350 H   0  0  0  0  0  0  0  0  0  0  0  0
    3.5449   -1.4420    1.6127 H   0  0  0  0  0  0  0  0  0  0  0  0
    0.2118   -2.5248    1.0398 H   0  0  0  0  0  0  0  0  0  0  0  0
   -1.3424   -3.1996    0.5570 H   0  0  0  0  0  0  0  0  0  0  0  0
   -0.3390   -2.3680   -0.6431 H   0  0  0  0  0  0  0  0  0  0  0  0
   -3.8913   -0.9432   -1.7045 H   0  0  0  0  0  0  0  0  0  0  0  0
   -5.8124   -2.3813   -2.3026 H   0  0  0  0  0  0  0  0  0  0  0  0
   -6.8133   -3.8926   -0.6085 H   0  0  0  0  0  0  0  0  0  0  0  0
   -5.8865   -3.9657    1.6921 H   0  0  0  0  0  0  0  0  0  0  0  0
   -3.9673   -2.5301    2.3049 H   0  0  0  0  0  0  0  0  0  0  0  0
  1  2  1  0
  2  3  1  0
  3  4  1  0
  4  5  1  0
  5  6  1  0
  6  7  2  0
  7  8  1  0
  8  9  2  0
  8 10  1  0
 11 10  1  1
 11 12  1  0
 12 13  1  0
 13 14  1  0
 14 15  1  0
 15 16  1  0
 16 17  1  0
 17 18  1  0
 17 19  1  0
 15 20  1  0
  7 21  1  0
 21 22  1  0
 21 23  2  0
 23 24  1  0
 24 25  2  0
 25 26  1  0
 26 27  2  0
 27 28  1  0
 28 29  2  0
 23  5  1  0
 29 24  1  0
 19 11  1  0
 20 11  1  0
 18 13  1  0
  1 30  1  0
  1 31  1  0
  1 32  1  0
  3 33  1  0
  3 34  1  0
  4 35  1  0
  4 36  1  0
 10 37  1  0
 12 38  1  0
 12 39  1  0
 13 40  1  6
 14 41  1  0
 14 42  1  0
 15 43  1  1
 16 44  1  0
 16 45  1  0
 17 46  1  6
 18 47  1  0
 18 48  1  0
 19 49  1  0
 19 50  1  0
 20 51  1  0
 20 52  1  0
 22 53  1  0
 22 54  1  0
 22 55  1  0
 25 56  1  0
 26 57  1  0
 27 58  1  0
 28 59  1  0
 29 60  1  0
M  END
>  <_SMILES>  (11) 
COCCn1nc(C(=O)N[C@]23C[C@H]4C[C@H](C[C@H](C4)C2)C3)c(C)c1-c1ccccc1

$$$$

     RDKit          3D

 65 69  0  0  0  0  0  0  0  0999 V2000
    5.9045    4.3470    0.2981 C   0  0  0  0  0  0  0  0  0  0  0  0
    4.8779    3.4116   -0.3203 C   0  0  0  0  0  0  0  0  0  0  0  0
    4.4082    2.3558    0.6800 C   0  0  0  0  0  0  0  0  0  0  0  0
    3.3769    1.4168    0.0540 C   0  0  0  0  0  0  0  0  0  0  0  0
    2.9110    0.3624    1.0556 C   0  0  0  0  0  0  0  0  0  0  0  0
    1.9426   -0.5532    0.4736 N   0  0  0  0  0  0  0  0  0  0  0  0
    0.6423   -0.1994    0.4722 N   0  0  0  0  0  0  0  0  0  0  0  0
    0.0159   -1.2370   -0.1209 C   0  0  0  0  0  0  0  0  0  0  0  0
   -1.4486   -1.2288   -0.3157 C   0  0  0  0  0  0  0  0  0  0  0  0
   -2.0584   -2.1497   -0.8485 O   0  0  0  0  0  0  0  0  0  0  0  0
   -2.0376   -0.0795    0.1654 N   0  0  0  0  0  0  0  0  0  0  0  0
   -3.4590    0.2450    0.1286 C   0  0  2  0  0  0  0  0  0  0  0  0
   -3.9902    0.3164   -1.3245 C   0  0  0  0  0  0  0  0  0  0  0  0
   -5.4787    0.7071   -1.3379 C   0  0  1  0  0  0  0  0  0  0  0  0
   -6.2832   -0.3368   -0.5448 C   0  0  0  0  0  0  0  0  0  0  0  0
   -5.7883   -0.3925    0.9106 C   0  0  2  0  0  0  0  0  0  0  0  0
   -5.9560    0.9920    1.5564 C   0  0  0  0  0  0  0  0  0  0  0  0
   -5.1475    2.0379    0.7729 C   0  0  2  0  0  0  0  0  0  0  0  0
   -5.6482    2.0853   -0.6792 C   0  0  0  0  0  0  0  0  0  0  0  0
   -3.6635    1.6379    0.7816 C   0  0  0  0  0  0  0  0  0  0  0  0
   -4.2999   -0.7835    0.9246 C   0  0  0  0  0  0  0  0  0  0  0  0
    0.9443   -2.2552   -0.4941 C   0  0  0  0  0  0  0  0  0  0  0  0
    0.6291   -3.5411   -1.1682 C   0  0  0  0  0  0  0  0  0  0  0  0
    2.1838   -1.7798   -0.0945 C   0  0  0  0  0  0  0  0  0  0  0  0
    3.5044   -2.3825   -0.2162 C   0  0  0  0  0  0  0  0  0  0  0  0
    4.2972   -2.1228   -1.3391 C   0  0  0  0  0  0  0  0  0  0  0  0
    5.5650   -2.6960   -1.4512 C   0  0  0  0  0  0  0  0  0  0  0  0
    6.0430   -3.5344   -0.4447 C   0  0  0  0  0  0  0  0  0  0  0  0
    5.2535   -3.8040    0.6728 C   0  0  0  0  0  0  0  0  0  0  0  0
    3.9856   -3.2312    0.7866 C   0  0  0  0  0  0  0  0  0  0  0  0
    6.2265    5.0938   -0.4344 H   0  0  0  0  0  0  0  0  0  0  0  0
    6.7887    3.7942    0.6309 H   0  0  0  0  0  0  0  0  0  0  0  0
    5.4847    4.8756    1.1599 H   0  0  0  0  0  0  0  0  0  0  0  0
    5.3185    2.9236   -1.1975 H   0  0  0  0  0  0  0  0  0  0  0  0
    4.0216    3.9990   -0.6716 H   0  0  0  0  0  0  0  0  0  0  0  0
    3.9716    2.8487    1.5572 H   0  0  0  0  0  0  0  0  0  0  0  0
    5.2691    1.7739    1.0311 H   0  0  0  0  0  0  0  0  0  0  0  0
    2.5159    1.9971   -0.3009 H   0  0  0  0  0  0  0  0  0  0  0  0
    3.8102    0.9298   -0.8279 H   0  0  0  0  0  0  0  0  0  0  0  0
    3.7549   -0.2234    1.4341 H   0  0  0  0  0  0  0  0  0  0  0  0
    2.4307    0.8332    1.9218 H   0  0  0  0  0  0  0  0  0  0  0  0
   -1.3740    0.5754    0.5747 H   0  0  0  0  0  0  0  0  0  0  0  0
   -3.8689   -0.6474   -1.8330 H   0  0  0  0  0  0  0  0  0  0  0  0
   -3.4077    1.0446   -1.9041 H   0  0  0  0  0  0  0  0  0  0  0  0
   -5.8406    0.7452   -2.3715 H   0  0  0  0  0  0  0  0  0  0  0  0
   -7.3500   -0.0823   -0.5672 H   0  0  0  0  0  0  0  0  0  0  0  0
   -6.1815   -1.3234   -1.0133 H   0  0  0  0  0  0  0  0  0  0  0  0
   -6.3695   -1.1337    1.4704 H   0  0  0  0  0  0  0  0  0  0  0  0
   -5.6194    0.9622    2.6000 H   0  0  0  0  0  0  0  0  0  0  0  0
   -7.0164    1.2724    1.5718 H   0  0  0  0  0  0  0  0  0  0  0  0
   -5.2682    3.0227    1.2379 H   0  0  0  0  0  0  0  0  0  0  0  0
   -5.0902    2.8421   -1.2440 H   0  0  0  0  0  0  0  0  0  0  0  0
   -6.7033    2.3846   -0.7023 H   0  0  0  0  0  0  0  0  0  0  0  0
   -3.2887    1.6294    1.8139 H   0  0  0  0  0  0  0  0  0  0  0  0
   -3.0731    2.3951    0.2483 H   0  0  0  0  0  0  0  0  0  0  0  0
   -3.9397   -0.8451    1.9600 H   0  0  0  0  0  0  0  0  0  0  0  0
   -4.1904   -1.7892    0.5017 H   0  0  0  0  0  0  0  0  0  0  0  0
    0.1562   -3.3581   -2.1383 H   0  0  0  0  0  0  0  0  0  0  0  0
    1.5275   -4.1405   -1.3442 H   0  0  0  0  0  0  0  0  0  0  0  0
   -0.0534   -4.1371   -0.5538 H   0  0  0  0  0  0  0  0  0  0  0  0
    3.9294   -1.4774   -2.1335 H   0  0  0  0  0  0  0  0  0  0  0  0
    6.1772   -2.4927   -2.3261 H   0  0  0  0  0  0  0  0  0  0  0  0
    7.0289   -3.9835   -0.5343 H   0  0  0  0  0  0  0  0  0  0  0  0
    5.6230   -4.4638    1.4535 H   0  0  0  0  0  0  0  0  0  0  0  0
    3.3740   -3.4526    1.6583 H   0  0  0  0  0  0  0  0  0  0  0  0
  1  2  1  0
  2  3  1  0
  3  4  1  0
  4  5  1  0
  5  6  1  0
  6  7  1  0
  7  8  2  0
  8  9  1  0
  9 10  2  0
  9 11  1  0
 12 11  1  6
 12 13  1  0
 13 14  1  0
 14 15  1  0
 15 16  1  0
 16 17  1  0
 17 18  1  0
 18 19  1  0
 18 20  1  0
 16 21  1  0
  8 22  1  0
 22 23  1  0
 22 24  2  0
 24 25  1  0
 25 26  2  0
 26 27  1  0
 27 28  2  0
 28 29  1  0
 29 30  2  0
 24  6  1  0
 30 25  1  0
 20 12  1  0
 21 12  1  0
 19 14  1  0
  1 31  1  0
  1 32  1  0
  1 33  1  0
  2 34  1  0
  2 35  1  0
  3 36  1  0
  3 37  1  0
  4 38  1  0
  4 39  1  0
  5 40  1  0
  5 41  1  0
 11 42  1  0
 13 43  1  0
 13 44  1  0
 14 45  1  6
 15 46  1  0
 15 47  1  0
 16 48  1  1
 17 49  1  0
 17 50  1  0
 18 51  1  1
 19 52  1  0
 19 53  1  0
 20 54  1  0
 20 55  1  0
 21 56  1  0
 21 57  1  0
 23 58  1  0
 23 59  1  0
 23 60  1  0
 26 61  1  0
 27 62  1  0
 28 63  1  0
 29 64  1  0
 30 65  1  0
M  END
>  <_SMILES>  (12) 
CCCCCn1nc(C(=O)N[C@]23C[C@H]4C[C@H](C[C@H](C4)C2)C3)c(C)c1-c1ccccc1

$$$$

     RDKit          3D

 58 60  0  0  0  0  0  0  0  0999 V2000
    1.4661   -1.8816    0.6698 C   0  0  0  0  0  0  0  0  0  0  0  0
    0.4832   -0.7672    0.6702 C   0  0  0  0  0  0  0  0  0  0  0  0
    0.7479    0.6410    0.7301 C   0  0  0  0  0  0  0  0  0  0  0  0
    2.0537    1.3284    0.7563 C   0  0  0  0  0  0  0  0  0  0  0  0
    2.3039    2.2745    1.4984 O   0  0  0  0  0  0  0  0  0  0  0  0
    2.9778    0.8213   -0.1419 N   0  0  0  0  0  0  0  0  0  0  0  0
    4.3460    1.3071   -0.1999 C   0  0  0  0  0  0  0  0  0  0  0  0
    5.2094    0.6422    0.8754 C   0  0  0  0  0  0  0  0  0  0  0  0
    6.6293    1.2133    0.9005 C   0  0  0  0  0  0  0  0  0  0  0  0
    7.0982    1.7495   -0.4528 C   0  0  0  0  0  0  0  0  0  0  0  0
    6.4686    0.9881   -1.6104 C   0  0  0  0  0  0  0  0  0  0  0  0
    4.9407    1.0845   -1.6002 C   0  0  0  0  0  0  0  0  0  0  0  0
   -0.3992    1.3399    0.7603 N   0  0  0  0  0  0  0  0  0  0  0  0
   -1.3695    0.4131    0.7160 N   0  0  0  0  0  0  0  0  0  0  0  0
   -2.7557    0.8553    0.7381 C   0  0  0  0  0  0  0  0  0  0  0  0
   -3.2793    1.1544   -0.6660 C   0  0  0  0  0  0  0  0  0  0  0  0
   -4.7283    1.6486   -0.6758 C   0  0  0  0  0  0  0  0  0  0  0  0
   -5.7321    0.5710   -0.2525 C   0  0  0  0  0  0  0  0  0  0  0  0
   -7.1794    1.0198   -0.4271 C   0  0  0  0  0  0  0  0  0  0  0  0
   -7.4850    2.0936    0.4504 O   0  0  0  0  0  0  0  0  0  0  0  0
   -0.8996   -0.8744    0.6412 C   0  0  0  0  0  0  0  0  0  0  0  0
   -1.7493   -2.0554    0.5662 C   0  0  0  0  0  0  0  0  0  0  0  0
   -2.0737   -2.6100   -0.6764 C   0  0  0  0  0  0  0  0  0  0  0  0
   -2.8942   -3.7369   -0.7497 C   0  0  0  0  0  0  0  0  0  0  0  0
   -3.3894   -4.3162    0.4181 C   0  0  0  0  0  0  0  0  0  0  0  0
   -3.0628   -3.7724    1.6599 C   0  0  0  0  0  0  0  0  0  0  0  0
   -2.2425   -2.6455    1.7349 C   0  0  0  0  0  0  0  0  0  0  0  0
    2.3566   -1.6227    1.2513 H   0  0  0  0  0  0  0  0  0  0  0  0
    1.7743   -2.1153   -0.3541 H   0  0  0  0  0  0  0  0  0  0  0  0
    1.0422   -2.7882    1.1133 H   0  0  0  0  0  0  0  0  0  0  0  0
    2.6941    0.0619   -0.7442 H   0  0  0  0  0  0  0  0  0  0  0  0
    4.3213    2.3865    0.0001 H   0  0  0  0  0  0  0  0  0  0  0  0
    5.2560   -0.4386    0.6853 H   0  0  0  0  0  0  0  0  0  0  0  0
    4.7580    0.7516    1.8689 H   0  0  0  0  0  0  0  0  0  0  0  0
    7.3155    0.4316    1.2484 H   0  0  0  0  0  0  0  0  0  0  0  0
    6.6903    2.0227    1.6382 H   0  0  0  0  0  0  0  0  0  0  0  0
    8.1912    1.6949   -0.5110 H   0  0  0  0  0  0  0  0  0  0  0  0
    6.8345    2.8115   -0.5351 H   0  0  0  0  0  0  0  0  0  0  0  0
    6.8539    1.3620   -2.5658 H   0  0  0  0  0  0  0  0  0  0  0  0
    6.7643   -0.0669   -1.5471 H   0  0  0  0  0  0  0  0  0  0  0  0
    4.5365    0.1741   -2.0612 H   0  0  0  0  0  0  0  0  0  0  0  0
    4.6199    1.9103   -2.2483 H   0  0  0  0  0  0  0  0  0  0  0  0
   -3.3450    0.0801    1.2354 H   0  0  0  0  0  0  0  0  0  0  0  0
   -2.8013    1.7511    1.3690 H   0  0  0  0  0  0  0  0  0  0  0  0
   -3.1900    0.2657   -1.3024 H   0  0  0  0  0  0  0  0  0  0  0  0
   -2.6483    1.9245   -1.1281 H   0  0  0  0  0  0  0  0  0  0  0  0
   -4.9698    1.9808   -1.6930 H   0  0  0  0  0  0  0  0  0  0  0  0
   -4.8170    2.5265   -0.0253 H   0  0  0  0  0  0  0  0  0  0  0  0
   -5.5680    0.3158    0.8003 H   0  0  0  0  0  0  0  0  0  0  0  0
   -5.5684   -0.3361   -0.8458 H   0  0  0  0  0  0  0  0  0  0  0  0
   -7.3860    1.3300   -1.4566 H   0  0  0  0  0  0  0  0  0  0  0  0
   -7.8533    0.1925   -0.1835 H   0  0  0  0  0  0  0  0  0  0  0  0
   -7.0477    2.8914    0.1077 H   0  0  0  0  0  0  0  0  0  0  0  0
   -1.6908   -2.1665   -1.5925 H   0  0  0  0  0  0  0  0  0  0  0  0
   -3.1454   -4.1642   -1.7170 H   0  0  0  0  0  0  0  0  0  0  0  0
   -4.0273   -5.1948    0.3610 H   0  0  0  0  0  0  0  0  0  0  0  0
   -3.4449   -4.2270    2.5705 H   0  0  0  0  0  0  0  0  0  0  0  0
   -1.9898   -2.2311    2.7084 H   0  0  0  0  0  0  0  0  0  0  0  0
  1  2  1  0
  2  3  1  0
  3  4  1  0
  4  5  2  0
  4  6  1  0
  6  7  1  0
  7  8  1  0
  8  9  1  0
  9 10  1  0
 10 11  1  0
 11 12  1  0
  3 13  2  0
 13 14  1  0
 14 15  1  0
 15 16  1  0
 16 17  1  0
 17 18  1  0
 18 19  1  0
 19 20  1  0
 14 21  1  0
 21 22  1  0
 22 23  2  0
 23 24  1  0
 24 25  2  0
 25 26  1  0
 26 27  2  0
 21  2  2  0
 27 22  1  0
 12  7  1  0
  1 28  1  0
  1 29  1  0
  1 30  1  0
  6 31  1  0
  7 32  1  0
  8 33  1  0
  8 34  1  0
  9 35  1  0
  9 36  1  0
 10 37  1  0
 10 38  1  0
 11 39  1  0
 11 40  1  0
 12 41  1  0
 12 42  1  0
 15 43  1  0
 15 44  1  0
 16 45  1  0
 16 46  1  0
 17 47  1  0
 17 48  1  0
 18 49  1  0
 18 50  1  0
 19 51  1  0
 19 52  1  0
 20 53  1  0
 23 54  1  0
 24 55  1  0
 25 56  1  0
 26 57  1  0
 27 58  1  0
M  END
>  <_SMILES>  (13) 
Cc1c(C(=O)NC2CCCCC2)nn(CCCCCO)c1-c1ccccc1

$$$$

     RDKit          3D

 62 66  0  0  0  0  0  0  0  0999 V2000
   -1.3141   -1.6002    2.9070 C   0  0  0  0  0  0  0  0  0  0  0  0
   -1.4874   -1.1457    1.5029 C   0  0  0  0  0  0  0  0  0  0  0  0
   -0.4718   -0.6316    0.6426 C   0  0  0  0  0  0  0  0  0  0  0  0
    0.9598   -0.4299    0.9471 C   0  0  0  0  0  0  0  0  0  0  0  0
    1.4563   -0.6931    2.0370 O   0  0  0  0  0  0  0  0  0  0  0  0
    1.6586    0.0836   -0.1241 N   0  0  0  0  0  0  0  0  0  0  0  0
    3.0813    0.4030   -0.1561 C   0  0  2  0  0  0  0  0  0  0  0  0
    3.4309    0.9543   -1.5640 C   0  0  0  0  0  0  0  0  0  0  0  0
    4.9227    1.3110   -1.6611 C   0  0  1  0  0  0  0  0  0  0  0  0
    5.2554    2.3783   -0.6066 C   0  0  0  0  0  0  0  0  0  0  0  0
    4.9406    1.8430    0.7992 C   0  0  2  0  0  0  0  0  0  0  0  0
    5.7758    0.5778    1.0592 C   0  0  0  0  0  0  0  0  0  0  0  0
    5.4488   -0.4975    0.0089 C   0  0  2  0  0  0  0  0  0  0  0  0
    5.7607    0.0512   -1.3923 C   0  0  0  0  0  0  0  0  0  0  0  0
    3.9537   -0.8517    0.0954 C   0  0  0  0  0  0  0  0  0  0  0  0
    3.4453    1.4894    0.8859 C   0  0  0  0  0  0  0  0  0  0  0  0
   -0.9720   -0.3232   -0.5715 N   0  0  0  0  0  0  0  0  0  0  0  0
   -2.2851   -0.6145   -0.4760 N   0  0  0  0  0  0  0  0  0  0  0  0
   -3.1306   -0.3725   -1.6349 C   0  0  0  0  0  0  0  0  0  0  0  0
   -3.3214    1.1186   -1.9624 C   0  0  0  0  0  0  0  0  0  0  0  0
   -4.0525    1.2652   -3.2982 C   0  0  0  0  0  0  0  0  0  0  0  0
   -4.0942    1.8520   -0.8647 C   0  0  0  0  0  0  0  0  0  0  0  0
   -2.6479   -1.1333    0.7435 C   0  0  0  0  0  0  0  0  0  0  0  0
   -3.9999   -1.5478    1.0964 C   0  0  0  0  0  0  0  0  0  0  0  0
   -4.8217   -0.7019    1.8490 C   0  0  0  0  0  0  0  0  0  0  0  0
   -6.1178   -1.0972    2.1841 C   0  0  0  0  0  0  0  0  0  0  0  0
   -6.5956   -2.3414    1.7743 C   0  0  0  0  0  0  0  0  0  0  0  0
   -5.7778   -3.1934    1.0329 C   0  0  0  0  0  0  0  0  0  0  0  0
   -4.4817   -2.7992    0.6963 C   0  0  0  0  0  0  0  0  0  0  0  0
   -2.2470   -1.9846    3.3302 H   0  0  0  0  0  0  0  0  0  0  0  0
   -0.5713   -2.4026    2.9604 H   0  0  0  0  0  0  0  0  0  0  0  0
   -0.9782   -0.7708    3.5375 H   0  0  0  0  0  0  0  0  0  0  0  0
    1.0804    0.2417   -0.9471 H   0  0  0  0  0  0  0  0  0  0  0  0
    2.8231    1.8425   -1.7832 H   0  0  0  0  0  0  0  0  0  0  0  0
    3.1770    0.2128   -2.3334 H   0  0  0  0  0  0  0  0  0  0  0  0
    5.1466    1.6975   -2.6616 H   0  0  0  0  0  0  0  0  0  0  0  0
    4.6760    3.2895   -0.7993 H   0  0  0  0  0  0  0  0  0  0  0  0
    6.3149    2.6544   -0.6740 H   0  0  0  0  0  0  0  0  0  0  0  0
    5.1830    2.6060    1.5474 H   0  0  0  0  0  0  0  0  0  0  0  0
    5.5702    0.1933    2.0658 H   0  0  0  0  0  0  0  0  0  0  0  0
    6.8447    0.8218    1.0239 H   0  0  0  0  0  0  0  0  0  0  0  0
    6.0514   -1.3931    0.1971 H   0  0  0  0  0  0  0  0  0  0  0  0
    5.5449   -0.7117   -2.1504 H   0  0  0  0  0  0  0  0  0  0  0  0
    6.8289    0.2873   -1.4733 H   0  0  0  0  0  0  0  0  0  0  0  0
    3.7447   -1.2820    1.0821 H   0  0  0  0  0  0  0  0  0  0  0  0
    3.7119   -1.6327   -0.6374 H   0  0  0  0  0  0  0  0  0  0  0  0
    2.8385    2.3894    0.7207 H   0  0  0  0  0  0  0  0  0  0  0  0
    3.2169    1.1483    1.9026 H   0  0  0  0  0  0  0  0  0  0  0  0
   -2.6461   -0.8891   -2.4732 H   0  0  0  0  0  0  0  0  0  0  0  0
   -4.0981   -0.8595   -1.4787 H   0  0  0  0  0  0  0  0  0  0  0  0
   -2.3391    1.5976   -2.0628 H   0  0  0  0  0  0  0  0  0  0  0  0
   -5.0486    0.8112   -3.2584 H   0  0  0  0  0  0  0  0  0  0  0  0
   -3.4908    0.7811   -4.1041 H   0  0  0  0  0  0  0  0  0  0  0  0
   -4.1717    2.3212   -3.5631 H   0  0  0  0  0  0  0  0  0  0  0  0
   -5.0774    1.3985   -0.6998 H   0  0  0  0  0  0  0  0  0  0  0  0
   -4.2490    2.9020   -1.1355 H   0  0  0  0  0  0  0  0  0  0  0  0
   -3.5468    1.8372    0.0828 H   0  0  0  0  0  0  0  0  0  0  0  0
   -4.4558    0.2678    2.1785 H   0  0  0  0  0  0  0  0  0  0  0  0
   -6.7525   -0.4361    2.7687 H   0  0  0  0  0  0  0  0  0  0  0  0
   -7.6038   -2.6501    2.0390 H   0  0  0  0  0  0  0  0  0  0  0  0
   -6.1473   -4.1671    0.7217 H   0  0  0  0  0  0  0  0  0  0  0  0
   -3.8479   -3.4752    0.1269 H   0  0  0  0  0  0  0  0  0  0  0  0
  1  2  1  0
  2  3  1  0
  3  4  1  0
  4  5  2  0
  4  6  1  0
  7  6  1  6
  7  8  1  0
  8  9  1  0
  9 10  1  0
 10 11  1  0
 11 12  1  0
 12 13  1  0
 13 14  1  0
 13 15  1  0
 11 16  1  0
  3 17  2  0
 17 18  1  0
 18 19  1  0
 19 20  1  0
 20 21  1  0
 20 22  1  0
 18 23  1  0
 23 24  1  0
 24 25  2  0
 25 26  1  0
 26 27  2  0
 27 28  1  0
 28 29  2  0
 23  2  2  0
 29 24  1  0
 15  7  1  0
 16  7  1  0
 14  9  1  0
  1 30  1  0
  1 31  1  0
  1 32  1  0
  6 33  1  0
  8 34  1  0
  8 35  1  0
  9 36  1  6
 10 37  1  0
 10 38  1  0
 11 39  1  1
 12 40  1  0
 12 41  1  0
 13 42  1  1
 14 43  1  0
 14 44  1  0
 15 45  1  0
 15 46  1  0
 16 47  1  0
 16 48  1  0
 19 49  1  0
 19 50  1  0
 20 51  1  0
 21 52  1  0
 21 53  1  0
 21 54  1  0
 22 55  1  0
 22 56  1  0
 22 57  1  0
 25 58  1  0
 26 59  1  0
 27 60  1  0
 28 61  1  0
 29 62  1  0
M  END
>  <_SMILES>  (14) 
Cc1c(C(=O)N[C@]23C[C@H]4C[C@H](C[C@H](C4)C2)C3)nn(CC(C)C)c1-c1ccccc1

$$$$

     RDKit          3D

 59 63  0  0  0  0  0  0  0  0999 V2000
   -1.0940    1.1643   -1.5200 C   0  0  0  0  0  0  0  0  0  0  0  0
   -1.5545    0.5554   -0.2438 C   0  0  0  0  0  0  0  0  0  0  0  0
   -0.7675    0.2530    0.9106 C   0  0  0  0  0  0  0  0  0  0  0  0
    0.6880    0.4231    1.1000 C   0  0  0  0  0  0  0  0  0  0  0  0
    1.1807    0.8440    2.1416 O   0  0  0  0  0  0  0  0  0  0  0  0
    1.4381    0.0343    0.0014 N   0  0  0  0  0  0  0  0  0  0  0  0
    2.9017   -0.0050   -0.0357 C   0  0  2  0  0  0  0  0  0  0  0  0
    3.4728   -1.0135    0.9908 C   0  0  0  0  0  0  0  0  0  0  0  0
    5.0070   -1.0786    0.8889 C   0  0  1  0  0  0  0  0  0  0  0  0
    5.4036   -1.5329   -0.5249 C   0  0  0  0  0  0  0  0  0  0  0  0
    4.8684   -0.5371   -1.5659 C   0  0  2  0  0  0  0  0  0  0  0  0
    5.4592    0.8541   -1.2910 C   0  0  0  0  0  0  0  0  0  0  0  0
    5.0619    1.3224    0.1173 C   0  0  2  0  0  0  0  0  0  0  0  0
    5.5927    0.3186    1.1552 C   0  0  0  0  0  0  0  0  0  0  0  0
    3.5276    1.3902    0.2178 C   0  0  0  0  0  0  0  0  0  0  0  0
    3.3373   -0.4651   -1.4539 C   0  0  0  0  0  0  0  0  0  0  0  0
   -1.5350   -0.2534    1.8866 N   0  0  0  0  0  0  0  0  0  0  0  0
   -2.7850   -0.2802    1.3830 N   0  0  0  0  0  0  0  0  0  0  0  0
   -3.8405   -0.7772    2.2651 C   0  0  0  0  0  0  0  0  0  0  0  0
   -4.5570   -2.0127    1.7235 C   0  0  0  0  0  0  0  0  0  0  0  0
   -4.8212    0.3141    2.6894 C   0  0  0  0  0  0  0  0  0  0  0  0
   -2.8512    0.1815    0.0876 C   0  0  0  0  0  0  0  0  0  0  0  0
   -4.0541    0.2674   -0.7311 C   0  0  0  0  0  0  0  0  0  0  0  0
   -4.3981   -0.7839   -1.5885 C   0  0  0  0  0  0  0  0  0  0  0  0
   -5.5323   -0.6903   -2.3971 C   0  0  0  0  0  0  0  0  0  0  0  0
   -6.3198    0.4597   -2.3633 C   0  0  0  0  0  0  0  0  0  0  0  0
   -5.9711    1.5195   -1.5271 C   0  0  0  0  0  0  0  0  0  0  0  0
   -4.8372    1.4268   -0.7181 C   0  0  0  0  0  0  0  0  0  0  0  0
   -0.7343    0.3877   -2.2023 H   0  0  0  0  0  0  0  0  0  0  0  0
   -0.2825    1.8779   -1.3455 H   0  0  0  0  0  0  0  0  0  0  0  0
   -1.9008    1.7095   -2.0198 H   0  0  0  0  0  0  0  0  0  0  0  0
    0.9443   -0.5286   -0.6783 H   0  0  0  0  0  0  0  0  0  0  0  0
    3.0446   -2.0099    0.8194 H   0  0  0  0  0  0  0  0  0  0  0  0
    3.1930   -0.7317    2.0129 H   0  0  0  0  0  0  0  0  0  0  0  0
    5.3955   -1.7890    1.6271 H   0  0  0  0  0  0  0  0  0  0  0  0
    5.0028   -2.5345   -0.7230 H   0  0  0  0  0  0  0  0  0  0  0  0
    6.4953   -1.6057   -0.6027 H   0  0  0  0  0  0  0  0  0  0  0  0
    5.1509   -0.8665   -2.5720 H   0  0  0  0  0  0  0  0  0  0  0  0
    5.0986    1.5698   -2.0399 H   0  0  0  0  0  0  0  0  0  0  0  0
    6.5519    0.8221   -1.3813 H   0  0  0  0  0  0  0  0  0  0  0  0
    5.4880    2.3133    0.3102 H   0  0  0  0  0  0  0  0  0  0  0  0
    5.3272    0.6497    2.1667 H   0  0  0  0  0  0  0  0  0  0  0  0
    6.6880    0.2793    1.1105 H   0  0  0  0  0  0  0  0  0  0  0  0
    3.1367    2.1161   -0.5072 H   0  0  0  0  0  0  0  0  0  0  0  0
    3.2566    1.7712    1.2089 H   0  0  0  0  0  0  0  0  0  0  0  0
    2.9414    0.2240   -2.2121 H   0  0  0  0  0  0  0  0  0  0  0  0
    2.9056   -1.4493   -1.6807 H   0  0  0  0  0  0  0  0  0  0  0  0
   -3.3216   -1.1009    3.1790 H   0  0  0  0  0  0  0  0  0  0  0  0
   -5.2504   -1.7652    0.9156 H   0  0  0  0  0  0  0  0  0  0  0  0
   -3.8425   -2.7523    1.3467 H   0  0  0  0  0  0  0  0  0  0  0  0
   -5.1457   -2.4871    2.5165 H   0  0  0  0  0  0  0  0  0  0  0  0
   -5.4533   -0.0407    3.5107 H   0  0  0  0  0  0  0  0  0  0  0  0
   -5.4861    0.6087    1.8736 H   0  0  0  0  0  0  0  0  0  0  0  0
   -4.2918    1.2089    3.0342 H   0  0  0  0  0  0  0  0  0  0  0  0
   -3.7857   -1.6816   -1.6287 H   0  0  0  0  0  0  0  0  0  0  0  0
   -5.7990   -1.5127   -3.0559 H   0  0  0  0  0  0  0  0  0  0  0  0
   -7.2020    0.5333   -2.9943 H   0  0  0  0  0  0  0  0  0  0  0  0
   -6.5788    2.4205   -1.5082 H   0  0  0  0  0  0  0  0  0  0  0  0
   -4.5665    2.2641   -0.0786 H   0  0  0  0  0  0  0  0  0  0  0  0
  1  2  1  0
  2  3  1  0
  3  4  1  0
  4  5  2  0
  4  6  1  0
  7  6  1  6
  7  8  1  0
  8  9  1  0
  9 10  1  0
 10 11  1  0
 11 12  1  0
 12 13  1  0
 13 14  1  0
 13 15  1  0
 11 16  1  0
  3 17  2  0
 17 18  1  0
 18 19  1  0
 19 20  1  0
 19 21  1  0
 18 22  1  0
 22 23  1  0
 23 24  2  0
 24 25  1  0
 25 26  2  0
 26 27  1  0
 27 28  2  0
 22  2  2  0
 28 23  1  0
 15  7  1  0
 16  7  1  0
 14  9  1  0
  1 29  1  0
  1 30  1  0
  1 31  1  0
  6 32  1  0
  8 33  1  0
  8 34  1  0
  9 35  1  1
 10 36  1  0
 10 37  1  0
 11 38  1  6
 12 39  1  0
 12 40  1  0
 13 41  1  1
 14 42  1  0
 14 43  1  0
 15 44  1  0
 15 45  1  0
 16 46  1  0
 16 47  1  0
 19 48  1  0
 20 49  1  0
 20 50  1  0
 20 51  1  0
 21 52  1  0
 21 53  1  0
 21 54  1  0
 24 55  1  0
 25 56  1  0
 26 57  1  0
 27 58  1  0
 28 59  1  0
M  END
>  <_SMILES>  (15) 
Cc1c(C(=O)N[C@]23C[C@H]4C[C@H](C[C@H](C4)C2)C3)nn(C(C)C)c1-c1ccccc1

$$$$

     RDKit          3D

 62 66  0  0  0  0  0  0  0  0999 V2000
    3.5766    3.8472    0.1056 C   0  0  0  0  0  0  0  0  0  0  0  0
    3.7154    2.7053   -0.8890 C   0  0  0  0  0  0  0  0  0  0  0  0
    4.6460    1.5866   -0.4111 C   0  0  0  0  0  0  0  0  0  0  0  0
    4.1955    0.8557    0.8557 C   0  0  0  0  0  0  0  0  0  0  0  0
    2.9289    0.1579    0.7159 N   0  0  0  0  0  0  0  0  0  0  0  0
    1.8172    0.7510    1.1817 N   0  0  0  0  0  0  0  0  0  0  0  0
    0.8241   -0.1120    0.9134 C   0  0  0  0  0  0  0  0  0  0  0  0
   -0.5754    0.2091    1.2619 C   0  0  0  0  0  0  0  0  0  0  0  0
   -0.8937    0.7491    2.3164 O   0  0  0  0  0  0  0  0  0  0  0  0
   -1.4839   -0.1306    0.2719 N   0  0  0  0  0  0  0  0  0  0  0  0
   -2.9144    0.1810    0.3127 C   0  0  2  0  0  0  0  0  0  0  0  0
   -3.1664    1.7085    0.3311 C   0  0  0  0  0  0  0  0  0  0  0  0
   -4.6759    2.0076    0.3129 C   0  0  1  0  0  0  0  0  0  0  0  0
   -5.2953    1.4190   -0.9646 C   0  0  0  0  0  0  0  0  0  0  0  0
   -5.0799   -0.1022   -1.0000 C   0  0  2  0  0  0  0  0  0  0  0  0
   -5.7430   -0.7393    0.2306 C   0  0  0  0  0  0  0  0  0  0  0  0
   -5.1254   -0.1643    1.5145 C   0  0  2  0  0  0  0  0  0  0  0  0
   -5.3363    1.3593    1.5416 C   0  0  0  0  0  0  0  0  0  0  0  0
   -3.6163   -0.4664    1.5336 C   0  0  0  0  0  0  0  0  0  0  0  0
   -3.5722   -0.3986   -0.9696 C   0  0  0  0  0  0  0  0  0  0  0  0
    1.3341   -1.2896    0.2755 C   0  0  0  0  0  0  0  0  0  0  0  0
    0.5761   -2.4988   -0.1398 C   0  0  0  0  0  0  0  0  0  0  0  0
    2.7005   -1.0767    0.1589 C   0  0  0  0  0  0  0  0  0  0  0  0
    3.7343   -1.9323   -0.4098 C   0  0  0  0  0  0  0  0  0  0  0  0
    3.8961   -2.0112   -1.7973 C   0  0  0  0  0  0  0  0  0  0  0  0
    4.8828   -2.8333   -2.3444 C   0  0  0  0  0  0  0  0  0  0  0  0
    5.7071   -3.5850   -1.5079 C   0  0  0  0  0  0  0  0  0  0  0  0
    5.5442   -3.5187   -0.1247 C   0  0  0  0  0  0  0  0  0  0  0  0
    4.5584   -2.6964    0.4238 C   0  0  0  0  0  0  0  0  0  0  0  0
    2.9820    4.6555   -0.3323 H   0  0  0  0  0  0  0  0  0  0  0  0
    4.5561    4.2554    0.3741 H   0  0  0  0  0  0  0  0  0  0  0  0
    3.0729    3.5257    1.0214 H   0  0  0  0  0  0  0  0  0  0  0  0
    2.7247    2.3031   -1.1279 H   0  0  0  0  0  0  0  0  0  0  0  0
    4.1188    3.1099   -1.8253 H   0  0  0  0  0  0  0  0  0  0  0  0
    5.6428    2.0081   -0.2311 H   0  0  0  0  0  0  0  0  0  0  0  0
    4.7605    0.8660   -1.2292 H   0  0  0  0  0  0  0  0  0  0  0  0
    4.9481    0.1140    1.1442 H   0  0  0  0  0  0  0  0  0  0  0  0
    4.1069    1.5463    1.7019 H   0  0  0  0  0  0  0  0  0  0  0  0
   -1.0793   -0.3204   -0.6352 H   0  0  0  0  0  0  0  0  0  0  0  0
   -2.7206    2.1675    1.2215 H   0  0  0  0  0  0  0  0  0  0  0  0
   -2.6816    2.1814   -0.5331 H   0  0  0  0  0  0  0  0  0  0  0  0
   -4.8371    3.0912    0.3355 H   0  0  0  0  0  0  0  0  0  0  0  0
   -4.8419    1.8828   -1.8493 H   0  0  0  0  0  0  0  0  0  0  0  0
   -6.3678    1.6465   -1.0004 H   0  0  0  0  0  0  0  0  0  0  0  0
   -5.5204   -0.5169   -1.9135 H   0  0  0  0  0  0  0  0  0  0  0  0
   -5.6117   -1.8281    0.2063 H   0  0  0  0  0  0  0  0  0  0  0  0
   -6.8231   -0.5484    0.2158 H   0  0  0  0  0  0  0  0  0  0  0  0
   -5.6034   -0.6190    2.3894 H   0  0  0  0  0  0  0  0  0  0  0  0
   -4.9115    1.7802    2.4612 H   0  0  0  0  0  0  0  0  0  0  0  0
   -6.4092    1.5876    1.5531 H   0  0  0  0  0  0  0  0  0  0  0  0
   -3.4518   -1.5519    1.5312 H   0  0  0  0  0  0  0  0  0  0  0  0
   -3.1954   -0.0952    2.4748 H   0  0  0  0  0  0  0  0  0  0  0  0
   -3.4056   -1.4829   -1.0218 H   0  0  0  0  0  0  0  0  0  0  0  0
   -3.0961    0.0268   -1.8634 H   0  0  0  0  0  0  0  0  0  0  0  0
    0.1634   -2.3614   -1.1441 H   0  0  0  0  0  0  0  0  0  0  0  0
   -0.2481   -2.7033    0.5509 H   0  0  0  0  0  0  0  0  0  0  0  0
    1.2155   -3.3872   -0.1528 H   0  0  0  0  0  0  0  0  0  0  0  0
    3.2577   -1.4297   -2.4583 H   0  0  0  0  0  0  0  0  0  0  0  0
    5.0074   -2.8885   -3.4228 H   0  0  0  0  0  0  0  0  0  0  0  0
    6.4742   -4.2266   -1.9343 H   0  0  0  0  0  0  0  0  0  0  0  0
    6.1819   -4.1104    0.5272 H   0  0  0  0  0  0  0  0  0  0  0  0
    4.4328   -2.6598    1.5037 H   0  0  0  0  0  0  0  0  0  0  0  0
  1  2  1  0
  2  3  1  0
  3  4  1  0
  4  5  1  0
  5  6  1  0
  6  7  2  0
  7  8  1  0
  8  9  2  0
  8 10  1  0
 11 10  1  6
 11 12  1  0
 12 13  1  0
 13 14  1  0
 14 15  1  0
 15 16  1  0
 16 17  1  0
 17 18  1  0
 17 19  1  0
 15 20  1  0
  7 21  1  0
 21 22  1  0
 21 23  2  0
 23 24  1  0
 24 25  2  0
 25 26  1  0
 26 27  2  0
 27 28  1  0
 28 29  2  0
 23  5  1  0
 29 24  1  0
 19 11  1  0
 20 11  1  0
 18 13  1  0
  1 30  1  0
  1 31  1  0
  1 32  1  0
  2 33  1  0
  2 34  1  0
  3 35  1  0
  3 36  1  0
  4 37  1  0
  4 38  1  0
 10 39  1  0
 12 40  1  0
 12 41  1  0
 13 42  1  1
 14 43  1  0
 14 44  1  0
 15 45  1  6
 16 46  1  0
 16 47  1  0
 17 48  1  1
 18 49  1  0
 18 50  1  0
 19 51  1  0
 19 52  1  0
 20 53  1  0
 20 54  1  0
 22 55  1  0
 22 56  1  0
 22 57  1  0
 25 58  1  0
 26 59  1  0
 27 60  1  0
 28 61  1  0
 29 62  1  0
M  END
>  <_SMILES>  (16) 
CCCCn1nc(C(=O)N[C@]23C[C@H]4C[C@H](C[C@H](C4)C2)C3)c(C)c1-c1ccccc1

$$$$

     RDKit          3D

 68 72  0  0  0  0  0  0  0  0999 V2000
   -0.1029   -3.7805    0.0039 C   0  0  0  0  0  0  0  0  0  0  0  0
    0.4644   -2.4501   -0.3432 C   0  0  0  0  0  0  0  0  0  0  0  0
   -0.2400   -1.2086   -0.3772 C   0  0  0  0  0  0  0  0  0  0  0  0
   -1.6650   -0.9677   -0.0673 C   0  0  0  0  0  0  0  0  0  0  0  0
   -2.4171   -1.8491    0.3317 O   0  0  0  0  0  0  0  0  0  0  0  0
   -2.0397    0.3422   -0.2792 N   0  0  0  0  0  0  0  0  0  0  0  0
   -3.3965    0.8727   -0.1759 C   0  0  2  0  0  0  0  0  0  0  0  0
   -3.3552    2.3910   -0.4951 C   0  0  0  0  0  0  0  0  0  0  0  0
   -4.7590    3.0108   -0.4087 C   0  0  1  0  0  0  0  0  0  0  0  0
   -5.6832    2.3082   -1.4157 C   0  0  0  0  0  0  0  0  0  0  0  0
   -5.7593    0.8060   -1.0995 C   0  0  2  0  0  0  0  0  0  0  0  0
   -6.3031    0.6150    0.3266 C   0  0  0  0  0  0  0  0  0  0  0  0
   -5.3833    1.3143    1.3421 C   0  0  2  0  0  0  0  0  0  0  0  0
   -5.3102    2.8133    1.0119 C   0  0  0  0  0  0  0  0  0  0  0  0
   -3.9735    0.7036    1.2520 C   0  0  0  0  0  0  0  0  0  0  0  0
   -4.3497    0.1952   -1.1906 C   0  0  0  0  0  0  0  0  0  0  0  0
    0.5754   -0.1974   -0.7435 N   0  0  0  0  0  0  0  0  0  0  0  0
    1.7702   -0.7879   -0.9374 N   0  0  0  0  0  0  0  0  0  0  0  0
    2.9004    0.0536   -1.2903 C   0  0  0  0  0  0  0  0  0  0  0  0
    3.7925    0.4193   -0.0970 C   0  0  0  0  0  0  0  0  0  0  0  0
    3.0748    1.2789    0.9506 C   0  0  0  0  0  0  0  0  0  0  0  0
    3.9380    1.5983    2.1751 C   0  0  0  0  0  0  0  0  0  0  0  0
    5.1085    2.5189    1.8633 C   0  0  0  0  0  0  0  0  0  0  0  0
    5.8107    2.8504    3.1279 N   0  0  0  0  0  0  0  0  0  0  0  0
    1.7662   -2.1425   -0.7116 C   0  0  0  0  0  0  0  0  0  0  0  0
    2.9364   -3.0060   -0.8297 C   0  0  0  0  0  0  0  0  0  0  0  0
    3.5222   -3.5537    0.3180 C   0  0  0  0  0  0  0  0  0  0  0  0
    4.6410   -4.3819    0.2117 C   0  0  0  0  0  0  0  0  0  0  0  0
    5.1773   -4.6712   -1.0422 C   0  0  0  0  0  0  0  0  0  0  0  0
    4.5919   -4.1398   -2.1905 C   0  0  0  0  0  0  0  0  0  0  0  0
    3.4720   -3.3127   -2.0856 C   0  0  0  0  0  0  0  0  0  0  0  0
    0.6215   -4.5860   -0.1489 H   0  0  0  0  0  0  0  0  0  0  0  0
   -0.9747   -4.0007   -0.6206 H   0  0  0  0  0  0  0  0  0  0  0  0
   -0.4112   -3.7999    1.0541 H   0  0  0  0  0  0  0  0  0  0  0  0
   -1.3060    0.9116   -0.6930 H   0  0  0  0  0  0  0  0  0  0  0  0
   -2.9410    2.5544   -1.4992 H   0  0  0  0  0  0  0  0  0  0  0  0
   -2.6793    2.9049    0.2015 H   0  0  0  0  0  0  0  0  0  0  0  0
   -4.7062    4.0807   -0.6393 H   0  0  0  0  0  0  0  0  0  0  0  0
   -6.6861    2.7508   -1.3760 H   0  0  0  0  0  0  0  0  0  0  0  0
   -5.3093    2.4581   -2.4360 H   0  0  0  0  0  0  0  0  0  0  0  0
   -6.4227    0.3109   -1.8174 H   0  0  0  0  0  0  0  0  0  0  0  0
   -6.3749   -0.4543    0.5602 H   0  0  0  0  0  0  0  0  0  0  0  0
   -7.3180    1.0251    0.3975 H   0  0  0  0  0  0  0  0  0  0  0  0
   -5.7799    1.1785    2.3545 H   0  0  0  0  0  0  0  0  0  0  0  0
   -4.6680    3.3263    1.7383 H   0  0  0  0  0  0  0  0  0  0  0  0
   -6.3067    3.2643    1.0935 H   0  0  0  0  0  0  0  0  0  0  0  0
   -3.3113    1.1818    1.9856 H   0  0  0  0  0  0  0  0  0  0  0  0
   -4.0268   -0.3549    1.5316 H   0  0  0  0  0  0  0  0  0  0  0  0
   -3.9587    0.3090   -2.2102 H   0  0  0  0  0  0  0  0  0  0  0  0
   -4.4130   -0.8839   -1.0053 H   0  0  0  0  0  0  0  0  0  0  0  0
    2.5061    0.9605   -1.7648 H   0  0  0  0  0  0  0  0  0  0  0  0
    3.4833   -0.4721   -2.0528 H   0  0  0  0  0  0  0  0  0  0  0  0
    4.1740   -0.4906    0.3800 H   0  0  0  0  0  0  0  0  0  0  0  0
    4.6616    0.9642   -0.4827 H   0  0  0  0  0  0  0  0  0  0  0  0
    2.1850    0.7500    1.3105 H   0  0  0  0  0  0  0  0  0  0  0  0
    2.7262    2.2111    0.4902 H   0  0  0  0  0  0  0  0  0  0  0  0
    4.3026    0.6645    2.6211 H   0  0  0  0  0  0  0  0  0  0  0  0
    3.2963    2.0740    2.9280 H   0  0  0  0  0  0  0  0  0  0  0  0
    4.7802    3.4663    1.4263 H   0  0  0  0  0  0  0  0  0  0  0  0
    5.8483    2.0472    1.2113 H   0  0  0  0  0  0  0  0  0  0  0  0
    5.1884    3.3302    3.7924 H   0  0  0  0  0  0  0  0  0  0  0  0
    6.1715    2.0077    3.5951 H   0  0  0  0  0  0  0  0  0  0  0  0
    6.6117    3.4726    2.9567 H   0  0  0  0  0  0  0  0  0  0  0  0
    3.1011   -3.3496    1.2997 H   0  0  0  0  0  0  0  0  0  0  0  0
    5.0844   -4.8163    1.1042 H   0  0  0  0  0  0  0  0  0  0  0  0
    6.0402   -5.3278   -1.1272 H   0  0  0  0  0  0  0  0  0  0  0  0
    4.9973   -4.3842   -3.1696 H   0  0  0  0  0  0  0  0  0  0  0  0
    3.0101   -2.9269   -2.9919 H   0  0  0  0  0  0  0  0  0  0  0  0
  1  2  1  0
  2  3  1  0
  3  4  1  0
  4  5  2  0
  4  6  1  0
  7  6  1  1
  7  8  1  0
  8  9  1  0
  9 10  1  0
 10 11  1  0
 11 12  1  0
 12 13  1  0
 13 14  1  0
 13 15  1  0
 11 16  1  0
  3 17  2  0
 17 18  1  0
 18 19  1  0
 19 20  1  0
 20 21  1  0
 21 22  1  0
 22 23  1  0
 23 24  1  0
 18 25  1  0
 25 26  1  0
 26 27  2  0
 27 28  1  0
 28 29  2  0
 29 30  1  0
 30 31  2  0
 25  2  2  0
 31 26  1  0
 15  7  1  0
 16  7  1  0
 14  9  1  0
  1 32  1  0
  1 33  1  0
  1 34  1  0
  6 35  1  0
  8 36  1  0
  8 37  1  0
  9 38  1  6
 10 39  1  0
 10 40  1  0
 11 41  1  6
 12 42  1  0
 12 43  1  0
 13 44  1  1
 14 45  1  0
 14 46  1  0
 15 47  1  0
 15 48  1  0
 16 49  1  0
 16 50  1  0
 19 51  1  0
 19 52  1  0
 20 53  1  0
 20 54  1  0
 21 55  1  0
 21 56  1  0
 22 57  1  0
 22 58  1  0
 23 59  1  0
 23 60  1  0
 24 61  1  0
 24 62  1  0
 24 63  1  0
 27 64  1  0
 28 65  1  0
 29 66  1  0
 30 67  1  0
 31 68  1  0
M  CHG  1  24   1
M  END
>  <_SMILES>  (17) 
Cc1c(C(=O)N[C@]23C[C@H]4C[C@H](C[C@H](C4)C2)C3)nn(CCCCC[NH3+])c1-c1ccccc1

$$$$

     RDKit          3D

 60 65  0  0  0  0  0  0  0  0999 V2000
   -1.4683   -2.9927   -1.3469 C   0  0  0  0  0  0  0  0  0  0  0  0
   -1.6627   -1.7570   -0.5451 C   0  0  0  0  0  0  0  0  0  0  0  0
   -0.6485   -0.8450   -0.1247 C   0  0  0  0  0  0  0  0  0  0  0  0
    0.8031   -0.9166   -0.3902 C   0  0  0  0  0  0  0  0  0  0  0  0
    1.3218   -1.8191   -1.0385 O   0  0  0  0  0  0  0  0  0  0  0  0
    1.4930    0.1380    0.1677 N   0  0  0  0  0  0  0  0  0  0  0  0
    2.9293    0.3752    0.0811 C   0  0  2  0  0  0  0  0  0  0  0  0
    3.3885    0.5630   -1.3860 C   0  0  0  0  0  0  0  0  0  0  0  0
    4.8973    0.8596   -1.4471 C   0  0  1  0  0  0  0  0  0  0  0  0
    5.1936    2.1491   -0.6652 C   0  0  0  0  0  0  0  0  0  0  0  0
    4.7665    1.9834    0.8016 C   0  0  2  0  0  0  0  0  0  0  0  0
    5.5416    0.8139    1.4285 C   0  0  0  0  0  0  0  0  0  0  0  0
    5.2472   -0.4833    0.6588 C   0  0  2  0  0  0  0  0  0  0  0  0
    5.6690   -0.3086   -0.8101 C   0  0  0  0  0  0  0  0  0  0  0  0
    3.7385   -0.7803    0.7205 C   0  0  0  0  0  0  0  0  0  0  0  0
    3.2612    1.6776    0.8569 C   0  0  0  0  0  0  0  0  0  0  0  0
   -1.1716    0.1697    0.5940 N   0  0  0  0  0  0  0  0  0  0  0  0
   -2.4972   -0.0848    0.6149 N   0  0  0  0  0  0  0  0  0  0  0  0
   -3.3808    0.8476    1.3101 C   0  0  0  0  0  0  0  0  0  0  0  0
   -3.9261    1.9012    0.3903 C   0  0  0  0  0  0  0  0  0  0  0  0
   -4.3625    3.2357    0.9418 C   0  0  0  0  0  0  0  0  0  0  0  0
   -3.1316    3.1455    0.0826 C   0  0  0  0  0  0  0  0  0  0  0  0
   -2.8474   -1.2395   -0.0437 C   0  0  0  0  0  0  0  0  0  0  0  0
   -4.2118   -1.7369   -0.1621 C   0  0  0  0  0  0  0  0  0  0  0  0
   -4.9629   -1.4625   -1.3101 C   0  0  0  0  0  0  0  0  0  0  0  0
   -6.2710   -1.9362   -1.4234 C   0  0  0  0  0  0  0  0  0  0  0  0
   -6.8313   -2.6906   -0.3933 C   0  0  0  0  0  0  0  0  0  0  0  0
   -6.0841   -2.9760    0.7490 C   0  0  0  0  0  0  0  0  0  0  0  0
   -4.7759   -2.5026    0.8641 C   0  0  0  0  0  0  0  0  0  0  0  0
   -1.0498   -2.7485   -2.3286 H   0  0  0  0  0  0  0  0  0  0  0  0
   -0.7832   -3.6766   -0.8356 H   0  0  0  0  0  0  0  0  0  0  0  0
   -2.4095   -3.5266   -1.5091 H   0  0  0  0  0  0  0  0  0  0  0  0
    0.8946    0.7970    0.6622 H   0  0  0  0  0  0  0  0  0  0  0  0
    3.1757   -0.3339   -1.9799 H   0  0  0  0  0  0  0  0  0  0  0  0
    2.8275    1.3819   -1.8553 H   0  0  0  0  0  0  0  0  0  0  0  0
    5.2071    0.9816   -2.4910 H   0  0  0  0  0  0  0  0  0  0  0  0
    4.6597    2.9934   -1.1184 H   0  0  0  0  0  0  0  0  0  0  0  0
    6.2639    2.3830   -0.7198 H   0  0  0  0  0  0  0  0  0  0  0  0
    4.9775    2.9055    1.3546 H   0  0  0  0  0  0  0  0  0  0  0  0
    5.2581    0.6975    2.4818 H   0  0  0  0  0  0  0  0  0  0  0  0
    6.6179    1.0248    1.4100 H   0  0  0  0  0  0  0  0  0  0  0  0
    5.8050   -1.3131    1.1072 H   0  0  0  0  0  0  0  0  0  0  0  0
    6.7480   -0.1200   -0.8691 H   0  0  0  0  0  0  0  0  0  0  0  0
    5.4766   -1.2334   -1.3678 H   0  0  0  0  0  0  0  0  0  0  0  0
    3.5396   -1.7283    0.2066 H   0  0  0  0  0  0  0  0  0  0  0  0
    3.4288   -0.9260    1.7637 H   0  0  0  0  0  0  0  0  0  0  0  0
    2.6968    2.5212    0.4371 H   0  0  0  0  0  0  0  0  0  0  0  0
    2.9404    1.5858    1.9033 H   0  0  0  0  0  0  0  0  0  0  0  0
   -4.1971    0.2733    1.7589 H   0  0  0  0  0  0  0  0  0  0  0  0
   -2.8034    1.2855    2.1335 H   0  0  0  0  0  0  0  0  0  0  0  0
   -4.5266    1.4765   -0.4066 H   0  0  0  0  0  0  0  0  0  0  0  0
   -4.2263    3.4379    1.9983 H   0  0  0  0  0  0  0  0  0  0  0  0
   -5.2457    3.6974    0.5142 H   0  0  0  0  0  0  0  0  0  0  0  0
   -3.1814    3.5398   -0.9263 H   0  0  0  0  0  0  0  0  0  0  0  0
   -2.1640    3.2714    0.5564 H   0  0  0  0  0  0  0  0  0  0  0  0
   -4.5316   -0.8808   -2.1217 H   0  0  0  0  0  0  0  0  0  0  0  0
   -6.8507   -1.7206   -2.3173 H   0  0  0  0  0  0  0  0  0  0  0  0
   -7.8489   -3.0624   -0.4838 H   0  0  0  0  0  0  0  0  0  0  0  0
   -6.5181   -3.5720    1.5477 H   0  0  0  0  0  0  0  0  0  0  0  0
   -4.1977   -2.7395    1.7542 H   0  0  0  0  0  0  0  0  0  0  0  0
  1  2  1  0
  2  3  1  0
  3  4  1  0
  4  5  2  0
  4  6  1  0
  7  6  1  6
  7  8  1  0
  8  9  1  0
  9 10  1  0
 10 11  1  0
 11 12  1  0
 12 13  1  0
 13 14  1  0
 13 15  1  0
 11 16  1  0
  3 17  2  0
 17 18  1  0
 18 19  1  0
 19 20  1  0
 20 21  1  0
 21 22  1  0
 18 23  1  0
 23 24  1  0
 24 25  2  0
 25 26  1  0
 26 27  2  0
 27 28  1  0
 28 29  2  0
 23  2  2  0
 29 24  1  0
 15  7  1  0
 22 20  1  0
 16  7  1  0
 14  9  1  0
  1 30  1  0
  1 31  1  0
  1 32  1  0
  6 33  1  0
  8 34  1  0
  8 35  1  0
  9 36  1  6
 10 37  1  0
 10 38  1  0
 11 39  1  1
 12 40  1  0
 12 41  1  0
 13 42  1  1
 14 43  1  0
 14 44  1  0
 15 45  1  0
 15 46  1  0
 16 47  1  0
 16 48  1  0
 19 49  1  0
 19 50  1  0
 20 51  1  0
 21 52  1  0
 21 53  1  0
 22 54  1  0
 22 55  1  0
 25 56  1  0
 26 57  1  0
 27 58  1  0
 28 59  1  0
 29 60  1  0
M  END
>  <_SMILES>  (18) 
Cc1c(C(=O)N[C@]23C[C@H]4C[C@H](C[C@H](C4)C2)C3)nn(CC2CC2)c1-c1ccccc1

$$$$

     RDKit          3D

 57 61  0  0  0  0  0  0  0  0999 V2000
    9.1227   -0.8591    0.0843 C   0  0  0  0  0  0  0  0  0  0  0  0
    8.3183   -0.2197   -0.8989 O   0  0  0  0  0  0  0  0  0  0  0  0
    6.9728   -0.1703   -0.6602 C   0  0  0  0  0  0  0  0  0  0  0  0
    6.2232    0.4372   -1.6707 C   0  0  0  0  0  0  0  0  0  0  0  0
    4.8358    0.5565   -1.5566 C   0  0  0  0  0  0  0  0  0  0  0  0
    4.1819    0.0708   -0.4215 C   0  0  0  0  0  0  0  0  0  0  0  0
    2.7353    0.1954   -0.2885 C   0  0  0  0  0  0  0  0  0  0  0  0
    1.7405   -0.7701   -0.3399 C   0  0  0  0  0  0  0  0  0  0  0  0
    1.8881   -2.2310   -0.5679 C   0  0  0  0  0  0  0  0  0  0  0  0
    0.5186   -0.0591   -0.1366 C   0  0  0  0  0  0  0  0  0  0  0  0
   -0.8534   -0.6060   -0.0959 C   0  0  0  0  0  0  0  0  0  0  0  0
   -1.1024   -1.7995   -0.2275 O   0  0  0  0  0  0  0  0  0  0  0  0
   -1.8044    0.3706    0.1071 N   0  0  0  0  0  0  0  0  0  0  0  0
   -3.2458    0.1683    0.2007 C   0  0  2  0  0  0  0  0  0  0  0  0
   -3.6167   -0.7508    1.3908 C   0  0  0  0  0  0  0  0  0  0  0  0
   -5.1438   -0.9094    1.4968 C   0  0  1  0  0  0  0  0  0  0  0  0
   -5.7838    0.4704    1.7169 C   0  0  0  0  0  0  0  0  0  0  0  0
   -5.4490    1.3982    0.5386 C   0  0  2  0  0  0  0  0  0  0  0  0
   -5.9891    0.7840   -0.7624 C   0  0  0  0  0  0  0  0  0  0  0  0
   -5.3502   -0.5939   -0.9970 C   0  0  2  0  0  0  0  0  0  0  0  0
   -5.6817   -1.5154    0.1893 C   0  0  0  0  0  0  0  0  0  0  0  0
   -3.8232   -0.4353   -1.1036 C   0  0  0  0  0  0  0  0  0  0  0  0
   -3.9229    1.5456    0.4309 C   0  0  0  0  0  0  0  0  0  0  0  0
    0.7444    1.2611    0.0276 N   0  0  0  0  0  0  0  0  0  0  0  0
    2.0823    1.3809   -0.0562 N   0  0  0  0  0  0  0  0  0  0  0  0
    2.6786    2.6873    0.1119 C   0  0  0  0  0  0  0  0  0  0  0  0
    4.9307   -0.5430    0.5877 C   0  0  0  0  0  0  0  0  0  0  0  0
    6.3206   -0.6618    0.4707 C   0  0  0  0  0  0  0  0  0  0  0  0
    8.8430   -1.9114    0.2005 H   0  0  0  0  0  0  0  0  0  0  0  0
   10.1607   -0.8267   -0.2605 H   0  0  0  0  0  0  0  0  0  0  0  0
    9.0729   -0.3280    1.0406 H   0  0  0  0  0  0  0  0  0  0  0  0
    6.7245    0.8154   -2.5584 H   0  0  0  0  0  0  0  0  0  0  0  0
    4.2734    1.0196   -2.3637 H   0  0  0  0  0  0  0  0  0  0  0  0
    1.2865   -2.5479   -1.4259 H   0  0  0  0  0  0  0  0  0  0  0  0
    1.5590   -2.7891    0.3145 H   0  0  0  0  0  0  0  0  0  0  0  0
    2.9259   -2.5099   -0.7734 H   0  0  0  0  0  0  0  0  0  0  0  0
   -1.4126    1.3059    0.1981 H   0  0  0  0  0  0  0  0  0  0  0  0
   -3.2184   -0.3364    2.3262 H   0  0  0  0  0  0  0  0  0  0  0  0
   -3.1614   -1.7417    1.2763 H   0  0  0  0  0  0  0  0  0  0  0  0
   -5.3886   -1.5681    2.3375 H   0  0  0  0  0  0  0  0  0  0  0  0
   -6.8715    0.3676    1.8158 H   0  0  0  0  0  0  0  0  0  0  0  0
   -5.4188    0.9077    2.6544 H   0  0  0  0  0  0  0  0  0  0  0  0
   -5.9053    2.3811    0.7007 H   0  0  0  0  0  0  0  0  0  0  0  0
   -5.7718    1.4470   -1.6089 H   0  0  0  0  0  0  0  0  0  0  0  0
   -7.0802    0.6866   -0.7063 H   0  0  0  0  0  0  0  0  0  0  0  0
   -5.7413   -1.0291   -1.9234 H   0  0  0  0  0  0  0  0  0  0  0  0
   -6.7672   -1.6559    0.2613 H   0  0  0  0  0  0  0  0  0  0  0  0
   -5.2424   -2.5074    0.0274 H   0  0  0  0  0  0  0  0  0  0  0  0
   -3.5731    0.2058   -1.9592 H   0  0  0  0  0  0  0  0  0  0  0  0
   -3.3758   -1.4142   -1.3131 H   0  0  0  0  0  0  0  0  0  0  0  0
   -3.6744    2.2304   -0.3911 H   0  0  0  0  0  0  0  0  0  0  0  0
   -3.5307    2.0108    1.3453 H   0  0  0  0  0  0  0  0  0  0  0  0
    1.9488    3.3617    0.5681 H   0  0  0  0  0  0  0  0  0  0  0  0
    3.5490    2.6014    0.7668 H   0  0  0  0  0  0  0  0  0  0  0  0
    2.9668    3.0601   -0.8737 H   0  0  0  0  0  0  0  0  0  0  0  0
    4.4359   -0.9327    1.4750 H   0  0  0  0  0  0  0  0  0  0  0  0
    6.8598   -1.1436    1.2793 H   0  0  0  0  0  0  0  0  0  0  0  0
  1  2  1  0
  2  3  1  0
  3  4  1  0
  4  5  2  0
  5  6  1  0
  6  7  1  0
  7  8  2  0
  8  9  1  0
  8 10  1  0
 10 11  1  0
 11 12  2  0
 11 13  1  0
 14 13  1  6
 14 15  1  0
 15 16  1  0
 16 17  1  0
 17 18  1  0
 18 19  1  0
 19 20  1  0
 20 21  1  0
 20 22  1  0
 18 23  1  0
 10 24  2  0
 24 25  1  0
 25 26  1  0
  6 27  2  0
 27 28  1  0
 28  3  2  0
 25  7  1  0
 22 14  1  0
 23 14  1  0
 21 16  1  0
  1 29  1  0
  1 30  1  0
  1 31  1  0
  4 32  1  0
  5 33  1  0
  9 34  1  0
  9 35  1  0
  9 36  1  0
 13 37  1  0
 15 38  1  0
 15 39  1  0
 16 40  1  1
 17 41  1  0
 17 42  1  0
 18 43  1  1
 19 44  1  0
 19 45  1  0
 20 46  1  6
 21 47  1  0
 21 48  1  0
 22 49  1  0
 22 50  1  0
 23 51  1  0
 23 52  1  0
 26 53  1  0
 26 54  1  0
 26 55  1  0
 27 56  1  0
 28 57  1  0
M  END
>  <_SMILES>  (19) 
COc1ccc(-c2c(C)c(C(=O)N[C@]34C[C@H]5C[C@H](C[C@H](C5)C3)C4)nn2C)cc1

$$$$

     RDKit          3D

 57 61  0  0  0  0  0  0  0  0999 V2000
   -1.1214    2.0172    0.2717 C   0  0  0  0  0  0  0  0  0  0  0  0
   -1.7500    0.6719    0.1945 C   0  0  0  0  0  0  0  0  0  0  0  0
   -1.1180   -0.6017    0.3786 C   0  0  0  0  0  0  0  0  0  0  0  0
    0.3062   -0.8943    0.6448 C   0  0  0  0  0  0  0  0  0  0  0  0
    0.6662   -1.7707    1.4237 O   0  0  0  0  0  0  0  0  0  0  0  0
    1.1835   -0.1116   -0.0874 N   0  0  0  0  0  0  0  0  0  0  0  0
    2.6397   -0.2744   -0.0896 C   0  0  2  0  0  0  0  0  0  0  0  0
    3.2471    0.8185   -1.0112 C   0  0  0  0  0  0  0  0  0  0  0  0
    4.7787    0.7049   -1.0685 C   0  0  1  0  0  0  0  0  0  0  0  0
    5.3494    0.8750    0.3476 C   0  0  0  0  0  0  0  0  0  0  0  0
    4.7814   -0.2106    1.2747 C   0  0  2  0  0  0  0  0  0  0  0  0
    5.1599   -1.5968    0.7255 C   0  0  0  0  0  0  0  0  0  0  0  0
    4.5932   -1.7776   -0.6931 C   0  0  2  0  0  0  0  0  0  0  0  0
    5.1613   -0.6819   -1.6089 C   0  0  0  0  0  0  0  0  0  0  0  0
    3.0596   -1.6569   -0.6460 C   0  0  0  0  0  0  0  0  0  0  0  0
    3.2480   -0.0874    1.3238 C   0  0  0  0  0  0  0  0  0  0  0  0
   -2.0172   -1.5959    0.2832 N   0  0  0  0  0  0  0  0  0  0  0  0
   -3.1878   -0.9824    0.0312 N   0  0  0  0  0  0  0  0  0  0  0  0
   -4.3782   -1.8102   -0.1075 C   0  0  0  0  0  0  0  0  0  0  0  0
   -4.6640   -2.5932    1.1695 C   0  0  0  0  0  0  0  0  0  0  0  0
   -3.7545   -3.6798    1.3310 O   0  0  0  0  0  0  0  0  0  0  0  0
   -3.0869    0.3839   -0.0421 C   0  0  0  0  0  0  0  0  0  0  0  0
   -4.2071    1.2810   -0.2887 C   0  0  0  0  0  0  0  0  0  0  0  0
   -4.5486    1.6353   -1.6004 C   0  0  0  0  0  0  0  0  0  0  0  0
   -5.6232    2.4948   -1.8349 C   0  0  0  0  0  0  0  0  0  0  0  0
   -6.3469    2.9970   -0.7591 C   0  0  0  0  0  0  0  0  0  0  0  0
   -7.3773    3.8217   -0.9859 F   0  0  0  0  0  0  0  0  0  0  0  0
   -6.0166    2.6580    0.5482 C   0  0  0  0  0  0  0  0  0  0  0  0
   -4.9427    1.7986    0.7856 C   0  0  0  0  0  0  0  0  0  0  0  0
   -1.8523    2.7872    0.5381 H   0  0  0  0  0  0  0  0  0  0  0  0
   -0.6816    2.2863   -0.6937 H   0  0  0  0  0  0  0  0  0  0  0  0
   -0.3349    2.0405    1.0326 H   0  0  0  0  0  0  0  0  0  0  0  0
    0.7755    0.3746   -0.8744 H   0  0  0  0  0  0  0  0  0  0  0  0
    2.9618    1.8163   -0.6515 H   0  0  0  0  0  0  0  0  0  0  0  0
    2.8339    0.7297   -2.0250 H   0  0  0  0  0  0  0  0  0  0  0  0
    5.1833    1.4825   -1.7260 H   0  0  0  0  0  0  0  0  0  0  0  0
    5.0983    1.8694    0.7366 H   0  0  0  0  0  0  0  0  0  0  0  0
    6.4441    0.8105    0.3211 H   0  0  0  0  0  0  0  0  0  0  0  0
    5.1935   -0.0873    2.2825 H   0  0  0  0  0  0  0  0  0  0  0  0
    4.7716   -2.3809    1.3870 H   0  0  0  0  0  0  0  0  0  0  0  0
    6.2513   -1.7065    0.7085 H   0  0  0  0  0  0  0  0  0  0  0  0
    4.8734   -2.7638   -1.0800 H   0  0  0  0  0  0  0  0  0  0  0  0
    6.2528   -0.7725   -1.6691 H   0  0  0  0  0  0  0  0  0  0  0  0
    4.7748   -0.8073   -2.6279 H   0  0  0  0  0  0  0  0  0  0  0  0
    2.6427   -1.8016   -1.6513 H   0  0  0  0  0  0  0  0  0  0  0  0
    2.6551   -2.4666   -0.0271 H   0  0  0  0  0  0  0  0  0  0  0  0
    2.9640    0.8923    1.7299 H   0  0  0  0  0  0  0  0  0  0  0  0
    2.8576   -0.8340    2.0245 H   0  0  0  0  0  0  0  0  0  0  0  0
   -4.1924   -2.4801   -0.9545 H   0  0  0  0  0  0  0  0  0  0  0  0
   -5.2266   -1.1651   -0.3492 H   0  0  0  0  0  0  0  0  0  0  0  0
   -4.6065   -1.9573    2.0594 H   0  0  0  0  0  0  0  0  0  0  0  0
   -5.6692   -3.0228    1.1220 H   0  0  0  0  0  0  0  0  0  0  0  0
   -2.8512   -3.3057    1.2205 H   0  0  0  0  0  0  0  0  0  0  0  0
   -3.9802    1.2467   -2.4424 H   0  0  0  0  0  0  0  0  0  0  0  0
   -5.8985    2.7770   -2.8461 H   0  0  0  0  0  0  0  0  0  0  0  0
   -6.5938    3.0664    1.3717 H   0  0  0  0  0  0  0  0  0  0  0  0
   -4.6804    1.5394    1.8093 H   0  0  0  0  0  0  0  0  0  0  0  0
  1  2  1  0
  2  3  1  0
  3  4  1  0
  4  5  2  0
  4  6  1  0
  7  6  1  1
  7  8  1  0
  8  9  1  0
  9 10  1  0
 10 11  1  0
 11 12  1  0
 12 13  1  0
 13 14  1  0
 13 15  1  0
 11 16  1  0
  3 17  2  0
 17 18  1  0
 18 19  1  0
 19 20  1  0
 20 21  1  0
 18 22  1  0
 22 23  1  0
 23 24  1  0
 24 25  2  0
 25 26  1  0
 26 27  1  0
 26 28  2  0
 28 29  1  0
 22  2  2  0
 29 23  2  0
 15  7  1  0
 16  7  1  0
 14  9  1  0
  1 30  1  0
  1 31  1  0
  1 32  1  0
  6 33  1  0
  8 34  1  0
  8 35  1  0
  9 36  1  6
 10 37  1  0
 10 38  1  0
 11 39  1  1
 12 40  1  0
 12 41  1  0
 13 42  1  6
 14 43  1  0
 14 44  1  0
 15 45  1  0
 15 46  1  0
 16 47  1  0
 16 48  1  0
 19 49  1  0
 19 50  1  0
 20 51  1  0
 20 52  1  0
 21 53  1  0
 24 54  1  0
 25 55  1  0
 28 56  1  0
 29 57  1  0
M  END
>  <_SMILES>  (20) 
Cc1c(C(=O)N[C@]23C[C@H]4C[C@H](C[C@H](C4)C2)C3)nn(CCO)c1-c1ccc(F)cc1

$$$$

     RDKit          3D

 67 71  0  0  0  0  0  0  0  0999 V2000
   -0.0338   -1.7760    1.1432 C   0  0  0  0  0  0  0  0  0  0  0  0
   -0.6245   -0.7642    0.2171 C   0  0  0  0  0  0  0  0  0  0  0  0
   -0.0113    0.4622   -0.2206 C   0  0  0  0  0  0  0  0  0  0  0  0
    1.3090    1.0320    0.0612 C   0  0  0  0  0  0  0  0  0  0  0  0
    1.5020    2.2422    0.0811 O   0  0  0  0  0  0  0  0  0  0  0  0
    2.3009    0.0915    0.2350 N   0  0  0  0  0  0  0  0  0  0  0  0
    3.7212    0.3969    0.4176 C   0  0  2  0  0  0  0  0  0  0  0  0
    4.3174    1.1036   -0.8243 C   0  0  0  0  0  0  0  0  0  0  0  0
    5.8225    1.3595   -0.6301 C   0  0  1  0  0  0  0  0  0  0  0  0
    6.0309    2.2386    0.6149 C   0  0  0  0  0  0  0  0  0  0  0  0
    5.4761    1.5302    1.8626 C   0  0  2  0  0  0  0  0  0  0  0  0
    6.2008    0.1883    2.0487 C   0  0  0  0  0  0  0  0  0  0  0  0
    5.9878   -0.6977    0.8118 C   0  0  2  0  0  0  0  0  0  0  0  0
    6.5444    0.0176   -0.4293 C   0  0  0  0  0  0  0  0  0  0  0  0
    4.4826   -0.9416    0.6202 C   0  0  0  0  0  0  0  0  0  0  0  0
    3.9706    1.2738    1.6711 C   0  0  0  0  0  0  0  0  0  0  0  0
   -0.9499    1.0993   -1.0094 C   0  0  0  0  0  0  0  0  0  0  0  0
   -2.0733    0.3197   -1.0984 N   0  0  0  0  0  0  0  0  0  0  0  0
   -3.2371    0.7011   -1.8882 C   0  0  0  0  0  0  0  0  0  0  0  0
   -4.0343    1.8669   -1.2954 C   0  0  0  0  0  0  0  0  0  0  0  0
   -4.8394    1.5227   -0.0385 C   0  0  0  0  0  0  0  0  0  0  0  0
   -5.9921    0.5323   -0.2469 C   0  0  0  0  0  0  0  0  0  0  0  0
   -7.0591    0.9914   -1.2350 C   0  0  0  0  0  0  0  0  0  0  0  0
   -7.5718    2.2663   -0.8800 O   0  0  0  0  0  0  0  0  0  0  0  0
   -1.8860   -0.8408   -0.3765 C   0  0  0  0  0  0  0  0  0  0  0  0
   -2.8783   -1.9099   -0.2684 C   0  0  0  0  0  0  0  0  0  0  0  0
   -3.0746   -2.8025   -1.3281 C   0  0  0  0  0  0  0  0  0  0  0  0
   -4.0162   -3.8277   -1.2197 C   0  0  0  0  0  0  0  0  0  0  0  0
   -4.7604   -3.9708   -0.0491 C   0  0  0  0  0  0  0  0  0  0  0  0
   -4.5622   -3.0923    1.0153 C   0  0  0  0  0  0  0  0  0  0  0  0
   -3.6220   -2.0660    0.9070 C   0  0  0  0  0  0  0  0  0  0  0  0
    0.5847   -2.4849    0.5839 H   0  0  0  0  0  0  0  0  0  0  0  0
   -0.8048   -2.3439    1.6719 H   0  0  0  0  0  0  0  0  0  0  0  0
    0.5853   -1.2948    1.9069 H   0  0  0  0  0  0  0  0  0  0  0  0
    2.0670   -0.8408   -0.0758 H   0  0  0  0  0  0  0  0  0  0  0  0
    3.8121    2.0588   -1.0104 H   0  0  0  0  0  0  0  0  0  0  0  0
    4.1555    0.4911   -1.7210 H   0  0  0  0  0  0  0  0  0  0  0  0
    6.2267    1.8674   -1.5129 H   0  0  0  0  0  0  0  0  0  0  0  0
    5.5307    3.2053    0.4791 H   0  0  0  0  0  0  0  0  0  0  0  0
    7.0991    2.4491    0.7489 H   0  0  0  0  0  0  0  0  0  0  0  0
    5.6334    2.1598    2.7455 H   0  0  0  0  0  0  0  0  0  0  0  0
    5.8238   -0.3205    2.9443 H   0  0  0  0  0  0  0  0  0  0  0  0
    7.2726    0.3597    2.2072 H   0  0  0  0  0  0  0  0  0  0  0  0
    6.5034   -1.6546    0.9493 H   0  0  0  0  0  0  0  0  0  0  0  0
    6.4146   -0.6144   -1.3164 H   0  0  0  0  0  0  0  0  0  0  0  0
    7.6222    0.1856   -0.3131 H   0  0  0  0  0  0  0  0  0  0  0  0
    4.3241   -1.6007   -0.2441 H   0  0  0  0  0  0  0  0  0  0  0  0
    4.0792   -1.4769    1.4903 H   0  0  0  0  0  0  0  0  0  0  0  0
    3.4570    2.2382    1.5872 H   0  0  0  0  0  0  0  0  0  0  0  0
    3.5582    0.7832    2.5626 H   0  0  0  0  0  0  0  0  0  0  0  0
   -0.8901    2.0544   -1.5173 H   0  0  0  0  0  0  0  0  0  0  0  0
   -2.8466    0.9948   -2.8710 H   0  0  0  0  0  0  0  0  0  0  0  0
   -3.8692   -0.1732   -2.0567 H   0  0  0  0  0  0  0  0  0  0  0  0
   -4.7086    2.2589   -2.0651 H   0  0  0  0  0  0  0  0  0  0  0  0
   -3.3526    2.6905   -1.0488 H   0  0  0  0  0  0  0  0  0  0  0  0
   -4.1663    1.1253    0.7300 H   0  0  0  0  0  0  0  0  0  0  0  0
   -5.2455    2.4549    0.3738 H   0  0  0  0  0  0  0  0  0  0  0  0
   -6.4676    0.3773    0.7298 H   0  0  0  0  0  0  0  0  0  0  0  0
   -5.6103   -0.4403   -0.5687 H   0  0  0  0  0  0  0  0  0  0  0  0
   -7.8903    0.2788   -1.2532 H   0  0  0  0  0  0  0  0  0  0  0  0
   -6.6585    1.0532   -2.2509 H   0  0  0  0  0  0  0  0  0  0  0  0
   -7.9262    2.1986    0.0232 H   0  0  0  0  0  0  0  0  0  0  0  0
   -2.4905   -2.7049   -2.2400 H   0  0  0  0  0  0  0  0  0  0  0  0
   -4.1641   -4.5179   -2.0462 H   0  0  0  0  0  0  0  0  0  0  0  0
   -5.4905   -4.7716    0.0361 H   0  0  0  0  0  0  0  0  0  0  0  0
   -5.1367   -3.2069    1.9307 H   0  0  0  0  0  0  0  0  0  0  0  0
   -3.4712   -1.3852    1.7417 H   0  0  0  0  0  0  0  0  0  0  0  0
  1  2  1  0
  2  3  1  0
  3  4  1  0
  4  5  2  0
  4  6  1  0
  7  6  1  6
  7  8  1  0
  8  9  1  0
  9 10  1  0
 10 11  1  0
 11 12  1  0
 12 13  1  0
 13 14  1  0
 13 15  1  0
 11 16  1  0
  3 17  2  0
 17 18  1  0
 18 19  1  0
 19 20  1  0
 20 21  1  0
 21 22  1  0
 22 23  1  0
 23 24  1  0
 18 25  1  0
 25 26  1  0
 26 27  2  0
 27 28  1  0
 28 29  2  0
 29 30  1  0
 30 31  2  0
 25  2  2  0
 31 26  1  0
 15  7  1  0
 16  7  1  0
 14  9  1  0
  1 32  1  0
  1 33  1  0
  1 34  1  0
  6 35  1  0
  8 36  1  0
  8 37  1  0
  9 38  1  6
 10 39  1  0
 10 40  1  0
 11 41  1  1
 12 42  1  0
 12 43  1  0
 13 44  1  1
 14 45  1  0
 14 46  1  0
 15 47  1  0
 15 48  1  0
 16 49  1  0
 16 50  1  0
 17 51  1  0
 19 52  1  0
 19 53  1  0
 20 54  1  0
 20 55  1  0
 21 56  1  0
 21 57  1  0
 22 58  1  0
 22 59  1  0
 23 60  1  0
 23 61  1  0
 24 62  1  0
 27 63  1  0
 28 64  1  0
 29 65  1  0
 30 66  1  0
 31 67  1  0
M  END
>  <_SMILES>  (21) 
Cc1c(C(=O)N[C@]23C[C@H]4C[C@H](C[C@H](C4)C2)C3)cn(CCCCCO)c1-c1ccccc1

$$$$

     RDKit          3D

 53 57  0  0  0  0  0  0  0  0999 V2000
    1.7022   -0.3920   -1.5484 C   0  0  0  0  0  0  0  0  0  0  0  0
    2.0707   -0.5309   -0.1151 C   0  0  0  0  0  0  0  0  0  0  0  0
    1.1945   -0.7913    0.9907 C   0  0  0  0  0  0  0  0  0  0  0  0
   -0.2754   -0.9423    0.9789 C   0  0  0  0  0  0  0  0  0  0  0  0
   -0.8629   -1.7966    1.6343 O   0  0  0  0  0  0  0  0  0  0  0  0
   -0.9207   -0.0115    0.1805 N   0  0  0  0  0  0  0  0  0  0  0  0
   -2.3750    0.1308    0.0778 C   0  0  2  0  0  0  0  0  0  0  0  0
   -2.6793    1.2633   -0.9409 C   0  0  0  0  0  0  0  0  0  0  0  0
   -4.1934    1.4755   -1.0959 C   0  0  1  0  0  0  0  0  0  0  0  0
   -4.8359    0.1722   -1.5946 C   0  0  0  0  0  0  0  0  0  0  0  0
   -4.5692   -0.9602   -0.5911 C   0  0  2  0  0  0  0  0  0  0  0  0
   -5.1633   -0.5784    0.7756 C   0  0  0  0  0  0  0  0  0  0  0  0
   -4.5266    0.7261    1.2844 C   0  0  2  0  0  0  0  0  0  0  0  0
   -4.7924    1.8490    0.2692 C   0  0  0  0  0  0  0  0  0  0  0  0
   -3.0082    0.5248    1.4346 C   0  0  0  0  0  0  0  0  0  0  0  0
   -3.0506   -1.1631   -0.4436 C   0  0  0  0  0  0  0  0  0  0  0  0
    1.8890   -0.8812    2.1372 N   0  0  0  0  0  0  0  0  0  0  0  0
    3.1682   -0.6970    1.7799 N   0  0  0  0  0  0  0  0  0  0  0  0
    4.1950   -0.7712    2.7947 C   0  0  0  0  0  0  0  0  0  0  0  0
    3.3398   -0.4508    0.4406 C   0  0  0  0  0  0  0  0  0  0  0  0
    4.6324   -0.2020   -0.1840 C   0  0  0  0  0  0  0  0  0  0  0  0
    5.2401    1.0543   -0.0721 C   0  0  0  0  0  0  0  0  0  0  0  0
    6.4799    1.2913   -0.6710 C   0  0  0  0  0  0  0  0  0  0  0  0
    7.1108    0.2726   -1.3832 C   0  0  0  0  0  0  0  0  0  0  0  0
    8.6373    0.5649   -2.1204 Cl  0  0  0  0  0  0  0  0  0  0  0  0
    6.5128   -0.9806   -1.5030 C   0  0  0  0  0  0  0  0  0  0  0  0
    5.2729   -1.2173   -0.9042 C   0  0  0  0  0  0  0  0  0  0  0  0
    0.8791   -1.0649   -1.8091 H   0  0  0  0  0  0  0  0  0  0  0  0
    2.5416   -0.6373   -2.2060 H   0  0  0  0  0  0  0  0  0  0  0  0
    1.3931    0.6359   -1.7624 H   0  0  0  0  0  0  0  0  0  0  0  0
   -0.3601    0.7861   -0.0883 H   0  0  0  0  0  0  0  0  0  0  0  0
   -2.2084    2.2007   -0.6150 H   0  0  0  0  0  0  0  0  0  0  0  0
   -2.2361    1.0221   -1.9164 H   0  0  0  0  0  0  0  0  0  0  0  0
   -4.3829    2.2799   -1.8153 H   0  0  0  0  0  0  0  0  0  0  0  0
   -5.9162    0.3121   -1.7240 H   0  0  0  0  0  0  0  0  0  0  0  0
   -4.4293   -0.0945   -2.5778 H   0  0  0  0  0  0  0  0  0  0  0  0
   -5.0318   -1.8867   -0.9492 H   0  0  0  0  0  0  0  0  0  0  0  0
   -6.2498   -0.4548    0.6891 H   0  0  0  0  0  0  0  0  0  0  0  0
   -4.9914   -1.3859    1.4978 H   0  0  0  0  0  0  0  0  0  0  0  0
   -4.9602    0.9952    2.2541 H   0  0  0  0  0  0  0  0  0  0  0  0
   -5.8718    2.0179    0.1712 H   0  0  0  0  0  0  0  0  0  0  0  0
   -4.3544    2.7890    0.6266 H   0  0  0  0  0  0  0  0  0  0  0  0
   -2.5453    1.4452    1.8140 H   0  0  0  0  0  0  0  0  0  0  0  0
   -2.8219   -0.2463    2.1915 H   0  0  0  0  0  0  0  0  0  0  0  0
   -2.8727   -2.0040    0.2362 H   0  0  0  0  0  0  0  0  0  0  0  0
   -2.6161   -1.4524   -1.4095 H   0  0  0  0  0  0  0  0  0  0  0  0
    4.5485    0.2425    2.9977 H   0  0  0  0  0  0  0  0  0  0  0  0
    3.7760   -1.2100    3.7043 H   0  0  0  0  0  0  0  0  0  0  0  0
    5.0092   -1.4019    2.4300 H   0  0  0  0  0  0  0  0  0  0  0  0
    4.7498    1.8563    0.4755 H   0  0  0  0  0  0  0  0  0  0  0  0
    6.9446    2.2696   -0.5810 H   0  0  0  0  0  0  0  0  0  0  0  0
    7.0033   -1.7749   -2.0593 H   0  0  0  0  0  0  0  0  0  0  0  0
    4.8102   -2.1974   -1.0014 H   0  0  0  0  0  0  0  0  0  0  0  0
  1  2  1  0
  2  3  1  0
  3  4  1  0
  4  5  2  0
  4  6  1  0
  7  6  1  1
  7  8  1  0
  8  9  1  0
  9 10  1  0
 10 11  1  0
 11 12  1  0
 12 13  1  0
 13 14  1  0
 13 15  1  0
 11 16  1  0
  3 17  2  0
 17 18  1  0
 18 19  1  0
 18 20  1  0
 20 21  1  0
 21 22  1  0
 22 23  2  0
 23 24  1  0
 24 25  1  0
 24 26  2  0
 26 27  1  0
 20  2  2  0
 27 21  2  0
 15  7  1  0
 16  7  1  0
 14  9  1  0
  1 28  1  0
  1 29  1  0
  1 30  1  0
  6 31  1  0
  8 32  1  0
  8 33  1  0
  9 34  1  6
 10 35  1  0
 10 36  1  0
 11 37  1  6
 12 38  1  0
 12 39  1  0
 13 40  1  1
 14 41  1  0
 14 42  1  0
 15 43  1  0
 15 44  1  0
 16 45  1  0
 16 46  1  0
 19 47  1  0
 19 48  1  0
 19 49  1  0
 22 50  1  0
 23 51  1  0
 26 52  1  0
 27 53  1  0
M  END
>  <_SMILES>  (22) 
Cc1c(C(=O)N[C@]23C[C@H]4C[C@H](C[C@H](C4)C2)C3)nn(C)c1-c1ccc(Cl)cc1

$$$$

     RDKit          3D

 59 63  0  0  0  0  0  0  0  0999 V2000
   -5.5494    0.6998    3.2738 C   0  0  0  0  0  0  0  0  0  0  0  0
   -4.3022    0.3263    2.4899 C   0  0  0  0  0  0  0  0  0  0  0  0
   -4.0568    1.2990    1.3398 C   0  0  0  0  0  0  0  0  0  0  0  0
   -2.8734    0.9491    0.5710 N   0  0  0  0  0  0  0  0  0  0  0  0
   -1.6792    1.3919    0.9974 N   0  0  0  0  0  0  0  0  0  0  0  0
   -0.7979    0.9361    0.0918 C   0  0  0  0  0  0  0  0  0  0  0  0
    0.6463    1.2166    0.2294 C   0  0  0  0  0  0  0  0  0  0  0  0
    1.0837    2.3077    0.5802 O   0  0  0  0  0  0  0  0  0  0  0  0
    1.4513    0.1230   -0.0474 N   0  0  0  0  0  0  0  0  0  0  0  0
    2.9062    0.0968    0.1194 C   0  0  2  0  0  0  0  0  0  0  0  0
    3.6118    1.1602   -0.7602 C   0  0  0  0  0  0  0  0  0  0  0  0
    5.1400    1.0676   -0.6016 C   0  0  1  0  0  0  0  0  0  0  0  0
    5.5091    1.2874    0.8755 C   0  0  0  0  0  0  0  0  0  0  0  0
    4.8444    0.2134    1.7534 C   0  0  2  0  0  0  0  0  0  0  0  0
    5.3186   -1.1764    1.2995 C   0  0  0  0  0  0  0  0  0  0  0  0
    4.9446   -1.4037   -0.1737 C   0  0  2  0  0  0  0  0  0  0  0  0
    5.6134   -0.3264   -1.0410 C   0  0  0  0  0  0  0  0  0  0  0  0
    3.4192   -1.2994   -0.3283 C   0  0  0  0  0  0  0  0  0  0  0  0
    3.3160    0.3054    1.5978 C   0  0  0  0  0  0  0  0  0  0  0  0
   -1.4641    0.1848   -0.9318 C   0  0  0  0  0  0  0  0  0  0  0  0
   -0.8596   -0.4527   -2.1306 C   0  0  0  0  0  0  0  0  0  0  0  0
   -2.8052    0.1995   -0.5768 C   0  0  0  0  0  0  0  0  0  0  0  0
   -3.9569   -0.4017   -1.2356 C   0  0  0  0  0  0  0  0  0  0  0  0
   -4.3762   -1.6893   -0.8852 C   0  0  0  0  0  0  0  0  0  0  0  0
   -5.4819   -2.2632   -1.5152 C   0  0  0  0  0  0  0  0  0  0  0  0
   -6.1693   -1.5546   -2.5001 C   0  0  0  0  0  0  0  0  0  0  0  0
   -5.7514   -0.2734   -2.8583 C   0  0  0  0  0  0  0  0  0  0  0  0
   -4.6463    0.3021   -2.2290 C   0  0  0  0  0  0  0  0  0  0  0  0
   -5.7071   -0.0067    4.0946 H   0  0  0  0  0  0  0  0  0  0  0  0
   -6.4362    0.6790    2.6324 H   0  0  0  0  0  0  0  0  0  0  0  0
   -5.4577    1.7032    3.7019 H   0  0  0  0  0  0  0  0  0  0  0  0
   -4.4100   -0.6949    2.1064 H   0  0  0  0  0  0  0  0  0  0  0  0
   -3.4389    0.3183    3.1661 H   0  0  0  0  0  0  0  0  0  0  0  0
   -4.9133    1.3286    0.6585 H   0  0  0  0  0  0  0  0  0  0  0  0
   -3.9090    2.3185    1.7161 H   0  0  0  0  0  0  0  0  0  0  0  0
    0.9735   -0.7681   -0.0659 H   0  0  0  0  0  0  0  0  0  0  0  0
    3.3357    1.0213   -1.8138 H   0  0  0  0  0  0  0  0  0  0  0  0
    3.2911    2.1727   -0.4907 H   0  0  0  0  0  0  0  0  0  0  0  0
    5.6217    1.8327   -1.2207 H   0  0  0  0  0  0  0  0  0  0  0  0
    6.5985    1.2483    0.9980 H   0  0  0  0  0  0  0  0  0  0  0  0
    5.1885    2.2858    1.1974 H   0  0  0  0  0  0  0  0  0  0  0  0
    5.1182    0.3722    2.8024 H   0  0  0  0  0  0  0  0  0  0  0  0
    4.8616   -1.9517    1.9266 H   0  0  0  0  0  0  0  0  0  0  0  0
    6.4046   -1.2623    1.4280 H   0  0  0  0  0  0  0  0  0  0  0  0
    5.2820   -2.3964   -0.4918 H   0  0  0  0  0  0  0  0  0  0  0  0
    5.3686   -0.4899   -2.0977 H   0  0  0  0  0  0  0  0  0  0  0  0
    6.7044   -0.3973   -0.9523 H   0  0  0  0  0  0  0  0  0  0  0  0
    2.9351   -2.0873    0.2643 H   0  0  0  0  0  0  0  0  0  0  0  0
    3.1380   -1.4870   -1.3734 H   0  0  0  0  0  0  0  0  0  0  0  0
    2.8301   -0.4461    2.2339 H   0  0  0  0  0  0  0  0  0  0  0  0
    2.9766    1.2819    1.9634 H   0  0  0  0  0  0  0  0  0  0  0  0
   -0.4901   -1.4527   -1.8828 H   0  0  0  0  0  0  0  0  0  0  0  0
   -1.5869   -0.5508   -2.9426 H   0  0  0  0  0  0  0  0  0  0  0  0
   -0.0247    0.1426   -2.5136 H   0  0  0  0  0  0  0  0  0  0  0  0
   -3.8443   -2.2517   -0.1214 H   0  0  0  0  0  0  0  0  0  0  0  0
   -5.8056   -3.2635   -1.2394 H   0  0  0  0  0  0  0  0  0  0  0  0
   -7.0295   -2.0025   -2.9915 H   0  0  0  0  0  0  0  0  0  0  0  0
   -6.2846    0.2772   -3.6292 H   0  0  0  0  0  0  0  0  0  0  0  0
   -4.3252    1.3005   -2.5177 H   0  0  0  0  0  0  0  0  0  0  0  0
  1  2  1  0
  2  3  1  0
  3  4  1  0
  4  5  1  0
  5  6  2  0
  6  7  1  0
  7  8  2  0
  7  9  1  0
 10  9  1  1
 10 11  1  0
 11 12  1  0
 12 13  1  0
 13 14  1  0
 14 15  1  0
 15 16  1  0
 16 17  1  0
 16 18  1  0
 14 19  1  0
  6 20  1  0
 20 21  1  0
 20 22  2  0
 22 23  1  0
 23 24  2  0
 24 25  1  0
 25 26  2  0
 26 27  1  0
 27 28  2  0
 22  4  1  0
 28 23  1  0
 18 10  1  0
 19 10  1  0
 17 12  1  0
  1 29  1  0
  1 30  1  0
  1 31  1  0
  2 32  1  0
  2 33  1  0
  3 34  1  0
  3 35  1  0
  9 36  1  0
 11 37  1  0
 11 38  1  0
 12 39  1  6
 13 40  1  0
 13 41  1  0
 14 42  1  1
 15 43  1  0
 15 44  1  0
 16 45  1  6
 17 46  1  0
 17 47  1  0
 18 48  1  0
 18 49  1  0
 19 50  1  0
 19 51  1  0
 21 52  1  0
 21 53  1  0
 21 54  1  0
 24 55  1  0
 25 56  1  0
 26 57  1  0
 27 58  1  0
 28 59  1  0
M  END
>  <_SMILES>  (23) 
CCCn1nc(C(=O)N[C@]23C[C@H]4C[C@H](C[C@H](C4)C2)C3)c(C)c1-c1ccccc1

$$$$

     RDKit          3D

 57 61  0  0  0  0  0  0  0  0999 V2000
    2.0256    2.4248    1.5330 C   0  0  0  0  0  0  0  0  0  0  0  0
    2.0585    1.3243    0.5340 C   0  0  0  0  0  0  0  0  0  0  0  0
    0.9558    0.5171    0.1195 C   0  0  0  0  0  0  0  0  0  0  0  0
   -0.4482    0.5997    0.5752 C   0  0  0  0  0  0  0  0  0  0  0  0
   -0.8295    1.4066    1.4156 O   0  0  0  0  0  0  0  0  0  0  0  0
   -1.2640   -0.3176   -0.0514 N   0  0  0  0  0  0  0  0  0  0  0  0
   -2.7029   -0.4665    0.1433 C   0  0  2  0  0  0  0  0  0  0  0  0
   -3.4676    0.8184   -0.2593 C   0  0  0  0  0  0  0  0  0  0  0  0
   -4.9845    0.6200   -0.0924 C   0  0  1  0  0  0  0  0  0  0  0  0
   -5.4477   -0.5362   -0.9928 C   0  0  0  0  0  0  0  0  0  0  0  0
   -4.7192   -1.8313   -0.6006 C   0  0  2  0  0  0  0  0  0  0  0  0
   -5.0313   -2.1668    0.8661 C   0  0  0  0  0  0  0  0  0  0  0  0
   -4.5654   -1.0202    1.7771 C   0  0  2  0  0  0  0  0  0  0  0  0
   -5.2916    0.2748    1.3747 C   0  0  0  0  0  0  0  0  0  0  0  0
   -3.0483   -0.8223    1.6108 C   0  0  0  0  0  0  0  0  0  0  0  0
   -3.2043   -1.6253   -0.7591 C   0  0  0  0  0  0  0  0  0  0  0  0
    1.3410   -0.4009   -0.7923 N   0  0  0  0  0  0  0  0  0  0  0  0
    2.6556   -0.1541   -0.9771 N   0  0  0  0  0  0  0  0  0  0  0  0
    3.3830   -0.9837   -1.9284 C   0  0  0  0  0  0  0  0  0  0  0  0
    3.5714   -2.3970   -1.3904 C   0  0  0  0  0  0  0  0  0  0  0  0
    2.3493   -3.1335   -1.4172 O   0  0  0  0  0  0  0  0  0  0  0  0
    3.1460    0.8550   -0.1869 C   0  0  0  0  0  0  0  0  0  0  0  0
    4.5370    1.2854   -0.1701 C   0  0  0  0  0  0  0  0  0  0  0  0
    4.9443    2.3781   -0.9442 C   0  0  0  0  0  0  0  0  0  0  0  0
    6.2794    2.7890   -0.9313 C   0  0  0  0  0  0  0  0  0  0  0  0
    7.2051    2.1095   -0.1411 C   0  0  0  0  0  0  0  0  0  0  0  0
    8.8493    2.6145   -0.1263 Cl  0  0  0  0  0  0  0  0  0  0  0  0
    6.8073    1.0247    0.6387 C   0  0  0  0  0  0  0  0  0  0  0  0
    5.4723    0.6134    0.6259 C   0  0  0  0  0  0  0  0  0  0  0  0
    1.6837    2.0502    2.5031 H   0  0  0  0  0  0  0  0  0  0  0  0
    1.3459    3.2177    1.2050 H   0  0  0  0  0  0  0  0  0  0  0  0
    3.0133    2.8722    1.6797 H   0  0  0  0  0  0  0  0  0  0  0  0
   -0.7897   -0.8770   -0.7559 H   0  0  0  0  0  0  0  0  0  0  0  0
   -3.1482    1.6708    0.3522 H   0  0  0  0  0  0  0  0  0  0  0  0
   -3.2380    1.0841   -1.2996 H   0  0  0  0  0  0  0  0  0  0  0  0
   -5.5097    1.5397   -0.3734 H   0  0  0  0  0  0  0  0  0  0  0  0
   -5.2468   -0.2964   -2.0441 H   0  0  0  0  0  0  0  0  0  0  0  0
   -6.5320   -0.6731   -0.8990 H   0  0  0  0  0  0  0  0  0  0  0  0
   -5.0508   -2.6521   -1.2463 H   0  0  0  0  0  0  0  0  0  0  0  0
   -6.1084   -2.3316    0.9920 H   0  0  0  0  0  0  0  0  0  0  0  0
   -4.5308   -3.1000    1.1523 H   0  0  0  0  0  0  0  0  0  0  0  0
   -4.7933   -1.2625    2.8211 H   0  0  0  0  0  0  0  0  0  0  0  0
   -4.9777    1.0988    2.0273 H   0  0  0  0  0  0  0  0  0  0  0  0
   -6.3733    0.1546    1.5118 H   0  0  0  0  0  0  0  0  0  0  0  0
   -2.7148   -0.0328    2.2944 H   0  0  0  0  0  0  0  0  0  0  0  0
   -2.5171   -1.7345    1.9130 H   0  0  0  0  0  0  0  0  0  0  0  0
   -2.9683   -1.4140   -1.8108 H   0  0  0  0  0  0  0  0  0  0  0  0
   -2.6759   -2.5549   -0.5082 H   0  0  0  0  0  0  0  0  0  0  0  0
    4.3504   -0.5166   -2.1306 H   0  0  0  0  0  0  0  0  0  0  0  0
    2.7975   -0.9841   -2.8548 H   0  0  0  0  0  0  0  0  0  0  0  0
    3.9495   -2.3950   -0.3627 H   0  0  0  0  0  0  0  0  0  0  0  0
    4.2865   -2.9397   -2.0160 H   0  0  0  0  0  0  0  0  0  0  0  0
    1.6651   -2.5545   -1.0200 H   0  0  0  0  0  0  0  0  0  0  0  0
    4.2247    2.9167   -1.5574 H   0  0  0  0  0  0  0  0  0  0  0  0
    6.5882    3.6388   -1.5344 H   0  0  0  0  0  0  0  0  0  0  0  0
    7.5277    0.5005    1.2612 H   0  0  0  0  0  0  0  0  0  0  0  0
    5.1660   -0.2256    1.2472 H   0  0  0  0  0  0  0  0  0  0  0  0
  1  2  1  0
  2  3  1  0
  3  4  1  0
  4  5  2  0
  4  6  1  0
  7  6  1  1
  7  8  1  0
  8  9  1  0
  9 10  1  0
 10 11  1  0
 11 12  1  0
 12 13  1  0
 13 14  1  0
 13 15  1  0
 11 16  1  0
  3 17  2  0
 17 18  1  0
 18 19  1  0
 19 20  1  0
 20 21  1  0
 18 22  1  0
 22 23  1  0
 23 24  1  0
 24 25  2  0
 25 26  1  0
 26 27  1  0
 26 28  2  0
 28 29  1  0
 22  2  2  0
 29 23  2  0
 15  7  1  0
 16  7  1  0
 14  9  1  0
  1 30  1  0
  1 31  1  0
  1 32  1  0
  6 33  1  0
  8 34  1  0
  8 35  1  0
  9 36  1  6
 10 37  1  0
 10 38  1  0
 11 39  1  6
 12 40  1  0
 12 41  1  0
 13 42  1  1
 14 43  1  0
 14 44  1  0
 15 45  1  0
 15 46  1  0
 16 47  1  0
 16 48  1  0
 19 49  1  0
 19 50  1  0
 20 51  1  0
 20 52  1  0
 21 53  1  0
 24 54  1  0
 25 55  1  0
 28 56  1  0
 29 57  1  0
M  END
>  <_SMILES>  (24) 
Cc1c(C(=O)N[C@]23C[C@H]4C[C@H](C[C@H](C4)C2)C3)nn(CCO)c1-c1ccc(Cl)cc1

$$$$

     RDKit          3D

 53 57  0  0  0  0  0  0  0  0999 V2000
    1.6389   -0.9566   -1.3942 C   0  0  0  0  0  0  0  0  0  0  0  0
    2.1042    0.0746   -0.4299 C   0  0  0  0  0  0  0  0  0  0  0  0
    1.3275    1.1121    0.1847 C   0  0  0  0  0  0  0  0  0  0  0  0
   -0.1210    1.3735    0.0530 C   0  0  0  0  0  0  0  0  0  0  0  0
   -0.5880    2.5030   -0.0511 O   0  0  0  0  0  0  0  0  0  0  0  0
   -0.8962    0.2252    0.0874 N   0  0  0  0  0  0  0  0  0  0  0  0
   -2.3610    0.2099    0.0869 C   0  0  2  0  0  0  0  0  0  0  0  0
   -2.8290   -1.2712    0.1008 C   0  0  0  0  0  0  0  0  0  0  0  0
   -4.3629   -1.3664    0.1082 C   0  0  1  0  0  0  0  0  0  0  0  0
   -4.9061   -0.6530    1.3563 C   0  0  0  0  0  0  0  0  0  0  0  0
   -4.4774    0.8229    1.3459 C   0  0  2  0  0  0  0  0  0  0  0  0
   -5.0251    1.5009    0.0784 C   0  0  0  0  0  0  0  0  0  0  0  0
   -4.4861    0.7930   -1.1764 C   0  0  2  0  0  0  0  0  0  0  0  0
   -4.9158   -0.6819   -1.1510 C   0  0  0  0  0  0  0  0  0  0  0  0
   -2.9492    0.8759   -1.1831 C   0  0  0  0  0  0  0  0  0  0  0  0
   -2.9406    0.9065    1.3422 C   0  0  0  0  0  0  0  0  0  0  0  0
    2.1015    1.8876    0.9620 N   0  0  0  0  0  0  0  0  0  0  0  0
    3.3310    1.3623    0.8583 N   0  0  0  0  0  0  0  0  0  0  0  0
    4.4124    1.9714    1.5994 C   0  0  0  0  0  0  0  0  0  0  0  0
    3.3978    0.2655    0.0357 C   0  0  0  0  0  0  0  0  0  0  0  0
    4.6207   -0.4759   -0.2481 C   0  0  0  0  0  0  0  0  0  0  0  0
    4.7978   -1.7637    0.2751 C   0  0  0  0  0  0  0  0  0  0  0  0
    5.9664   -2.4771    0.0024 C   0  0  0  0  0  0  0  0  0  0  0  0
    6.9496   -1.9027   -0.7950 C   0  0  0  0  0  0  0  0  0  0  0  0
    8.0699   -2.5883   -1.0564 F   0  0  0  0  0  0  0  0  0  0  0  0
    6.7869   -0.6288   -1.3270 C   0  0  0  0  0  0  0  0  0  0  0  0
    5.6194    0.0865   -1.0549 C   0  0  0  0  0  0  0  0  0  0  0  0
    2.4534   -1.2932   -2.0436 H   0  0  0  0  0  0  0  0  0  0  0  0
    0.8501   -0.5623   -2.0425 H   0  0  0  0  0  0  0  0  0  0  0  0
    1.2476   -1.8274   -0.8589 H   0  0  0  0  0  0  0  0  0  0  0  0
   -0.4274   -0.5998    0.4365 H   0  0  0  0  0  0  0  0  0  0  0  0
   -2.4281   -1.8015   -0.7735 H   0  0  0  0  0  0  0  0  0  0  0  0
   -2.4246   -1.7867    0.9824 H   0  0  0  0  0  0  0  0  0  0  0  0
   -4.6685   -2.4186    0.1214 H   0  0  0  0  0  0  0  0  0  0  0  0
   -6.0003   -0.7252    1.3827 H   0  0  0  0  0  0  0  0  0  0  0  0
   -4.5326   -1.1455    2.2624 H   0  0  0  0  0  0  0  0  0  0  0  0
   -4.8717    1.3279    2.2348 H   0  0  0  0  0  0  0  0  0  0  0  0
   -4.7365    2.5591    0.0649 H   0  0  0  0  0  0  0  0  0  0  0  0
   -6.1217    1.4703    0.0825 H   0  0  0  0  0  0  0  0  0  0  0  0
   -4.8853    1.2779   -2.0744 H   0  0  0  0  0  0  0  0  0  0  0  0
   -4.5494   -1.1948   -2.0487 H   0  0  0  0  0  0  0  0  0  0  0  0
   -6.0102   -0.7541   -1.1673 H   0  0  0  0  0  0  0  0  0  0  0  0
   -2.6543    1.9290   -1.2504 H   0  0  0  0  0  0  0  0  0  0  0  0
   -2.5520    0.3881   -2.0830 H   0  0  0  0  0  0  0  0  0  0  0  0
   -2.6388    1.9600    1.3792 H   0  0  0  0  0  0  0  0  0  0  0  0
   -2.5393    0.4403    2.2517 H   0  0  0  0  0  0  0  0  0  0  0  0
    5.0028    2.5751    0.9062 H   0  0  0  0  0  0  0  0  0  0  0  0
    5.0240    1.1863    2.0504 H   0  0  0  0  0  0  0  0  0  0  0  0
    3.9986    2.6045    2.3891 H   0  0  0  0  0  0  0  0  0  0  0  0
    4.0296   -2.2143    0.8994 H   0  0  0  0  0  0  0  0  0  0  0  0
    6.1152   -3.4741    0.4047 H   0  0  0  0  0  0  0  0  0  0  0  0
    7.5655   -0.2037   -1.9524 H   0  0  0  0  0  0  0  0  0  0  0  0
    5.4884    1.0779   -1.4837 H   0  0  0  0  0  0  0  0  0  0  0  0
  1  2  1  0
  2  3  1  0
  3  4  1  0
  4  5  2  0
  4  6  1  0
  7  6  1  6
  7  8  1  0
  8  9  1  0
  9 10  1  0
 10 11  1  0
 11 12  1  0
 12 13  1  0
 13 14  1  0
 13 15  1  0
 11 16  1  0
  3 17  2  0
 17 18  1  0
 18 19  1  0
 18 20  1  0
 20 21  1  0
 21 22  1  0
 22 23  2  0
 23 24  1  0
 24 25  1  0
 24 26  2  0
 26 27  1  0
 20  2  2  0
 27 21  2  0
 15  7  1  0
 16  7  1  0
 14  9  1  0
  1 28  1  0
  1 29  1  0
  1 30  1  0
  6 31  1  0
  8 32  1  0
  8 33  1  0
  9 34  1  1
 10 35  1  0
 10 36  1  0
 11 37  1  1
 12 38  1  0
 12 39  1  0
 13 40  1  6
 14 41  1  0
 14 42  1  0
 15 43  1  0
 15 44  1  0
 16 45  1  0
 16 46  1  0
 19 47  1  0
 19 48  1  0
 19 49  1  0
 22 50  1  0
 23 51  1  0
 26 52  1  0
 27 53  1  0
M  END
>  <_SMILES>  (25) 
Cc1c(C(=O)N[C@]23C[C@H]4C[C@H](C[C@H](C4)C2)C3)nn(C)c1-c1ccc(F)cc1

$$$$

     RDKit          3D

 68 72  0  0  0  0  0  0  0  0999 V2000
    5.9161    4.1666   -0.4690 C   0  0  0  0  0  0  0  0  0  0  0  0
    5.3119    3.0037    0.3033 C   0  0  0  0  0  0  0  0  0  0  0  0
    5.9680    1.6778   -0.0823 C   0  0  0  0  0  0  0  0  0  0  0  0
    5.4749    0.4894    0.7485 C   0  0  0  0  0  0  0  0  0  0  0  0
    3.9739    0.1993    0.6675 C   0  0  0  0  0  0  0  0  0  0  0  0
    3.4924   -0.0954   -0.7519 C   0  0  0  0  0  0  0  0  0  0  0  0
    2.0943   -0.4978   -0.7786 N   0  0  0  0  0  0  0  0  0  0  0  0
    1.1532    0.4603   -0.7965 N   0  0  0  0  0  0  0  0  0  0  0  0
   -0.0141   -0.2030   -0.8417 C   0  0  0  0  0  0  0  0  0  0  0  0
   -1.3003    0.5241   -0.8631 C   0  0  0  0  0  0  0  0  0  0  0  0
   -1.4829    1.5376   -1.5298 O   0  0  0  0  0  0  0  0  0  0  0  0
   -2.2644   -0.0326   -0.0377 N   0  0  0  0  0  0  0  0  0  0  0  0
   -3.5841    0.5514    0.2123 C   0  0  2  0  0  0  0  0  0  0  0  0
   -4.4144    0.6909   -1.0892 C   0  0  0  0  0  0  0  0  0  0  0  0
   -5.8129    1.2556   -0.7821 C   0  0  1  0  0  0  0  0  0  0  0  0
   -6.5489    0.3010    0.1705 C   0  0  0  0  0  0  0  0  0  0  0  0
   -5.7588    0.1562    1.4800 C   0  0  2  0  0  0  0  0  0  0  0  0
   -5.6169    1.5346    2.1446 C   0  0  0  0  0  0  0  0  0  0  0  0
   -4.8760    2.4977    1.2035 C   0  0  2  0  0  0  0  0  0  0  0  0
   -5.6661    2.6313   -0.1095 C   0  0  0  0  0  0  0  0  0  0  0  0
   -3.4764    1.9351    0.8985 C   0  0  0  0  0  0  0  0  0  0  0  0
   -4.3603   -0.3981    1.1656 C   0  0  0  0  0  0  0  0  0  0  0  0
    0.2066   -1.6198   -0.8515 C   0  0  0  0  0  0  0  0  0  0  0  0
   -0.8132   -2.6977   -0.9345 C   0  0  0  0  0  0  0  0  0  0  0  0
    1.5841   -1.7720   -0.7900 C   0  0  0  0  0  0  0  0  0  0  0  0
    2.3952   -2.9817   -0.7657 C   0  0  0  0  0  0  0  0  0  0  0  0
    2.7856   -3.5441    0.4542 C   0  0  0  0  0  0  0  0  0  0  0  0
    3.5667   -4.7008    0.4758 C   0  0  0  0  0  0  0  0  0  0  0  0
    3.9565   -5.3019   -0.7206 C   0  0  0  0  0  0  0  0  0  0  0  0
    3.5645   -4.7495   -1.9394 C   0  0  0  0  0  0  0  0  0  0  0  0
    2.7839   -3.5926   -1.9628 C   0  0  0  0  0  0  0  0  0  0  0  0
    5.7837    4.0318   -1.5473 H   0  0  0  0  0  0  0  0  0  0  0  0
    6.9871    4.2608   -0.2628 H   0  0  0  0  0  0  0  0  0  0  0  0
    5.4314    5.1049   -0.1816 H   0  0  0  0  0  0  0  0  0  0  0  0
    5.4357    3.1825    1.3776 H   0  0  0  0  0  0  0  0  0  0  0  0
    4.2364    2.9703    0.0991 H   0  0  0  0  0  0  0  0  0  0  0  0
    5.8113    1.4815   -1.1493 H   0  0  0  0  0  0  0  0  0  0  0  0
    7.0533    1.7611    0.0575 H   0  0  0  0  0  0  0  0  0  0  0  0
    6.0255   -0.4057    0.4329 H   0  0  0  0  0  0  0  0  0  0  0  0
    5.7390    0.6574    1.8001 H   0  0  0  0  0  0  0  0  0  0  0  0
    3.7592   -0.6618    1.3128 H   0  0  0  0  0  0  0  0  0  0  0  0
    3.4043    1.0350    1.0912 H   0  0  0  0  0  0  0  0  0  0  0  0
    4.0875   -0.8900   -1.2130 H   0  0  0  0  0  0  0  0  0  0  0  0
    3.5782    0.7890   -1.3934 H   0  0  0  0  0  0  0  0  0  0  0  0
   -1.9161   -0.6932    0.6442 H   0  0  0  0  0  0  0  0  0  0  0  0
   -3.9174    1.3537   -1.8065 H   0  0  0  0  0  0  0  0  0  0  0  0
   -4.5052   -0.2845   -1.5849 H   0  0  0  0  0  0  0  0  0  0  0  0
   -6.3815    1.3583   -1.7131 H   0  0  0  0  0  0  0  0  0  0  0  0
   -7.5557    0.6827    0.3802 H   0  0  0  0  0  0  0  0  0  0  0  0
   -6.6728   -0.6803   -0.3036 H   0  0  0  0  0  0  0  0  0  0  0  0
   -6.2848   -0.5275    2.1555 H   0  0  0  0  0  0  0  0  0  0  0  0
   -5.0702    1.4404    3.0909 H   0  0  0  0  0  0  0  0  0  0  0  0
   -6.6079    1.9369    2.3882 H   0  0  0  0  0  0  0  0  0  0  0  0
   -4.7824    3.4800    1.6800 H   0  0  0  0  0  0  0  0  0  0  0  0
   -5.1539    3.3266   -0.7860 H   0  0  0  0  0  0  0  0  0  0  0  0
   -6.6572    3.0560    0.0925 H   0  0  0  0  0  0  0  0  0  0  0  0
   -2.9350    2.6457    0.2626 H   0  0  0  0  0  0  0  0  0  0  0  0
   -2.8970    1.8516    1.8274 H   0  0  0  0  0  0  0  0  0  0  0  0
   -4.4488   -1.3956    0.7145 H   0  0  0  0  0  0  0  0  0  0  0  0
   -3.8004   -0.5345    2.1007 H   0  0  0  0  0  0  0  0  0  0  0  0
   -1.6567   -2.3934   -1.5623 H   0  0  0  0  0  0  0  0  0  0  0  0
   -1.1911   -2.9401    0.0637 H   0  0  0  0  0  0  0  0  0  0  0  0
   -0.3973   -3.6111   -1.3713 H   0  0  0  0  0  0  0  0  0  0  0  0
    2.4830   -3.0855    1.3927 H   0  0  0  0  0  0  0  0  0  0  0  0
    3.8690   -5.1343    1.4256 H   0  0  0  0  0  0  0  0  0  0  0  0
    4.5636   -6.2036   -0.7032 H   0  0  0  0  0  0  0  0  0  0  0  0
    3.8649   -5.2204   -2.8720 H   0  0  0  0  0  0  0  0  0  0  0  0
    2.4801   -3.1704   -2.9183 H   0  0  0  0  0  0  0  0  0  0  0  0
  1  2  1  0
  2  3  1  0
  3  4  1  0
  4  5  1  0
  5  6  1  0
  6  7  1  0
  7  8  1  0
  8  9  2  0
  9 10  1  0
 10 11  2  0
 10 12  1  0
 13 12  1  6
 13 14  1  0
 14 15  1  0
 15 16  1  0
 16 17  1  0
 17 18  1  0
 18 19  1  0
 19 20  1  0
 19 21  1  0
 17 22  1  0
  9 23  1  0
 23 24  1  0
 23 25  2  0
 25 26  1  0
 26 27  2  0
 27 28  1  0
 28 29  2  0
 29 30  1  0
 30 31  2  0
 25  7  1  0
 31 26  1  0
 21 13  1  0
 22 13  1  0
 20 15  1  0
  1 32  1  0
  1 33  1  0
  1 34  1  0
  2 35  1  0
  2 36  1  0
  3 37  1  0
  3 38  1  0
  4 39  1  0
  4 40  1  0
  5 41  1  0
  5 42  1  0
  6 43  1  0
  6 44  1  0
 12 45  1  0
 14 46  1  0
 14 47  1  0
 15 48  1  6
 16 49  1  0
 16 50  1  0
 17 51  1  1
 18 52  1  0
 18 53  1  0
 19 54  1  1
 20 55  1  0
 20 56  1  0
 21 57  1  0
 21 58  1  0
 22 59  1  0
 22 60  1  0
 24 61  1  0
 24 62  1  0
 24 63  1  0
 27 64  1  0
 28 65  1  0
 29 66  1  0
 30 67  1  0
 31 68  1  0
M  END
>  <_SMILES>  (26) 
CCCCCCn1nc(C(=O)N[C@]23C[C@H]4C[C@H](C[C@H](C4)C2)C3)c(C)c1-c1ccccc1

$$$$

     RDKit          3D

 50 54  0  0  0  0  0  0  0  0999 V2000
    3.6736    1.8704    1.2690 C   0  0  0  0  0  0  0  0  0  0  0  0
    3.0172    0.8668    0.4616 N   0  0  0  0  0  0  0  0  0  0  0  0
    1.6678    0.8454    0.4244 N   0  0  0  0  0  0  0  0  0  0  0  0
    1.3773   -0.2263   -0.3419 C   0  0  0  0  0  0  0  0  0  0  0  0
   -0.0101   -0.6262   -0.6306 C   0  0  0  0  0  0  0  0  0  0  0  0
   -0.2864   -1.6007   -1.3211 O   0  0  0  0  0  0  0  0  0  0  0  0
   -0.9358    0.2080   -0.0431 N   0  0  0  0  0  0  0  0  0  0  0  0
   -2.3868    0.0881   -0.1347 C   0  0  2  0  0  0  0  0  0  0  0  0
   -2.8777    0.2071   -1.5987 C   0  0  0  0  0  0  0  0  0  0  0  0
   -4.4131    0.1256   -1.6631 C   0  0  1  0  0  0  0  0  0  0  0  0
   -4.8739   -1.2175   -1.0717 C   0  0  0  0  0  0  0  0  0  0  0  0
   -4.4225   -1.3332    0.3942 C   0  0  2  0  0  0  0  0  0  0  0  0
   -5.0272   -0.1751    1.2037 C   0  0  0  0  0  0  0  0  0  0  0  0
   -4.5634    1.1697    0.6224 C   0  0  2  0  0  0  0  0  0  0  0  0
   -5.0178    1.2752   -0.8419 C   0  0  0  0  0  0  0  0  0  0  0  0
   -3.0292    1.2418    0.6805 C   0  0  0  0  0  0  0  0  0  0  0  0
   -2.8871   -1.2520    0.4591 C   0  0  0  0  0  0  0  0  0  0  0  0
    2.5595   -0.8611   -0.7932 C   0  0  0  0  0  0  0  0  0  0  0  0
    3.6104   -0.1242   -0.2839 C   0  0  0  0  0  0  0  0  0  0  0  0
    5.0474   -0.3213   -0.4361 C   0  0  0  0  0  0  0  0  0  0  0  0
    5.8515    0.6734   -1.0064 C   0  0  0  0  0  0  0  0  0  0  0  0
    7.2266    0.4749   -1.1490 C   0  0  0  0  0  0  0  0  0  0  0  0
    7.8064   -0.7207   -0.7279 C   0  0  0  0  0  0  0  0  0  0  0  0
    7.0122   -1.7206   -0.1694 C   0  0  0  0  0  0  0  0  0  0  0  0
    5.6370   -1.5234   -0.0273 C   0  0  0  0  0  0  0  0  0  0  0  0
    2.9753    2.2337    2.0280 H   0  0  0  0  0  0  0  0  0  0  0  0
    4.5409    1.4263    1.7629 H   0  0  0  0  0  0  0  0  0  0  0  0
    3.9750    2.6909    0.6137 H   0  0  0  0  0  0  0  0  0  0  0  0
   -0.5198    0.9658    0.4944 H   0  0  0  0  0  0  0  0  0  0  0  0
   -2.4509   -0.5892   -2.2201 H   0  0  0  0  0  0  0  0  0  0  0  0
   -2.5353    1.1542   -2.0359 H   0  0  0  0  0  0  0  0  0  0  0  0
   -4.7431    0.2031   -2.7052 H   0  0  0  0  0  0  0  0  0  0  0  0
   -5.9662   -1.2981   -1.1338 H   0  0  0  0  0  0  0  0  0  0  0  0
   -4.4598   -2.0470   -1.6579 H   0  0  0  0  0  0  0  0  0  0  0  0
   -4.7591   -2.2894    0.8102 H   0  0  0  0  0  0  0  0  0  0  0  0
   -6.1223   -0.2348    1.1828 H   0  0  0  0  0  0  0  0  0  0  0  0
   -4.7240   -0.2540    2.2549 H   0  0  0  0  0  0  0  0  0  0  0  0
   -4.9950    1.9923    1.2036 H   0  0  0  0  0  0  0  0  0  0  0  0
   -6.1128    1.2405   -0.8980 H   0  0  0  0  0  0  0  0  0  0  0  0
   -4.7079    2.2398   -1.2623 H   0  0  0  0  0  0  0  0  0  0  0  0
   -2.6961    1.1963    1.7261 H   0  0  0  0  0  0  0  0  0  0  0  0
   -2.6895    2.2120    0.2935 H   0  0  0  0  0  0  0  0  0  0  0  0
   -2.4608   -2.1038   -0.0840 H   0  0  0  0  0  0  0  0  0  0  0  0
   -2.5514   -1.3526    1.4997 H   0  0  0  0  0  0  0  0  0  0  0  0
    2.6234   -1.7365   -1.4255 H   0  0  0  0  0  0  0  0  0  0  0  0
    5.4123    1.6030   -1.3605 H   0  0  0  0  0  0  0  0  0  0  0  0
    7.8438    1.2496   -1.5967 H   0  0  0  0  0  0  0  0  0  0  0  0
    8.8762   -0.8767   -0.8421 H   0  0  0  0  0  0  0  0  0  0  0  0
    7.4618   -2.6563    0.1531 H   0  0  0  0  0  0  0  0  0  0  0  0
    5.0294   -2.3129    0.4096 H   0  0  0  0  0  0  0  0  0  0  0  0
  1  2  1  0
  2  3  1  0
  3  4  2  0
  4  5  1  0
  5  6  2  0
  5  7  1  0
  8  7  1  6
  8  9  1  0
  9 10  1  0
 10 11  1  0
 11 12  1  0
 12 13  1  0
 13 14  1  0
 14 15  1  0
 14 16  1  0
 12 17  1  0
  4 18  1  0
 18 19  2  0
 19 20  1  0
 20 21  2  0
 21 22  1  0
 22 23  2  0
 23 24  1  0
 24 25  2  0
 19  2  1  0
 25 20  1  0
 16  8  1  0
 17  8  1  0
 15 10  1  0
  1 26  1  0
  1 27  1  0
  1 28  1  0
  7 29  1  0
  9 30  1  0
  9 31  1  0
 10 32  1  6
 11 33  1  0
 11 34  1  0
 12 35  1  1
 13 36  1  0
 13 37  1  0
 14 38  1  1
 15 39  1  0
 15 40  1  0
 16 41  1  0
 16 42  1  0
 17 43  1  0
 17 44  1  0
 18 45  1  0
 21 46  1  0
 22 47  1  0
 23 48  1  0
 24 49  1  0
 25 50  1  0
M  END
>  <_SMILES>  (27) 
Cn1nc(C(=O)N[C@]23C[C@H]4C[C@H](C[C@H](C4)C2)C3)cc1-c1ccccc1

$$$$

     RDKit          3D

 56 60  0  0  0  0  0  0  0  0999 V2000
    3.5411    3.0412    0.3836 C   0  0  0  0  0  0  0  0  0  0  0  0
    3.3047    2.1712   -0.8382 C   0  0  0  0  0  0  0  0  0  0  0  0
    2.6523    0.9172   -0.5020 N   0  0  0  0  0  0  0  0  0  0  0  0
    1.3084    0.8981   -0.4022 N   0  0  0  0  0  0  0  0  0  0  0  0
    1.0158   -0.3821   -0.0918 C   0  0  0  0  0  0  0  0  0  0  0  0
   -0.3830   -0.8147    0.1067 C   0  0  0  0  0  0  0  0  0  0  0  0
   -0.6939   -1.9669    0.3882 O   0  0  0  0  0  0  0  0  0  0  0  0
   -1.2820    0.2166   -0.0598 N   0  0  0  0  0  0  0  0  0  0  0  0
   -2.7324    0.1286    0.0659 C   0  0  2  0  0  0  0  0  0  0  0  0
   -3.3355   -0.8583   -0.9641 C   0  0  0  0  0  0  0  0  0  0  0  0
   -4.8692   -0.8967   -0.8431 C   0  0  1  0  0  0  0  0  0  0  0  0
   -5.2537   -1.3365    0.5798 C   0  0  0  0  0  0  0  0  0  0  0  0
   -4.6899   -0.3443    1.6112 C   0  0  2  0  0  0  0  0  0  0  0  0
   -5.2570    1.0561    1.3300 C   0  0  0  0  0  0  0  0  0  0  0  0
   -4.8687    1.5045   -0.0877 C   0  0  2  0  0  0  0  0  0  0  0  0
   -5.4352    0.5070   -1.1102 C   0  0  0  0  0  0  0  0  0  0  0  0
   -3.3365    1.5320   -0.2058 C   0  0  0  0  0  0  0  0  0  0  0  0
   -3.1562   -0.3057    1.4908 C   0  0  0  0  0  0  0  0  0  0  0  0
    2.1998   -1.1737    0.0020 C   0  0  0  0  0  0  0  0  0  0  0  0
    2.2769   -2.6220    0.3248 C   0  0  0  0  0  0  0  0  0  0  0  0
    3.2422   -0.3008   -0.2695 C   0  0  0  0  0  0  0  0  0  0  0  0
    4.6784   -0.5404   -0.3157 C   0  0  0  0  0  0  0  0  0  0  0  0
    5.2820   -0.9700   -1.5025 C   0  0  0  0  0  0  0  0  0  0  0  0
    6.6587   -1.1961   -1.5480 C   0  0  0  0  0  0  0  0  0  0  0  0
    7.4362   -0.9983   -0.4074 C   0  0  0  0  0  0  0  0  0  0  0  0
    6.8386   -0.5782    0.7805 C   0  0  0  0  0  0  0  0  0  0  0  0
    5.4620   -0.3517    0.8277 C   0  0  0  0  0  0  0  0  0  0  0  0
    2.5976    3.2868    0.8824 H   0  0  0  0  0  0  0  0  0  0  0  0
    4.0272    3.9779    0.0940 H   0  0  0  0  0  0  0  0  0  0  0  0
    4.1815    2.5359    1.1135 H   0  0  0  0  0  0  0  0  0  0  0  0
    4.2489    1.9502   -1.3448 H   0  0  0  0  0  0  0  0  0  0  0  0
    2.6630    2.6903   -1.5595 H   0  0  0  0  0  0  0  0  0  0  0  0
   -0.8417    1.1050   -0.2913 H   0  0  0  0  0  0  0  0  0  0  0  0
   -3.0484   -0.5637   -1.9821 H   0  0  0  0  0  0  0  0  0  0  0  0
   -2.9396   -1.8698   -0.8147 H   0  0  0  0  0  0  0  0  0  0  0  0
   -5.2789   -1.6047   -1.5721 H   0  0  0  0  0  0  0  0  0  0  0  0
   -4.8669   -2.3436    0.7783 H   0  0  0  0  0  0  0  0  0  0  0  0
   -6.3455   -1.3911    0.6719 H   0  0  0  0  0  0  0  0  0  0  0  0
   -4.9726   -0.6609    2.6214 H   0  0  0  0  0  0  0  0  0  0  0  0
   -6.3489    1.0463    1.4341 H   0  0  0  0  0  0  0  0  0  0  0  0
   -4.8732    1.7712    2.0680 H   0  0  0  0  0  0  0  0  0  0  0  0
   -5.2731    2.5040   -0.2831 H   0  0  0  0  0  0  0  0  0  0  0  0
   -6.5302    0.4877   -1.0480 H   0  0  0  0  0  0  0  0  0  0  0  0
   -5.1797    0.8269   -2.1278 H   0  0  0  0  0  0  0  0  0  0  0  0
   -3.0489    1.8793   -1.2073 H   0  0  0  0  0  0  0  0  0  0  0  0
   -2.9240    2.2639    0.5016 H   0  0  0  0  0  0  0  0  0  0  0  0
   -2.7534   -1.2963    1.7337 H   0  0  0  0  0  0  0  0  0  0  0  0
   -2.7403    0.3856    2.2356 H   0  0  0  0  0  0  0  0  0  0  0  0
    1.8444   -2.8170    1.3113 H   0  0  0  0  0  0  0  0  0  0  0  0
    3.3099   -2.9828    0.3377 H   0  0  0  0  0  0  0  0  0  0  0  0
    1.7286   -3.2087   -0.4192 H   0  0  0  0  0  0  0  0  0  0  0  0
    4.6824   -1.1339   -2.3950 H   0  0  0  0  0  0  0  0  0  0  0  0
    7.1235   -1.5312   -2.4717 H   0  0  0  0  0  0  0  0  0  0  0  0
    8.5078   -1.1780   -0.4425 H   0  0  0  0  0  0  0  0  0  0  0  0
    7.4435   -0.4322    1.6717 H   0  0  0  0  0  0  0  0  0  0  0  0
    5.0035   -0.0335    1.7611 H   0  0  0  0  0  0  0  0  0  0  0  0
  1  2  1  0
  2  3  1  0
  3  4  1  0
  4  5  2  0
  5  6  1  0
  6  7  2  0
  6  8  1  0
  9  8  1  1
  9 10  1  0
 10 11  1  0
 11 12  1  0
 12 13  1  0
 13 14  1  0
 14 15  1  0
 15 16  1  0
 15 17  1  0
 13 18  1  0
  5 19  1  0
 19 20  1  0
 19 21  2  0
 21 22  1  0
 22 23  2  0
 23 24  1  0
 24 25  2  0
 25 26  1  0
 26 27  2  0
 21  3  1  0
 27 22  1  0
 17  9  1  0
 18  9  1  0
 16 11  1  0
  1 28  1  0
  1 29  1  0
  1 30  1  0
  2 31  1  0
  2 32  1  0
  8 33  1  0
 10 34  1  0
 10 35  1  0
 11 36  1  6
 12 37  1  0
 12 38  1  0
 13 39  1  1
 14 40  1  0
 14 41  1  0
 15 42  1  6
 16 43  1  0
 16 44  1  0
 17 45  1  0
 17 46  1  0
 18 47  1  0
 18 48  1  0
 20 49  1  0
 20 50  1  0
 20 51  1  0
 23 52  1  0
 24 53  1  0
 25 54  1  0
 26 55  1  0
 27 56  1  0
M  END
>  <_SMILES>  (28) 
CCn1nc(C(=O)N[C@]23C[C@H]4C[C@H](C[C@H](C4)C2)C3)c(C)c1-c1ccccc1

$$$$

     RDKit          3D

 56 60  0  0  0  0  0  0  0  0999 V2000
    2.8577    2.5436    0.4717 C   0  0  0  0  0  0  0  0  0  0  0  0
    2.7156    1.1743   -0.0874 C   0  0  0  0  0  0  0  0  0  0  0  0
    1.5472    0.6171   -0.6908 C   0  0  0  0  0  0  0  0  0  0  0  0
    0.2324    1.2606   -0.8825 C   0  0  0  0  0  0  0  0  0  0  0  0
   -0.0234    2.4014   -0.5098 O   0  0  0  0  0  0  0  0  0  0  0  0
   -0.6759    0.4393   -1.5136 N   0  0  0  0  0  0  0  0  0  0  0  0
   -2.0507    0.7987   -1.7665 C   0  0  0  0  0  0  0  0  0  0  0  0
   -3.0469    0.2138   -0.7413 C   0  0  2  0  0  0  0  0  0  0  0  0
   -4.4848    0.6345   -1.1486 C   0  0  0  0  0  0  0  0  0  0  0  0
   -5.5215    0.0713   -0.1627 C   0  0  1  0  0  0  0  0  0  0  0  0
   -5.4294   -1.4627   -0.1546 C   0  0  0  0  0  0  0  0  0  0  0  0
   -4.0208   -1.9024    0.2750 C   0  0  2  0  0  0  0  0  0  0  0  0
   -3.7270   -1.3577    1.6826 C   0  0  0  0  0  0  0  0  0  0  0  0
   -3.8121    0.1776    1.6820 C   0  0  2  0  0  0  0  0  0  0  0  0
   -5.2215    0.6073    1.2458 C   0  0  0  0  0  0  0  0  0  0  0  0
   -2.7776    0.7410    0.6914 C   0  0  0  0  0  0  0  0  0  0  0  0
   -2.9866   -1.3356   -0.7140 C   0  0  0  0  0  0  0  0  0  0  0  0
    1.7664   -0.6504   -1.0988 N   0  0  0  0  0  0  0  0  0  0  0  0
    3.0431   -0.8939   -0.7494 N   0  0  0  0  0  0  0  0  0  0  0  0
    3.6052   -2.1987   -1.0171 C   0  0  0  0  0  0  0  0  0  0  0  0
    3.6700    0.1700   -0.1495 C   0  0  0  0  0  0  0  0  0  0  0  0
    5.0532    0.1491    0.3115 C   0  0  0  0  0  0  0  0  0  0  0  0
    6.1077    0.1920   -0.6077 C   0  0  0  0  0  0  0  0  0  0  0  0
    7.4306    0.1666   -0.1621 C   0  0  0  0  0  0  0  0  0  0  0  0
    7.7057    0.1013    1.2032 C   0  0  0  0  0  0  0  0  0  0  0  0
    6.6599    0.0650    2.1246 C   0  0  0  0  0  0  0  0  0  0  0  0
    5.3366    0.0908    1.6805 C   0  0  0  0  0  0  0  0  0  0  0  0
    3.8791    2.7431    0.8094 H   0  0  0  0  0  0  0  0  0  0  0  0
    2.1893    2.6762    1.3284 H   0  0  0  0  0  0  0  0  0  0  0  0
    2.6085    3.2944   -0.2850 H   0  0  0  0  0  0  0  0  0  0  0  0
   -0.3262   -0.4887   -1.7403 H   0  0  0  0  0  0  0  0  0  0  0  0
   -2.2845    0.4286   -2.7715 H   0  0  0  0  0  0  0  0  0  0  0  0
   -2.1349    1.8914   -1.7935 H   0  0  0  0  0  0  0  0  0  0  0  0
   -4.5639    1.7291   -1.1779 H   0  0  0  0  0  0  0  0  0  0  0  0
   -4.7107    0.2763   -2.1614 H   0  0  0  0  0  0  0  0  0  0  0  0
   -6.5276    0.3793   -0.4686 H   0  0  0  0  0  0  0  0  0  0  0  0
   -6.1773   -1.8792    0.5313 H   0  0  0  0  0  0  0  0  0  0  0  0
   -5.6576   -1.8577   -1.1522 H   0  0  0  0  0  0  0  0  0  0  0  0
   -3.9620   -2.9965    0.2828 H   0  0  0  0  0  0  0  0  0  0  0  0
   -2.7295   -1.6780    2.0080 H   0  0  0  0  0  0  0  0  0  0  0  0
   -4.4444   -1.7721    2.4015 H   0  0  0  0  0  0  0  0  0  0  0  0
   -3.6047    0.5591    2.6881 H   0  0  0  0  0  0  0  0  0  0  0  0
   -5.2998    1.7014    1.2557 H   0  0  0  0  0  0  0  0  0  0  0  0
   -5.9657    0.2285    1.9572 H   0  0  0  0  0  0  0  0  0  0  0  0
   -1.7737    0.4533    1.0265 H   0  0  0  0  0  0  0  0  0  0  0  0
   -2.8142    1.8378    0.7038 H   0  0  0  0  0  0  0  0  0  0  0  0
   -1.9861   -1.6773   -0.4206 H   0  0  0  0  0  0  0  0  0  0  0  0
   -3.1763   -1.7388   -1.7170 H   0  0  0  0  0  0  0  0  0  0  0  0
    2.7980   -2.9010   -1.2426 H   0  0  0  0  0  0  0  0  0  0  0  0
    4.2755   -2.1122   -1.8754 H   0  0  0  0  0  0  0  0  0  0  0  0
    4.1463   -2.5425   -0.1323 H   0  0  0  0  0  0  0  0  0  0  0  0
    5.9053    0.2571   -1.6743 H   0  0  0  0  0  0  0  0  0  0  0  0
    8.2461    0.2044   -0.8797 H   0  0  0  0  0  0  0  0  0  0  0  0
    8.7359    0.0849    1.5500 H   0  0  0  0  0  0  0  0  0  0  0  0
    6.8739    0.0200    3.1893 H   0  0  0  0  0  0  0  0  0  0  0  0
    4.5279    0.0649    2.4074 H   0  0  0  0  0  0  0  0  0  0  0  0
  1  2  1  0
  2  3  1  0
  3  4  1  0
  4  5  2  0
  4  6  1  0
  6  7  1  0
  8  7  1  6
  8  9  1  0
  9 10  1  0
 10 11  1  0
 11 12  1  0
 12 13  1  0
 13 14  1  0
 14 15  1  0
 14 16  1  0
 12 17  1  0
  3 18  2  0
 18 19  1  0
 19 20  1  0
 19 21  1  0
 21 22  1  0
 22 23  2  0
 23 24  1  0
 24 25  2  0
 25 26  1  0
 26 27  2  0
 21  2  2  0
 27 22  1  0
 16  8  1  0
 17  8  1  0
 15 10  1  0
  1 28  1  0
  1 29  1  0
  1 30  1  0
  6 31  1  0
  7 32  1  0
  7 33  1  0
  9 34  1  0
  9 35  1  0
 10 36  1  6
 11 37  1  0
 11 38  1  0
 12 39  1  1
 13 40  1  0
 13 41  1  0
 14 42  1  1
 15 43  1  0
 15 44  1  0
 16 45  1  0
 16 46  1  0
 17 47  1  0
 17 48  1  0
 20 49  1  0
 20 50  1  0
 20 51  1  0
 23 52  1  0
 24 53  1  0
 25 54  1  0
 26 55  1  0
 27 56  1  0
M  END
>  <_SMILES>  (29) 
Cc1c(C(=O)NC[C@]23C[C@H]4C[C@H](C[C@H](C4)C2)C3)nn(C)c1-c1ccccc1

$$$$

     RDKit          3D

 57 61  0  0  0  0  0  0  0  0999 V2000
    3.6787   -3.5316    1.2299 C   0  0  0  0  0  0  0  0  0  0  0  0
    3.9739   -2.2778    0.8601 C   0  0  0  0  0  0  0  0  0  0  0  0
    3.5641   -1.6543   -0.4458 C   0  0  0  0  0  0  0  0  0  0  0  0
    2.7158   -0.4781   -0.2602 N   0  0  0  0  0  0  0  0  0  0  0  0
    1.3740   -0.6306   -0.2902 N   0  0  0  0  0  0  0  0  0  0  0  0
    0.8916    0.6120   -0.0832 C   0  0  0  0  0  0  0  0  0  0  0  0
   -0.5638    0.8608   -0.0263 C   0  0  0  0  0  0  0  0  0  0  0  0
   -1.0462    1.9729    0.1585 O   0  0  0  0  0  0  0  0  0  0  0  0
   -1.3020   -0.2901   -0.1994 N   0  0  0  0  0  0  0  0  0  0  0  0
   -2.7562   -0.3976   -0.1707 C   0  0  2  0  0  0  0  0  0  0  0  0
   -3.1454   -1.8801   -0.4137 C   0  0  0  0  0  0  0  0  0  0  0  0
   -4.6718   -2.0594   -0.3935 C   0  0  1  0  0  0  0  0  0  0  0  0
   -5.2135   -1.6146    0.9741 C   0  0  0  0  0  0  0  0  0  0  0  0
   -4.8612   -0.1397    1.2239 C   0  0  2  0  0  0  0  0  0  0  0  0
   -5.4814    0.7251    0.1132 C   0  0  0  0  0  0  0  0  0  0  0  0
   -4.9441    0.2880   -1.2603 C   0  0  2  0  0  0  0  0  0  0  0  0
   -5.2960   -1.1893   -1.4957 C   0  0  0  0  0  0  0  0  0  0  0  0
   -3.4145    0.4565   -1.2824 C   0  0  0  0  0  0  0  0  0  0  0  0
   -3.3317    0.0287    1.2023 C   0  0  0  0  0  0  0  0  0  0  0  0
    1.9489    1.5601    0.0579 C   0  0  0  0  0  0  0  0  0  0  0  0
    1.8059    3.0208    0.2899 C   0  0  0  0  0  0  0  0  0  0  0  0
    3.1171    0.8240   -0.0701 C   0  0  0  0  0  0  0  0  0  0  0  0
    4.5077    1.2547   -0.0051 C   0  0  0  0  0  0  0  0  0  0  0  0
    5.1303    1.4341    1.2349 C   0  0  0  0  0  0  0  0  0  0  0  0
    6.4632    1.8436    1.2990 C   0  0  0  0  0  0  0  0  0  0  0  0
    7.1770    2.0812    0.1249 C   0  0  0  0  0  0  0  0  0  0  0  0
    6.5586    1.9145   -1.1138 C   0  0  0  0  0  0  0  0  0  0  0  0
    5.2258    1.5047   -1.1796 C   0  0  0  0  0  0  0  0  0  0  0  0
    4.0079   -3.9197    2.1892 H   0  0  0  0  0  0  0  0  0  0  0  0
    3.0961   -4.1934    0.5959 H   0  0  0  0  0  0  0  0  0  0  0  0
    4.5578   -1.6555    1.5345 H   0  0  0  0  0  0  0  0  0  0  0  0
    4.4489   -1.3489   -1.0127 H   0  0  0  0  0  0  0  0  0  0  0  0
    3.0057   -2.3580   -1.0748 H   0  0  0  0  0  0  0  0  0  0  0  0
   -0.7299   -1.1241   -0.3179 H   0  0  0  0  0  0  0  0  0  0  0  0
   -2.7452   -2.2223   -1.3776 H   0  0  0  0  0  0  0  0  0  0  0  0
   -2.6878   -2.5209    0.3520 H   0  0  0  0  0  0  0  0  0  0  0  0
   -4.9233   -3.1117   -0.5663 H   0  0  0  0  0  0  0  0  0  0  0  0
   -6.3013   -1.7513    1.0089 H   0  0  0  0  0  0  0  0  0  0  0  0
   -4.7884   -2.2412    1.7679 H   0  0  0  0  0  0  0  0  0  0  0  0
   -5.2530    0.1735    2.1981 H   0  0  0  0  0  0  0  0  0  0  0  0
   -5.2485    1.7827    0.2875 H   0  0  0  0  0  0  0  0  0  0  0  0
   -6.5743    0.6323    0.1336 H   0  0  0  0  0  0  0  0  0  0  0  0
   -5.3943    0.9044   -2.0464 H   0  0  0  0  0  0  0  0  0  0  0  0
   -4.9303   -1.5098   -2.4789 H   0  0  0  0  0  0  0  0  0  0  0  0
   -6.3853   -1.3186   -1.5035 H   0  0  0  0  0  0  0  0  0  0  0  0
   -3.0208    0.1654   -2.2652 H   0  0  0  0  0  0  0  0  0  0  0  0
   -3.1704    1.5180   -1.1568 H   0  0  0  0  0  0  0  0  0  0  0  0
   -2.8788   -0.5697    2.0038 H   0  0  0  0  0  0  0  0  0  0  0  0
   -3.0834    1.0739    1.4225 H   0  0  0  0  0  0  0  0  0  0  0  0
    2.7763    3.5247    0.3311 H   0  0  0  0  0  0  0  0  0  0  0  0
    1.2921    3.2079    1.2383 H   0  0  0  0  0  0  0  0  0  0  0  0
    1.2275    3.4814   -0.5174 H   0  0  0  0  0  0  0  0  0  0  0  0
    4.5792    1.2586    2.1561 H   0  0  0  0  0  0  0  0  0  0  0  0
    6.9428    1.9820    2.2646 H   0  0  0  0  0  0  0  0  0  0  0  0
    8.2140    2.4038    0.1755 H   0  0  0  0  0  0  0  0  0  0  0  0
    7.1126    2.1093   -2.0285 H   0  0  0  0  0  0  0  0  0  0  0  0
    4.7494    1.3886   -2.1504 H   0  0  0  0  0  0  0  0  0  0  0  0
  1  2  2  0
  2  3  1  0
  3  4  1  0
  4  5  1  0
  5  6  2  0
  6  7  1  0
  7  8  2  0
  7  9  1  0
 10  9  1  1
 10 11  1  0
 11 12  1  0
 12 13  1  0
 13 14  1  0
 14 15  1  0
 15 16  1  0
 16 17  1  0
 16 18  1  0
 14 19  1  0
  6 20  1  0
 20 21  1  0
 20 22  2  0
 22 23  1  0
 23 24  2  0
 24 25  1  0
 25 26  2  0
 26 27  1  0
 27 28  2  0
 22  4  1  0
 28 23  1  0
 18 10  1  0
 19 10  1  0
 17 12  1  0
  1 29  1  0
  1 30  1  0
  2 31  1  0
  3 32  1  0
  3 33  1  0
  9 34  1  0
 11 35  1  0
 11 36  1  0
 12 37  1  6
 13 38  1  0
 13 39  1  0
 14 40  1  1
 15 41  1  0
 15 42  1  0
 16 43  1  6
 17 44  1  0
 17 45  1  0
 18 46  1  0
 18 47  1  0
 19 48  1  0
 19 49  1  0
 21 50  1  0
 21 51  1  0
 21 52  1  0
 24 53  1  0
 25 54  1  0
 26 55  1  0
 27 56  1  0
 28 57  1  0
M  END
>  <_SMILES>  (30) 
C=CCn1nc(C(=O)N[C@]23C[C@H]4C[C@H](C[C@H](C4)C2)C3)c(C)c1-c1ccccc1

$$$$

     RDKit          3D

 62 66  0  0  0  0  0  0  0  0999 V2000
   -1.1392   -1.8845   -0.7755 C   0  0  0  0  0  0  0  0  0  0  0  0
   -1.2291   -0.8183    0.2566 C   0  0  0  0  0  0  0  0  0  0  0  0
   -0.4628    0.3910    0.3319 C   0  0  0  0  0  0  0  0  0  0  0  0
    0.6212    0.8472   -0.5627 C   0  0  0  0  0  0  0  0  0  0  0  0
    0.7364    2.0118   -0.9299 O   0  0  0  0  0  0  0  0  0  0  0  0
    1.5052   -0.1586   -0.9194 N   0  0  0  0  0  0  0  0  0  0  0  0
    2.7249    0.0455   -1.7042 C   0  0  2  0  0  0  0  0  0  0  0  0
    3.7268    0.9724   -0.9733 C   0  0  0  0  0  0  0  0  0  0  0  0
    5.0218    1.1210   -1.7915 C   0  0  1  0  0  0  0  0  0  0  0  0
    5.6688   -0.2611   -1.9744 C   0  0  0  0  0  0  0  0  0  0  0  0
    4.7042   -1.1982   -2.7183 C   0  0  2  0  0  0  0  0  0  0  0  0
    4.3745   -0.6013   -4.0949 C   0  0  0  0  0  0  0  0  0  0  0  0
    3.7191    0.7777   -3.9241 C   0  0  2  0  0  0  0  0  0  0  0  0
    4.6847    1.7096   -3.1721 C   0  0  0  0  0  0  0  0  0  0  0  0
    2.4225    0.6281   -3.1084 C   0  0  0  0  0  0  0  0  0  0  0  0
    3.4074   -1.3353   -1.9051 C   0  0  0  0  0  0  0  0  0  0  0  0
   -0.8436    1.1296    1.3869 N   0  0  0  0  0  0  0  0  0  0  0  0
   -1.8290    0.4257    1.9659 N   0  0  0  0  0  0  0  0  0  0  0  0
   -2.4792    0.9851    3.1383 C   0  0  0  0  0  0  0  0  0  0  0  0
   -3.8140    1.6707    2.8402 C   0  0  0  0  0  0  0  0  0  0  0  0
   -3.6670    2.9386    1.9928 C   0  0  0  0  0  0  0  0  0  0  0  0
   -5.0166    3.6187    1.7985 C   0  0  0  0  0  0  0  0  0  0  0  0
   -4.8424    5.1002    0.8324 Cl  0  0  0  0  0  0  0  0  0  0  0  0
   -2.0847   -0.7744    1.3488 C   0  0  0  0  0  0  0  0  0  0  0  0
   -3.0942   -1.7294    1.7892 C   0  0  0  0  0  0  0  0  0  0  0  0
   -4.3258   -1.8064    1.1293 C   0  0  0  0  0  0  0  0  0  0  0  0
   -5.2938   -2.7196    1.5505 C   0  0  0  0  0  0  0  0  0  0  0  0
   -5.0335   -3.5635    2.6295 C   0  0  0  0  0  0  0  0  0  0  0  0
   -3.8052   -3.4981    3.2860 C   0  0  0  0  0  0  0  0  0  0  0  0
   -2.8362   -2.5851    2.8658 C   0  0  0  0  0  0  0  0  0  0  0  0
   -0.3522   -2.5990   -0.5147 H   0  0  0  0  0  0  0  0  0  0  0  0
   -2.0798   -2.4355   -0.8694 H   0  0  0  0  0  0  0  0  0  0  0  0
   -0.9132   -1.4607   -1.7592 H   0  0  0  0  0  0  0  0  0  0  0  0
    1.4574   -0.9940   -0.3515 H   0  0  0  0  0  0  0  0  0  0  0  0
    3.9578    0.5688    0.0213 H   0  0  0  0  0  0  0  0  0  0  0  0
    3.2916    1.9651   -0.8075 H   0  0  0  0  0  0  0  0  0  0  0  0
    5.7156    1.7864   -1.2655 H   0  0  0  0  0  0  0  0  0  0  0  0
    6.6058   -0.1648   -2.5365 H   0  0  0  0  0  0  0  0  0  0  0  0
    5.9264   -0.6868   -0.9968 H   0  0  0  0  0  0  0  0  0  0  0  0
    5.1685   -2.1827   -2.8438 H   0  0  0  0  0  0  0  0  0  0  0  0
    3.7009   -1.2715   -4.6430 H   0  0  0  0  0  0  0  0  0  0  0  0
    5.2894   -0.5104   -4.6932 H   0  0  0  0  0  0  0  0  0  0  0  0
    3.4886    1.2008   -4.9082 H   0  0  0  0  0  0  0  0  0  0  0  0
    4.2333    2.7026   -3.0561 H   0  0  0  0  0  0  0  0  0  0  0  0
    5.6040    1.8442   -3.7553 H   0  0  0  0  0  0  0  0  0  0  0  0
    1.7172   -0.0223   -3.6424 H   0  0  0  0  0  0  0  0  0  0  0  0
    1.9387    1.6085   -3.0342 H   0  0  0  0  0  0  0  0  0  0  0  0
    3.6309   -1.7912   -0.9311 H   0  0  0  0  0  0  0  0  0  0  0  0
    2.7207   -2.0247   -2.4145 H   0  0  0  0  0  0  0  0  0  0  0  0
   -2.6271    0.1686    3.8529 H   0  0  0  0  0  0  0  0  0  0  0  0
   -1.7800    1.6890    3.6058 H   0  0  0  0  0  0  0  0  0  0  0  0
   -4.4949    0.9746    2.3375 H   0  0  0  0  0  0  0  0  0  0  0  0
   -4.2819    1.9348    3.7967 H   0  0  0  0  0  0  0  0  0  0  0  0
   -3.2427    2.6870    1.0138 H   0  0  0  0  0  0  0  0  0  0  0  0
   -2.9694    3.6279    2.4840 H   0  0  0  0  0  0  0  0  0  0  0  0
   -5.7169    2.9610    1.2747 H   0  0  0  0  0  0  0  0  0  0  0  0
   -5.4577    3.9010    2.7592 H   0  0  0  0  0  0  0  0  0  0  0  0
   -4.5371   -1.1546    0.2843 H   0  0  0  0  0  0  0  0  0  0  0  0
   -6.2492   -2.7747    1.0349 H   0  0  0  0  0  0  0  0  0  0  0  0
   -5.7869   -4.2764    2.9556 H   0  0  0  0  0  0  0  0  0  0  0  0
   -3.6002   -4.1612    4.1226 H   0  0  0  0  0  0  0  0  0  0  0  0
   -1.8784   -2.5489    3.3798 H   0  0  0  0  0  0  0  0  0  0  0  0
  1  2  1  0
  2  3  1  0
  3  4  1  0
  4  5  2  0
  4  6  1  0
  7  6  1  1
  7  8  1  0
  8  9  1  0
  9 10  1  0
 10 11  1  0
 11 12  1  0
 12 13  1  0
 13 14  1  0
 13 15  1  0
 11 16  1  0
  3 17  2  0
 17 18  1  0
 18 19  1  0
 19 20  1  0
 20 21  1  0
 21 22  1  0
 22 23  1  0
 18 24  1  0
 24 25  1  0
 25 26  2  0
 26 27  1  0
 27 28  2  0
 28 29  1  0
 29 30  2  0
 24  2  2  0
 30 25  1  0
 15  7  1  0
 16  7  1  0
 14  9  1  0
  1 31  1  0
  1 32  1  0
  1 33  1  0
  6 34  1  0
  8 35  1  0
  8 36  1  0
  9 37  1  1
 10 38  1  0
 10 39  1  0
 11 40  1  6
 12 41  1  0
 12 42  1  0
 13 43  1  6
 14 44  1  0
 14 45  1  0
 15 46  1  0
 15 47  1  0
 16 48  1  0
 16 49  1  0
 19 50  1  0
 19 51  1  0
 20 52  1  0
 20 53  1  0
 21 54  1  0
 21 55  1  0
 22 56  1  0
 22 57  1  0
 26 58  1  0
 27 59  1  0
 28 60  1  0
 29 61  1  0
 30 62  1  0
M  END
>  <_SMILES>  (31) 
Cc1c(C(=O)N[C@]23C[C@H]4C[C@H](C[C@H](C4)C2)C3)nn(CCCCCl)c1-c1ccccc1

$$$$

     RDKit          3D

 50 54  0  0  0  0  0  0  0  0999 V2000
    1.5272    1.3983   -0.4820 C   0  0  0  0  0  0  0  0  0  0  0  0
    1.8576    0.1266    0.2129 C   0  0  0  0  0  0  0  0  0  0  0  0
    1.0001   -0.6662    1.0456 C   0  0  0  0  0  0  0  0  0  0  0  0
   -0.4252   -0.4442    1.3684 C   0  0  0  0  0  0  0  0  0  0  0  0
   -0.8883   -0.6177    2.4908 O   0  0  0  0  0  0  0  0  0  0  0  0
   -1.1837   -0.0515    0.2776 N   0  0  0  0  0  0  0  0  0  0  0  0
   -2.6242    0.1266    0.2858 C   0  0  2  0  0  0  0  0  0  0  0  0
   -3.1089    0.6170   -1.1270 C   0  0  0  0  0  0  0  0  0  0  0  0
   -4.6499    0.8162   -1.1820 C   0  0  2  0  0  0  0  0  0  0  0  0
   -5.0859    1.7520   -0.0548 C   0  0  0  0  0  0  0  0  0  0  0  0
   -4.6730    0.9309    1.1737 C   0  0  2  0  0  0  0  0  0  0  0  0
   -3.1560    1.1029    1.3487 C   0  0  0  0  0  0  0  0  0  0  0  0
   -4.8509   -0.5636    0.7221 C   0  0  1  0  0  0  0  0  0  0  0  0
   -5.3485   -0.4653   -0.7263 C   0  0  0  0  0  0  0  0  0  0  0  0
   -3.4219   -1.1271    0.6765 C   0  0  0  0  0  0  0  0  0  0  0  0
    1.6642   -1.7234    1.5421 N   0  0  0  0  0  0  0  0  0  0  0  0
    2.9033   -1.6189    1.0386 N   0  0  0  0  0  0  0  0  0  0  0  0
    3.8805   -2.6287    1.3771 C   0  0  0  0  0  0  0  0  0  0  0  0
    3.0818   -0.5268    0.2270 C   0  0  0  0  0  0  0  0  0  0  0  0
    4.3386   -0.1905   -0.4314 C   0  0  0  0  0  0  0  0  0  0  0  0
    5.4209    0.2947    0.3116 C   0  0  0  0  0  0  0  0  0  0  0  0
    6.6224    0.6154   -0.3229 C   0  0  0  0  0  0  0  0  0  0  0  0
    6.7471    0.4559   -1.7023 C   0  0  0  0  0  0  0  0  0  0  0  0
    5.6708   -0.0210   -2.4495 C   0  0  0  0  0  0  0  0  0  0  0  0
    4.4684   -0.3415   -1.8164 C   0  0  0  0  0  0  0  0  0  0  0  0
    1.0865    1.1916   -1.4622 H   0  0  0  0  0  0  0  0  0  0  0  0
    2.4189    2.0153   -0.6322 H   0  0  0  0  0  0  0  0  0  0  0  0
    0.8169    1.9929    0.1013 H   0  0  0  0  0  0  0  0  0  0  0  0
   -0.7460   -0.1961   -0.6223 H   0  0  0  0  0  0  0  0  0  0  0  0
   -2.6104    1.5621   -1.3786 H   0  0  0  0  0  0  0  0  0  0  0  0
   -2.8123   -0.1133   -1.8911 H   0  0  0  0  0  0  0  0  0  0  0  0
   -4.9824    1.1540   -2.1670 H   0  0  0  0  0  0  0  0  0  0  0  0
   -6.1715    1.9072   -0.0696 H   0  0  0  0  0  0  0  0  0  0  0  0
   -4.6036    2.7334   -0.1053 H   0  0  0  0  0  0  0  0  0  0  0  0
   -5.2353    1.2011    2.0709 H   0  0  0  0  0  0  0  0  0  0  0  0
   -2.8693    0.8134    2.3654 H   0  0  0  0  0  0  0  0  0  0  0  0
   -2.8105    2.1306    1.1924 H   0  0  0  0  0  0  0  0  0  0  0  0
   -5.5169   -1.1512    1.3588 H   0  0  0  0  0  0  0  0  0  0  0  0
   -6.4388   -0.3501   -0.7537 H   0  0  0  0  0  0  0  0  0  0  0  0
   -5.0852   -1.3344   -1.3375 H   0  0  0  0  0  0  0  0  0  0  0  0
   -3.1375   -1.5063    1.6648 H   0  0  0  0  0  0  0  0  0  0  0  0
   -3.2986   -1.9492   -0.0369 H   0  0  0  0  0  0  0  0  0  0  0  0
    4.5516   -2.2139    2.1330 H   0  0  0  0  0  0  0  0  0  0  0  0
    3.3684   -3.5096    1.7740 H   0  0  0  0  0  0  0  0  0  0  0  0
    4.4330   -2.9080    0.4768 H   0  0  0  0  0  0  0  0  0  0  0  0
    5.3314    0.4354    1.3865 H   0  0  0  0  0  0  0  0  0  0  0  0
    7.4590    0.9943    0.2586 H   0  0  0  0  0  0  0  0  0  0  0  0
    7.6826    0.7073   -2.1959 H   0  0  0  0  0  0  0  0  0  0  0  0
    5.7674   -0.1426   -3.5253 H   0  0  0  0  0  0  0  0  0  0  0  0
    3.6358   -0.7137   -2.4087 H   0  0  0  0  0  0  0  0  0  0  0  0
  1  2  1  0
  2  3  1  0
  3  4  1  0
  4  5  2  0
  4  6  1  0
  7  6  1  6
  7  8  1  0
  8  9  1  0
  9 10  1  0
 10 11  1  0
 11 12  1  0
 11 13  1  0
 13 14  1  0
 13 15  1  0
  3 16  2  0
 16 17  1  0
 17 18  1  0
 17 19  1  0
 19 20  1  0
 20 21  2  0
 21 22  1  0
 22 23  2  0
 23 24  1  0
 24 25  2  0
 19  2  2  0
 25 20  1  0
 12  7  1  0
 15  7  1  0
 14  9  1  0
  1 26  1  0
  1 27  1  0
  1 28  1  0
  6 29  1  0
  8 30  1  0
  8 31  1  0
  9 32  1  6
 10 33  1  0
 10 34  1  0
 11 35  1  1
 12 36  1  0
 12 37  1  0
 13 38  1  1
 14 39  1  0
 14 40  1  0
 15 41  1  0
 15 42  1  0
 18 43  1  0
 18 44  1  0
 18 45  1  0
 21 46  1  0
 22 47  1  0
 23 48  1  0
 24 49  1  0
 25 50  1  0
M  END
>  <_SMILES>  (32) 
Cc1c(C(=O)N[C@]23C[C@@H]4C[C@H](C2)[C@@H](C4)C3)nn(C)c1-c1ccccc1

$$$$

     RDKit          3D

 53 57  0  0  0  0  0  0  0  0999 V2000
    1.0557   -1.8019   -2.2420 C   0  0  0  0  0  0  0  0  0  0  0  0
    1.8574   -0.9694   -1.3069 C   0  0  0  0  0  0  0  0  0  0  0  0
    1.4122    0.1398   -0.5339 C   0  0  0  0  0  0  0  0  0  0  0  0
    0.0516    0.7057   -0.4367 C   0  0  0  0  0  0  0  0  0  0  0  0
   -0.1680    1.9123   -0.4298 O   0  0  0  0  0  0  0  0  0  0  0  0
   -0.9402   -0.2556   -0.3254 N   0  0  0  0  0  0  0  0  0  0  0  0
   -2.3581    0.0353   -0.0995 C   0  0  2  0  0  0  0  0  0  0  0  0
   -3.1291   -1.3128   -0.0674 C   0  0  0  0  0  0  0  0  0  0  0  0
   -4.6297   -1.0859    0.1742 C   0  0  1  0  0  0  0  0  0  0  0  0
   -4.8203   -0.3624    1.5166 C   0  0  0  0  0  0  0  0  0  0  0  0
   -4.0879    0.9886    1.4938 C   0  0  2  0  0  0  0  0  0  0  0  0
   -4.6518    1.8517    0.3521 C   0  0  0  0  0  0  0  0  0  0  0  0
   -4.4650    1.1349   -0.9961 C   0  0  2  0  0  0  0  0  0  0  0  0
   -5.1961   -0.2159   -0.9582 C   0  0  0  0  0  0  0  0  0  0  0  0
   -2.9640    0.8953   -1.2379 C   0  0  0  0  0  0  0  0  0  0  0  0
   -2.5864    0.7495    1.2550 C   0  0  0  0  0  0  0  0  0  0  0  0
    2.4165    0.6454    0.1910 N   0  0  0  0  0  0  0  0  0  0  0  0
    3.5304   -0.0430   -0.1626 N   0  0  0  0  0  0  0  0  0  0  0  0
    4.7946    0.4022    0.3418 C   0  0  0  0  0  0  0  0  0  0  0  0
    6.0169   -0.0306   -0.1849 C   0  0  0  0  0  0  0  0  0  0  0  0
    7.2246    0.4396    0.3454 C   0  0  0  0  0  0  0  0  0  0  0  0
    7.2254    1.3530    1.3966 C   0  0  0  0  0  0  0  0  0  0  0  0
    6.0180    1.8099    1.9147 C   0  0  0  0  0  0  0  0  0  0  0  0
    4.8108    1.3438    1.3878 C   0  0  0  0  0  0  0  0  0  0  0  0
    3.2004   -1.1181   -0.9852 C   0  0  0  0  0  0  0  0  0  0  0  0
    4.1180   -2.2147   -1.3921 C   0  0  0  0  0  0  0  0  0  0  0  0
    0.5873   -2.6328   -1.7053 H   0  0  0  0  0  0  0  0  0  0  0  0
    0.2705   -1.2111   -2.7242 H   0  0  0  0  0  0  0  0  0  0  0  0
    1.6824   -2.2167   -3.0380 H   0  0  0  0  0  0  0  0  0  0  0  0
   -0.6152   -1.1805   -0.0766 H   0  0  0  0  0  0  0  0  0  0  0  0
   -2.9825   -1.8536   -1.0121 H   0  0  0  0  0  0  0  0  0  0  0  0
   -2.7238   -1.9608    0.7214 H   0  0  0  0  0  0  0  0  0  0  0  0
   -5.1511   -2.0494    0.1963 H   0  0  0  0  0  0  0  0  0  0  0  0
   -5.8888   -0.2062    1.7097 H   0  0  0  0  0  0  0  0  0  0  0  0
   -4.4363   -0.9833    2.3353 H   0  0  0  0  0  0  0  0  0  0  0  0
   -4.2315    1.5023    2.4509 H   0  0  0  0  0  0  0  0  0  0  0  0
   -4.1456    2.8247    0.3327 H   0  0  0  0  0  0  0  0  0  0  0  0
   -5.7167    2.0504    0.5251 H   0  0  0  0  0  0  0  0  0  0  0  0
   -4.8743    1.7531   -1.8030 H   0  0  0  0  0  0  0  0  0  0  0  0
   -6.2709   -0.0567   -0.8073 H   0  0  0  0  0  0  0  0  0  0  0  0
   -5.0825   -0.7310   -1.9200 H   0  0  0  0  0  0  0  0  0  0  0  0
   -2.8154    0.3985   -2.2057 H   0  0  0  0  0  0  0  0  0  0  0  0
   -2.4605    1.8657   -1.3116 H   0  0  0  0  0  0  0  0  0  0  0  0
   -2.0611    1.7116    1.2830 H   0  0  0  0  0  0  0  0  0  0  0  0
   -2.1693    0.1484    2.0737 H   0  0  0  0  0  0  0  0  0  0  0  0
    6.0832   -0.6965   -1.0349 H   0  0  0  0  0  0  0  0  0  0  0  0
    8.1686    0.1007   -0.0748 H   0  0  0  0  0  0  0  0  0  0  0  0
    8.1650    1.7184    1.8024 H   0  0  0  0  0  0  0  0  0  0  0  0
    6.0097    2.5327    2.7264 H   0  0  0  0  0  0  0  0  0  0  0  0
    3.8822    1.7230    1.8130 H   0  0  0  0  0  0  0  0  0  0  0  0
    4.7745   -2.5190   -0.5716 H   0  0  0  0  0  0  0  0  0  0  0  0
    4.7152   -1.9206   -2.2601 H   0  0  0  0  0  0  0  0  0  0  0  0
    3.5511   -3.1080   -1.6765 H   0  0  0  0  0  0  0  0  0  0  0  0
  1  2  1  0
  2  3  1  0
  3  4  1  0
  4  5  2  0
  4  6  1  0
  7  6  1  6
  7  8  1  0
  8  9  1  0
  9 10  1  0
 10 11  1  0
 11 12  1  0
 12 13  1  0
 13 14  1  0
 13 15  1  0
 11 16  1  0
  3 17  2  0
 17 18  1  0
 18 19  1  0
 19 20  2  0
 20 21  1  0
 21 22  2  0
 22 23  1  0
 23 24  2  0
 18 25  1  0
 25 26  1  0
 25  2  2  0
 15  7  1  0
 24 19  1  0
 16  7  1  0
 14  9  1  0
  1 27  1  0
  1 28  1  0
  1 29  1  0
  6 30  1  0
  8 31  1  0
  8 32  1  0
  9 33  1  1
 10 34  1  0
 10 35  1  0
 11 36  1  1
 12 37  1  0
 12 38  1  0
 13 39  1  6
 14 40  1  0
 14 41  1  0
 15 42  1  0
 15 43  1  0
 16 44  1  0
 16 45  1  0
 20 46  1  0
 21 47  1  0
 22 48  1  0
 23 49  1  0
 24 50  1  0
 26 51  1  0
 26 52  1  0
 26 53  1  0
M  END
>  <_SMILES>  (33) 
Cc1c(C(=O)N[C@]23C[C@H]4C[C@H](C[C@H](C4)C2)C3)nn(-c2ccccc2)c1C

$$$$

     RDKit          3D

 60 64  0  0  0  0  0  0  0  0999 V2000
    1.6016   -2.1461   -0.4335 O   0  0  0  0  0  0  0  0  0  0  0  0
    1.0058   -1.1735    0.0159 C   0  0  0  0  0  0  0  0  0  0  0  0
    1.6059    0.0051    0.4022 N   0  0  0  0  0  0  0  0  0  0  0  0
    3.0320    0.3063    0.3477 C   0  0  2  0  0  0  0  0  0  0  0  0
    3.8539   -0.6616    1.2344 C   0  0  0  0  0  0  0  0  0  0  0  0
    5.3476   -0.2930    1.1974 C   0  0  1  0  0  0  0  0  0  0  0  0
    5.8517   -0.3684   -0.2539 C   0  0  0  0  0  0  0  0  0  0  0  0
    5.0664    0.6145   -1.1389 C   0  0  2  0  0  0  0  0  0  0  0  0
    5.2512    2.0415   -0.5990 C   0  0  0  0  0  0  0  0  0  0  0  0
    4.7414    2.1251    0.8484 C   0  0  2  0  0  0  0  0  0  0  0  0
    5.5308    1.1391    1.7238 C   0  0  0  0  0  0  0  0  0  0  0  0
    3.2520    1.7470    0.8808 C   0  0  0  0  0  0  0  0  0  0  0  0
    3.5726    0.2463   -1.1024 C   0  0  0  0  0  0  0  0  0  0  0  0
   -0.4549   -1.1511    0.1994 C   0  0  0  0  0  0  0  0  0  0  0  0
   -1.3684   -2.1907   -0.0977 C   0  0  0  0  0  0  0  0  0  0  0  0
   -2.6159   -1.7113    0.2440 C   0  0  0  0  0  0  0  0  0  0  0  0
   -3.9156   -2.3578    0.1521 C   0  0  0  0  0  0  0  0  0  0  0  0
   -4.6178   -2.3579   -1.0576 C   0  0  0  0  0  0  0  0  0  0  0  0
   -5.8667   -2.9756   -1.1452 C   0  0  0  0  0  0  0  0  0  0  0  0
   -6.4155   -3.6017   -0.0267 C   0  0  0  0  0  0  0  0  0  0  0  0
   -5.7160   -3.6133    1.1795 C   0  0  0  0  0  0  0  0  0  0  0  0
   -4.4677   -2.9945    1.2691 C   0  0  0  0  0  0  0  0  0  0  0  0
   -2.3984   -0.4313    0.6938 N   0  0  0  0  0  0  0  0  0  0  0  0
   -3.3851    0.5245    1.1659 C   0  0  0  0  0  0  0  0  0  0  0  0
   -4.0959    1.2922    0.0504 C   0  0  0  0  0  0  0  0  0  0  0  0
   -3.1488    2.1706   -0.7751 C   0  0  0  0  0  0  0  0  0  0  0  0
   -3.8974    3.0263   -1.7900 C   0  0  0  0  0  0  0  0  0  0  0  0
   -4.5972    2.1927   -2.7023 O   0  0  0  0  0  0  0  0  0  0  0  0
   -1.0942   -0.0736    0.7006 N   0  0  0  0  0  0  0  0  0  0  0  0
    0.9501    0.7000    0.7533 H   0  0  0  0  0  0  0  0  0  0  0  0
    3.7329   -1.6982    0.8980 H   0  0  0  0  0  0  0  0  0  0  0  0
    3.4869   -0.6298    2.2687 H   0  0  0  0  0  0  0  0  0  0  0  0
    5.9152   -0.9914    1.8225 H   0  0  0  0  0  0  0  0  0  0  0  0
    5.7391   -1.3900   -0.6372 H   0  0  0  0  0  0  0  0  0  0  0  0
    6.9221   -0.1310   -0.2905 H   0  0  0  0  0  0  0  0  0  0  0  0
    5.4347    0.5593   -2.1694 H   0  0  0  0  0  0  0  0  0  0  0  0
    6.3104    2.3237   -0.6402 H   0  0  0  0  0  0  0  0  0  0  0  0
    4.7069    2.7546   -1.2302 H   0  0  0  0  0  0  0  0  0  0  0  0
    4.8730    3.1443    1.2285 H   0  0  0  0  0  0  0  0  0  0  0  0
    6.5948    1.4058    1.7227 H   0  0  0  0  0  0  0  0  0  0  0  0
    5.1877    1.2031    2.7638 H   0  0  0  0  0  0  0  0  0  0  0  0
    2.8711    1.8318    1.9075 H   0  0  0  0  0  0  0  0  0  0  0  0
    2.6752    2.4637    0.2807 H   0  0  0  0  0  0  0  0  0  0  0  0
    3.0036    0.9299   -1.7461 H   0  0  0  0  0  0  0  0  0  0  0  0
    3.4409   -0.7558   -1.5277 H   0  0  0  0  0  0  0  0  0  0  0  0
   -1.1340   -3.1651   -0.5044 H   0  0  0  0  0  0  0  0  0  0  0  0
   -4.1988   -1.8719   -1.9364 H   0  0  0  0  0  0  0  0  0  0  0  0
   -6.4089   -2.9690   -2.0872 H   0  0  0  0  0  0  0  0  0  0  0  0
   -7.3864   -4.0853   -0.0970 H   0  0  0  0  0  0  0  0  0  0  0  0
   -6.1401   -4.1085    2.0491 H   0  0  0  0  0  0  0  0  0  0  0  0
   -3.9262   -3.0173    2.2119 H   0  0  0  0  0  0  0  0  0  0  0  0
   -4.1151   -0.0262    1.7689 H   0  0  0  0  0  0  0  0  0  0  0  0
   -2.8757    1.2193    1.8447 H   0  0  0  0  0  0  0  0  0  0  0  0
   -4.8646    1.9266    0.5086 H   0  0  0  0  0  0  0  0  0  0  0  0
   -4.6184    0.5920   -0.6104 H   0  0  0  0  0  0  0  0  0  0  0  0
   -2.4407    1.5292   -1.3125 H   0  0  0  0  0  0  0  0  0  0  0  0
   -2.5717    2.8239   -0.1109 H   0  0  0  0  0  0  0  0  0  0  0  0
   -4.6169    3.6843   -1.2923 H   0  0  0  0  0  0  0  0  0  0  0  0
   -3.1903    3.6421   -2.3548 H   0  0  0  0  0  0  0  0  0  0  0  0
   -5.0142    2.7757   -3.3597 H   0  0  0  0  0  0  0  0  0  0  0  0
  1  2  2  0
  2  3  1  0
  4  3  1  6
  4  5  1  0
  5  6  1  0
  6  7  1  0
  7  8  1  0
  8  9  1  0
  9 10  1  0
 10 11  1  0
 10 12  1  0
  8 13  1  0
  2 14  1  0
 14 15  1  0
 15 16  2  0
 16 17  1  0
 17 18  2  0
 18 19  1  0
 19 20  2  0
 20 21  1  0
 21 22  2  0
 16 23  1  0
 23 24  1  0
 24 25  1  0
 25 26  1  0
 26 27  1  0
 27 28  1  0
 23 29  1  0
 12  4  1  0
 29 14  2  0
 13  4  1  0
 22 17  1  0
 11  6  1  0
  3 30  1  0
  5 31  1  0
  5 32  1  0
  6 33  1  1
  7 34  1  0
  7 35  1  0
  8 36  1  6
  9 37  1  0
  9 38  1  0
 10 39  1  1
 11 40  1  0
 11 41  1  0
 12 42  1  0
 12 43  1  0
 13 44  1  0
 13 45  1  0
 15 46  1  0
 18 47  1  0
 19 48  1  0
 20 49  1  0
 21 50  1  0
 22 51  1  0
 24 52  1  0
 24 53  1  0
 25 54  1  0
 25 55  1  0
 26 56  1  0
 26 57  1  0
 27 58  1  0
 27 59  1  0
 28 60  1  0
M  END
>  <_SMILES>  (34) 
O=C(N[C@]12C[C@H]3C[C@H](C[C@H](C3)C1)C2)c1cc(-c2ccccc2)n(CCCCO)n1

$$$$

     RDKit          3D

 65 69  0  0  0  0  0  0  0  0999 V2000
   -0.1569   -2.1613   -1.5649 C   0  0  0  0  0  0  0  0  0  0  0  0
    0.8038   -1.0440   -1.3685 C   0  0  0  0  0  0  0  0  0  0  0  0
    0.5079    0.3457   -1.1791 C   0  0  0  0  0  0  0  0  0  0  0  0
   -0.8140    0.9999   -1.0793 C   0  0  0  0  0  0  0  0  0  0  0  0
   -1.0573    2.0907   -1.5851 O   0  0  0  0  0  0  0  0  0  0  0  0
   -1.7355    0.2811   -0.3347 N   0  0  0  0  0  0  0  0  0  0  0  0
   -3.0788    0.7538    0.0088 C   0  0  2  0  0  0  0  0  0  0  0  0
   -3.7916   -0.3627    0.8201 C   0  0  0  0  0  0  0  0  0  0  0  0
   -5.2108    0.0672    1.2237 C   0  0  1  0  0  0  0  0  0  0  0  0
   -5.1272    1.3398    2.0811 C   0  0  0  0  0  0  0  0  0  0  0  0
   -4.4501    2.4663    1.2844 C   0  0  2  0  0  0  0  0  0  0  0  0
   -5.2665    2.7484    0.0115 C   0  0  0  0  0  0  0  0  0  0  0  0
   -5.3553    1.4792   -0.8533 C   0  0  2  0  0  0  0  0  0  0  0  0
   -6.0278    0.3597   -0.0440 C   0  0  0  0  0  0  0  0  0  0  0  0
   -3.9355    1.0380   -1.2512 C   0  0  0  0  0  0  0  0  0  0  0  0
   -3.0293    2.0268    0.8888 C   0  0  0  0  0  0  0  0  0  0  0  0
    1.6397    1.0629   -1.0844 N   0  0  0  0  0  0  0  0  0  0  0  0
    2.6322    0.1652   -1.2033 N   0  0  0  0  0  0  0  0  0  0  0  0
    4.0032    0.6439   -1.1434 C   0  0  0  0  0  0  0  0  0  0  0  0
    4.3872    1.2354    0.2164 C   0  0  0  0  0  0  0  0  0  0  0  0
    4.3775    0.1939    1.3393 C   0  0  0  0  0  0  0  0  0  0  0  0
    4.8690    0.7463    2.6770 C   0  0  0  0  0  0  0  0  0  0  0  0
    3.9583    1.8070    3.2720 C   0  0  0  0  0  0  0  0  0  0  0  0
    4.4390    2.1422    4.5007 F   0  0  0  0  0  0  0  0  0  0  0  0
    2.1892   -1.1242   -1.3640 C   0  0  0  0  0  0  0  0  0  0  0  0
    3.0578   -2.2845   -1.5118 C   0  0  0  0  0  0  0  0  0  0  0  0
    3.6132   -2.5962   -2.7578 C   0  0  0  0  0  0  0  0  0  0  0  0
    4.4462   -3.7076   -2.8967 C   0  0  0  0  0  0  0  0  0  0  0  0
    4.7240   -4.5134   -1.7931 C   0  0  0  0  0  0  0  0  0  0  0  0
    4.1670   -4.2121   -0.5507 C   0  0  0  0  0  0  0  0  0  0  0  0
    3.3330   -3.1016   -0.4102 C   0  0  0  0  0  0  0  0  0  0  0  0
    0.2947   -2.9834   -2.1292 H   0  0  0  0  0  0  0  0  0  0  0  0
   -1.0371   -1.8298   -2.1249 H   0  0  0  0  0  0  0  0  0  0  0  0
   -0.4859   -2.5533   -0.5974 H   0  0  0  0  0  0  0  0  0  0  0  0
   -1.3477   -0.4573    0.2366 H   0  0  0  0  0  0  0  0  0  0  0  0
   -3.2109   -0.6044    1.7205 H   0  0  0  0  0  0  0  0  0  0  0  0
   -3.8375   -1.2874    0.2291 H   0  0  0  0  0  0  0  0  0  0  0  0
   -5.6914   -0.7337    1.7966 H   0  0  0  0  0  0  0  0  0  0  0  0
   -4.5616    1.1374    2.9989 H   0  0  0  0  0  0  0  0  0  0  0  0
   -6.1331    1.6509    2.3890 H   0  0  0  0  0  0  0  0  0  0  0  0
   -4.3980    3.3724    1.8983 H   0  0  0  0  0  0  0  0  0  0  0  0
   -4.8003    3.5600   -0.5606 H   0  0  0  0  0  0  0  0  0  0  0  0
   -6.2742    3.0875    0.2816 H   0  0  0  0  0  0  0  0  0  0  0  0
   -5.9430    1.6867   -1.7546 H   0  0  0  0  0  0  0  0  0  0  0  0
   -6.1102   -0.5474   -0.6552 H   0  0  0  0  0  0  0  0  0  0  0  0
   -7.0489    0.6545    0.2275 H   0  0  0  0  0  0  0  0  0  0  0  0
   -3.9855    0.1415   -1.8831 H   0  0  0  0  0  0  0  0  0  0  0  0
   -3.4835    1.8225   -1.8684 H   0  0  0  0  0  0  0  0  0  0  0  0
   -2.4318    1.8391    1.7907 H   0  0  0  0  0  0  0  0  0  0  0  0
   -2.5341    2.8492    0.3590 H   0  0  0  0  0  0  0  0  0  0  0  0
    4.6823   -0.1711   -1.4091 H   0  0  0  0  0  0  0  0  0  0  0  0
    4.0966    1.4096   -1.9228 H   0  0  0  0  0  0  0  0  0  0  0  0
    3.7086    2.0597    0.4629 H   0  0  0  0  0  0  0  0  0  0  0  0
    5.3929    1.6653    0.1340 H   0  0  0  0  0  0  0  0  0  0  0  0
    3.3682   -0.2136    1.4695 H   0  0  0  0  0  0  0  0  0  0  0  0
    5.0251   -0.6444    1.0546 H   0  0  0  0  0  0  0  0  0  0  0  0
    5.8810    1.1549    2.5712 H   0  0  0  0  0  0  0  0  0  0  0  0
    4.9546   -0.0794    3.3939 H   0  0  0  0  0  0  0  0  0  0  0  0
    3.9360    2.7171    2.6674 H   0  0  0  0  0  0  0  0  0  0  0  0
    2.9377    1.4357    3.4008 H   0  0  0  0  0  0  0  0  0  0  0  0
    3.3965   -1.9782   -3.6263 H   0  0  0  0  0  0  0  0  0  0  0  0
    4.8755   -3.9465   -3.8664 H   0  0  0  0  0  0  0  0  0  0  0  0
    5.3719   -5.3796   -1.9025 H   0  0  0  0  0  0  0  0  0  0  0  0
    4.3805   -4.8435    0.3079 H   0  0  0  0  0  0  0  0  0  0  0  0
    2.9014   -2.8772    0.5622 H   0  0  0  0  0  0  0  0  0  0  0  0
  1  2  1  0
  2  3  1  0
  3  4  1  0
  4  5  2  0
  4  6  1  0
  7  6  1  6
  7  8  1  0
  8  9  1  0
  9 10  1  0
 10 11  1  0
 11 12  1  0
 12 13  1  0
 13 14  1  0
 13 15  1  0
 11 16  1  0
  3 17  2  0
 17 18  1  0
 18 19  1  0
 19 20  1  0
 20 21  1  0
 21 22  1  0
 22 23  1  0
 23 24  1  0
 18 25  1  0
 25 26  1  0
 26 27  2  0
 27 28  1  0
 28 29  2  0
 29 30  1  0
 30 31  2  0
 25  2  2  0
 31 26  1  0
 15  7  1  0
 16  7  1  0
 14  9  1  0
  1 32  1  0
  1 33  1  0
  1 34  1  0
  6 35  1  0
  8 36  1  0
  8 37  1  0
  9 38  1  1
 10 39  1  0
 10 40  1  0
 11 41  1  1
 12 42  1  0
 12 43  1  0
 13 44  1  6
 14 45  1  0
 14 46  1  0
 15 47  1  0
 15 48  1  0
 16 49  1  0
 16 50  1  0
 19 51  1  0
 19 52  1  0
 20 53  1  0
 20 54  1  0
 21 55  1  0
 21 56  1  0
 22 57  1  0
 22 58  1  0
 23 59  1  0
 23 60  1  0
 27 61  1  0
 28 62  1  0
 29 63  1  0
 30 64  1  0
 31 65  1  0
M  END
>  <_SMILES>  (35) 
Cc1c(C(=O)N[C@]23C[C@H]4C[C@H](C[C@H](C4)C2)C3)nn(CCCCCF)c1-c1ccccc1

$$$$

     RDKit          3D

 63 67  0  0  0  0  0  0  0  0999 V2000
    2.0930    1.8913   -0.9166 O   0  0  0  0  0  0  0  0  0  0  0  0
    1.4815    0.8751   -0.6060 C   0  0  0  0  0  0  0  0  0  0  0  0
    2.0708   -0.3098   -0.2229 N   0  0  0  0  0  0  0  0  0  0  0  0
    3.5025   -0.5707   -0.1252 C   0  0  2  0  0  0  0  0  0  0  0  0
    4.1827    0.3597    0.9094 C   0  0  0  0  0  0  0  0  0  0  0  0
    5.6817    0.0325    1.0284 C   0  0  1  0  0  0  0  0  0  0  0  0
    5.8488   -1.4250    1.4862 C   0  0  0  0  0  0  0  0  0  0  0  0
    5.2002   -2.3732    0.4656 C   0  0  2  0  0  0  0  0  0  0  0  0
    5.8730   -2.1852   -0.9032 C   0  0  0  0  0  0  0  0  0  0  0  0
    5.7060   -0.7321   -1.3748 C   0  0  2  0  0  0  0  0  0  0  0  0
    6.3496    0.2125   -0.3455 C   0  0  0  0  0  0  0  0  0  0  0  0
    4.2070   -0.4050   -1.4944 C   0  0  0  0  0  0  0  0  0  0  0  0
    3.7056   -2.0361    0.3433 C   0  0  0  0  0  0  0  0  0  0  0  0
    0.0111    0.8022   -0.6048 C   0  0  0  0  0  0  0  0  0  0  0  0
   -0.8948    1.8306   -0.9497 C   0  0  0  0  0  0  0  0  0  0  0  0
   -2.1604    1.2945   -0.8111 C   0  0  0  0  0  0  0  0  0  0  0  0
   -3.4515    1.9287   -1.0468 C   0  0  0  0  0  0  0  0  0  0  0  0
   -4.3130    1.4552   -2.0434 C   0  0  0  0  0  0  0  0  0  0  0  0
   -5.5436    2.0764   -2.2665 C   0  0  0  0  0  0  0  0  0  0  0  0
   -5.9167    3.1810   -1.5024 C   0  0  0  0  0  0  0  0  0  0  0  0
   -5.0584    3.6693   -0.5188 C   0  0  0  0  0  0  0  0  0  0  0  0
   -3.8279    3.0483   -0.2947 C   0  0  0  0  0  0  0  0  0  0  0  0
   -1.9556    0.0110   -0.3576 N   0  0  0  0  0  0  0  0  0  0  0  0
   -2.9421   -0.9911    0.0180 C   0  0  0  0  0  0  0  0  0  0  0  0
   -2.9890   -1.2580    1.5246 C   0  0  0  0  0  0  0  0  0  0  0  0
   -3.6084   -0.1327    2.3595 C   0  0  0  0  0  0  0  0  0  0  0  0
   -5.0731    0.2158    2.0624 C   0  0  0  0  0  0  0  0  0  0  0  0
   -6.0517   -0.9350    2.2638 C   0  0  0  0  0  0  0  0  0  0  0  0
   -5.9545   -1.8564    1.1864 O   0  0  0  0  0  0  0  0  0  0  0  0
   -0.6465   -0.3209   -0.2550 N   0  0  0  0  0  0  0  0  0  0  0  0
    1.4017   -1.0461   -0.0064 H   0  0  0  0  0  0  0  0  0  0  0  0
    3.6982    0.2532    1.8889 H   0  0  0  0  0  0  0  0  0  0  0  0
    4.0681    1.4121    0.6237 H   0  0  0  0  0  0  0  0  0  0  0  0
    6.1490    0.7041    1.7573 H   0  0  0  0  0  0  0  0  0  0  0  0
    5.3886   -1.5634    2.4723 H   0  0  0  0  0  0  0  0  0  0  0  0
    6.9139   -1.6638    1.5956 H   0  0  0  0  0  0  0  0  0  0  0  0
    5.3198   -3.4108    0.7969 H   0  0  0  0  0  0  0  0  0  0  0  0
    6.9384   -2.4371   -0.8350 H   0  0  0  0  0  0  0  0  0  0  0  0
    5.4301   -2.8706   -1.6363 H   0  0  0  0  0  0  0  0  0  0  0  0
    6.1905   -0.6023   -2.3490 H   0  0  0  0  0  0  0  0  0  0  0  0
    6.2493    1.2532   -0.6776 H   0  0  0  0  0  0  0  0  0  0  0  0
    7.4241    0.0053   -0.2687 H   0  0  0  0  0  0  0  0  0  0  0  0
    3.7401   -1.0608   -2.2410 H   0  0  0  0  0  0  0  0  0  0  0  0
    4.0930    0.6184   -1.8713 H   0  0  0  0  0  0  0  0  0  0  0  0
    3.2101   -2.1953    1.3105 H   0  0  0  0  0  0  0  0  0  0  0  0
    3.2270   -2.7279   -0.3629 H   0  0  0  0  0  0  0  0  0  0  0  0
   -0.6450    2.8316   -1.2750 H   0  0  0  0  0  0  0  0  0  0  0  0
   -4.0289    0.6044   -2.6583 H   0  0  0  0  0  0  0  0  0  0  0  0
   -6.2078    1.7013   -3.0408 H   0  0  0  0  0  0  0  0  0  0  0  0
   -6.8734    3.6659   -1.6789 H   0  0  0  0  0  0  0  0  0  0  0  0
   -5.3443    4.5354    0.0723 H   0  0  0  0  0  0  0  0  0  0  0  0
   -3.1666    3.4398    0.4750 H   0  0  0  0  0  0  0  0  0  0  0  0
   -2.6500   -1.9100   -0.5056 H   0  0  0  0  0  0  0  0  0  0  0  0
   -3.9190   -0.7058   -0.3748 H   0  0  0  0  0  0  0  0  0  0  0  0
   -1.9725   -1.4377    1.8978 H   0  0  0  0  0  0  0  0  0  0  0  0
   -3.5349   -2.1903    1.7052 H   0  0  0  0  0  0  0  0  0  0  0  0
   -3.5286   -0.4129    3.4177 H   0  0  0  0  0  0  0  0  0  0  0  0
   -3.0054    0.7760    2.2430 H   0  0  0  0  0  0  0  0  0  0  0  0
   -5.1645    0.5962    1.0412 H   0  0  0  0  0  0  0  0  0  0  0  0
   -5.3598    1.0334    2.7350 H   0  0  0  0  0  0  0  0  0  0  0  0
   -7.0759   -0.5483    2.2803 H   0  0  0  0  0  0  0  0  0  0  0  0
   -5.8606   -1.4611    3.2043 H   0  0  0  0  0  0  0  0  0  0  0  0
   -6.6312   -2.5391    1.3377 H   0  0  0  0  0  0  0  0  0  0  0  0
  1  2  2  0
  2  3  1  0
  4  3  1  6
  4  5  1  0
  5  6  1  0
  6  7  1  0
  7  8  1  0
  8  9  1  0
  9 10  1  0
 10 11  1  0
 10 12  1  0
  8 13  1  0
  2 14  1  0
 14 15  1  0
 15 16  2  0
 16 17  1  0
 17 18  2  0
 18 19  1  0
 19 20  2  0
 20 21  1  0
 21 22  2  0
 16 23  1  0
 23 24  1  0
 24 25  1  0
 25 26  1  0
 26 27  1  0
 27 28  1  0
 28 29  1  0
 23 30  1  0
 12  4  1  0
 30 14  2  0
 13  4  1  0
 22 17  1  0
 11  6  1  0
  3 31  1  0
  5 32  1  0
  5 33  1  0
  6 34  1  1
  7 35  1  0
  7 36  1  0
  8 37  1  1
  9 38  1  0
  9 39  1  0
 10 40  1  6
 11 41  1  0
 11 42  1  0
 12 43  1  0
 12 44  1  0
 13 45  1  0
 13 46  1  0
 15 47  1  0
 18 48  1  0
 19 49  1  0
 20 50  1  0
 21 51  1  0
 22 52  1  0
 24 53  1  0
 24 54  1  0
 25 55  1  0
 25 56  1  0
 26 57  1  0
 26 58  1  0
 27 59  1  0
 27 60  1  0
 28 61  1  0
 28 62  1  0
 29 63  1  0
M  END
>  <_SMILES>  (36) 
O=C(N[C@]12C[C@H]3C[C@H](C[C@H](C3)C1)C2)c1cc(-c2ccccc2)n(CCCCCO)n1

$$$$

     RDKit          3D

 66 70  0  0  0  0  0  0  0  0999 V2000
    1.2128   -0.6916   -3.4221 C   0  0  0  0  0  0  0  0  0  0  0  0
    1.2593   -0.9598   -2.0027 N   0  0  0  0  0  0  0  0  0  0  0  0
    0.3099   -0.5494   -1.0928 C   0  0  0  0  0  0  0  0  0  0  0  0
   -0.8751    0.2550   -1.3638 C   0  0  0  0  0  0  0  0  0  0  0  0
   -1.1745    0.6859   -2.4728 O   0  0  0  0  0  0  0  0  0  0  0  0
   -1.6206    0.4842   -0.2277 N   0  0  0  0  0  0  0  0  0  0  0  0
   -2.8459    1.2724   -0.1381 C   0  0  2  0  0  0  0  0  0  0  0  0
   -2.6053    2.7477   -0.5431 C   0  0  0  0  0  0  0  0  0  0  0  0
   -3.8987    3.5679   -0.3929 C   0  0  1  0  0  0  0  0  0  0  0  0
   -4.9915    2.9582   -1.2874 C   0  0  0  0  0  0  0  0  0  0  0  0
   -5.2651    1.5027   -0.8717 C   0  0  2  0  0  0  0  0  0  0  0  0
   -5.7190    1.4715    0.5962 C   0  0  0  0  0  0  0  0  0  0  0  0
   -4.6273    2.0717    1.4958 C   0  0  2  0  0  0  0  0  0  0  0  0
   -4.3605    3.5247    1.0723 C   0  0  0  0  0  0  0  0  0  0  0  0
   -3.3357    1.2544    1.3346 C   0  0  0  0  0  0  0  0  0  0  0  0
   -3.9721    0.6817   -1.0221 C   0  0  0  0  0  0  0  0  0  0  0  0
    0.6118   -0.9857    0.1215 N   0  0  0  0  0  0  0  0  0  0  0  0
    1.7941   -1.6747   -0.0068 C   0  0  0  0  0  0  0  0  0  0  0  0
    2.4319   -2.2846    1.1950 C   0  0  0  0  0  0  0  0  0  0  0  0
    3.5583   -1.4333    1.7882 C   0  0  0  0  0  0  0  0  0  0  0  0
    3.1419   -0.0410    2.2802 C   0  0  0  0  0  0  0  0  0  0  0  0
    2.0318   -0.0116    3.3373 C   0  0  0  0  0  0  0  0  0  0  0  0
    2.3291   -0.8019    4.6070 C   0  0  0  0  0  0  0  0  0  0  0  0
    3.4816   -0.3000    5.2677 O   0  0  0  0  0  0  0  0  0  0  0  0
    2.2282   -1.6677   -1.3231 C   0  0  0  0  0  0  0  0  0  0  0  0
    3.4212   -2.2479   -1.9225 C   0  0  0  0  0  0  0  0  0  0  0  0
    4.5082   -1.4339   -2.2612 C   0  0  0  0  0  0  0  0  0  0  0  0
    5.6532   -1.9921   -2.8321 C   0  0  0  0  0  0  0  0  0  0  0  0
    5.7178   -3.3654   -3.0650 C   0  0  0  0  0  0  0  0  0  0  0  0
    4.6398   -4.1822   -2.7256 C   0  0  0  0  0  0  0  0  0  0  0  0
    3.4942   -3.6255   -2.1541 C   0  0  0  0  0  0  0  0  0  0  0  0
    1.3180    0.3858   -3.5729 H   0  0  0  0  0  0  0  0  0  0  0  0
    0.2580   -1.0512   -3.8143 H   0  0  0  0  0  0  0  0  0  0  0  0
    2.0207   -1.2127   -3.9386 H   0  0  0  0  0  0  0  0  0  0  0  0
   -1.2244    0.0728    0.6149 H   0  0  0  0  0  0  0  0  0  0  0  0
   -2.2565    2.8165   -1.5804 H   0  0  0  0  0  0  0  0  0  0  0  0
   -1.8117    3.1848    0.0771 H   0  0  0  0  0  0  0  0  0  0  0  0
   -3.7137    4.6060   -0.6910 H   0  0  0  0  0  0  0  0  0  0  0  0
   -5.9124    3.5489   -1.2076 H   0  0  0  0  0  0  0  0  0  0  0  0
   -4.6796    2.9955   -2.3384 H   0  0  0  0  0  0  0  0  0  0  0  0
   -6.0482    1.0773   -1.5092 H   0  0  0  0  0  0  0  0  0  0  0  0
   -6.6524    2.0359    0.7120 H   0  0  0  0  0  0  0  0  0  0  0  0
   -5.9311    0.4394    0.9012 H   0  0  0  0  0  0  0  0  0  0  0  0
   -4.9540    2.0454    2.5414 H   0  0  0  0  0  0  0  0  0  0  0  0
   -5.2706    4.1244    1.1964 H   0  0  0  0  0  0  0  0  0  0  0  0
   -3.5952    3.9697    1.7199 H   0  0  0  0  0  0  0  0  0  0  0  0
   -3.5087    0.2204    1.6622 H   0  0  0  0  0  0  0  0  0  0  0  0
   -2.5575    1.6584    1.9961 H   0  0  0  0  0  0  0  0  0  0  0  0
   -4.1594   -0.3643   -0.7459 H   0  0  0  0  0  0  0  0  0  0  0  0
   -3.6766    0.6715   -2.0779 H   0  0  0  0  0  0  0  0  0  0  0  0
    2.8392   -3.2666    0.9246 H   0  0  0  0  0  0  0  0  0  0  0  0
    1.6662   -2.4802    1.9545 H   0  0  0  0  0  0  0  0  0  0  0  0
    4.3491   -1.3047    1.0382 H   0  0  0  0  0  0  0  0  0  0  0  0
    4.0173   -1.9878    2.6152 H   0  0  0  0  0  0  0  0  0  0  0  0
    4.0313    0.4631    2.6779 H   0  0  0  0  0  0  0  0  0  0  0  0
    2.8196    0.5647    1.4243 H   0  0  0  0  0  0  0  0  0  0  0  0
    1.0921   -0.3700    2.9034 H   0  0  0  0  0  0  0  0  0  0  0  0
    1.8701    1.0387    3.6112 H   0  0  0  0  0  0  0  0  0  0  0  0
    1.4866   -0.7098    5.2999 H   0  0  0  0  0  0  0  0  0  0  0  0
    2.4715   -1.8676    4.4049 H   0  0  0  0  0  0  0  0  0  0  0  0
    4.2518   -0.4912    4.7068 H   0  0  0  0  0  0  0  0  0  0  0  0
    4.4710   -0.3630   -2.0756 H   0  0  0  0  0  0  0  0  0  0  0  0
    6.4955   -1.3562   -3.0923 H   0  0  0  0  0  0  0  0  0  0  0  0
    6.6101   -3.7999   -3.5088 H   0  0  0  0  0  0  0  0  0  0  0  0
    4.6912   -5.2530   -2.9050 H   0  0  0  0  0  0  0  0  0  0  0  0
    2.6590   -4.2710   -1.8923 H   0  0  0  0  0  0  0  0  0  0  0  0
  1  2  1  0
  2  3  1  0
  3  4  1  0
  4  5  2  0
  4  6  1  0
  7  6  1  1
  7  8  1  0
  8  9  1  0
  9 10  1  0
 10 11  1  0
 11 12  1  0
 12 13  1  0
 13 14  1  0
 13 15  1  0
 11 16  1  0
  3 17  2  0
 17 18  1  0
 18 19  1  0
 19 20  1  0
 20 21  1  0
 21 22  1  0
 22 23  1  0
 23 24  1  0
 18 25  2  0
 25 26  1  0
 26 27  2  0
 27 28  1  0
 28 29  2  0
 29 30  1  0
 30 31  2  0
 25  2  1  0
 31 26  1  0
 15  7  1  0
 16  7  1  0
 14  9  1  0
  1 32  1  0
  1 33  1  0
  1 34  1  0
  6 35  1  0
  8 36  1  0
  8 37  1  0
  9 38  1  6
 10 39  1  0
 10 40  1  0
 11 41  1  6
 12 42  1  0
 12 43  1  0
 13 44  1  1
 14 45  1  0
 14 46  1  0
 15 47  1  0
 15 48  1  0
 16 49  1  0
 16 50  1  0
 19 51  1  0
 19 52  1  0
 20 53  1  0
 20 54  1  0
 21 55  1  0
 21 56  1  0
 22 57  1  0
 22 58  1  0
 23 59  1  0
 23 60  1  0
 24 61  1  0
 27 62  1  0
 28 63  1  0
 29 64  1  0
 30 65  1  0
 31 66  1  0
M  END
>  <_SMILES>  (37) 
Cn1c(C(=O)N[C@]23C[C@H]4C[C@H](C[C@H](C4)C2)C3)nc(CCCCCO)c1-c1ccccc1

$$$$

     RDKit          3D

 67 71  0  0  0  0  0  0  0  0999 V2000
   -0.1657    2.8040   -2.0085 C   0  0  0  0  0  0  0  0  0  0  0  0
    0.5495    1.9287   -1.0721 N   0  0  0  0  0  0  0  0  0  0  0  0
   -0.0164    0.8075   -0.5606 C   0  0  0  0  0  0  0  0  0  0  0  0
   -1.3735    0.3736   -0.6482 C   0  0  0  0  0  0  0  0  0  0  0  0
   -2.2701    1.1752   -0.8806 O   0  0  0  0  0  0  0  0  0  0  0  0
   -1.5618   -0.9901   -0.4629 N   0  0  0  0  0  0  0  0  0  0  0  0
   -2.8751   -1.6538   -0.5555 C   0  0  2  0  0  0  0  0  0  0  0  0
   -3.8876   -1.0845    0.4707 C   0  0  0  0  0  0  0  0  0  0  0  0
   -5.2286   -1.8347    0.3818 C   0  0  1  0  0  0  0  0  0  0  0  0
   -5.7946   -1.6915   -1.0415 C   0  0  0  0  0  0  0  0  0  0  0  0
   -4.8134   -2.2886   -2.0648 C   0  0  2  0  0  0  0  0  0  0  0  0
   -4.5865   -3.7740   -1.7417 C   0  0  0  0  0  0  0  0  0  0  0  0
   -4.0132   -3.9215   -0.3234 C   0  0  2  0  0  0  0  0  0  0  0  0
   -5.0004   -3.3225    0.6898 C   0  0  0  0  0  0  0  0  0  0  0  0
   -2.6800   -3.1618   -0.2373 C   0  0  0  0  0  0  0  0  0  0  0  0
   -3.4723   -1.5384   -1.9793 C   0  0  0  0  0  0  0  0  0  0  0  0
    0.9882    0.1640    0.0620 N   0  0  0  0  0  0  0  0  0  0  0  0
    2.1749    0.8782    0.0290 C   0  0  0  0  0  0  0  0  0  0  0  0
    3.3663    0.3577    0.7536 C   0  0  0  0  0  0  0  0  0  0  0  0
    3.6193    1.1090    2.0634 C   0  0  0  0  0  0  0  0  0  0  0  0
    4.7862    0.5218    2.8675 C   0  0  0  0  0  0  0  0  0  0  0  0
    4.3718   -0.4243    3.9984 C   0  0  0  0  0  0  0  0  0  0  0  0
    3.5941   -1.6489    3.5396 C   0  0  0  0  0  0  0  0  0  0  0  0
    3.3889   -2.5493    4.6149 O   0  0  0  0  0  0  0  0  0  0  0  0
    1.8911    2.0589   -0.6541 C   0  0  0  0  0  0  0  0  0  0  0  0
    2.8529    3.2970   -0.8897 C   0  0  0  0  0  0  0  0  0  0  0  0
    4.2400    3.1388   -0.9532 C   0  0  0  0  0  0  0  0  0  0  0  0
    5.0678    4.2480   -1.1501 C   0  0  0  0  0  0  0  0  0  0  0  0
    4.5173    5.5201   -1.2769 C   0  0  0  0  0  0  0  0  0  0  0  0
    3.1376    5.6868   -1.2061 C   0  0  0  0  0  0  0  0  0  0  0  0
    2.3074    4.5799   -1.0127 C   0  0  0  0  0  0  0  0  0  0  0  0
   -0.8161    2.2061   -2.6527 H   0  0  0  0  0  0  0  0  0  0  0  0
   -0.7589    3.5257   -1.4419 H   0  0  0  0  0  0  0  0  0  0  0  0
    0.5399    3.3175   -2.6651 H   0  0  0  0  0  0  0  0  0  0  0  0
   -0.7659   -1.6002   -0.5980 H   0  0  0  0  0  0  0  0  0  0  0  0
   -4.0694   -0.0179    0.2976 H   0  0  0  0  0  0  0  0  0  0  0  0
   -3.4801   -1.1652    1.4870 H   0  0  0  0  0  0  0  0  0  0  0  0
   -5.9356   -1.4127    1.1048 H   0  0  0  0  0  0  0  0  0  0  0  0
   -5.9751   -0.6336   -1.2684 H   0  0  0  0  0  0  0  0  0  0  0  0
   -6.7633   -2.2016   -1.1112 H   0  0  0  0  0  0  0  0  0  0  0  0
   -5.2271   -2.1898   -3.0746 H   0  0  0  0  0  0  0  0  0  0  0  0
   -5.5322   -4.3238   -1.8225 H   0  0  0  0  0  0  0  0  0  0  0  0
   -3.8980   -4.2157   -2.4725 H   0  0  0  0  0  0  0  0  0  0  0  0
   -3.8505   -4.9815   -0.0988 H   0  0  0  0  0  0  0  0  0  0  0  0
   -4.6100   -3.4391    1.7083 H   0  0  0  0  0  0  0  0  0  0  0  0
   -5.9534   -3.8642    0.6502 H   0  0  0  0  0  0  0  0  0  0  0  0
   -1.9588   -3.6053   -0.9370 H   0  0  0  0  0  0  0  0  0  0  0  0
   -2.2474   -3.2826    0.7649 H   0  0  0  0  0  0  0  0  0  0  0  0
   -3.6308   -0.4887   -2.2533 H   0  0  0  0  0  0  0  0  0  0  0  0
   -2.7690   -1.9454   -2.7176 H   0  0  0  0  0  0  0  0  0  0  0  0
    0.8462   -0.6960    0.5838 H   0  0  0  0  0  0  0  0  0  0  0  0
    3.1922   -0.7045    0.9554 H   0  0  0  0  0  0  0  0  0  0  0  0
    4.2411    0.3931    0.0998 H   0  0  0  0  0  0  0  0  0  0  0  0
    3.8614    2.1526    1.8277 H   0  0  0  0  0  0  0  0  0  0  0  0
    2.7092    1.1427    2.6752 H   0  0  0  0  0  0  0  0  0  0  0  0
    5.4997    0.0199    2.2031 H   0  0  0  0  0  0  0  0  0  0  0  0
    5.3325    1.3542    3.3297 H   0  0  0  0  0  0  0  0  0  0  0  0
    5.2715   -0.7516    4.5348 H   0  0  0  0  0  0  0  0  0  0  0  0
    3.7761    0.1242    4.7392 H   0  0  0  0  0  0  0  0  0  0  0  0
    2.6108   -1.3693    3.1504 H   0  0  0  0  0  0  0  0  0  0  0  0
    4.1370   -2.1848    2.7551 H   0  0  0  0  0  0  0  0  0  0  0  0
    3.1277   -2.0448    5.4050 H   0  0  0  0  0  0  0  0  0  0  0  0
    4.7181    2.1684   -0.9032 H   0  0  0  0  0  0  0  0  0  0  0  0
    6.1471    4.1205   -1.2136 H   0  0  0  0  0  0  0  0  0  0  0  0
    5.1640    6.3821   -1.4281 H   0  0  0  0  0  0  0  0  0  0  0  0
    2.7101    6.6842   -1.2892 H   0  0  0  0  0  0  0  0  0  0  0  0
    1.2429    4.7619   -0.9076 H   0  0  0  0  0  0  0  0  0  0  0  0
  1  2  1  0
  2  3  1  0
  3  4  1  0
  4  5  2  0
  4  6  1  0
  7  6  1  6
  7  8  1  0
  8  9  1  0
  9 10  1  0
 10 11  1  0
 11 12  1  0
 12 13  1  0
 13 14  1  0
 13 15  1  0
 11 16  1  0
  3 17  2  0
 17 18  1  0
 18 19  1  0
 19 20  1  0
 20 21  1  0
 21 22  1  0
 22 23  1  0
 23 24  1  0
 18 25  2  0
 25 26  1  0
 26 27  2  0
 27 28  1  0
 28 29  2  0
 29 30  1  0
 30 31  2  0
 25  2  1  0
 31 26  1  0
 15  7  1  0
 16  7  1  0
 14  9  1  0
  1 32  1  0
  1 33  1  0
  1 34  1  0
  6 35  1  0
  8 36  1  0
  8 37  1  0
  9 38  1  1
 10 39  1  0
 10 40  1  0
 11 41  1  6
 12 42  1  0
 12 43  1  0
 13 44  1  1
 14 45  1  0
 14 46  1  0
 15 47  1  0
 15 48  1  0
 16 49  1  0
 16 50  1  0
 17 51  1  0
 19 52  1  0
 19 53  1  0
 20 54  1  0
 20 55  1  0
 21 56  1  0
 21 57  1  0
 22 58  1  0
 22 59  1  0
 23 60  1  0
 23 61  1  0
 24 62  1  0
 27 63  1  0
 28 64  1  0
 29 65  1  0
 30 66  1  0
 31 67  1  0
M  CHG  1  17   1
M  END
>  <_SMILES>  (38) 
Cn1c(C(=O)N[C@]23C[C@H]4C[C@H](C[C@H](C4)C2)C3)[nH+]c(CCCCCO)c1-c1ccccc1

$$$$

     RDKit          3D

 63 67  0  0  0  0  0  0  0  0999 V2000
    0.5391   -3.6421    0.4012 C   0  0  0  0  0  0  0  0  0  0  0  0
    0.9973   -2.2529    0.1422 C   0  0  0  0  0  0  0  0  0  0  0  0
    0.1804   -1.0847    0.0745 C   0  0  0  0  0  0  0  0  0  0  0  0
   -1.2835   -0.9896    0.2484 C   0  0  0  0  0  0  0  0  0  0  0  0
   -1.9928   -1.9580    0.4990 O   0  0  0  0  0  0  0  0  0  0  0  0
   -1.7488    0.2990    0.0977 N   0  0  0  0  0  0  0  0  0  0  0  0
   -3.1396    0.7309    0.1724 C   0  0  2  0  0  0  0  0  0  0  0  0
   -3.1921    2.2648   -0.0575 C   0  0  0  0  0  0  0  0  0  0  0  0
   -4.6378    2.7825    0.0079 C   0  0  1  0  0  0  0  0  0  0  0  0
   -5.4734    2.0823   -1.0753 C   0  0  0  0  0  0  0  0  0  0  0  0
   -5.4564    0.5620   -0.8505 C   0  0  2  0  0  0  0  0  0  0  0  0
   -6.0380    0.2481    0.5385 C   0  0  0  0  0  0  0  0  0  0  0  0
   -5.2071    0.9439    1.6300 C   0  0  2  0  0  0  0  0  0  0  0  0
   -5.2258    2.4619    1.3910 C   0  0  0  0  0  0  0  0  0  0  0  0
   -3.7559    0.4360    1.5625 C   0  0  0  0  0  0  0  0  0  0  0  0
   -4.0053    0.0540   -0.9186 C   0  0  0  0  0  0  0  0  0  0  0  0
    0.9206    0.0146   -0.1775 N   0  0  0  0  0  0  0  0  0  0  0  0
    2.1815   -0.4505   -0.2871 N   0  0  0  0  0  0  0  0  0  0  0  0
    3.2533    0.5016   -0.5487 C   0  0  0  0  0  0  0  0  0  0  0  0
    3.7245    1.1818    0.7362 C   0  0  0  0  0  0  0  0  0  0  0  0
    5.0165    1.9908    0.5793 C   0  0  0  0  0  0  0  0  0  0  0  0
    4.9077    3.1597   -0.3918 C   0  0  0  0  0  0  0  0  0  0  0  0
    4.8600    2.6751   -1.7249 O   0  0  0  0  0  0  0  0  0  0  0  0
    2.2897   -1.8058   -0.0891 C   0  0  0  0  0  0  0  0  0  0  0  0
    3.5497   -2.5475   -0.1188 C   0  0  0  0  0  0  0  0  0  0  0  0
    4.1930   -2.8188    1.0984 C   0  0  0  0  0  0  0  0  0  0  0  0
    5.3984   -3.5231    1.1245 C   0  0  0  0  0  0  0  0  0  0  0  0
    5.9722   -3.9677   -0.0646 C   0  0  0  0  0  0  0  0  0  0  0  0
    5.3400   -3.7110   -1.2815 C   0  0  0  0  0  0  0  0  0  0  0  0
    4.1325   -3.0062   -1.3118 C   0  0  0  0  0  0  0  0  0  0  0  0
    3.4023   -2.7261   -2.8544 Cl  0  0  0  0  0  0  0  0  0  0  0  0
    1.3664   -4.3576    0.3666 H   0  0  0  0  0  0  0  0  0  0  0  0
   -0.1955   -3.9490   -0.3502 H   0  0  0  0  0  0  0  0  0  0  0  0
    0.0772   -3.7133    1.3910 H   0  0  0  0  0  0  0  0  0  0  0  0
   -1.0163    0.9686   -0.1310 H   0  0  0  0  0  0  0  0  0  0  0  0
   -2.5798    2.7803    0.6945 H   0  0  0  0  0  0  0  0  0  0  0  0
   -2.7535    2.5154   -1.0328 H   0  0  0  0  0  0  0  0  0  0  0  0
   -4.6510    3.8656   -0.1575 H   0  0  0  0  0  0  0  0  0  0  0  0
   -5.0737    2.3189   -2.0690 H   0  0  0  0  0  0  0  0  0  0  0  0
   -6.5054    2.4533   -1.0507 H   0  0  0  0  0  0  0  0  0  0  0  0
   -6.0566    0.0681   -1.6227 H   0  0  0  0  0  0  0  0  0  0  0  0
   -7.0809    0.5841    0.5916 H   0  0  0  0  0  0  0  0  0  0  0  0
   -6.0441   -0.8360    0.7060 H   0  0  0  0  0  0  0  0  0  0  0  0
   -5.6305    0.7203    2.6156 H   0  0  0  0  0  0  0  0  0  0  0  0
   -6.2535    2.8394    1.4581 H   0  0  0  0  0  0  0  0  0  0  0  0
   -4.6478    2.9716    2.1717 H   0  0  0  0  0  0  0  0  0  0  0  0
   -3.7440   -0.6394    1.7759 H   0  0  0  0  0  0  0  0  0  0  0  0
   -3.1566    0.9118    2.3498 H   0  0  0  0  0  0  0  0  0  0  0  0
   -3.5854    0.2557   -1.9129 H   0  0  0  0  0  0  0  0  0  0  0  0
   -4.0015   -1.0361   -0.7997 H   0  0  0  0  0  0  0  0  0  0  0  0
    4.0730   -0.0308   -1.0397 H   0  0  0  0  0  0  0  0  0  0  0  0
    2.8523    1.2292   -1.2628 H   0  0  0  0  0  0  0  0  0  0  0  0
    3.8948    0.4234    1.5112 H   0  0  0  0  0  0  0  0  0  0  0  0
    2.9291    1.8332    1.1200 H   0  0  0  0  0  0  0  0  0  0  0  0
    5.8196    1.3167    0.2574 H   0  0  0  0  0  0  0  0  0  0  0  0
    5.2924    2.3814    1.5659 H   0  0  0  0  0  0  0  0  0  0  0  0
    4.0127    3.7581   -0.1951 H   0  0  0  0  0  0  0  0  0  0  0  0
    5.7888    3.8025   -0.2981 H   0  0  0  0  0  0  0  0  0  0  0  0
    4.8256    3.4518   -2.3107 H   0  0  0  0  0  0  0  0  0  0  0  0
    3.7533   -2.4824    2.0355 H   0  0  0  0  0  0  0  0  0  0  0  0
    5.8869   -3.7273    2.0745 H   0  0  0  0  0  0  0  0  0  0  0  0
    6.9099   -4.5179   -0.0447 H   0  0  0  0  0  0  0  0  0  0  0  0
    5.7918   -4.0649   -2.2049 H   0  0  0  0  0  0  0  0  0  0  0  0
  1  2  1  0
  2  3  1  0
  3  4  1  0
  4  5  2  0
  4  6  1  0
  7  6  1  1
  7  8  1  0
  8  9  1  0
  9 10  1  0
 10 11  1  0
 11 12  1  0
 12 13  1  0
 13 14  1  0
 13 15  1  0
 11 16  1  0
  3 17  2  0
 17 18  1  0
 18 19  1  0
 19 20  1  0
 20 21  1  0
 21 22  1  0
 22 23  1  0
 18 24  1  0
 24 25  1  0
 25 26  2  0
 26 27  1  0
 27 28  2  0
 28 29  1  0
 29 30  2  0
 30 31  1  0
 24  2  2  0
 30 25  1  0
 15  7  1  0
 16  7  1  0
 14  9  1  0
  1 32  1  0
  1 33  1  0
  1 34  1  0
  6 35  1  0
  8 36  1  0
  8 37  1  0
  9 38  1  6
 10 39  1  0
 10 40  1  0
 11 41  1  6
 12 42  1  0
 12 43  1  0
 13 44  1  1
 14 45  1  0
 14 46  1  0
 15 47  1  0
 15 48  1  0
 16 49  1  0
 16 50  1  0
 19 51  1  0
 19 52  1  0
 20 53  1  0
 20 54  1  0
 21 55  1  0
 21 56  1  0
 22 57  1  0
 22 58  1  0
 23 59  1  0
 26 60  1  0
 27 61  1  0
 28 62  1  0
 29 63  1  0
M  END
>  <_SMILES>  (39) 
Cc1c(C(=O)N[C@]23C[C@H]4C[C@H](C[C@H](C4)C2)C3)nn(CCCCO)c1-c1ccccc1Cl

$$$$

     RDKit          3D

 63 67  0  0  0  0  0  0  0  0999 V2000
   -0.6765    2.4928    0.5195 C   0  0  0  0  0  0  0  0  0  0  0  0
    0.1386    1.3408    0.0537 C   0  0  0  0  0  0  0  0  0  0  0  0
   -0.2286   -0.0449    0.0425 C   0  0  0  0  0  0  0  0  0  0  0  0
   -1.5131   -0.6538    0.4425 C   0  0  0  0  0  0  0  0  0  0  0  0
   -1.5904   -1.6948    1.0877 O   0  0  0  0  0  0  0  0  0  0  0  0
   -2.6228    0.0450   -0.0057 N   0  0  0  0  0  0  0  0  0  0  0  0
   -3.9808   -0.4117    0.1835 C   0  0  1  0  0  0  0  0  0  0  0  0
   -4.9949    0.5213   -0.5204 C   0  0  0  0  0  0  0  0  0  0  0  0
   -6.1839   -0.4211   -0.7113 C   0  0  2  0  0  0  0  0  0  0  0  0
   -6.7233   -0.8725    0.6750 C   0  0  0  0  0  0  0  0  0  0  0  0
   -5.5945   -1.4839    1.5522 C   0  0  1  0  0  0  0  0  0  0  0  0
   -4.8975   -2.6099    0.7837 C   0  0  0  0  0  0  0  0  0  0  0  0
   -4.3098   -1.8375   -0.4091 C   0  0  1  0  0  0  0  0  0  0  0  0
   -5.4645   -1.5867   -1.3922 C   0  0  0  0  0  0  0  0  0  0  0  0
   -4.4306   -0.4950    1.6600 C   0  0  0  0  0  0  0  0  0  0  0  0
    0.7834   -0.8020   -0.4124 N   0  0  0  0  0  0  0  0  0  0  0  0
    1.7704    0.0670   -0.6843 N   0  0  0  0  0  0  0  0  0  0  0  0
    3.0326   -0.4488   -1.1898 C   0  0  0  0  0  0  0  0  0  0  0  0
    3.9713   -0.8779   -0.0628 C   0  0  0  0  0  0  0  0  0  0  0  0
    5.3364   -1.2956   -0.6130 C   0  0  0  0  0  0  0  0  0  0  0  0
    6.3405   -1.6664    0.4844 C   0  0  0  0  0  0  0  0  0  0  0  0
    5.9948   -2.9438    1.2425 C   0  0  0  0  0  0  0  0  0  0  0  0
    5.9300   -4.0508    0.3550 O   0  0  0  0  0  0  0  0  0  0  0  0
    1.4343    1.3759   -0.4407 C   0  0  0  0  0  0  0  0  0  0  0  0
    2.3278    2.5068   -0.6518 C   0  0  0  0  0  0  0  0  0  0  0  0
    3.1675    2.9434    0.3784 C   0  0  0  0  0  0  0  0  0  0  0  0
    4.0257    4.0250    0.1740 C   0  0  0  0  0  0  0  0  0  0  0  0
    4.0451    4.6766   -1.0587 C   0  0  0  0  0  0  0  0  0  0  0  0
    3.2054    4.2500   -2.0871 C   0  0  0  0  0  0  0  0  0  0  0  0
    2.3464    3.1684   -1.8843 C   0  0  0  0  0  0  0  0  0  0  0  0
   -1.3070    2.2105    1.3687 H   0  0  0  0  0  0  0  0  0  0  0  0
   -1.3209    2.8529   -0.2886 H   0  0  0  0  0  0  0  0  0  0  0  0
   -0.0452    3.3247    0.8471 H   0  0  0  0  0  0  0  0  0  0  0  0
   -2.4489    0.7342   -0.7246 H   0  0  0  0  0  0  0  0  0  0  0  0
   -4.6164    0.8681   -1.4908 H   0  0  0  0  0  0  0  0  0  0  0  0
   -5.2462    1.4104    0.0681 H   0  0  0  0  0  0  0  0  0  0  0  0
   -6.9723    0.0116   -1.3327 H   0  0  0  0  0  0  0  0  0  0  0  0
   -7.5179   -1.6147    0.5333 H   0  0  0  0  0  0  0  0  0  0  0  0
   -7.1629   -0.0122    1.1935 H   0  0  0  0  0  0  0  0  0  0  0  0
   -5.9685   -1.8048    2.5280 H   0  0  0  0  0  0  0  0  0  0  0  0
   -4.0985   -3.0589    1.3856 H   0  0  0  0  0  0  0  0  0  0  0  0
   -5.5848   -3.4086    0.4868 H   0  0  0  0  0  0  0  0  0  0  0  0
   -3.4738   -2.3620   -0.8789 H   0  0  0  0  0  0  0  0  0  0  0  0
   -6.1104   -2.4590   -1.5349 H   0  0  0  0  0  0  0  0  0  0  0  0
   -5.0763   -1.2894   -2.3739 H   0  0  0  0  0  0  0  0  0  0  0  0
   -3.6482   -0.8930    2.3157 H   0  0  0  0  0  0  0  0  0  0  0  0
   -4.7345    0.4730    2.0731 H   0  0  0  0  0  0  0  0  0  0  0  0
    3.4912    0.3254   -1.8134 H   0  0  0  0  0  0  0  0  0  0  0  0
    2.8003   -1.2959   -1.8464 H   0  0  0  0  0  0  0  0  0  0  0  0
    3.5134   -1.7053    0.4912 H   0  0  0  0  0  0  0  0  0  0  0  0
    4.1017   -0.0557    0.6509 H   0  0  0  0  0  0  0  0  0  0  0  0
    5.7561   -0.4611   -1.1888 H   0  0  0  0  0  0  0  0  0  0  0  0
    5.2173   -2.1303   -1.3139 H   0  0  0  0  0  0  0  0  0  0  0  0
    7.3186   -1.7999    0.0055 H   0  0  0  0  0  0  0  0  0  0  0  0
    6.4388   -0.8364    1.1934 H   0  0  0  0  0  0  0  0  0  0  0  0
    5.0343   -2.8585    1.7580 H   0  0  0  0  0  0  0  0  0  0  0  0
    6.7581   -3.1552    1.9984 H   0  0  0  0  0  0  0  0  0  0  0  0
    6.8092   -4.1581   -0.0457 H   0  0  0  0  0  0  0  0  0  0  0  0
    3.1547    2.4449    1.3451 H   0  0  0  0  0  0  0  0  0  0  0  0
    4.6762    4.3611    0.9773 H   0  0  0  0  0  0  0  0  0  0  0  0
    4.7125    5.5201   -1.2168 H   0  0  0  0  0  0  0  0  0  0  0  0
    3.2179    4.7610   -3.0464 H   0  0  0  0  0  0  0  0  0  0  0  0
    1.6932    2.8451   -2.6913 H   0  0  0  0  0  0  0  0  0  0  0  0
  1  2  1  0
  2  3  1  0
  3  4  1  0
  4  5  2  0
  4  6  1  0
  7  6  1  1
  7  8  1  0
  8  9  1  0
  9 10  1  0
 10 11  1  0
 11 12  1  0
 12 13  1  0
 13 14  1  0
 11 15  1  0
  3 16  2  0
 16 17  1  0
 17 18  1  0
 18 19  1  0
 19 20  1  0
 20 21  1  0
 21 22  1  0
 22 23  1  0
 17 24  1  0
 24 25  1  0
 25 26  2  0
 26 27  1  0
 27 28  2  0
 28 29  1  0
 29 30  2  0
 24  2  2  0
 30 25  1  0
 13  7  1  0
 15  7  1  0
 14  9  1  0
  1 31  1  0
  1 32  1  0
  1 33  1  0
  6 34  1  0
  8 35  1  0
  8 36  1  0
  9 37  1  6
 10 38  1  0
 10 39  1  0
 11 40  1  1
 12 41  1  0
 12 42  1  0
 13 43  1  6
 14 44  1  0
 14 45  1  0
 15 46  1  0
 15 47  1  0
 18 48  1  0
 18 49  1  0
 19 50  1  0
 19 51  1  0
 20 52  1  0
 20 53  1  0
 21 54  1  0
 21 55  1  0
 22 56  1  0
 22 57  1  0
 23 58  1  0
 26 59  1  0
 27 60  1  0
 28 61  1  0
 29 62  1  0
 30 63  1  0
M  END
>  <_SMILES>  (40) 
Cc1c(C(=O)N[C@@]23C[C@@H]4C[C@@H](C[C@H]2C4)C3)nn(CCCCCO)c1-c1ccccc1

$$$$

     RDKit          3D

 63 67  0  0  0  0  0  0  0  0999 V2000
    4.3713    4.1089    0.7950 C   0  0  0  0  0  0  0  0  0  0  0  0
    3.9734    3.1406   -0.1662 O   0  0  0  0  0  0  0  0  0  0  0  0
    3.1267    2.1260    0.3778 C   0  0  0  0  0  0  0  0  0  0  0  0
    3.9674    0.9852    0.9469 C   0  0  0  0  0  0  0  0  0  0  0  0
    3.1301   -0.0954    1.6237 C   0  0  0  0  0  0  0  0  0  0  0  0
    2.2069   -0.7699    0.7287 N   0  0  0  0  0  0  0  0  0  0  0  0
    0.9400   -0.3165    0.6552 N   0  0  0  0  0  0  0  0  0  0  0  0
    0.3492   -1.1258   -0.2491 C   0  0  0  0  0  0  0  0  0  0  0  0
   -1.0688   -0.9426   -0.6220 C   0  0  0  0  0  0  0  0  0  0  0  0
   -1.6438   -1.6547   -1.4378 O   0  0  0  0  0  0  0  0  0  0  0  0
   -1.6576    0.1097    0.0456 N   0  0  0  0  0  0  0  0  0  0  0  0
   -3.0349    0.5662   -0.1042 C   0  0  2  0  0  0  0  0  0  0  0  0
   -3.3272    1.0306   -1.5524 C   0  0  0  0  0  0  0  0  0  0  0  0
   -4.7699    1.5523   -1.6727 C   0  0  1  0  0  0  0  0  0  0  0  0
   -5.7479    0.4309   -1.2827 C   0  0  0  0  0  0  0  0  0  0  0  0
   -5.4909   -0.0154    0.1668 C   0  0  2  0  0  0  0  0  0  0  0  0
   -5.6769    1.1855    1.1075 C   0  0  0  0  0  0  0  0  0  0  0  0
   -4.6964    2.3062    0.7279 C   0  0  2  0  0  0  0  0  0  0  0  0
   -4.9601    2.7442   -0.7213 C   0  0  0  0  0  0  0  0  0  0  0  0
   -3.2578    1.7769    0.8407 C   0  0  0  0  0  0  0  0  0  0  0  0
   -4.0483   -0.5376    0.2875 C   0  0  0  0  0  0  0  0  0  0  0  0
    1.2643   -2.1058   -0.7389 C   0  0  0  0  0  0  0  0  0  0  0  0
    0.9786   -3.1659   -1.7401 C   0  0  0  0  0  0  0  0  0  0  0  0
    2.4570   -1.8506   -0.0797 C   0  0  0  0  0  0  0  0  0  0  0  0
    3.7453   -2.5239   -0.1774 C   0  0  0  0  0  0  0  0  0  0  0  0
    4.6476   -2.1734   -1.1873 C   0  0  0  0  0  0  0  0  0  0  0  0
    5.8831   -2.8163   -1.2792 C   0  0  0  0  0  0  0  0  0  0  0  0
    6.2191   -3.8158   -0.3667 C   0  0  0  0  0  0  0  0  0  0  0  0
    5.3196   -4.1764    0.6360 C   0  0  0  0  0  0  0  0  0  0  0  0
    4.0839   -3.5338    0.7298 C   0  0  0  0  0  0  0  0  0  0  0  0
    3.4970    4.6324    1.1936 H   0  0  0  0  0  0  0  0  0  0  0  0
    5.0152    4.8397    0.2981 H   0  0  0  0  0  0  0  0  0  0  0  0
    4.9364    3.6470    1.6090 H   0  0  0  0  0  0  0  0  0  0  0  0
    2.4481    2.5481    1.1283 H   0  0  0  0  0  0  0  0  0  0  0  0
    2.5151    1.7590   -0.4525 H   0  0  0  0  0  0  0  0  0  0  0  0
    4.5777    0.5582    0.1424 H   0  0  0  0  0  0  0  0  0  0  0  0
    4.6822    1.3799    1.6780 H   0  0  0  0  0  0  0  0  0  0  0  0
    3.7812   -0.8557    2.0679 H   0  0  0  0  0  0  0  0  0  0  0  0
    2.5415    0.3322    2.4446 H   0  0  0  0  0  0  0  0  0  0  0  0
   -1.0259    0.5930    0.6804 H   0  0  0  0  0  0  0  0  0  0  0  0
   -3.1838    0.2080   -2.2632 H   0  0  0  0  0  0  0  0  0  0  0  0
   -2.6198    1.8171   -1.8467 H   0  0  0  0  0  0  0  0  0  0  0  0
   -4.9628    1.8688   -2.7038 H   0  0  0  0  0  0  0  0  0  0  0  0
   -5.6316   -0.4214   -1.9635 H   0  0  0  0  0  0  0  0  0  0  0  0
   -6.7814    0.7832   -1.3875 H   0  0  0  0  0  0  0  0  0  0  0  0
   -6.1946   -0.8100    0.4391 H   0  0  0  0  0  0  0  0  0  0  0  0
   -6.7085    1.5534    1.0463 H   0  0  0  0  0  0  0  0  0  0  0  0
   -5.5101    0.8770    2.1468 H   0  0  0  0  0  0  0  0  0  0  0  0
   -4.8309    3.1593    1.4023 H   0  0  0  0  0  0  0  0  0  0  0  0
   -4.2775    3.5572   -0.9977 H   0  0  0  0  0  0  0  0  0  0  0  0
   -5.9793    3.1389   -0.8140 H   0  0  0  0  0  0  0  0  0  0  0  0
   -3.0503    1.4880    1.8798 H   0  0  0  0  0  0  0  0  0  0  0  0
   -2.5483    2.5798    0.5992 H   0  0  0  0  0  0  0  0  0  0  0  0
   -3.9329   -1.4199   -0.3532 H   0  0  0  0  0  0  0  0  0  0  0  0
   -3.8586   -0.8771    1.3143 H   0  0  0  0  0  0  0  0  0  0  0  0
    0.1693   -3.8145   -1.3898 H   0  0  0  0  0  0  0  0  0  0  0  0
    1.8525   -3.7974   -1.9267 H   0  0  0  0  0  0  0  0  0  0  0  0
    0.6802   -2.7193   -2.6941 H   0  0  0  0  0  0  0  0  0  0  0  0
    4.3926   -1.3989   -1.9075 H   0  0  0  0  0  0  0  0  0  0  0  0
    6.5812   -2.5397   -2.0652 H   0  0  0  0  0  0  0  0  0  0  0  0
    7.1801   -4.3186   -0.4415 H   0  0  0  0  0  0  0  0  0  0  0  0
    5.5781   -4.9620    1.3413 H   0  0  0  0  0  0  0  0  0  0  0  0
    3.3850   -3.8292    1.5090 H   0  0  0  0  0  0  0  0  0  0  0  0
  1  2  1  0
  2  3  1  0
  3  4  1  0
  4  5  1  0
  5  6  1  0
  6  7  1  0
  7  8  2  0
  8  9  1  0
  9 10  2  0
  9 11  1  0
 12 11  1  6
 12 13  1  0
 13 14  1  0
 14 15  1  0
 15 16  1  0
 16 17  1  0
 17 18  1  0
 18 19  1  0
 18 20  1  0
 16 21  1  0
  8 22  1  0
 22 23  1  0
 22 24  2  0
 24 25  1  0
 25 26  2  0
 26 27  1  0
 27 28  2  0
 28 29  1  0
 29 30  2  0
 24  6  1  0
 30 25  1  0
 20 12  1  0
 21 12  1  0
 19 14  1  0
  1 31  1  0
  1 32  1  0
  1 33  1  0
  3 34  1  0
  3 35  1  0
  4 36  1  0
  4 37  1  0
  5 38  1  0
  5 39  1  0
 11 40  1  0
 13 41  1  0
 13 42  1  0
 14 43  1  6
 15 44  1  0
 15 45  1  0
 16 46  1  1
 17 47  1  0
 17 48  1  0
 18 49  1  1
 19 50  1  0
 19 51  1  0
 20 52  1  0
 20 53  1  0
 21 54  1  0
 21 55  1  0
 23 56  1  0
 23 57  1  0
 23 58  1  0
 26 59  1  0
 27 60  1  0
 28 61  1  0
 29 62  1  0
 30 63  1  0
M  END
>  <_SMILES>  (41) 
COCCCn1nc(C(=O)N[C@]23C[C@H]4C[C@H](C[C@H](C4)C2)C3)c(C)c1-c1ccccc1

$$$$

     RDKit          3D

 56 60  0  0  0  0  0  0  0  0999 V2000
    1.4698    2.6812    2.6130 C   0  0  0  0  0  0  0  0  0  0  0  0
    1.7856    1.4187    1.8964 C   0  0  0  0  0  0  0  0  0  0  0  0
    0.8644    0.6000    1.1762 C   0  0  0  0  0  0  0  0  0  0  0  0
   -0.5867    0.8114    0.9906 C   0  0  0  0  0  0  0  0  0  0  0  0
   -1.1927    1.7633    1.4707 O   0  0  0  0  0  0  0  0  0  0  0  0
   -1.1692   -0.1767    0.2261 N   0  0  0  0  0  0  0  0  0  0  0  0
   -2.5791   -0.2735   -0.1345 C   0  0  2  0  0  0  0  0  0  0  0  0
   -2.7791   -1.5435   -1.0036 C   0  0  0  0  0  0  0  0  0  0  0  0
   -4.2510   -1.7022   -1.4168 C   0  0  1  0  0  0  0  0  0  0  0  0
   -5.1196   -1.8150   -0.1541 C   0  0  0  0  0  0  0  0  0  0  0  0
   -4.9564   -0.5543    0.7096 C   0  0  2  0  0  0  0  0  0  0  0  0
   -5.3829    0.6782   -0.1060 C   0  0  0  0  0  0  0  0  0  0  0  0
   -4.5179    0.8004   -1.3721 C   0  0  2  0  0  0  0  0  0  0  0  0
   -4.6837   -0.4680   -2.2238 C   0  0  0  0  0  0  0  0  0  0  0  0
   -3.0415    0.9499   -0.9641 C   0  0  0  0  0  0  0  0  0  0  0  0
   -3.4802   -0.4051    1.1181 C   0  0  0  0  0  0  0  0  0  0  0  0
    1.4829   -0.4712    0.6382 N   0  0  0  0  0  0  0  0  0  0  0  0
    2.7768   -0.3283    0.9949 N   0  0  0  0  0  0  0  0  0  0  0  0
    3.7368   -1.3474    0.5740 C   0  0  0  0  0  0  0  0  0  0  0  0
    4.6822   -0.8506   -0.4930 C   0  0  0  0  0  0  0  0  0  0  0  0
    6.0702   -0.9243   -0.3003 C   0  0  0  0  0  0  0  0  0  0  0  0
    6.9482   -0.4807   -1.2909 C   0  0  0  0  0  0  0  0  0  0  0  0
    6.4506    0.0338   -2.4863 C   0  0  0  0  0  0  0  0  0  0  0  0
    5.0749    0.1023   -2.6950 C   0  0  0  0  0  0  0  0  0  0  0  0
    4.1950   -0.3411   -1.7068 C   0  0  0  0  0  0  0  0  0  0  0  0
    3.0087    0.7788    1.7749 C   0  0  0  0  0  0  0  0  0  0  0  0
    4.3513    1.1385    2.3014 C   0  0  0  0  0  0  0  0  0  0  0  0
    0.7910    2.4853    3.4491 H   0  0  0  0  0  0  0  0  0  0  0  0
    2.3681    3.1585    3.0147 H   0  0  0  0  0  0  0  0  0  0  0  0
    0.9925    3.3974    1.9363 H   0  0  0  0  0  0  0  0  0  0  0  0
   -0.5135   -0.8943   -0.0763 H   0  0  0  0  0  0  0  0  0  0  0  0
   -2.4521   -2.4345   -0.4508 H   0  0  0  0  0  0  0  0  0  0  0  0
   -2.1467   -1.4909   -1.9000 H   0  0  0  0  0  0  0  0  0  0  0  0
   -4.3688   -2.6037   -2.0283 H   0  0  0  0  0  0  0  0  0  0  0  0
   -6.1724   -1.9440   -0.4337 H   0  0  0  0  0  0  0  0  0  0  0  0
   -4.8318   -2.7034    0.4212 H   0  0  0  0  0  0  0  0  0  0  0  0
   -5.5804   -0.6380    1.6064 H   0  0  0  0  0  0  0  0  0  0  0  0
   -5.2839    1.5842    0.5044 H   0  0  0  0  0  0  0  0  0  0  0  0
   -6.4410    0.5951   -0.3830 H   0  0  0  0  0  0  0  0  0  0  0  0
   -4.8311    1.6768   -1.9504 H   0  0  0  0  0  0  0  0  0  0  0  0
   -4.0822   -0.3874   -3.1375 H   0  0  0  0  0  0  0  0  0  0  0  0
   -5.7290   -0.5739   -2.5390 H   0  0  0  0  0  0  0  0  0  0  0  0
   -2.4155    1.0571   -1.8597 H   0  0  0  0  0  0  0  0  0  0  0  0
   -2.9209    1.8781   -0.3930 H   0  0  0  0  0  0  0  0  0  0  0  0
   -3.1693   -1.2709    1.7176 H   0  0  0  0  0  0  0  0  0  0  0  0
   -3.3757    0.4714    1.7686 H   0  0  0  0  0  0  0  0  0  0  0  0
    3.1767   -2.2118    0.1976 H   0  0  0  0  0  0  0  0  0  0  0  0
    4.2694   -1.6718    1.4749 H   0  0  0  0  0  0  0  0  0  0  0  0
    6.4808   -1.3259    0.6236 H   0  0  0  0  0  0  0  0  0  0  0  0
    8.0220   -0.5375   -1.1312 H   0  0  0  0  0  0  0  0  0  0  0  0
    7.1346    0.3797   -3.2569 H   0  0  0  0  0  0  0  0  0  0  0  0
    4.6852    0.5016   -3.6280 H   0  0  0  0  0  0  0  0  0  0  0  0
    3.1225   -0.2814   -1.8875 H   0  0  0  0  0  0  0  0  0  0  0  0
    4.8773    0.2611    2.6897 H   0  0  0  0  0  0  0  0  0  0  0  0
    4.9604    1.5927    1.5138 H   0  0  0  0  0  0  0  0  0  0  0  0
    4.2763    1.8559    3.1241 H   0  0  0  0  0  0  0  0  0  0  0  0
  1  2  1  0
  2  3  1  0
  3  4  1  0
  4  5  2  0
  4  6  1  0
  7  6  1  1
  7  8  1  0
  8  9  1  0
  9 10  1  0
 10 11  1  0
 11 12  1  0
 12 13  1  0
 13 14  1  0
 13 15  1  0
 11 16  1  0
  3 17  2  0
 17 18  1  0
 18 19  1  0
 19 20  1  0
 20 21  2  0
 21 22  1  0
 22 23  2  0
 23 24  1  0
 24 25  2  0
 18 26  1  0
 26 27  1  0
 26  2  2  0
 15  7  1  0
 25 20  1  0
 16  7  1  0
 14  9  1  0
  1 28  1  0
  1 29  1  0
  1 30  1  0
  6 31  1  0
  8 32  1  0
  8 33  1  0
  9 34  1  6
 10 35  1  0
 10 36  1  0
 11 37  1  1
 12 38  1  0
 12 39  1  0
 13 40  1  6
 14 41  1  0
 14 42  1  0
 15 43  1  0
 15 44  1  0
 16 45  1  0
 16 46  1  0
 19 47  1  0
 19 48  1  0
 21 49  1  0
 22 50  1  0
 23 51  1  0
 24 52  1  0
 25 53  1  0
 27 54  1  0
 27 55  1  0
 27 56  1  0
M  END
>  <_SMILES>  (42) 
Cc1c(C(=O)N[C@]23C[C@H]4C[C@H](C[C@H](C4)C2)C3)nn(Cc2ccccc2)c1C

$$$$

     RDKit          3D

 60 64  0  0  0  0  0  0  0  0999 V2000
    0.4894    2.1530   -2.9338 C   0  0  0  0  0  0  0  0  0  0  0  0
    0.8816    1.4035   -1.7122 C   0  0  0  0  0  0  0  0  0  0  0  0
    0.0120    0.9411   -0.6786 C   0  0  0  0  0  0  0  0  0  0  0  0
   -1.4540    1.0974   -0.5901 C   0  0  0  0  0  0  0  0  0  0  0  0
   -2.1250    1.6435   -1.4595 O   0  0  0  0  0  0  0  0  0  0  0  0
   -1.9768    0.5540    0.5641 N   0  0  0  0  0  0  0  0  0  0  0  0
   -3.3858    0.4244    0.8482 C   0  0  2  0  0  0  0  0  0  0  0  0
   -4.1221   -0.5559   -0.1257 C   0  0  0  0  0  0  0  0  0  0  0  0
   -5.6273   -0.7077    0.2414 C   0  0  2  0  0  0  0  0  0  0  0  0
   -6.2815    0.6736    0.3143 C   0  0  0  0  0  0  0  0  0  0  0  0
   -5.4981    1.3058    1.4742 C   0  0  2  0  0  0  0  0  0  0  0  0
   -4.1432    1.7615    0.9124 C   0  0  0  0  0  0  0  0  0  0  0  0
   -5.1468    0.0968    2.4095 C   0  0  1  0  0  0  0  0  0  0  0  0
   -5.7627   -1.1214    1.7077 C   0  0  0  0  0  0  0  0  0  0  0  0
   -3.6229   -0.0388    2.2968 C   0  0  0  0  0  0  0  0  0  0  0  0
    0.7004    0.2903    0.2826 N   0  0  0  0  0  0  0  0  0  0  0  0
    1.9810    0.3455   -0.1317 N   0  0  0  0  0  0  0  0  0  0  0  0
    3.0056   -0.2657    0.7013 C   0  0  0  0  0  0  0  0  0  0  0  0
    3.1275   -1.7672    0.4460 C   0  0  0  0  0  0  0  0  0  0  0  0
    4.2798   -2.4144    1.2129 C   0  0  0  0  0  0  0  0  0  0  0  0
    4.0981   -2.3861    2.7255 C   0  0  0  0  0  0  0  0  0  0  0  0
    5.1565   -3.1024    3.3470 O   0  0  0  0  0  0  0  0  0  0  0  0
    2.1506    1.0000   -1.3262 C   0  0  0  0  0  0  0  0  0  0  0  0
    3.4367    1.1864   -1.9843 C   0  0  0  0  0  0  0  0  0  0  0  0
    4.1770    2.3528   -1.7635 C   0  0  0  0  0  0  0  0  0  0  0  0
    5.4132    2.5282   -2.3877 C   0  0  0  0  0  0  0  0  0  0  0  0
    5.9119    1.5414   -3.2375 C   0  0  0  0  0  0  0  0  0  0  0  0
    5.1743    0.3807   -3.4679 C   0  0  0  0  0  0  0  0  0  0  0  0
    3.9378    0.2038   -2.8448 C   0  0  0  0  0  0  0  0  0  0  0  0
    1.3539    2.3939   -3.5599 H   0  0  0  0  0  0  0  0  0  0  0  0
   -0.2046    1.5608   -3.5387 H   0  0  0  0  0  0  0  0  0  0  0  0
    0.0013    3.0949   -2.6639 H   0  0  0  0  0  0  0  0  0  0  0  0
   -1.2923    0.0510    1.1247 H   0  0  0  0  0  0  0  0  0  0  0  0
   -3.6376   -1.5400   -0.0934 H   0  0  0  0  0  0  0  0  0  0  0  0
   -4.0423   -0.1943   -1.1578 H   0  0  0  0  0  0  0  0  0  0  0  0
   -6.1452   -1.3872   -0.4404 H   0  0  0  0  0  0  0  0  0  0  0  0
   -6.1993    1.2330   -0.6231 H   0  0  0  0  0  0  0  0  0  0  0  0
   -7.3455    0.5912    0.5670 H   0  0  0  0  0  0  0  0  0  0  0  0
   -6.0462    2.1136    1.9651 H   0  0  0  0  0  0  0  0  0  0  0  0
   -3.6542    2.4639    1.5997 H   0  0  0  0  0  0  0  0  0  0  0  0
   -4.2315    2.2610   -0.0577 H   0  0  0  0  0  0  0  0  0  0  0  0
   -5.4872    0.2086    3.4417 H   0  0  0  0  0  0  0  0  0  0  0  0
   -6.8167   -1.2368    1.9879 H   0  0  0  0  0  0  0  0  0  0  0  0
   -5.2482   -2.0609    1.9338 H   0  0  0  0  0  0  0  0  0  0  0  0
   -3.1216    0.6238    3.0145 H   0  0  0  0  0  0  0  0  0  0  0  0
   -3.2599   -1.0556    2.4838 H   0  0  0  0  0  0  0  0  0  0  0  0
    2.7297   -0.0603    1.7418 H   0  0  0  0  0  0  0  0  0  0  0  0
    3.9548    0.2451    0.5109 H   0  0  0  0  0  0  0  0  0  0  0  0
    2.1857   -2.2679    0.7033 H   0  0  0  0  0  0  0  0  0  0  0  0
    3.2844   -1.9446   -0.6251 H   0  0  0  0  0  0  0  0  0  0  0  0
    5.2283   -1.9312    0.9469 H   0  0  0  0  0  0  0  0  0  0  0  0
    4.3821   -3.4579    0.8888 H   0  0  0  0  0  0  0  0  0  0  0  0
    4.1033   -1.3648    3.1172 H   0  0  0  0  0  0  0  0  0  0  0  0
    3.1554   -2.8613    3.0135 H   0  0  0  0  0  0  0  0  0  0  0  0
    5.9925   -2.6677    3.1068 H   0  0  0  0  0  0  0  0  0  0  0  0
    3.7927    3.1312   -1.1083 H   0  0  0  0  0  0  0  0  0  0  0  0
    5.9842    3.4370   -2.2154 H   0  0  0  0  0  0  0  0  0  0  0  0
    6.8727    1.6808   -3.7270 H   0  0  0  0  0  0  0  0  0  0  0  0
    5.5588   -0.3839   -4.1381 H   0  0  0  0  0  0  0  0  0  0  0  0
    3.3651   -0.7001   -3.0395 H   0  0  0  0  0  0  0  0  0  0  0  0
  1  2  1  0
  2  3  1  0
  3  4  1  0
  4  5  2  0
  4  6  1  0
  7  6  1  6
  7  8  1  0
  8  9  1  0
  9 10  1  0
 10 11  1  0
 11 12  1  0
 11 13  1  0
 13 14  1  0
 13 15  1  0
  3 16  2  0
 16 17  1  0
 17 18  1  0
 18 19  1  0
 19 20  1  0
 20 21  1  0
 21 22  1  0
 17 23  1  0
 23 24  1  0
 24 25  2  0
 25 26  1  0
 26 27  2  0
 27 28  1  0
 28 29  2  0
 23  2  2  0
 29 24  1  0
 12  7  1  0
 15  7  1  0
 14  9  1  0
  1 30  1  0
  1 31  1  0
  1 32  1  0
  6 33  1  0
  8 34  1  0
  8 35  1  0
  9 36  1  6
 10 37  1  0
 10 38  1  0
 11 39  1  1
 12 40  1  0
 12 41  1  0
 13 42  1  1
 14 43  1  0
 14 44  1  0
 15 45  1  0
 15 46  1  0
 18 47  1  0
 18 48  1  0
 19 49  1  0
 19 50  1  0
 20 51  1  0
 20 52  1  0
 21 53  1  0
 21 54  1  0
 22 55  1  0
 25 56  1  0
 26 57  1  0
 27 58  1  0
 28 59  1  0
 29 60  1  0
M  END
>  <_SMILES>  (43) 
Cc1c(C(=O)N[C@]23C[C@@H]4C[C@H](C2)[C@@H](C4)C3)nn(CCCCO)c1-c1ccccc1

$$$$

     RDKit          3D

 49 53  0  0  0  0  0  0  0  0999 V2000
    2.6345    2.1893   -0.1992 C   0  0  0  0  0  0  0  0  0  0  0  0
    2.6382    0.7750    0.0762 N   0  0  0  0  0  0  0  0  0  0  0  0
    1.5243   -0.0199    0.1926 C   0  0  0  0  0  0  0  0  0  0  0  0
    0.1423    0.3407   -0.0537 C   0  0  0  0  0  0  0  0  0  0  0  0
   -0.2067    1.4467   -0.4546 O   0  0  0  0  0  0  0  0  0  0  0  0
   -0.7386   -0.6888    0.2013 N   0  0  0  0  0  0  0  0  0  0  0  0
   -2.1895   -0.6463    0.0269 C   0  0  2  0  0  0  0  0  0  0  0  0
   -2.8425    0.4343    0.9243 C   0  0  0  0  0  0  0  0  0  0  0  0
   -4.3724    0.4246    0.7573 C   0  0  1  0  0  0  0  0  0  0  0  0
   -4.7224    0.6953   -0.7159 C   0  0  0  0  0  0  0  0  0  0  0  0
   -4.1093   -0.3924   -1.6143 C   0  0  2  0  0  0  0  0  0  0  0  0
   -4.6575   -1.7653   -1.1943 C   0  0  0  0  0  0  0  0  0  0  0  0
   -4.3032   -2.0447    0.2747 C   0  0  2  0  0  0  0  0  0  0  0  0
   -4.9192   -0.9530    1.1635 C   0  0  0  0  0  0  0  0  0  0  0  0
   -2.7750   -2.0242    0.4373 C   0  0  0  0  0  0  0  0  0  0  0  0
   -2.5793   -0.3831   -1.4487 C   0  0  0  0  0  0  0  0  0  0  0  0
    1.9029   -1.2234    0.5820 N   0  0  0  0  0  0  0  0  0  0  0  0
    3.2701   -1.2230    0.6886 N   0  0  0  0  0  0  0  0  0  0  0  0
    3.7221   -0.0316    0.3396 C   0  0  0  0  0  0  0  0  0  0  0  0
    5.1304    0.3532    0.2859 C   0  0  0  0  0  0  0  0  0  0  0  0
    5.9726    0.0381    1.3605 C   0  0  0  0  0  0  0  0  0  0  0  0
    7.3236    0.3905    1.3322 C   0  0  0  0  0  0  0  0  0  0  0  0
    7.8481    1.0510    0.2231 C   0  0  0  0  0  0  0  0  0  0  0  0
    7.0258    1.3514   -0.8614 C   0  0  0  0  0  0  0  0  0  0  0  0
    5.6739    0.9994   -0.8332 C   0  0  0  0  0  0  0  0  0  0  0  0
    2.4585    2.3320   -1.2680 H   0  0  0  0  0  0  0  0  0  0  0  0
    3.5881    2.6352    0.0896 H   0  0  0  0  0  0  0  0  0  0  0  0
    1.8491    2.6680    0.3910 H   0  0  0  0  0  0  0  0  0  0  0  0
   -0.3055   -1.5583    0.5040 H   0  0  0  0  0  0  0  0  0  0  0  0
   -2.5803    0.2602    1.9761 H   0  0  0  0  0  0  0  0  0  0  0  0
   -2.4633    1.4324    0.6752 H   0  0  0  0  0  0  0  0  0  0  0  0
   -4.8173    1.1997    1.3913 H   0  0  0  0  0  0  0  0  0  0  0  0
   -5.8118    0.7150   -0.8435 H   0  0  0  0  0  0  0  0  0  0  0  0
   -4.3491    1.6825   -1.0146 H   0  0  0  0  0  0  0  0  0  0  0  0
   -4.3680   -0.1963   -2.6609 H   0  0  0  0  0  0  0  0  0  0  0  0
   -5.7458   -1.7915   -1.3289 H   0  0  0  0  0  0  0  0  0  0  0  0
   -4.2382   -2.5491   -1.8370 H   0  0  0  0  0  0  0  0  0  0  0  0
   -4.6938   -3.0251    0.5692 H   0  0  0  0  0  0  0  0  0  0  0  0
   -6.0120   -0.9652    1.0693 H   0  0  0  0  0  0  0  0  0  0  0  0
   -4.6882   -1.1523    2.2172 H   0  0  0  0  0  0  0  0  0  0  0  0
   -2.5107   -2.2514    1.4789 H   0  0  0  0  0  0  0  0  0  0  0  0
   -2.3278   -2.8209   -0.1723 H   0  0  0  0  0  0  0  0  0  0  0  0
   -2.1888    0.5828   -1.7904 H   0  0  0  0  0  0  0  0  0  0  0  0
   -2.1285   -1.1437   -2.0996 H   0  0  0  0  0  0  0  0  0  0  0  0
    5.5758   -0.4890    2.2267 H   0  0  0  0  0  0  0  0  0  0  0  0
    7.9660    0.1418    2.1732 H   0  0  0  0  0  0  0  0  0  0  0  0
    8.9012    1.3200    0.1989 H   0  0  0  0  0  0  0  0  0  0  0  0
    7.4400    1.8499   -1.7343 H   0  0  0  0  0  0  0  0  0  0  0  0
    5.0571    1.2173   -1.7017 H   0  0  0  0  0  0  0  0  0  0  0  0
  1  2  1  0
  2  3  1  0
  3  4  1  0
  4  5  2  0
  4  6  1  0
  7  6  1  6
  7  8  1  0
  8  9  1  0
  9 10  1  0
 10 11  1  0
 11 12  1  0
 12 13  1  0
 13 14  1  0
 13 15  1  0
 11 16  1  0
  3 17  2  0
 17 18  1  0
 18 19  2  0
 19 20  1  0
 20 21  2  0
 21 22  1  0
 22 23  2  0
 23 24  1  0
 24 25  2  0
 19  2  1  0
 25 20  1  0
 15  7  1  0
 16  7  1  0
 14  9  1  0
  1 26  1  0
  1 27  1  0
  1 28  1  0
  6 29  1  0
  8 30  1  0
  8 31  1  0
  9 32  1  1
 10 33  1  0
 10 34  1  0
 11 35  1  6
 12 36  1  0
 12 37  1  0
 13 38  1  1
 14 39  1  0
 14 40  1  0
 15 41  1  0
 15 42  1  0
 16 43  1  0
 16 44  1  0
 21 45  1  0
 22 46  1  0
 23 47  1  0
 24 48  1  0
 25 49  1  0
M  END
>  <_SMILES>  (44) 
Cn1c(C(=O)N[C@]23C[C@H]4C[C@H](C[C@H](C4)C2)C3)nnc1-c1ccccc1

$$$$

     RDKit          3D

 49 53  0  0  0  0  0  0  0  0999 V2000
    2.9473   -2.0028   -0.8406 C   0  0  0  0  0  0  0  0  0  0  0  0
    2.7467   -0.5882   -0.4453 C   0  0  0  0  0  0  0  0  0  0  0  0
    1.5044    0.0584   -0.1543 C   0  0  0  0  0  0  0  0  0  0  0  0
    0.1538   -0.5233   -0.1437 C   0  0  0  0  0  0  0  0  0  0  0  0
   -0.0537   -1.7103   -0.3720 O   0  0  0  0  0  0  0  0  0  0  0  0
   -0.8380    0.3901    0.1504 N   0  0  0  0  0  0  0  0  0  0  0  0
   -2.2677    0.1031    0.2489 C   0  0  2  0  0  0  0  0  0  0  0  0
   -2.8384   -0.4275   -1.0897 C   0  0  0  0  0  0  0  0  0  0  0  0
   -4.3528   -0.6748   -0.9726 C   0  0  1  0  0  0  0  0  0  0  0  0
   -4.6132   -1.7010    0.1434 C   0  0  0  0  0  0  0  0  0  0  0  0
   -4.0828   -1.1694    1.4859 C   0  0  2  0  0  0  0  0  0  0  0  0
   -4.7891    0.1535    1.8219 C   0  0  0  0  0  0  0  0  0  0  0  0
   -4.5253    1.1853    0.7142 C   0  0  2  0  0  0  0  0  0  0  0  0
   -5.0577    0.6450   -0.6222 C   0  0  0  0  0  0  0  0  0  0  0  0
   -3.0112    1.4211    0.5952 C   0  0  0  0  0  0  0  0  0  0  0  0
   -2.5682   -0.9224    1.3700 C   0  0  0  0  0  0  0  0  0  0  0  0
    1.6968    1.3585    0.1336 N   0  0  0  0  0  0  0  0  0  0  0  0
    3.0563    1.5676    0.0509 O   0  0  0  0  0  0  0  0  0  0  0  0
    3.6896    0.4082   -0.2808 C   0  0  0  0  0  0  0  0  0  0  0  0
    5.1417    0.4964   -0.3652 C   0  0  0  0  0  0  0  0  0  0  0  0
    5.9540   -0.5607    0.0684 C   0  0  0  0  0  0  0  0  0  0  0  0
    7.3465   -0.4726   -0.0157 C   0  0  0  0  0  0  0  0  0  0  0  0
    7.9436    0.6751   -0.5320 C   0  0  0  0  0  0  0  0  0  0  0  0
    7.1506    1.7366   -0.9610 C   0  0  0  0  0  0  0  0  0  0  0  0
    5.7586    1.6483   -0.8761 C   0  0  0  0  0  0  0  0  0  0  0  0
    2.8748   -2.6564    0.0343 H   0  0  0  0  0  0  0  0  0  0  0  0
    3.9250   -2.1588   -1.3061 H   0  0  0  0  0  0  0  0  0  0  0  0
    2.1957   -2.3156   -1.5721 H   0  0  0  0  0  0  0  0  0  0  0  0
   -0.5100    1.3346    0.3344 H   0  0  0  0  0  0  0  0  0  0  0  0
   -2.6383    0.2902   -1.8962 H   0  0  0  0  0  0  0  0  0  0  0  0
   -2.3461   -1.3624   -1.3825 H   0  0  0  0  0  0  0  0  0  0  0  0
   -4.7385   -1.0578   -1.9240 H   0  0  0  0  0  0  0  0  0  0  0  0
   -5.6884   -1.9043    0.2206 H   0  0  0  0  0  0  0  0  0  0  0  0
   -4.1262   -2.6528   -0.1015 H   0  0  0  0  0  0  0  0  0  0  0  0
   -4.2773   -1.9027    2.2765 H   0  0  0  0  0  0  0  0  0  0  0  0
   -4.4295    0.5365    2.7849 H   0  0  0  0  0  0  0  0  0  0  0  0
   -5.8679   -0.0142    1.9288 H   0  0  0  0  0  0  0  0  0  0  0  0
   -5.0285    2.1274    0.9589 H   0  0  0  0  0  0  0  0  0  0  0  0
   -4.8913    1.3817   -1.4178 H   0  0  0  0  0  0  0  0  0  0  0  0
   -6.1410    0.4858   -0.5573 H   0  0  0  0  0  0  0  0  0  0  0  0
   -2.6264    1.8351    1.5370 H   0  0  0  0  0  0  0  0  0  0  0  0
   -2.8141    2.1790   -0.1749 H   0  0  0  0  0  0  0  0  0  0  0  0
   -2.0647   -1.8763    1.1732 H   0  0  0  0  0  0  0  0  0  0  0  0
   -2.1744   -0.5598    2.3287 H   0  0  0  0  0  0  0  0  0  0  0  0
    5.5140   -1.4597    0.4930 H   0  0  0  0  0  0  0  0  0  0  0  0
    7.9642   -1.2988    0.3272 H   0  0  0  0  0  0  0  0  0  0  0  0
    9.0266    0.7441   -0.5961 H   0  0  0  0  0  0  0  0  0  0  0  0
    7.6134    2.6349   -1.3615 H   0  0  0  0  0  0  0  0  0  0  0  0
    5.1571    2.4879   -1.2194 H   0  0  0  0  0  0  0  0  0  0  0  0
  1  2  1  0
  2  3  1  0
  3  4  1  0
  4  5  2  0
  4  6  1  0
  7  6  1  6
  7  8  1  0
  8  9  1  0
  9 10  1  0
 10 11  1  0
 11 12  1  0
 12 13  1  0
 13 14  1  0
 13 15  1  0
 11 16  1  0
  3 17  2  0
 17 18  1  0
 18 19  1  0
 19 20  1  0
 20 21  2  0
 21 22  1  0
 22 23  2  0
 23 24  1  0
 24 25  2  0
 19  2  2  0
 25 20  1  0
 15  7  1  0
 16  7  1  0
 14  9  1  0
  1 26  1  0
  1 27  1  0
  1 28  1  0
  6 29  1  0
  8 30  1  0
  8 31  1  0
  9 32  1  6
 10 33  1  0
 10 34  1  0
 11 35  1  1
 12 36  1  0
 12 37  1  0
 13 38  1  1
 14 39  1  0
 14 40  1  0
 15 41  1  0
 15 42  1  0
 16 43  1  0
 16 44  1  0
 21 45  1  0
 22 46  1  0
 23 47  1  0
 24 48  1  0
 25 49  1  0
M  END
>  <_SMILES>  (45) 
Cc1c(C(=O)N[C@]23C[C@H]4C[C@H](C[C@H](C4)C2)C3)noc1-c1ccccc1

$$$$

     RDKit          3D

 57 61  0  0  0  0  0  0  0  0999 V2000
   -1.2806   -3.0903    0.6166 C   0  0  0  0  0  0  0  0  0  0  0  0
   -1.4665   -1.6932    0.1462 C   0  0  0  0  0  0  0  0  0  0  0  0
   -0.4483   -0.7076   -0.0190 C   0  0  0  0  0  0  0  0  0  0  0  0
    0.9995   -0.8426    0.2376 C   0  0  0  0  0  0  0  0  0  0  0  0
    1.5218   -1.8893    0.6067 O   0  0  0  0  0  0  0  0  0  0  0  0
    1.6886    0.3294    0.0098 N   0  0  0  0  0  0  0  0  0  0  0  0
    3.1252    0.4600    0.0353 C   0  0  2  0  0  0  0  0  0  0  0  0
    3.8371   -0.3537   -1.0972 C   0  0  0  0  0  0  0  0  0  0  0  0
    5.3801   -0.1499   -1.0678 C   0  0  2  0  0  0  0  0  0  0  0  0
    5.9151   -0.4681    0.3299 C   0  0  0  0  0  0  0  0  0  0  0  0
    5.2066    0.6088    1.1648 C   0  0  2  0  0  0  0  0  0  0  0  0
    3.7653    0.1305    1.3944 C   0  0  0  0  0  0  0  0  0  0  0  0
    5.0633    1.8263    0.1864 C   0  0  1  0  0  0  0  0  0  0  0  0
    5.7056    1.3436   -1.1214 C   0  0  0  0  0  0  0  0  0  0  0  0
    3.5538    1.9350   -0.0642 C   0  0  0  0  0  0  0  0  0  0  0  0
   -0.9642    0.4528   -0.4713 N   0  0  0  0  0  0  0  0  0  0  0  0
   -2.2845    0.2157   -0.5777 N   0  0  0  0  0  0  0  0  0  0  0  0
   -3.1544    1.2932   -1.0245 C   0  0  0  0  0  0  0  0  0  0  0  0
   -3.7463    2.1027    0.1307 C   0  0  0  0  0  0  0  0  0  0  0  0
   -2.7502    3.0792    0.7430 C   0  0  0  0  0  0  0  0  0  0  0  0
   -2.4300    4.1011   -0.1925 O   0  0  0  0  0  0  0  0  0  0  0  0
   -2.6447   -1.0641   -0.2279 C   0  0  0  0  0  0  0  0  0  0  0  0
   -4.0105   -1.5724   -0.2549 C   0  0  0  0  0  0  0  0  0  0  0  0
   -4.5759   -2.0162   -1.4553 C   0  0  0  0  0  0  0  0  0  0  0  0
   -5.8847   -2.5013   -1.4784 C   0  0  0  0  0  0  0  0  0  0  0  0
   -6.6314   -2.5501   -0.3018 C   0  0  0  0  0  0  0  0  0  0  0  0
   -6.0700   -2.1188    0.8995 C   0  0  0  0  0  0  0  0  0  0  0  0
   -4.7613   -1.6336    0.9241 C   0  0  0  0  0  0  0  0  0  0  0  0
   -0.5947   -3.6284   -0.0454 H   0  0  0  0  0  0  0  0  0  0  0  0
   -0.8669   -3.0997    1.6301 H   0  0  0  0  0  0  0  0  0  0  0  0
   -2.2243   -3.6437    0.6364 H   0  0  0  0  0  0  0  0  0  0  0  0
    1.1129    1.0712   -0.3854 H   0  0  0  0  0  0  0  0  0  0  0  0
    3.6172   -1.4226   -0.9901 H   0  0  0  0  0  0  0  0  0  0  0  0
    3.4466   -0.0434   -2.0747 H   0  0  0  0  0  0  0  0  0  0  0  0
    5.8804   -0.7214   -1.8540 H   0  0  0  0  0  0  0  0  0  0  0  0
    5.6857   -1.4893    0.6508 H   0  0  0  0  0  0  0  0  0  0  0  0
    7.0030   -0.3362    0.3734 H   0  0  0  0  0  0  0  0  0  0  0  0
    5.7308    0.8358    2.0963 H   0  0  0  0  0  0  0  0  0  0  0  0
    3.2922    0.6984    2.2058 H   0  0  0  0  0  0  0  0  0  0  0  0
    3.7062   -0.9299    1.6597 H   0  0  0  0  0  0  0  0  0  0  0  0
    5.5000    2.7576    0.5550 H   0  0  0  0  0  0  0  0  0  0  0  0
    5.3020    1.8351   -2.0124 H   0  0  0  0  0  0  0  0  0  0  0  0
    6.7894    1.5107   -1.1043 H   0  0  0  0  0  0  0  0  0  0  0  0
    3.0753    2.5428    0.7149 H   0  0  0  0  0  0  0  0  0  0  0  0
    3.3029    2.3874   -1.0301 H   0  0  0  0  0  0  0  0  0  0  0  0
   -3.9597    0.8403   -1.6120 H   0  0  0  0  0  0  0  0  0  0  0  0
   -2.5802    1.9237   -1.7132 H   0  0  0  0  0  0  0  0  0  0  0  0
   -4.5985    2.6722   -0.2599 H   0  0  0  0  0  0  0  0  0  0  0  0
   -4.1254    1.4350    0.9120 H   0  0  0  0  0  0  0  0  0  0  0  0
   -1.8247    2.5841    1.0484 H   0  0  0  0  0  0  0  0  0  0  0  0
   -3.1797    3.5548    1.6310 H   0  0  0  0  0  0  0  0  0  0  0  0
   -3.2051    4.6836   -0.2695 H   0  0  0  0  0  0  0  0  0  0  0  0
   -3.9977   -1.9928   -2.3763 H   0  0  0  0  0  0  0  0  0  0  0  0
   -6.3190   -2.8470   -2.4130 H   0  0  0  0  0  0  0  0  0  0  0  0
   -7.6491   -2.9321   -0.3198 H   0  0  0  0  0  0  0  0  0  0  0  0
   -6.6490   -2.1658    1.8182 H   0  0  0  0  0  0  0  0  0  0  0  0
   -4.3291   -1.3073    1.8673 H   0  0  0  0  0  0  0  0  0  0  0  0
  1  2  1  0
  2  3  1  0
  3  4  1  0
  4  5  2  0
  4  6  1  0
  7  6  1  1
  7  8  1  0
  8  9  1  0
  9 10  1  0
 10 11  1  0
 11 12  1  0
 11 13  1  0
 13 14  1  0
 13 15  1  0
  3 16  2  0
 16 17  1  0
 17 18  1  0
 18 19  1  0
 19 20  1  0
 20 21  1  0
 17 22  1  0
 22 23  1  0
 23 24  2  0
 24 25  1  0
 25 26  2  0
 26 27  1  0
 27 28  2  0
 22  2  2  0
 28 23  1  0
 12  7  1  0
 15  7  1  0
 14  9  1  0
  1 29  1  0
  1 30  1  0
  1 31  1  0
  6 32  1  0
  8 33  1  0
  8 34  1  0
  9 35  1  6
 10 36  1  0
 10 37  1  0
 11 38  1  1
 12 39  1  0
 12 40  1  0
 13 41  1  1
 14 42  1  0
 14 43  1  0
 15 44  1  0
 15 45  1  0
 18 46  1  0
 18 47  1  0
 19 48  1  0
 19 49  1  0
 20 50  1  0
 20 51  1  0
 21 52  1  0
 24 53  1  0
 25 54  1  0
 26 55  1  0
 27 56  1  0
 28 57  1  0
M  END
>  <_SMILES>  (46) 
Cc1c(C(=O)N[C@]23C[C@@H]4C[C@H](C2)[C@@H](C4)C3)nn(CCCO)c1-c1ccccc1

$$$$

     RDKit          3D

 56 59  0  0  0  0  0  0  0  0999 V2000
    1.6312    0.2683   -2.4994 C   0  0  0  0  0  0  0  0  0  0  0  0
    1.6136   -0.6331   -1.3159 C   0  0  0  0  0  0  0  0  0  0  0  0
    0.6523   -0.8264   -0.3285 C   0  0  0  0  0  0  0  0  0  0  0  0
   -0.6268   -0.1380   -0.1932 C   0  0  0  0  0  0  0  0  0  0  0  0
   -0.8528    0.9370   -0.7361 O   0  0  0  0  0  0  0  0  0  0  0  0
   -1.5548   -0.8104    0.5774 N   0  0  0  0  0  0  0  0  0  0  0  0
   -2.9345   -0.3646    0.7992 C   0  0  2  0  0  0  0  0  0  0  0  0
   -2.9935    1.0253    1.4828 C   0  0  0  0  0  0  0  0  0  0  0  0
   -4.4525    1.4377    1.7478 C   0  0  1  0  0  0  0  0  0  0  0  0
   -5.2158    1.4828    0.4130 C   0  0  0  0  0  0  0  0  0  0  0  0
   -5.1965    0.0975   -0.2555 C   0  0  2  0  0  0  0  0  0  0  0  0
   -5.8513   -0.9274    0.6840 C   0  0  0  0  0  0  0  0  0  0  0  0
   -5.0869   -0.9819    2.0161 C   0  0  2  0  0  0  0  0  0  0  0  0
   -5.1124    0.4056    2.6751 C   0  0  0  0  0  0  0  0  0  0  0  0
   -3.6286   -1.3837    1.7442 C   0  0  0  0  0  0  0  0  0  0  0  0
   -3.7386   -0.3163   -0.5234 C   0  0  0  0  0  0  0  0  0  0  0  0
    1.2229   -1.8133    0.5078 C   0  0  0  0  0  0  0  0  0  0  0  0
    2.4182   -2.2270    0.0912 N   0  0  0  0  0  0  0  0  0  0  0  0
    2.6545   -1.4745   -1.0011 N   0  0  0  0  0  0  0  0  0  0  0  0
    3.9182   -1.6476   -1.6968 C   0  0  0  0  0  0  0  0  0  0  0  0
    5.1216   -1.0888   -0.9331 C   0  0  0  0  0  0  0  0  0  0  0  0
    5.1120    0.4402   -0.8520 C   0  0  0  0  0  0  0  0  0  0  0  0
    6.2914    1.0159   -0.0595 C   0  0  0  0  0  0  0  0  0  0  0  0
    7.6660    0.6988   -0.6367 C   0  0  0  0  0  0  0  0  0  0  0  0
    7.7320    1.1072   -1.9950 O   0  0  0  0  0  0  0  0  0  0  0  0
    2.3774    1.0579   -2.3681 H   0  0  0  0  0  0  0  0  0  0  0  0
    1.8698   -0.2907   -3.4099 H   0  0  0  0  0  0  0  0  0  0  0  0
    0.6633    0.7458   -2.6691 H   0  0  0  0  0  0  0  0  0  0  0  0
   -1.3505   -1.7752    0.7953 H   0  0  0  0  0  0  0  0  0  0  0  0
   -2.4330    1.0054    2.4266 H   0  0  0  0  0  0  0  0  0  0  0  0
   -2.5185    1.7924    0.8609 H   0  0  0  0  0  0  0  0  0  0  0  0
   -4.4761    2.4261    2.2204 H   0  0  0  0  0  0  0  0  0  0  0  0
   -4.7621    2.2268   -0.2533 H   0  0  0  0  0  0  0  0  0  0  0  0
   -6.2516    1.7999    0.5856 H   0  0  0  0  0  0  0  0  0  0  0  0
   -5.7483    0.1360   -1.2014 H   0  0  0  0  0  0  0  0  0  0  0  0
   -6.8987   -0.6555    0.8639 H   0  0  0  0  0  0  0  0  0  0  0  0
   -5.8560   -1.9182    0.2133 H   0  0  0  0  0  0  0  0  0  0  0  0
   -5.5553   -1.7158    2.6813 H   0  0  0  0  0  0  0  0  0  0  0  0
   -6.1472    0.7005    2.8885 H   0  0  0  0  0  0  0  0  0  0  0  0
   -4.5855    0.3742    3.6366 H   0  0  0  0  0  0  0  0  0  0  0  0
   -3.0797   -1.4526    2.6930 H   0  0  0  0  0  0  0  0  0  0  0  0
   -3.6007   -2.3886    1.3015 H   0  0  0  0  0  0  0  0  0  0  0  0
   -3.7134   -1.2970   -1.0163 H   0  0  0  0  0  0  0  0  0  0  0  0
   -3.2893    0.3926   -1.2289 H   0  0  0  0  0  0  0  0  0  0  0  0
    0.8202   -2.2461    1.4140 H   0  0  0  0  0  0  0  0  0  0  0  0
    3.8457   -1.1935   -2.6892 H   0  0  0  0  0  0  0  0  0  0  0  0
    4.0425   -2.7271   -1.8463 H   0  0  0  0  0  0  0  0  0  0  0  0
    6.0273   -1.4213   -1.4526 H   0  0  0  0  0  0  0  0  0  0  0  0
    5.1588   -1.5108    0.0784 H   0  0  0  0  0  0  0  0  0  0  0  0
    4.1892    0.7769   -0.3651 H   0  0  0  0  0  0  0  0  0  0  0  0
    5.1031    0.8626   -1.8640 H   0  0  0  0  0  0  0  0  0  0  0  0
    6.1680    2.1060   -0.0361 H   0  0  0  0  0  0  0  0  0  0  0  0
    6.2461    0.6664    0.9785 H   0  0  0  0  0  0  0  0  0  0  0  0
    7.8863   -0.3712   -0.5789 H   0  0  0  0  0  0  0  0  0  0  0  0
    8.4367    1.2365   -0.0747 H   0  0  0  0  0  0  0  0  0  0  0  0
    8.6428    0.9469   -2.2964 H   0  0  0  0  0  0  0  0  0  0  0  0
  1  2  1  0
  2  3  2  0
  3  4  1  0
  4  5  2  0
  4  6  1  0
  7  6  1  6
  7  8  1  0
  8  9  1  0
  9 10  1  0
 10 11  1  0
 11 12  1  0
 12 13  1  0
 13 14  1  0
 13 15  1  0
 11 16  1  0
  3 17  1  0
 17 18  2  0
 18 19  1  0
 19 20  1  0
 20 21  1  0
 21 22  1  0
 22 23  1  0
 23 24  1  0
 24 25  1  0
 19  2  1  0
 15  7  1  0
 16  7  1  0
 14  9  1  0
  1 26  1  0
  1 27  1  0
  1 28  1  0
  6 29  1  0
  8 30  1  0
  8 31  1  0
  9 32  1  1
 10 33  1  0
 10 34  1  0
 11 35  1  6
 12 36  1  0
 12 37  1  0
 13 38  1  1
 14 39  1  0
 14 40  1  0
 15 41  1  0
 15 42  1  0
 16 43  1  0
 16 44  1  0
 17 45  1  0
 20 46  1  0
 20 47  1  0
 21 48  1  0
 21 49  1  0
 22 50  1  0
 22 51  1  0
 23 52  1  0
 23 53  1  0
 24 54  1  0
 24 55  1  0
 25 56  1  0
M  END
>  <_SMILES>  (47) 
Cc1c(C(=O)N[C@]23C[C@H]4C[C@H](C[C@H](C4)C2)C3)cnn1CCCCCO

$$$$

     RDKit          3D

 49 53  0  0  0  0  0  0  0  0999 V2000
    3.0813   -1.3266   -1.4465 C   0  0  0  0  0  0  0  0  0  0  0  0
    2.7638   -0.2924   -0.4319 C   0  0  0  0  0  0  0  0  0  0  0  0
    3.6604    0.5232    0.3286 C   0  0  0  0  0  0  0  0  0  0  0  0
    5.1215    0.5259    0.3325 C   0  0  0  0  0  0  0  0  0  0  0  0
    5.8229    1.7396    0.3021 C   0  0  0  0  0  0  0  0  0  0  0  0
    7.2197    1.7519    0.3037 C   0  0  0  0  0  0  0  0  0  0  0  0
    7.9273    0.5520    0.3423 C   0  0  0  0  0  0  0  0  0  0  0  0
    7.2408   -0.6603    0.3847 C   0  0  0  0  0  0  0  0  0  0  0  0
    5.8435   -0.6744    0.3827 C   0  0  0  0  0  0  0  0  0  0  0  0
    2.9749    1.3746    1.1077 N   0  0  0  0  0  0  0  0  0  0  0  0
    1.6432    1.1048    0.9006 O   0  0  0  0  0  0  0  0  0  0  0  0
    1.5068    0.1057   -0.0131 C   0  0  0  0  0  0  0  0  0  0  0  0
    0.1738   -0.3342   -0.3648 C   0  0  0  0  0  0  0  0  0  0  0  0
   -0.0412   -1.2451   -1.1584 O   0  0  0  0  0  0  0  0  0  0  0  0
   -0.8370    0.3581    0.2734 N   0  0  0  0  0  0  0  0  0  0  0  0
   -2.2723    0.1176    0.1083 C   0  0  2  0  0  0  0  0  0  0  0  0
   -3.0437    1.1204    1.0089 C   0  0  0  0  0  0  0  0  0  0  0  0
   -4.5624    0.9210    0.8827 C   0  0  1  0  0  0  0  0  0  0  0  0
   -4.9792    1.1375   -0.5803 C   0  0  0  0  0  0  0  0  0  0  0  0
   -4.2466    0.1369   -1.4878 C   0  0  2  0  0  0  0  0  0  0  0  0
   -4.6003   -1.2956   -1.0531 C   0  0  0  0  0  0  0  0  0  0  0  0
   -4.1865   -1.5224    0.4110 C   0  0  2  0  0  0  0  0  0  0  0  0
   -4.9194   -0.5119    1.3072 C   0  0  0  0  0  0  0  0  0  0  0  0
   -2.6676   -1.3147    0.5461 C   0  0  0  0  0  0  0  0  0  0  0  0
   -2.7277    0.3462   -1.3546 C   0  0  0  0  0  0  0  0  0  0  0  0
    3.0741   -2.3214   -0.9902 H   0  0  0  0  0  0  0  0  0  0  0  0
    2.3537   -1.3161   -2.2641 H   0  0  0  0  0  0  0  0  0  0  0  0
    4.0647   -1.1596   -1.8960 H   0  0  0  0  0  0  0  0  0  0  0  0
    5.2832    2.6844    0.2761 H   0  0  0  0  0  0  0  0  0  0  0  0
    7.7532    2.6986    0.2785 H   0  0  0  0  0  0  0  0  0  0  0  0
    9.0143    0.5622    0.3467 H   0  0  0  0  0  0  0  0  0  0  0  0
    7.7933   -1.5957    0.4263 H   0  0  0  0  0  0  0  0  0  0  0  0
    5.3287   -1.6304    0.4376 H   0  0  0  0  0  0  0  0  0  0  0  0
   -0.5468    1.0872    0.9156 H   0  0  0  0  0  0  0  0  0  0  0  0
   -2.7822    2.1515    0.7351 H   0  0  0  0  0  0  0  0  0  0  0  0
   -2.7405    0.9963    2.0572 H   0  0  0  0  0  0  0  0  0  0  0  0
   -5.0846    1.6381    1.5259 H   0  0  0  0  0  0  0  0  0  0  0  0
   -4.7461    2.1640   -0.8890 H   0  0  0  0  0  0  0  0  0  0  0  0
   -6.0641    1.0127   -0.6835 H   0  0  0  0  0  0  0  0  0  0  0  0
   -4.5502    0.2926   -2.5291 H   0  0  0  0  0  0  0  0  0  0  0  0
   -4.0937   -2.0202   -1.7024 H   0  0  0  0  0  0  0  0  0  0  0  0
   -5.6781   -1.4653   -1.1673 H   0  0  0  0  0  0  0  0  0  0  0  0
   -4.4475   -2.5423    0.7149 H   0  0  0  0  0  0  0  0  0  0  0  0
   -6.0033   -0.6649    1.2363 H   0  0  0  0  0  0  0  0  0  0  0  0
   -4.6433   -0.6723    2.3567 H   0  0  0  0  0  0  0  0  0  0  0  0
   -2.3572   -1.4911    1.5844 H   0  0  0  0  0  0  0  0  0  0  0  0
   -2.1501   -2.0674   -0.0602 H   0  0  0  0  0  0  0  0  0  0  0  0
   -2.4604    1.3606   -1.6788 H   0  0  0  0  0  0  0  0  0  0  0  0
   -2.2129   -0.3392   -2.0379 H   0  0  0  0  0  0  0  0  0  0  0  0
  1  2  1  0
  2  3  1  0
  3  4  1  0
  4  5  2  0
  5  6  1  0
  6  7  2  0
  7  8  1  0
  8  9  2  0
  3 10  2  0
 10 11  1  0
 11 12  1  0
 12 13  1  0
 13 14  2  0
 13 15  1  0
 16 15  1  6
 16 17  1  0
 17 18  1  0
 18 19  1  0
 19 20  1  0
 20 21  1  0
 21 22  1  0
 22 23  1  0
 22 24  1  0
 20 25  1  0
 12  2  2  0
 24 16  1  0
  9  4  1  0
 25 16  1  0
 23 18  1  0
  1 26  1  0
  1 27  1  0
  1 28  1  0
  5 29  1  0
  6 30  1  0
  7 31  1  0
  8 32  1  0
  9 33  1  0
 15 34  1  0
 17 35  1  0
 17 36  1  0
 18 37  1  1
 19 38  1  0
 19 39  1  0
 20 40  1  6
 21 41  1  0
 21 42  1  0
 22 43  1  1
 23 44  1  0
 23 45  1  0
 24 46  1  0
 24 47  1  0
 25 48  1  0
 25 49  1  0
M  END
>  <_SMILES>  (48) 
Cc1c(-c2ccccc2)noc1C(=O)N[C@]12C[C@H]3C[C@H](C[C@H](C3)C1)C2

$$$$

     RDKit          3D

 55 57  0  0  0  0  0  0  0  0999 V2000
    1.7700   -1.6344   -1.0969 C   0  0  0  0  0  0  0  0  0  0  0  0
    0.6602   -0.8438   -0.5031 C   0  0  0  0  0  0  0  0  0  0  0  0
    0.7162    0.4866    0.0300 C   0  0  0  0  0  0  0  0  0  0  0  0
    1.8880    1.3753    0.1662 C   0  0  0  0  0  0  0  0  0  0  0  0
    1.8392    2.5908   -0.0053 O   0  0  0  0  0  0  0  0  0  0  0  0
    3.0526    0.7228    0.5442 N   0  0  0  0  0  0  0  0  0  0  0  0
    4.2468    1.4697    0.8759 C   0  0  0  0  0  0  0  0  0  0  0  0
    4.8843    2.1703   -0.3359 C   0  0  0  0  0  0  0  0  0  0  0  0
    6.3817    1.8715   -0.2676 C   0  0  0  0  0  0  0  0  0  0  0  0
    6.6200    1.3453    1.1379 C   0  0  0  0  0  0  0  0  0  0  0  0
    5.3491    0.5681    1.4305 C   0  0  0  0  0  0  0  0  0  0  0  0
   -0.5002    0.8870    0.4363 N   0  0  0  0  0  0  0  0  0  0  0  0
   -1.3113   -0.1529    0.1773 N   0  0  0  0  0  0  0  0  0  0  0  0
   -2.7265   -0.0175    0.4888 C   0  0  0  0  0  0  0  0  0  0  0  0
   -3.4993    0.6358   -0.6576 C   0  0  0  0  0  0  0  0  0  0  0  0
   -4.9666    0.9003   -0.3092 C   0  0  0  0  0  0  0  0  0  0  0  0
   -5.2579    2.3337    0.1546 C   0  0  0  0  0  0  0  0  0  0  0  0
   -4.5339    2.7700    1.4208 C   0  0  0  0  0  0  0  0  0  0  0  0
   -4.8239    1.8682    2.4794 O   0  0  0  0  0  0  0  0  0  0  0  0
   -0.6654   -1.2323   -0.3705 C   0  0  0  0  0  0  0  0  0  0  0  0
   -1.3201   -2.4790   -0.7435 C   0  0  0  0  0  0  0  0  0  0  0  0
   -1.4638   -3.5070    0.1945 C   0  0  0  0  0  0  0  0  0  0  0  0
   -2.0930   -4.7006   -0.1633 C   0  0  0  0  0  0  0  0  0  0  0  0
   -2.5771   -4.8728   -1.4597 C   0  0  0  0  0  0  0  0  0  0  0  0
   -2.4309   -3.8540   -2.4005 C   0  0  0  0  0  0  0  0  0  0  0  0
   -1.8019   -2.6599   -2.0444 C   0  0  0  0  0  0  0  0  0  0  0  0
    1.3967   -2.3906   -1.7946 H   0  0  0  0  0  0  0  0  0  0  0  0
    2.3336   -2.1471   -0.3112 H   0  0  0  0  0  0  0  0  0  0  0  0
    2.4561   -0.9899   -1.6556 H   0  0  0  0  0  0  0  0  0  0  0  0
    2.9298   -0.1914    0.9583 H   0  0  0  0  0  0  0  0  0  0  0  0
    3.9753    2.2233    1.6266 H   0  0  0  0  0  0  0  0  0  0  0  0
    4.7082    3.2506   -0.2758 H   0  0  0  0  0  0  0  0  0  0  0  0
    4.4722    1.8278   -1.2919 H   0  0  0  0  0  0  0  0  0  0  0  0
    6.6354    1.0982   -1.0027 H   0  0  0  0  0  0  0  0  0  0  0  0
    6.9905    2.7531   -0.4889 H   0  0  0  0  0  0  0  0  0  0  0  0
    7.5158    0.7212    1.2021 H   0  0  0  0  0  0  0  0  0  0  0  0
    6.7286    2.1781    1.8426 H   0  0  0  0  0  0  0  0  0  0  0  0
    5.3691   -0.3980    0.9101 H   0  0  0  0  0  0  0  0  0  0  0  0
    5.2197    0.3686    2.4988 H   0  0  0  0  0  0  0  0  0  0  0  0
   -3.1271   -1.0111    0.7140 H   0  0  0  0  0  0  0  0  0  0  0  0
   -2.7872    0.5666    1.4113 H   0  0  0  0  0  0  0  0  0  0  0  0
   -3.0090    1.5612   -0.9839 H   0  0  0  0  0  0  0  0  0  0  0  0
   -3.4666   -0.0415   -1.5206 H   0  0  0  0  0  0  0  0  0  0  0  0
   -5.5645    0.7308   -1.2142 H   0  0  0  0  0  0  0  0  0  0  0  0
   -5.3269    0.1772    0.4319 H   0  0  0  0  0  0  0  0  0  0  0  0
   -6.3387    2.4055    0.3302 H   0  0  0  0  0  0  0  0  0  0  0  0
   -5.0204    3.0356   -0.6536 H   0  0  0  0  0  0  0  0  0  0  0  0
   -4.8712    3.7688    1.7163 H   0  0  0  0  0  0  0  0  0  0  0  0
   -3.4513    2.8078    1.2684 H   0  0  0  0  0  0  0  0  0  0  0  0
   -4.3493    2.1973    3.2629 H   0  0  0  0  0  0  0  0  0  0  0  0
   -1.0877   -3.3832    1.2072 H   0  0  0  0  0  0  0  0  0  0  0  0
   -2.2050   -5.4961    0.5688 H   0  0  0  0  0  0  0  0  0  0  0  0
   -3.0671   -5.8026   -1.7377 H   0  0  0  0  0  0  0  0  0  0  0  0
   -2.8055   -3.9895   -3.4118 H   0  0  0  0  0  0  0  0  0  0  0  0
   -1.6897   -1.8719   -2.7858 H   0  0  0  0  0  0  0  0  0  0  0  0
  1  2  1  0
  2  3  1  0
  3  4  1  0
  4  5  2  0
  4  6  1  0
  6  7  1  0
  7  8  1  0
  8  9  1  0
  9 10  1  0
 10 11  1  0
  3 12  2  0
 12 13  1  0
 13 14  1  0
 14 15  1  0
 15 16  1  0
 16 17  1  0
 17 18  1  0
 18 19  1  0
 13 20  1  0
 20 21  1  0
 21 22  2  0
 22 23  1  0
 23 24  2  0
 24 25  1  0
 25 26  2  0
 20  2  2  0
 26 21  1  0
 11  7  1  0
  1 27  1  0
  1 28  1  0
  1 29  1  0
  6 30  1  0
  7 31  1  0
  8 32  1  0
  8 33  1  0
  9 34  1  0
  9 35  1  0
 10 36  1  0
 10 37  1  0
 11 38  1  0
 11 39  1  0
 14 40  1  0
 14 41  1  0
 15 42  1  0
 15 43  1  0
 16 44  1  0
 16 45  1  0
 17 46  1  0
 17 47  1  0
 18 48  1  0
 18 49  1  0
 19 50  1  0
 22 51  1  0
 23 52  1  0
 24 53  1  0
 25 54  1  0
 26 55  1  0
M  END
>  <_SMILES>  (49) 
Cc1c(C(=O)NC2CCCC2)nn(CCCCCO)c1-c1ccccc1

$$$$

     RDKit          3D

 54 58  0  0  0  0  0  0  0  0999 V2000
   -0.9618   -0.8082    1.8781 C   0  0  0  0  0  0  0  0  0  0  0  0
   -1.4586    0.0501    0.7707 C   0  0  0  0  0  0  0  0  0  0  0  0
   -0.6943    0.9158   -0.0796 C   0  0  0  0  0  0  0  0  0  0  0  0
    0.7673    1.1332   -0.0971 C   0  0  0  0  0  0  0  0  0  0  0  0
    1.2773    2.2353   -0.2744 O   0  0  0  0  0  0  0  0  0  0  0  0
    1.5079   -0.0252    0.0701 N   0  0  0  0  0  0  0  0  0  0  0  0
    2.9544   -0.0645    0.0002 C   0  0  2  0  0  0  0  0  0  0  0  0
    3.6587    0.7672    1.1271 C   0  0  0  0  0  0  0  0  0  0  0  0
    5.2091    0.6550    1.0416 C   0  0  2  0  0  0  0  0  0  0  0  0
    5.6742    1.0280   -0.3676 C   0  0  0  0  0  0  0  0  0  0  0  0
    5.0020   -0.0756   -1.1976 C   0  0  2  0  0  0  0  0  0  0  0  0
    3.5283    0.3200   -1.3731 C   0  0  0  0  0  0  0  0  0  0  0  0
    4.9635   -1.3144   -0.2360 C   0  0  1  0  0  0  0  0  0  0  0  0
    5.6237   -0.8167    1.0566 C   0  0  0  0  0  0  0  0  0  0  0  0
    3.4729   -1.5137    0.0660 C   0  0  0  0  0  0  0  0  0  0  0  0
   -1.4968    1.5646   -0.9404 N   0  0  0  0  0  0  0  0  0  0  0  0
   -2.7353    1.1331   -0.6520 N   0  0  0  0  0  0  0  0  0  0  0  0
   -3.8447    1.6856   -1.4027 C   0  0  0  0  0  0  0  0  0  0  0  0
   -3.9728    1.0473   -2.7771 C   0  0  0  0  0  0  0  0  0  0  0  0
   -5.0573    1.6260   -3.5010 O   0  0  0  0  0  0  0  0  0  0  0  0
   -2.7733    0.1991    0.3520 C   0  0  0  0  0  0  0  0  0  0  0  0
   -3.9924   -0.4313    0.8410 C   0  0  0  0  0  0  0  0  0  0  0  0
   -4.5326   -1.5358    0.1736 C   0  0  0  0  0  0  0  0  0  0  0  0
   -5.7042   -2.1340    0.6409 C   0  0  0  0  0  0  0  0  0  0  0  0
   -6.3376   -1.6340    1.7780 C   0  0  0  0  0  0  0  0  0  0  0  0
   -5.8004   -0.5373    2.4509 C   0  0  0  0  0  0  0  0  0  0  0  0
   -4.6294    0.0627    1.9847 C   0  0  0  0  0  0  0  0  0  0  0  0
   -0.1226   -0.3341    2.3968 H   0  0  0  0  0  0  0  0  0  0  0  0
   -1.7405   -0.9924    2.6247 H   0  0  0  0  0  0  0  0  0  0  0  0
   -0.6299   -1.7757    1.4885 H   0  0  0  0  0  0  0  0  0  0  0  0
    1.0053   -0.8963   -0.0322 H   0  0  0  0  0  0  0  0  0  0  0  0
    3.3803    1.8246    1.0546 H   0  0  0  0  0  0  0  0  0  0  0  0
    3.3202    0.4150    2.1098 H   0  0  0  0  0  0  0  0  0  0  0  0
    5.7024    1.2421    1.8207 H   0  0  0  0  0  0  0  0  0  0  0  0
    6.7658    0.9625   -0.4508 H   0  0  0  0  0  0  0  0  0  0  0  0
    5.3732    2.0387   -0.6612 H   0  0  0  0  0  0  0  0  0  0  0  0
    5.5077   -0.2570   -2.1491 H   0  0  0  0  0  0  0  0  0  0  0  0
    3.3963    1.3785   -1.6194 H   0  0  0  0  0  0  0  0  0  0  0  0
    3.0627   -0.2644   -2.1772 H   0  0  0  0  0  0  0  0  0  0  0  0
    5.4387   -2.2133   -0.6362 H   0  0  0  0  0  0  0  0  0  0  0  0
    6.7140   -0.9190    0.9981 H   0  0  0  0  0  0  0  0  0  0  0  0
    5.2822   -1.3458    1.9521 H   0  0  0  0  0  0  0  0  0  0  0  0
    3.0051   -2.1400   -0.7049 H   0  0  0  0  0  0  0  0  0  0  0  0
    3.2817   -1.9911    1.0335 H   0  0  0  0  0  0  0  0  0  0  0  0
   -4.7696    1.5650   -0.8295 H   0  0  0  0  0  0  0  0  0  0  0  0
   -3.6825    2.7667   -1.4920 H   0  0  0  0  0  0  0  0  0  0  0  0
   -4.1675   -0.0264   -2.6888 H   0  0  0  0  0  0  0  0  0  0  0  0
   -3.0590    1.1682   -3.3691 H   0  0  0  0  0  0  0  0  0  0  0  0
   -4.7824    2.5217   -3.7667 H   0  0  0  0  0  0  0  0  0  0  0  0
   -4.0452   -1.9383   -0.7111 H   0  0  0  0  0  0  0  0  0  0  0  0
   -6.1226   -2.9903    0.1181 H   0  0  0  0  0  0  0  0  0  0  0  0
   -7.2502   -2.1003    2.1409 H   0  0  0  0  0  0  0  0  0  0  0  0
   -6.2933   -0.1489    3.3384 H   0  0  0  0  0  0  0  0  0  0  0  0
   -4.2180    0.9176    2.5168 H   0  0  0  0  0  0  0  0  0  0  0  0
  1  2  1  0
  2  3  1  0
  3  4  1  0
  4  5  2  0
  4  6  1  0
  7  6  1  6
  7  8  1  0
  8  9  1  0
  9 10  1  0
 10 11  1  0
 11 12  1  0
 11 13  1  0
 13 14  1  0
 13 15  1  0
  3 16  2  0
 16 17  1  0
 17 18  1  0
 18 19  1  0
 19 20  1  0
 17 21  1  0
 21 22  1  0
 22 23  2  0
 23 24  1  0
 24 25  2  0
 25 26  1  0
 26 27  2  0
 21  2  2  0
 27 22  1  0
 12  7  1  0
 15  7  1  0
 14  9  1  0
  1 28  1  0
  1 29  1  0
  1 30  1  0
  6 31  1  0
  8 32  1  0
  8 33  1  0
  9 34  1  1
 10 35  1  0
 10 36  1  0
 11 37  1  6
 12 38  1  0
 12 39  1  0
 13 40  1  6
 14 41  1  0
 14 42  1  0
 15 43  1  0
 15 44  1  0
 18 45  1  0
 18 46  1  0
 19 47  1  0
 19 48  1  0
 20 49  1  0
 23 50  1  0
 24 51  1  0
 25 52  1  0
 26 53  1  0
 27 54  1  0
M  END
>  <_SMILES>  (50) 
Cc1c(C(=O)N[C@]23C[C@@H]4C[C@H](C2)[C@@H](C4)C3)nn(CCO)c1-c1ccccc1

$$$$

     RDKit          3D

 64 68  0  0  0  0  0  0  0  0999 V2000
    0.9265   -2.6355   -2.2277 C   0  0  0  0  0  0  0  0  0  0  0  0
    1.3885   -1.4370   -1.4670 C   0  0  0  0  0  0  0  0  0  0  0  0
    0.5371   -0.4008   -0.9475 C   0  0  0  0  0  0  0  0  0  0  0  0
   -0.9246   -0.3128   -1.0589 C   0  0  0  0  0  0  0  0  0  0  0  0
   -1.5555   -0.9689   -1.8797 O   0  0  0  0  0  0  0  0  0  0  0  0
   -1.5134    0.5384   -0.1454 N   0  0  0  0  0  0  0  0  0  0  0  0
   -2.9576    0.7170    0.0212 C   0  0  2  0  0  0  0  0  0  0  0  0
   -3.1909    1.7802    1.1294 C   0  0  0  0  0  0  0  0  0  0  0  0
   -4.6916    2.0138    1.3644 C   0  0  1  0  0  0  0  0  0  0  0  0
   -5.3350    2.5058    0.0590 C   0  0  0  0  0  0  0  0  0  0  0  0
   -5.1388    1.4590   -1.0484 C   0  0  2  0  0  0  0  0  0  0  0  0
   -5.7896    0.1339   -0.6160 C   0  0  0  0  0  0  0  0  0  0  0  0
   -5.1523   -0.3678    0.6910 C   0  0  2  0  0  0  0  0  0  0  0  0
   -5.3474    0.6903    1.7885 C   0  0  0  0  0  0  0  0  0  0  0  0
   -3.6470   -0.5962    0.4663 C   0  0  0  0  0  0  0  0  0  0  0  0
   -3.6332    1.2329   -1.2748 C   0  0  0  0  0  0  0  0  0  0  0  0
    1.3786    0.5180   -0.3425 C   0  0  0  0  0  0  0  0  0  0  0  0
    2.6718    0.0685   -0.4354 N   0  0  0  0  0  0  0  0  0  0  0  0
    3.8185    0.7926    0.0941 C   0  0  0  0  0  0  0  0  0  0  0  0
    4.2414    0.3482    1.4971 C   0  0  0  0  0  0  0  0  0  0  0  0
    3.2229    0.6259    2.6052 C   0  0  0  0  0  0  0  0  0  0  0  0
    2.9796    2.1084    2.8562 C   0  0  0  0  0  0  0  0  0  0  0  0
    2.0337    2.2425    3.9080 O   0  0  0  0  0  0  0  0  0  0  0  0
    2.7022   -1.1194   -1.1334 C   0  0  0  0  0  0  0  0  0  0  0  0
    3.9283   -1.8550   -1.4345 C   0  0  0  0  0  0  0  0  0  0  0  0
    4.6683   -1.5512   -2.5823 C   0  0  0  0  0  0  0  0  0  0  0  0
    5.8389   -2.2551   -2.8703 C   0  0  0  0  0  0  0  0  0  0  0  0
    6.2713   -3.2688   -2.0157 C   0  0  0  0  0  0  0  0  0  0  0  0
    5.5322   -3.5831   -0.8756 C   0  0  0  0  0  0  0  0  0  0  0  0
    4.3612   -2.8801   -0.5870 C   0  0  0  0  0  0  0  0  0  0  0  0
    0.1526   -3.1695   -1.6669 H   0  0  0  0  0  0  0  0  0  0  0  0
    1.7409   -3.3409   -2.4178 H   0  0  0  0  0  0  0  0  0  0  0  0
    0.5133   -2.3334   -3.1954 H   0  0  0  0  0  0  0  0  0  0  0  0
   -0.9228    0.8396    0.6167 H   0  0  0  0  0  0  0  0  0  0  0  0
   -2.7068    2.7263    0.8522 H   0  0  0  0  0  0  0  0  0  0  0  0
   -2.7178    1.4583    2.0670 H   0  0  0  0  0  0  0  0  0  0  0  0
   -4.8308    2.7640    2.1508 H   0  0  0  0  0  0  0  0  0  0  0  0
   -4.8874    3.4604   -0.2437 H   0  0  0  0  0  0  0  0  0  0  0  0
   -6.4049    2.6910    0.2147 H   0  0  0  0  0  0  0  0  0  0  0  0
   -5.6020    1.8126   -1.9763 H   0  0  0  0  0  0  0  0  0  0  0  0
   -6.8682    0.2761   -0.4751 H   0  0  0  0  0  0  0  0  0  0  0  0
   -5.6683   -0.6184   -1.4050 H   0  0  0  0  0  0  0  0  0  0  0  0
   -5.6260   -1.3075    0.9962 H   0  0  0  0  0  0  0  0  0  0  0  0
   -6.4174    0.8449    1.9741 H   0  0  0  0  0  0  0  0  0  0  0  0
   -4.9085    0.3389    2.7304 H   0  0  0  0  0  0  0  0  0  0  0  0
   -3.1846   -0.9713    1.3887 H   0  0  0  0  0  0  0  0  0  0  0  0
   -3.5122   -1.3828   -0.2857 H   0  0  0  0  0  0  0  0  0  0  0  0
   -3.5041    0.5214   -2.0982 H   0  0  0  0  0  0  0  0  0  0  0  0
   -3.1593    2.1682   -1.6005 H   0  0  0  0  0  0  0  0  0  0  0  0
    1.1622    1.4606    0.1416 H   0  0  0  0  0  0  0  0  0  0  0  0
    3.5773    1.8609    0.0694 H   0  0  0  0  0  0  0  0  0  0  0  0
    4.6503    0.6548   -0.6051 H   0  0  0  0  0  0  0  0  0  0  0  0
    5.1838    0.8494    1.7506 H   0  0  0  0  0  0  0  0  0  0  0  0
    4.4552   -0.7268    1.4920 H   0  0  0  0  0  0  0  0  0  0  0  0
    2.2723    0.1213    2.3974 H   0  0  0  0  0  0  0  0  0  0  0  0
    3.5857    0.1720    3.5368 H   0  0  0  0  0  0  0  0  0  0  0  0
    2.5734    2.6081    1.9732 H   0  0  0  0  0  0  0  0  0  0  0  0
    3.9070    2.6082    3.1537 H   0  0  0  0  0  0  0  0  0  0  0  0
    1.9554    3.1914    4.1069 H   0  0  0  0  0  0  0  0  0  0  0  0
    4.3304   -0.7695   -3.2584 H   0  0  0  0  0  0  0  0  0  0  0  0
    6.4088   -2.0170   -3.7645 H   0  0  0  0  0  0  0  0  0  0  0  0
    7.1804   -3.8197   -2.2426 H   0  0  0  0  0  0  0  0  0  0  0  0
    5.8634   -4.3793   -0.2142 H   0  0  0  0  0  0  0  0  0  0  0  0
    3.7845   -3.1361    0.2986 H   0  0  0  0  0  0  0  0  0  0  0  0
  1  2  1  0
  2  3  1  0
  3  4  1  0
  4  5  2  0
  4  6  1  0
  7  6  1  6
  7  8  1  0
  8  9  1  0
  9 10  1  0
 10 11  1  0
 11 12  1  0
 12 13  1  0
 13 14  1  0
 13 15  1  0
 11 16  1  0
  3 17  2  0
 17 18  1  0
 18 19  1  0
 19 20  1  0
 20 21  1  0
 21 22  1  0
 22 23  1  0
 18 24  1  0
 24 25  1  0
 25 26  2  0
 26 27  1  0
 27 28  2  0
 28 29  1  0
 29 30  2  0
 24  2  2  0
 30 25  1  0
 15  7  1  0
 16  7  1  0
 14  9  1  0
  1 31  1  0
  1 32  1  0
  1 33  1  0
  6 34  1  0
  8 35  1  0
  8 36  1  0
  9 37  1  1
 10 38  1  0
 10 39  1  0
 11 40  1  6
 12 41  1  0
 12 42  1  0
 13 43  1  1
 14 44  1  0
 14 45  1  0
 15 46  1  0
 15 47  1  0
 16 48  1  0
 16 49  1  0
 17 50  1  0
 19 51  1  0
 19 52  1  0
 20 53  1  0
 20 54  1  0
 21 55  1  0
 21 56  1  0
 22 57  1  0
 22 58  1  0
 23 59  1  0
 26 60  1  0
 27 61  1  0
 28 62  1  0
 29 63  1  0
 30 64  1  0
M  END
>  <_SMILES>  (51) 
Cc1c(C(=O)N[C@]23C[C@H]4C[C@H](C[C@H](C4)C2)C3)cn(CCCCO)c1-c1ccccc1

$$$$

     RDKit          3D

 63 67  0  0  0  0  0  0  0  0999 V2000
   -0.5443    2.3726   -0.3201 C   0  0  0  0  0  0  0  0  0  0  0  0
    0.2396    1.3006    0.3489 C   0  0  0  0  0  0  0  0  0  0  0  0
   -0.2648    0.1565    1.0462 C   0  0  0  0  0  0  0  0  0  0  0  0
   -1.6688   -0.2695    1.2187 C   0  0  0  0  0  0  0  0  0  0  0  0
   -2.1047   -0.7389    2.2655 O   0  0  0  0  0  0  0  0  0  0  0  0
   -2.4408   -0.1195    0.0771 N   0  0  0  0  0  0  0  0  0  0  0  0
   -3.8003   -0.6074   -0.0284 C   0  0  2  0  0  0  0  0  0  0  0  0
   -3.9051   -2.1688    0.0261 C   0  0  0  0  0  0  0  0  0  0  0  0
   -5.3744   -2.6523   -0.1497 C   0  0  2  0  0  0  0  0  0  0  0  0
   -5.9606   -2.0689   -1.4363 C   0  0  0  0  0  0  0  0  0  0  0  0
   -5.9118   -0.5676   -1.1210 C   0  0  2  0  0  0  0  0  0  0  0  0
   -4.4627   -0.1092   -1.3267 C   0  0  0  0  0  0  0  0  0  0  0  0
   -6.1261   -0.4865    0.4300 C   0  0  1  0  0  0  0  0  0  0  0  0
   -6.2734   -1.9506    0.8703 C   0  0  0  0  0  0  0  0  0  0  0  0
   -4.7827    0.0195    0.9763 C   0  0  0  0  0  0  0  0  0  0  0  0
    0.7415   -0.5615    1.5681 N   0  0  0  0  0  0  0  0  0  0  0  0
    1.8630    0.0904    1.2086 N   0  0  0  0  0  0  0  0  0  0  0  0
    3.1346   -0.4639    1.6507 C   0  0  0  0  0  0  0  0  0  0  0  0
    3.5218   -1.7584    0.9246 C   0  0  0  0  0  0  0  0  0  0  0  0
    4.0425   -1.5363   -0.5001 C   0  0  0  0  0  0  0  0  0  0  0  0
    5.5623   -1.6773   -0.6530 C   0  0  0  0  0  0  0  0  0  0  0  0
    6.4028   -0.7800    0.2478 C   0  0  0  0  0  0  0  0  0  0  0  0
    6.0069    0.5766    0.1530 O   0  0  0  0  0  0  0  0  0  0  0  0
    1.6222    1.2214    0.4644 C   0  0  0  0  0  0  0  0  0  0  0  0
    2.6445    2.1207   -0.0635 C   0  0  0  0  0  0  0  0  0  0  0  0
    3.3894    2.9385    0.7926 C   0  0  0  0  0  0  0  0  0  0  0  0
    4.3504    3.8098    0.2752 C   0  0  0  0  0  0  0  0  0  0  0  0
    4.5659    3.8765   -1.1007 C   0  0  0  0  0  0  0  0  0  0  0  0
    3.8190    3.0749   -1.9621 C   0  0  0  0  0  0  0  0  0  0  0  0
    2.8589    2.2027   -1.4455 C   0  0  0  0  0  0  0  0  0  0  0  0
   -1.4892    2.5544    0.2016 H   0  0  0  0  0  0  0  0  0  0  0  0
    0.0036    3.3202   -0.3333 H   0  0  0  0  0  0  0  0  0  0  0  0
   -0.7655    2.0915   -1.3545 H   0  0  0  0  0  0  0  0  0  0  0  0
   -1.9246    0.0060   -0.7830 H   0  0  0  0  0  0  0  0  0  0  0  0
   -3.2798   -2.6074   -0.7619 H   0  0  0  0  0  0  0  0  0  0  0  0
   -3.5210   -2.5418    0.9828 H   0  0  0  0  0  0  0  0  0  0  0  0
   -5.4515   -3.7418   -0.1049 H   0  0  0  0  0  0  0  0  0  0  0  0
   -6.9961   -2.3997   -1.5819 H   0  0  0  0  0  0  0  0  0  0  0  0
   -5.3890   -2.3457   -2.3279 H   0  0  0  0  0  0  0  0  0  0  0  0
   -6.6274    0.0127   -1.7084 H   0  0  0  0  0  0  0  0  0  0  0  0
   -4.4104    0.9846   -1.4064 H   0  0  0  0  0  0  0  0  0  0  0  0
   -3.9978   -0.5236   -2.2283 H   0  0  0  0  0  0  0  0  0  0  0  0
   -6.9698    0.1356    0.7386 H   0  0  0  0  0  0  0  0  0  0  0  0
   -5.9621   -2.1281    1.9047 H   0  0  0  0  0  0  0  0  0  0  0  0
   -7.3143   -2.2809    0.7690 H   0  0  0  0  0  0  0  0  0  0  0  0
   -4.6061   -0.2856    2.0124 H   0  0  0  0  0  0  0  0  0  0  0  0
   -4.7385    1.1158    0.9453 H   0  0  0  0  0  0  0  0  0  0  0  0
    3.0141   -0.6708    2.7216 H   0  0  0  0  0  0  0  0  0  0  0  0
    3.9096    0.2978    1.5647 H   0  0  0  0  0  0  0  0  0  0  0  0
    2.6472   -2.4195    0.8757 H   0  0  0  0  0  0  0  0  0  0  0  0
    4.2702   -2.2946    1.5195 H   0  0  0  0  0  0  0  0  0  0  0  0
    3.7222   -0.5682   -0.8939 H   0  0  0  0  0  0  0  0  0  0  0  0
    3.5830   -2.2897   -1.1531 H   0  0  0  0  0  0  0  0  0  0  0  0
    5.8519   -2.7211   -0.4823 H   0  0  0  0  0  0  0  0  0  0  0  0
    5.8070   -1.4502   -1.6984 H   0  0  0  0  0  0  0  0  0  0  0  0
    6.3166   -1.0838    1.2952 H   0  0  0  0  0  0  0  0  0  0  0  0
    7.4599   -0.8516   -0.0280 H   0  0  0  0  0  0  0  0  0  0  0  0
    5.9833    0.8287   -0.7863 H   0  0  0  0  0  0  0  0  0  0  0  0
    3.2262    2.9039    1.8672 H   0  0  0  0  0  0  0  0  0  0  0  0
    4.9310    4.4355    0.9482 H   0  0  0  0  0  0  0  0  0  0  0  0
    5.3133    4.5575   -1.4997 H   0  0  0  0  0  0  0  0  0  0  0  0
    3.9799    3.1324   -3.0353 H   0  0  0  0  0  0  0  0  0  0  0  0
    2.2796    1.5835   -2.1261 H   0  0  0  0  0  0  0  0  0  0  0  0
  1  2  1  0
  2  3  1  0
  3  4  1  0
  4  5  2  0
  4  6  1  0
  7  6  1  1
  7  8  1  0
  8  9  1  0
  9 10  1  0
 10 11  1  0
 11 12  1  0
 11 13  1  0
 13 14  1  0
 13 15  1  0
  3 16  2  0
 16 17  1  0
 17 18  1  0
 18 19  1  0
 19 20  1  0
 20 21  1  0
 21 22  1  0
 22 23  1  0
 17 24  1  0
 24 25  1  0
 25 26  2  0
 26 27  1  0
 27 28  2  0
 28 29  1  0
 29 30  2  0
 24  2  2  0
 30 25  1  0
 12  7  1  0
 15  7  1  0
 14  9  1  0
  1 31  1  0
  1 32  1  0
  1 33  1  0
  6 34  1  0
  8 35  1  0
  8 36  1  0
  9 37  1  6
 10 38  1  0
 10 39  1  0
 11 40  1  6
 12 41  1  0
 12 42  1  0
 13 43  1  6
 14 44  1  0
 14 45  1  0
 15 46  1  0
 15 47  1  0
 18 48  1  0
 18 49  1  0
 19 50  1  0
 19 51  1  0
 20 52  1  0
 20 53  1  0
 21 54  1  0
 21 55  1  0
 22 56  1  0
 22 57  1  0
 23 58  1  0
 26 59  1  0
 27 60  1  0
 28 61  1  0
 29 62  1  0
 30 63  1  0
M  END
>  <_SMILES>  (52) 
Cc1c(C(=O)N[C@]23C[C@@H]4C[C@H](C2)[C@@H](C4)C3)nn(CCCCCO)c1-c1ccccc1

$$$$

     RDKit          3D

 53 57  0  0  0  0  0  0  0  0999 V2000
    2.0040   -0.5524   -1.4025 C   0  0  0  0  0  0  0  0  0  0  0  0
    2.2841   -0.3951    0.0504 C   0  0  0  0  0  0  0  0  0  0  0  0
    3.5666   -0.2141    0.6616 C   0  0  0  0  0  0  0  0  0  0  0  0
    4.8739   -0.0587    0.0224 C   0  0  0  0  0  0  0  0  0  0  0  0
    5.9815   -0.7658    0.5107 C   0  0  0  0  0  0  0  0  0  0  0  0
    7.2336   -0.6298   -0.0931 C   0  0  0  0  0  0  0  0  0  0  0  0
    7.3911    0.2203   -1.1862 C   0  0  0  0  0  0  0  0  0  0  0  0
    6.3002    0.9394   -1.6721 C   0  0  0  0  0  0  0  0  0  0  0  0
    5.0469    0.8035   -1.0688 C   0  0  0  0  0  0  0  0  0  0  0  0
    3.4632   -0.2234    1.9961 N   0  0  0  0  0  0  0  0  0  0  0  0
    2.1543   -0.3896    2.2396 N   0  0  0  0  0  0  0  0  0  0  0  0
    1.7061   -0.4499    3.6134 C   0  0  0  0  0  0  0  0  0  0  0  0
    1.3776   -0.4443    1.1091 C   0  0  0  0  0  0  0  0  0  0  0  0
   -0.0637   -0.5769    1.1410 C   0  0  0  0  0  0  0  0  0  0  0  0
   -0.6590   -1.1180    2.0656 O   0  0  0  0  0  0  0  0  0  0  0  0
   -0.7091    0.0049    0.0719 N   0  0  0  0  0  0  0  0  0  0  0  0
   -2.1634    0.0895   -0.0908 C   0  0  2  0  0  0  0  0  0  0  0  0
   -2.8149    0.9362    1.0299 C   0  0  0  0  0  0  0  0  0  0  0  0
   -4.3323    1.0576    0.8029 C   0  0  1  0  0  0  0  0  0  0  0  0
   -4.5908    1.7422   -0.5486 C   0  0  0  0  0  0  0  0  0  0  0  0
   -3.9733    0.9116   -1.6846 C   0  0  2  0  0  0  0  0  0  0  0  0
   -4.6034   -0.4895   -1.6918 C   0  0  0  0  0  0  0  0  0  0  0  0
   -4.3440   -1.1872   -0.3477 C   0  0  2  0  0  0  0  0  0  0  0  0
   -4.9566   -0.3481    0.7868 C   0  0  0  0  0  0  0  0  0  0  0  0
   -2.8265   -1.3110   -0.1226 C   0  0  0  0  0  0  0  0  0  0  0  0
   -2.4601    0.7822   -1.4491 C   0  0  0  0  0  0  0  0  0  0  0  0
    1.1471   -1.2121   -1.5722 H   0  0  0  0  0  0  0  0  0  0  0  0
    1.7909    0.4196   -1.8579 H   0  0  0  0  0  0  0  0  0  0  0  0
    2.8543   -1.0004   -1.9261 H   0  0  0  0  0  0  0  0  0  0  0  0
    5.8688   -1.4255    1.3689 H   0  0  0  0  0  0  0  0  0  0  0  0
    8.0840   -1.1841    0.2949 H   0  0  0  0  0  0  0  0  0  0  0  0
    8.3666    0.3289   -1.6531 H   0  0  0  0  0  0  0  0  0  0  0  0
    6.4267    1.6127   -2.5158 H   0  0  0  0  0  0  0  0  0  0  0  0
    4.2146    1.3905   -1.4470 H   0  0  0  0  0  0  0  0  0  0  0  0
    1.3544   -1.4641    3.8161 H   0  0  0  0  0  0  0  0  0  0  0  0
    2.5403   -0.2096    4.2785 H   0  0  0  0  0  0  0  0  0  0  0  0
    0.9080    0.2826    3.7563 H   0  0  0  0  0  0  0  0  0  0  0  0
   -0.1491    0.6259   -0.4949 H   0  0  0  0  0  0  0  0  0  0  0  0
   -2.3608    1.9354    1.0604 H   0  0  0  0  0  0  0  0  0  0  0  0
   -2.6347    0.4877    2.0140 H   0  0  0  0  0  0  0  0  0  0  0  0
   -4.7790    1.6511    1.6085 H   0  0  0  0  0  0  0  0  0  0  0  0
   -5.6698    1.8555   -0.7110 H   0  0  0  0  0  0  0  0  0  0  0  0
   -4.1617    2.7517   -0.5458 H   0  0  0  0  0  0  0  0  0  0  0  0
   -4.1576    1.4048   -2.6455 H   0  0  0  0  0  0  0  0  0  0  0  0
   -4.1834   -1.0858   -2.5111 H   0  0  0  0  0  0  0  0  0  0  0  0
   -5.6826   -0.4145   -1.8733 H   0  0  0  0  0  0  0  0  0  0  0  0
   -4.7979   -2.1844   -0.3562 H   0  0  0  0  0  0  0  0  0  0  0  0
   -6.0426   -0.2730    0.6512 H   0  0  0  0  0  0  0  0  0  0  0  0
   -4.7899   -0.8433    1.7513 H   0  0  0  0  0  0  0  0  0  0  0  0
   -2.3789   -1.9221   -0.9173 H   0  0  0  0  0  0  0  0  0  0  0  0
   -2.6523   -1.8521    0.8144 H   0  0  0  0  0  0  0  0  0  0  0  0
   -2.0038    0.2130   -2.2702 H   0  0  0  0  0  0  0  0  0  0  0  0
   -1.9976    1.7781   -1.4740 H   0  0  0  0  0  0  0  0  0  0  0  0
  1  2  1  0
  2  3  1  0
  3  4  1  0
  4  5  2  0
  5  6  1  0
  6  7  2  0
  7  8  1  0
  8  9  2  0
  3 10  2  0
 10 11  1  0
 11 12  1  0
 11 13  1  0
 13 14  1  0
 14 15  2  0
 14 16  1  0
 17 16  1  1
 17 18  1  0
 18 19  1  0
 19 20  1  0
 20 21  1  0
 21 22  1  0
 22 23  1  0
 23 24  1  0
 23 25  1  0
 21 26  1  0
 13  2  2  0
 25 17  1  0
  9  4  1  0
 26 17  1  0
 24 19  1  0
  1 27  1  0
  1 28  1  0
  1 29  1  0
  5 30  1  0
  6 31  1  0
  7 32  1  0
  8 33  1  0
  9 34  1  0
 12 35  1  0
 12 36  1  0
 12 37  1  0
 16 38  1  0
 18 39  1  0
 18 40  1  0
 19 41  1  1
 20 42  1  0
 20 43  1  0
 21 44  1  6
 22 45  1  0
 22 46  1  0
 23 47  1  6
 24 48  1  0
 24 49  1  0
 25 50  1  0
 25 51  1  0
 26 52  1  0
 26 53  1  0
M  END
>  <_SMILES>  (53) 
Cc1c(-c2ccccc2)nn(C)c1C(=O)N[C@]12C[C@H]3C[C@H](C[C@H](C3)C1)C2

$$$$

     RDKit          3D

 57 61  0  0  0  0  0  0  0  0999 V2000
   -0.9422    1.9890    0.3349 O   0  0  0  0  0  0  0  0  0  0  0  0
   -0.5580    0.8471    0.1007 C   0  0  0  0  0  0  0  0  0  0  0  0
   -1.4253   -0.2290   -0.0233 N   0  0  0  0  0  0  0  0  0  0  0  0
   -2.8872   -0.1285    0.0285 C   0  0  2  0  0  0  0  0  0  0  0  0
   -3.4420    0.7429   -1.1252 C   0  0  0  0  0  0  0  0  0  0  0  0
   -4.9800    0.7820   -1.0825 C   0  0  1  0  0  0  0  0  0  0  0  0
   -5.5291   -0.6454   -1.2335 C   0  0  0  0  0  0  0  0  0  0  0  0
   -5.0127   -1.5304   -0.0881 C   0  0  2  0  0  0  0  0  0  0  0  0
   -5.4731   -0.9447    1.2553 C   0  0  0  0  0  0  0  0  0  0  0  0
   -4.9228    0.4801    1.4212 C   0  0  2  0  0  0  0  0  0  0  0  0
   -5.4353    1.3601    0.2683 C   0  0  0  0  0  0  0  0  0  0  0  0
   -3.3846    0.4401    1.3821 C   0  0  0  0  0  0  0  0  0  0  0  0
   -3.4766   -1.5578   -0.1257 C   0  0  0  0  0  0  0  0  0  0  0  0
    0.8682    0.5009   -0.0869 C   0  0  0  0  0  0  0  0  0  0  0  0
    1.4876   -0.7739    0.0338 C   0  0  0  0  0  0  0  0  0  0  0  0
    2.8284   -0.5813   -0.2305 C   0  0  0  0  0  0  0  0  0  0  0  0
    3.9236   -1.5387   -0.2196 C   0  0  0  0  0  0  0  0  0  0  0  0
    4.4309   -2.0480   -1.4202 C   0  0  0  0  0  0  0  0  0  0  0  0
    5.4822   -2.9665   -1.4054 C   0  0  0  0  0  0  0  0  0  0  0  0
    6.0274   -3.3832   -0.1916 C   0  0  0  0  0  0  0  0  0  0  0  0
    5.5209   -2.8854    1.0083 C   0  0  0  0  0  0  0  0  0  0  0  0
    4.4695   -1.9670    0.9952 C   0  0  0  0  0  0  0  0  0  0  0  0
    2.9522    0.7649   -0.4773 N   0  0  0  0  0  0  0  0  0  0  0  0
    4.1707    1.5097   -0.7599 C   0  0  0  0  0  0  0  0  0  0  0  0
    4.8032    2.0970    0.5033 C   0  0  0  0  0  0  0  0  0  0  0  0
    4.2234    3.4595    0.8614 C   0  0  0  0  0  0  0  0  0  0  0  0
    4.6669    4.4292   -0.0818 O   0  0  0  0  0  0  0  0  0  0  0  0
    1.7867    1.4311   -0.4003 N   0  0  0  0  0  0  0  0  0  0  0  0
   -1.0409   -1.0669   -0.4355 H   0  0  0  0  0  0  0  0  0  0  0  0
   -3.1053    0.3471   -2.0924 H   0  0  0  0  0  0  0  0  0  0  0  0
   -3.0562    1.7672   -1.0624 H   0  0  0  0  0  0  0  0  0  0  0  0
   -5.3553    1.4098   -1.8984 H   0  0  0  0  0  0  0  0  0  0  0  0
   -5.2223   -1.0650   -2.1995 H   0  0  0  0  0  0  0  0  0  0  0  0
   -6.6259   -0.6277   -1.2281 H   0  0  0  0  0  0  0  0  0  0  0  0
   -5.4041   -2.5475   -0.2016 H   0  0  0  0  0  0  0  0  0  0  0  0
   -6.5689   -0.9315    1.3030 H   0  0  0  0  0  0  0  0  0  0  0  0
   -5.1261   -1.5792    2.0801 H   0  0  0  0  0  0  0  0  0  0  0  0
   -5.2564    0.8949    2.3790 H   0  0  0  0  0  0  0  0  0  0  0  0
   -6.5303    1.4170    0.3002 H   0  0  0  0  0  0  0  0  0  0  0  0
   -5.0600    2.3845    0.3832 H   0  0  0  0  0  0  0  0  0  0  0  0
   -3.0025    1.4531    1.5505 H   0  0  0  0  0  0  0  0  0  0  0  0
   -3.0051   -0.1724    2.2105 H   0  0  0  0  0  0  0  0  0  0  0  0
   -3.0975   -2.2101    0.6726 H   0  0  0  0  0  0  0  0  0  0  0  0
   -3.1402   -2.0048   -1.0709 H   0  0  0  0  0  0  0  0  0  0  0  0
    1.0247   -1.7137    0.2991 H   0  0  0  0  0  0  0  0  0  0  0  0
    4.0090   -1.7351   -2.3726 H   0  0  0  0  0  0  0  0  0  0  0  0
    5.8735   -3.3592   -2.3405 H   0  0  0  0  0  0  0  0  0  0  0  0
    6.8450   -4.0998   -0.1806 H   0  0  0  0  0  0  0  0  0  0  0  0
    5.9430   -3.2141    1.9547 H   0  0  0  0  0  0  0  0  0  0  0  0
    4.0807   -1.5868    1.9372 H   0  0  0  0  0  0  0  0  0  0  0  0
    3.9274    2.2779   -1.5026 H   0  0  0  0  0  0  0  0  0  0  0  0
    4.8729    0.8192   -1.2375 H   0  0  0  0  0  0  0  0  0  0  0  0
    5.8788    2.2133    0.3222 H   0  0  0  0  0  0  0  0  0  0  0  0
    4.6810    1.4114    1.3496 H   0  0  0  0  0  0  0  0  0  0  0  0
    4.5642    3.7721    1.8539 H   0  0  0  0  0  0  0  0  0  0  0  0
    3.1305    3.4552    0.8692 H   0  0  0  0  0  0  0  0  0  0  0  0
    5.5937    4.6374    0.1252 H   0  0  0  0  0  0  0  0  0  0  0  0
  1  2  2  0
  2  3  1  0
  4  3  1  1
  4  5  1  0
  5  6  1  0
  6  7  1  0
  7  8  1  0
  8  9  1  0
  9 10  1  0
 10 11  1  0
 10 12  1  0
  8 13  1  0
  2 14  1  0
 14 15  1  0
 15 16  2  0
 16 17  1  0
 17 18  2  0
 18 19  1  0
 19 20  2  0
 20 21  1  0
 21 22  2  0
 16 23  1  0
 23 24  1  0
 24 25  1  0
 25 26  1  0
 26 27  1  0
 23 28  1  0
 12  4  1  0
 28 14  2  0
 13  4  1  0
 22 17  1  0
 11  6  1  0
  3 29  1  0
  5 30  1  0
  5 31  1  0
  6 32  1  6
  7 33  1  0
  7 34  1  0
  8 35  1  6
  9 36  1  0
  9 37  1  0
 10 38  1  1
 11 39  1  0
 11 40  1  0
 12 41  1  0
 12 42  1  0
 13 43  1  0
 13 44  1  0
 15 45  1  0
 18 46  1  0
 19 47  1  0
 20 48  1  0
 21 49  1  0
 22 50  1  0
 24 51  1  0
 24 52  1  0
 25 53  1  0
 25 54  1  0
 26 55  1  0
 26 56  1  0
 27 57  1  0
M  END
>  <_SMILES>  (54) 
O=C(N[C@]12C[C@H]3C[C@H](C[C@H](C3)C1)C2)c1cc(-c2ccccc2)n(CCCO)n1

$$$$

     RDKit          3D

 63 67  0  0  0  0  0  0  0  0999 V2000
    0.1655    3.4308    1.3951 C   0  0  0  0  0  0  0  0  0  0  0  0
    0.5756    2.2772    0.5521 C   0  0  0  0  0  0  0  0  0  0  0  0
   -0.2534    1.2082    0.1084 C   0  0  0  0  0  0  0  0  0  0  0  0
   -1.6866    0.9902    0.3714 C   0  0  0  0  0  0  0  0  0  0  0  0
   -2.3849    1.7401    1.0423 O   0  0  0  0  0  0  0  0  0  0  0  0
   -2.1571   -0.1575   -0.2385 N   0  0  0  0  0  0  0  0  0  0  0  0
   -3.5275   -0.6151   -0.2474 C   0  0  2  0  0  0  0  0  0  0  0  0
   -4.5292    0.4012   -0.8251 C   0  0  0  0  0  0  0  0  0  0  0  0
   -5.8676   -0.2997   -0.5385 C   0  0  1  0  0  0  0  0  0  0  0  0
   -6.0439   -1.3757   -1.6074 C   0  0  0  0  0  0  0  0  0  0  0  0
   -5.1365   -2.4489   -1.0487 N   0  0  2  0  0  0  0  0  0  0  0  0
   -5.6676   -2.5690    0.3619 C   0  0  0  0  0  0  0  0  0  0  0  0
   -5.6136   -1.1041    0.7884 C   0  0  1  0  0  0  0  0  0  0  0  0
   -4.1508   -0.7963    1.1494 C   0  0  0  0  0  0  0  0  0  0  0  0
   -3.6735   -1.9746   -1.0402 C   0  0  0  0  0  0  0  0  0  0  0  0
    0.4339    0.3308   -0.6519 N   0  0  0  0  0  0  0  0  0  0  0  0
    1.6908    0.8291   -0.6745 N   0  0  0  0  0  0  0  0  0  0  0  0
    2.7139    0.1020   -1.4076 C   0  0  0  0  0  0  0  0  0  0  0  0
    3.6732   -0.7013   -0.5263 C   0  0  0  0  0  0  0  0  0  0  0  0
    2.9750   -1.8056    0.2738 C   0  0  0  0  0  0  0  0  0  0  0  0
    3.9457   -2.6444    1.1155 C   0  0  0  0  0  0  0  0  0  0  0  0
    4.9138   -3.4914    0.2966 C   0  0  0  0  0  0  0  0  0  0  0  0
    4.1974   -4.3661   -0.5643 O   0  0  0  0  0  0  0  0  0  0  0  0
    1.8273    2.0089    0.0177 C   0  0  0  0  0  0  0  0  0  0  0  0
    3.0748    2.7550    0.1391 C   0  0  0  0  0  0  0  0  0  0  0  0
    3.7961    2.7260    1.3383 C   0  0  0  0  0  0  0  0  0  0  0  0
    4.9905    3.4383    1.4584 C   0  0  0  0  0  0  0  0  0  0  0  0
    5.4663    4.1881    0.3838 C   0  0  0  0  0  0  0  0  0  0  0  0
    4.7472    4.2308   -0.8099 C   0  0  0  0  0  0  0  0  0  0  0  0
    3.5526    3.5187   -0.9318 C   0  0  0  0  0  0  0  0  0  0  0  0
   -0.6658    3.9690    0.9285 H   0  0  0  0  0  0  0  0  0  0  0  0
    0.9821    4.1447    1.5380 H   0  0  0  0  0  0  0  0  0  0  0  0
   -0.1546    3.0846    2.3831 H   0  0  0  0  0  0  0  0  0  0  0  0
   -1.4274   -0.6152   -0.7900 H   0  0  0  0  0  0  0  0  0  0  0  0
   -4.4942    1.3629   -0.3005 H   0  0  0  0  0  0  0  0  0  0  0  0
   -4.3611    0.6042   -1.8885 H   0  0  0  0  0  0  0  0  0  0  0  0
   -6.7077    0.3973   -0.4937 H   0  0  0  0  0  0  0  0  0  0  0  0
   -7.0598   -1.7831   -1.6446 H   0  0  0  0  0  0  0  0  0  0  0  0
   -5.7074   -1.1099   -2.6138 H   0  0  0  0  0  0  0  0  0  0  0  0
   -5.2309   -3.3331   -1.5664 H   0  0  0  0  0  0  0  0  0  0  0  0
   -5.0310   -3.2557    0.9276 H   0  0  0  0  0  0  0  0  0  0  0  0
   -6.6879   -2.9627    0.3027 H   0  0  0  0  0  0  0  0  0  0  0  0
   -6.3064   -0.8715    1.6005 H   0  0  0  0  0  0  0  0  0  0  0  0
   -3.6670   -1.5900    1.7292 H   0  0  0  0  0  0  0  0  0  0  0  0
   -4.1057    0.1188    1.7500 H   0  0  0  0  0  0  0  0  0  0  0  0
   -3.3714   -1.8662   -2.0879 H   0  0  0  0  0  0  0  0  0  0  0  0
   -3.0842   -2.7762   -0.5812 H   0  0  0  0  0  0  0  0  0  0  0  0
    2.2046   -0.5624   -2.1164 H   0  0  0  0  0  0  0  0  0  0  0  0
    3.2697    0.8313   -2.0060 H   0  0  0  0  0  0  0  0  0  0  0  0
    4.4301   -1.1423   -1.1840 H   0  0  0  0  0  0  0  0  0  0  0  0
    4.2039   -0.0362    0.1636 H   0  0  0  0  0  0  0  0  0  0  0  0
    2.2479   -1.3525    0.9582 H   0  0  0  0  0  0  0  0  0  0  0  0
    2.4071   -2.4549   -0.4027 H   0  0  0  0  0  0  0  0  0  0  0  0
    3.3436   -3.3141    1.7423 H   0  0  0  0  0  0  0  0  0  0  0  0
    4.5117   -1.9921    1.7904 H   0  0  0  0  0  0  0  0  0  0  0  0
    5.5484   -4.0941    0.9549 H   0  0  0  0  0  0  0  0  0  0  0  0
    5.5728   -2.8699   -0.3156 H   0  0  0  0  0  0  0  0  0  0  0  0
    3.8070   -5.0604   -0.0060 H   0  0  0  0  0  0  0  0  0  0  0  0
    3.4332    2.1483    2.1851 H   0  0  0  0  0  0  0  0  0  0  0  0
    5.5482    3.4125    2.3913 H   0  0  0  0  0  0  0  0  0  0  0  0
    6.3949    4.7461    0.4791 H   0  0  0  0  0  0  0  0  0  0  0  0
    5.1146    4.8246   -1.6433 H   0  0  0  0  0  0  0  0  0  0  0  0
    2.9953    3.5724   -1.8639 H   0  0  0  0  0  0  0  0  0  0  0  0
  1  2  1  0
  2  3  1  0
  3  4  1  0
  4  5  2  0
  4  6  1  0
  7  6  1  1
  7  8  1  0
  8  9  1  0
  9 10  1  0
 10 11  1  0
 11 12  1  0
 12 13  1  0
 13 14  1  0
 11 15  1  0
  3 16  2  0
 16 17  1  0
 17 18  1  0
 18 19  1  0
 19 20  1  0
 20 21  1  0
 21 22  1  0
 22 23  1  0
 17 24  1  0
 24 25  1  0
 25 26  2  0
 26 27  1  0
 27 28  2  0
 28 29  1  0
 29 30  2  0
 24  2  2  0
 30 25  1  0
 14  7  1  0
 15  7  1  0
 13  9  1  0
  1 31  1  0
  1 32  1  0
  1 33  1  0
  6 34  1  0
  8 35  1  0
  8 36  1  0
  9 37  1  1
 10 38  1  0
 10 39  1  0
 11 40  1  6
 12 41  1  0
 12 42  1  0
 13 43  1  1
 14 44  1  0
 14 45  1  0
 15 46  1  0
 15 47  1  0
 18 48  1  0
 18 49  1  0
 19 50  1  0
 19 51  1  0
 20 52  1  0
 20 53  1  0
 21 54  1  0
 21 55  1  0
 22 56  1  0
 22 57  1  0
 23 58  1  0
 26 59  1  0
 27 60  1  0
 28 61  1  0
 29 62  1  0
 30 63  1  0
M  CHG  1  11   1
M  END
>  <_SMILES>  (55) 
Cc1c(C(=O)N[C@]23C[C@H]4C[N@H+](C[C@H]4C2)C3)nn(CCCCCO)c1-c1ccccc1

$$$$

     RDKit          3D

 59 62  0  0  0  0  0  0  0  0999 V2000
    0.7884    2.3936    3.4631 C   0  0  0  0  0  0  0  0  0  0  0  0
    1.2377    1.6380    2.2654 C   0  0  0  0  0  0  0  0  0  0  0  0
    0.3973    1.0444    1.2748 C   0  0  0  0  0  0  0  0  0  0  0  0
   -1.0795    1.0392    1.2190 C   0  0  0  0  0  0  0  0  0  0  0  0
   -1.7843    1.5715    2.0699 O   0  0  0  0  0  0  0  0  0  0  0  0
   -1.5623    0.3722    0.1137 N   0  0  0  0  0  0  0  0  0  0  0  0
   -2.9647    0.1718   -0.2323 C   0  0  2  0  0  0  0  0  0  0  0  0
   -3.6971    1.5190   -0.4506 C   0  0  0  0  0  0  0  0  0  0  0  0
   -5.1608    1.2791   -0.8609 C   0  0  1  0  0  0  0  0  0  0  0  0
   -5.1963    0.4769   -2.1712 C   0  0  0  0  0  0  0  0  0  0  0  0
   -4.4936   -0.8759   -1.9774 C   0  0  2  0  0  0  0  0  0  0  0  0
   -5.2094   -1.6676   -0.8718 C   0  0  0  0  0  0  0  0  0  0  0  0
   -5.1740   -0.8778    0.4461 C   0  0  2  0  0  0  0  0  0  0  0  0
   -5.8712    0.4783    0.2437 C   0  0  0  0  0  0  0  0  0  0  0  0
   -3.7103   -0.6385    0.8567 C   0  0  0  0  0  0  0  0  0  0  0  0
   -3.0352   -0.6310   -1.5585 C   0  0  0  0  0  0  0  0  0  0  0  0
    1.1293    0.4393    0.3168 N   0  0  0  0  0  0  0  0  0  0  0  0
    2.4045    0.6411    0.6922 N   0  0  0  0  0  0  0  0  0  0  0  0
    3.4681    0.1133   -0.1494 C   0  0  0  0  0  0  0  0  0  0  0  0
    3.8130   -1.3313    0.2085 C   0  0  0  0  0  0  0  0  0  0  0  0
    4.8709   -1.9445   -0.7125 C   0  0  0  0  0  0  0  0  0  0  0  0
    6.2524   -1.2985   -0.5619 C   0  0  0  0  0  0  0  0  0  0  0  0
    7.3128   -2.0208   -1.3871 C   0  0  0  0  0  0  0  0  0  0  0  0
    7.0113   -1.9360   -2.7723 O   0  0  0  0  0  0  0  0  0  0  0  0
    2.5311    1.3485    1.8602 C   0  0  0  0  0  0  0  0  0  0  0  0
    3.8444    1.6826    2.4694 C   0  0  0  0  0  0  0  0  0  0  0  0
    0.2214    1.7410    4.1347 H   0  0  0  0  0  0  0  0  0  0  0  0
    0.1491    3.2324    3.1695 H   0  0  0  0  0  0  0  0  0  0  0  0
    1.6303    2.8044    4.0272 H   0  0  0  0  0  0  0  0  0  0  0  0
   -0.8289   -0.0145   -0.4776 H   0  0  0  0  0  0  0  0  0  0  0  0
   -3.6767    2.1276    0.4612 H   0  0  0  0  0  0  0  0  0  0  0  0
   -3.1841    2.1066   -1.2233 H   0  0  0  0  0  0  0  0  0  0  0  0
   -5.6662    2.2409   -1.0032 H   0  0  0  0  0  0  0  0  0  0  0  0
   -6.2352    0.3180   -2.4855 H   0  0  0  0  0  0  0  0  0  0  0  0
   -4.7048    1.0438   -2.9714 H   0  0  0  0  0  0  0  0  0  0  0  0
   -4.5193   -1.4435   -2.9144 H   0  0  0  0  0  0  0  0  0  0  0  0
   -4.7272   -2.6437   -0.7370 H   0  0  0  0  0  0  0  0  0  0  0  0
   -6.2485   -1.8634   -1.1637 H   0  0  0  0  0  0  0  0  0  0  0  0
   -5.6888   -1.4447    1.2300 H   0  0  0  0  0  0  0  0  0  0  0  0
   -5.8648    1.0467    1.1819 H   0  0  0  0  0  0  0  0  0  0  0  0
   -6.9228    0.3213   -0.0261 H   0  0  0  0  0  0  0  0  0  0  0  0
   -3.2070   -1.6001    1.0227 H   0  0  0  0  0  0  0  0  0  0  0  0
   -3.6899   -0.1119    1.8183 H   0  0  0  0  0  0  0  0  0  0  0  0
   -2.5071   -0.0904   -2.3555 H   0  0  0  0  0  0  0  0  0  0  0  0
   -2.5164   -1.5924   -1.4458 H   0  0  0  0  0  0  0  0  0  0  0  0
    3.1267    0.1877   -1.1888 H   0  0  0  0  0  0  0  0  0  0  0  0
    4.3325    0.7753   -0.0422 H   0  0  0  0  0  0  0  0  0  0  0  0
    2.9050   -1.9449    0.1458 H   0  0  0  0  0  0  0  0  0  0  0  0
    4.1503   -1.3919    1.2506 H   0  0  0  0  0  0  0  0  0  0  0  0
    4.9501   -3.0131   -0.4769 H   0  0  0  0  0  0  0  0  0  0  0  0
    4.5333   -1.8748   -1.7535 H   0  0  0  0  0  0  0  0  0  0  0  0
    6.5521   -1.3075    0.4923 H   0  0  0  0  0  0  0  0  0  0  0  0
    6.2025   -0.2534   -0.8867 H   0  0  0  0  0  0  0  0  0  0  0  0
    7.3679   -3.0789   -1.1125 H   0  0  0  0  0  0  0  0  0  0  0  0
    8.2992   -1.5764   -1.2203 H   0  0  0  0  0  0  0  0  0  0  0  0
    7.0716   -1.0006   -3.0307 H   0  0  0  0  0  0  0  0  0  0  0  0
    4.3507    2.4554    1.8823 H   0  0  0  0  0  0  0  0  0  0  0  0
    3.7307    2.0567    3.4908 H   0  0  0  0  0  0  0  0  0  0  0  0
    4.4918    0.8014    2.5172 H   0  0  0  0  0  0  0  0  0  0  0  0
  1  2  1  0
  2  3  1  0
  3  4  1  0
  4  5  2  0
  4  6  1  0
  7  6  1  1
  7  8  1  0
  8  9  1  0
  9 10  1  0
 10 11  1  0
 11 12  1  0
 12 13  1  0
 13 14  1  0
 13 15  1  0
 11 16  1  0
  3 17  2  0
 17 18  1  0
 18 19  1  0
 19 20  1  0
 20 21  1  0
 21 22  1  0
 22 23  1  0
 23 24  1  0
 18 25  1  0
 25 26  1  0
 25  2  2  0
 15  7  1  0
 16  7  1  0
 14  9  1  0
  1 27  1  0
  1 28  1  0
  1 29  1  0
  6 30  1  0
  8 31  1  0
  8 32  1  0
  9 33  1  6
 10 34  1  0
 10 35  1  0
 11 36  1  6
 12 37  1  0
 12 38  1  0
 13 39  1  1
 14 40  1  0
 14 41  1  0
 15 42  1  0
 15 43  1  0
 16 44  1  0
 16 45  1  0
 19 46  1  0
 19 47  1  0
 20 48  1  0
 20 49  1  0
 21 50  1  0
 21 51  1  0
 22 52  1  0
 22 53  1  0
 23 54  1  0
 23 55  1  0
 24 56  1  0
 26 57  1  0
 26 58  1  0
 26 59  1  0
M  END
>  <_SMILES>  (56) 
Cc1c(C(=O)N[C@]23C[C@H]4C[C@H](C[C@H](C4)C2)C3)nn(CCCCCO)c1C

$$$$

     RDKit          3D

 65 68  0  0  0  0  0  0  0  0999 V2000
    0.2337   -1.1572   -2.1631 C   0  0  0  0  0  0  0  0  0  0  0  0
   -0.4505   -0.5724   -0.9805 C   0  0  0  0  0  0  0  0  0  0  0  0
    0.1256   -0.2370    0.2887 C   0  0  0  0  0  0  0  0  0  0  0  0
    1.5358   -0.3451    0.7073 C   0  0  0  0  0  0  0  0  0  0  0  0
    1.8859   -0.7867    1.7982 O   0  0  0  0  0  0  0  0  0  0  0  0
    2.4371    0.1169   -0.2423 N   0  0  0  0  0  0  0  0  0  0  0  0
    3.9133    0.1445   -0.0251 C   0  0  2  0  0  0  0  0  0  0  0  0
    4.2372    1.2487    0.9948 C   0  0  0  0  0  0  0  0  0  0  0  0
    5.5458    2.0080    0.7873 C   0  0  0  0  0  0  0  0  0  0  0  0
    6.7929    1.4046    1.4197 C   0  0  0  0  0  0  0  0  0  0  0  0
    7.1056   -0.0611    1.1507 C   0  0  0  0  0  0  0  0  0  0  0  0
    7.0145   -0.5188   -0.3009 C   0  0  0  0  0  0  0  0  0  0  0  0
    5.6277   -0.9587   -0.7803 C   0  0  2  0  0  0  0  0  0  0  0  0
    4.6728    0.0987   -1.3922 C   0  0  0  0  0  0  0  0  0  0  0  0
    4.4891   -1.2893    0.2187 C   0  0  0  0  0  0  0  0  0  0  0  0
   -0.8112    0.2316    1.1293 N   0  0  0  0  0  0  0  0  0  0  0  0
   -1.9539    0.2010    0.4239 N   0  0  0  0  0  0  0  0  0  0  0  0
   -3.1848    0.6335    1.0690 C   0  0  0  0  0  0  0  0  0  0  0  0
   -3.8685   -0.5115    1.8149 C   0  0  0  0  0  0  0  0  0  0  0  0
   -5.1845   -0.0934    2.4749 C   0  0  0  0  0  0  0  0  0  0  0  0
   -6.3011    0.1821    1.4612 C   0  0  0  0  0  0  0  0  0  0  0  0
   -7.6243    0.5084    2.1440 C   0  0  0  0  0  0  0  0  0  0  0  0
   -7.4999    1.7222    2.8709 O   0  0  0  0  0  0  0  0  0  0  0  0
   -1.7962   -0.2574   -0.8610 C   0  0  0  0  0  0  0  0  0  0  0  0
   -2.8824   -0.3919   -1.8226 C   0  0  0  0  0  0  0  0  0  0  0  0
   -3.5688   -1.6048   -1.9444 C   0  0  0  0  0  0  0  0  0  0  0  0
   -4.6146   -1.7313   -2.8601 C   0  0  0  0  0  0  0  0  0  0  0  0
   -4.9757   -0.6478   -3.6601 C   0  0  0  0  0  0  0  0  0  0  0  0
   -4.2907    0.5616   -3.5480 C   0  0  0  0  0  0  0  0  0  0  0  0
   -3.2445    0.6897   -2.6327 C   0  0  0  0  0  0  0  0  0  0  0  0
    0.6620   -0.3639   -2.7837 H   0  0  0  0  0  0  0  0  0  0  0  0
    1.0388   -1.8330   -1.8577 H   0  0  0  0  0  0  0  0  0  0  0  0
   -0.4590   -1.7366   -2.7816 H   0  0  0  0  0  0  0  0  0  0  0  0
    2.0400    0.6208   -1.0252 H   0  0  0  0  0  0  0  0  0  0  0  0
    4.1856    0.8515    2.0160 H   0  0  0  0  0  0  0  0  0  0  0  0
    3.4468    2.0109    0.9357 H   0  0  0  0  0  0  0  0  0  0  0  0
    5.7320    2.2293   -0.2657 H   0  0  0  0  0  0  0  0  0  0  0  0
    5.4213    2.9963    1.2527 H   0  0  0  0  0  0  0  0  0  0  0  0
    7.6522    2.0068    1.0957 H   0  0  0  0  0  0  0  0  0  0  0  0
    6.7356    1.5411    2.5076 H   0  0  0  0  0  0  0  0  0  0  0  0
    8.1433   -0.2175    1.4778 H   0  0  0  0  0  0  0  0  0  0  0  0
    6.5140   -0.6939    1.8163 H   0  0  0  0  0  0  0  0  0  0  0  0
    7.4332    0.2358   -0.9771 H   0  0  0  0  0  0  0  0  0  0  0  0
    7.6748   -1.3925   -0.3905 H   0  0  0  0  0  0  0  0  0  0  0  0
    5.7885   -1.7799   -1.4953 H   0  0  0  0  0  0  0  0  0  0  0  0
    4.0720   -0.3128   -2.2165 H   0  0  0  0  0  0  0  0  0  0  0  0
    5.1272    1.0140   -1.7740 H   0  0  0  0  0  0  0  0  0  0  0  0
    4.7516   -1.5457    1.2461 H   0  0  0  0  0  0  0  0  0  0  0  0
    3.8418   -2.0986   -0.1486 H   0  0  0  0  0  0  0  0  0  0  0  0
   -2.9235    1.4451    1.7587 H   0  0  0  0  0  0  0  0  0  0  0  0
   -3.8305    1.0621    0.2979 H   0  0  0  0  0  0  0  0  0  0  0  0
   -3.1913   -0.8830    2.5947 H   0  0  0  0  0  0  0  0  0  0  0  0
   -4.0476   -1.3565    1.1394 H   0  0  0  0  0  0  0  0  0  0  0  0
   -5.5054   -0.9027    3.1425 H   0  0  0  0  0  0  0  0  0  0  0  0
   -5.0152    0.7880    3.1047 H   0  0  0  0  0  0  0  0  0  0  0  0
   -6.0169    1.0264    0.8239 H   0  0  0  0  0  0  0  0  0  0  0  0
   -6.4366   -0.6933    0.8158 H   0  0  0  0  0  0  0  0  0  0  0  0
   -7.9193   -0.2895    2.8330 H   0  0  0  0  0  0  0  0  0  0  0  0
   -8.4119    0.6355    1.3946 H   0  0  0  0  0  0  0  0  0  0  0  0
   -8.3560    1.8861    3.3023 H   0  0  0  0  0  0  0  0  0  0  0  0
   -3.2920   -2.4562   -1.3265 H   0  0  0  0  0  0  0  0  0  0  0  0
   -5.1454   -2.6755   -2.9507 H   0  0  0  0  0  0  0  0  0  0  0  0
   -5.7894   -0.7471   -4.3743 H   0  0  0  0  0  0  0  0  0  0  0  0
   -4.5703    1.4049   -4.1743 H   0  0  0  0  0  0  0  0  0  0  0  0
   -2.7153    1.6365   -2.5541 H   0  0  0  0  0  0  0  0  0  0  0  0
  1  2  1  0
  2  3  1  0
  3  4  1  0
  4  5  2  0
  4  6  1  0
  7  6  1  6
  7  8  1  0
  8  9  1  0
  9 10  1  0
 10 11  1  0
 11 12  1  0
 12 13  1  0
 13 14  1  0
 13 15  1  0
  3 16  2  0
 16 17  1  0
 17 18  1  0
 18 19  1  0
 19 20  1  0
 20 21  1  0
 21 22  1  0
 22 23  1  0
 17 24  1  0
 24 25  1  0
 25 26  2  0
 26 27  1  0
 27 28  2  0
 28 29  1  0
 29 30  2  0
 24  2  2  0
 30 25  1  0
 14  7  1  0
 15  7  1  0
  1 31  1  0
  1 32  1  0
  1 33  1  0
  6 34  1  0
  8 35  1  0
  8 36  1  0
  9 37  1  0
  9 38  1  0
 10 39  1  0
 10 40  1  0
 11 41  1  0
 11 42  1  0
 12 43  1  0
 12 44  1  0
 13 45  1  6
 14 46  1  0
 14 47  1  0
 15 48  1  0
 15 49  1  0
 18 50  1  0
 18 51  1  0
 19 52  1  0
 19 53  1  0
 20 54  1  0
 20 55  1  0
 21 56  1  0
 21 57  1  0
 22 58  1  0
 22 59  1  0
 23 60  1  0
 26 61  1  0
 27 62  1  0
 28 63  1  0
 29 64  1  0
 30 65  1  0
M  END
>  <_SMILES>  (57) 
Cc1c(C(=O)N[C@]23CCCCC[C@H](C2)C3)nn(CCCCCO)c1-c1ccccc1

$$$$

     RDKit          3D

 65 68  0  0  0  0  0  0  0  0999 V2000
   -0.0232    2.4798    0.7348 C   0  0  0  0  0  0  0  0  0  0  0  0
    0.6984    1.2937    0.2044 C   0  0  0  0  0  0  0  0  0  0  0  0
    0.2391   -0.0625    0.1705 C   0  0  0  0  0  0  0  0  0  0  0  0
   -1.0663   -0.5920    0.6122 C   0  0  0  0  0  0  0  0  0  0  0  0
   -1.1709   -1.5800    1.3303 O   0  0  0  0  0  0  0  0  0  0  0  0
   -2.1428    0.1364    0.1247 N   0  0  0  0  0  0  0  0  0  0  0  0
   -3.5742   -0.1403    0.3716 C   0  0  2  0  0  0  0  0  0  0  0  0
   -4.4741    0.8391   -0.4735 C   0  0  0  0  0  0  0  0  0  0  0  0
   -5.5710    0.1988   -1.3997 C   0  0  0  0  0  0  0  0  0  0  0  0
   -6.9132   -0.3763   -0.8250 C   0  0  0  0  0  0  0  0  0  0  0  0
   -6.9550   -1.8274   -0.2327 C   0  0  0  0  0  0  0  0  0  0  0  0
   -6.3388   -2.0457    1.1883 C   0  0  0  0  0  0  0  0  0  0  0  0
   -5.1589   -1.1297    1.2679 C   0  0  1  0  0  0  0  0  0  0  0  0
   -3.9639   -0.3858    1.9236 C   0  0  0  0  0  0  0  0  0  0  0  0
   -4.0521   -1.5932    0.2298 C   0  0  0  0  0  0  0  0  0  0  0  0
    1.1699   -0.8693   -0.3625 N   0  0  0  0  0  0  0  0  0  0  0  0
    2.2093   -0.0635   -0.6386 N   0  0  0  0  0  0  0  0  0  0  0  0
    3.4112   -0.6486   -1.2095 C   0  0  0  0  0  0  0  0  0  0  0  0
    4.5228   -0.9014   -0.1883 C   0  0  0  0  0  0  0  0  0  0  0  0
    4.2045   -2.0585    0.7629 C   0  0  0  0  0  0  0  0  0  0  0  0
    5.2769   -2.2771    1.8370 C   0  0  0  0  0  0  0  0  0  0  0  0
    6.6688   -2.5947    1.3025 C   0  0  0  0  0  0  0  0  0  0  0  0
    6.6168   -3.7102    0.4268 O   0  0  0  0  0  0  0  0  0  0  0  0
    1.9677    1.2599   -0.3554 C   0  0  0  0  0  0  0  0  0  0  0  0
    2.9181    2.3405   -0.5880 C   0  0  0  0  0  0  0  0  0  0  0  0
    3.6781    2.8500    0.4707 C   0  0  0  0  0  0  0  0  0  0  0  0
    4.5870    3.8860    0.2494 C   0  0  0  0  0  0  0  0  0  0  0  0
    4.7368    4.4208   -1.0295 C   0  0  0  0  0  0  0  0  0  0  0  0
    3.9768    3.9233   -2.0873 C   0  0  0  0  0  0  0  0  0  0  0  0
    3.0674    2.8871   -1.8674 C   0  0  0  0  0  0  0  0  0  0  0  0
   -0.6483    2.9229   -0.0468 H   0  0  0  0  0  0  0  0  0  0  0  0
    0.6711    3.2466    1.0918 H   0  0  0  0  0  0  0  0  0  0  0  0
   -0.6648    2.2053    1.5782 H   0  0  0  0  0  0  0  0  0  0  0  0
   -1.8906    0.8335   -0.5652 H   0  0  0  0  0  0  0  0  0  0  0  0
   -4.9405    1.5790    0.1897 H   0  0  0  0  0  0  0  0  0  0  0  0
   -3.8277    1.4243   -1.1413 H   0  0  0  0  0  0  0  0  0  0  0  0
   -5.1182   -0.5321   -2.0787 H   0  0  0  0  0  0  0  0  0  0  0  0
   -5.8852    1.0229   -2.0576 H   0  0  0  0  0  0  0  0  0  0  0  0
   -7.3517    0.3363   -0.1156 H   0  0  0  0  0  0  0  0  0  0  0  0
   -7.6097   -0.3947   -1.6754 H   0  0  0  0  0  0  0  0  0  0  0  0
   -8.0027   -2.1509   -0.1859 H   0  0  0  0  0  0  0  0  0  0  0  0
   -6.4712   -2.5048   -0.9469 H   0  0  0  0  0  0  0  0  0  0  0  0
   -6.0690   -3.0971    1.3310 H   0  0  0  0  0  0  0  0  0  0  0  0
   -7.0831   -1.7889    1.9513 H   0  0  0  0  0  0  0  0  0  0  0  0
   -5.7750   -0.2244    1.1563 H   0  0  0  0  0  0  0  0  0  0  0  0
   -4.2078    0.5153    2.4943 H   0  0  0  0  0  0  0  0  0  0  0  0
   -3.2991   -1.0143    2.5244 H   0  0  0  0  0  0  0  0  0  0  0  0
   -3.4032   -2.3889    0.6196 H   0  0  0  0  0  0  0  0  0  0  0  0
   -4.3350   -1.9240   -0.7691 H   0  0  0  0  0  0  0  0  0  0  0  0
    3.7667    0.0343   -1.9883 H   0  0  0  0  0  0  0  0  0  0  0  0
    3.1257   -1.5796   -1.7139 H   0  0  0  0  0  0  0  0  0  0  0  0
    5.4370   -1.1348   -0.7460 H   0  0  0  0  0  0  0  0  0  0  0  0
    4.7244    0.0056    0.3920 H   0  0  0  0  0  0  0  0  0  0  0  0
    3.2561   -1.8647    1.2771 H   0  0  0  0  0  0  0  0  0  0  0  0
    4.0644   -2.9803    0.1857 H   0  0  0  0  0  0  0  0  0  0  0  0
    4.9457   -3.1147    2.4636 H   0  0  0  0  0  0  0  0  0  0  0  0
    5.3337   -1.3953    2.4859 H   0  0  0  0  0  0  0  0  0  0  0  0
    7.3377   -2.8376    2.1346 H   0  0  0  0  0  0  0  0  0  0  0  0
    7.0924   -1.7423    0.7632 H   0  0  0  0  0  0  0  0  0  0  0  0
    7.5317   -3.9176    0.1715 H   0  0  0  0  0  0  0  0  0  0  0  0
    3.5666    2.4404    1.4722 H   0  0  0  0  0  0  0  0  0  0  0  0
    5.1761    4.2768    1.0751 H   0  0  0  0  0  0  0  0  0  0  0  0
    5.4436    5.2289   -1.2011 H   0  0  0  0  0  0  0  0  0  0  0  0
    4.0898    4.3444   -3.0831 H   0  0  0  0  0  0  0  0  0  0  0  0
    2.4746    2.5115   -2.6982 H   0  0  0  0  0  0  0  0  0  0  0  0
  1  2  1  0
  2  3  1  0
  3  4  1  0
  4  5  2  0
  4  6  1  0
  7  6  1  1
  7  8  1  0
  8  9  1  0
  9 10  1  0
 10 11  1  0
 11 12  1  0
 12 13  1  0
 13 14  1  0
 13 15  1  0
  3 16  2  0
 16 17  1  0
 17 18  1  0
 18 19  1  0
 19 20  1  0
 20 21  1  0
 21 22  1  0
 22 23  1  0
 17 24  1  0
 24 25  1  0
 25 26  2  0
 26 27  1  0
 27 28  2  0
 28 29  1  0
 29 30  2  0
 24  2  2  0
 30 25  1  0
 14  7  1  0
 15  7  1  0
  1 31  1  0
  1 32  1  0
  1 33  1  0
  6 34  1  0
  8 35  1  0
  8 36  1  0
  9 37  1  0
  9 38  1  0
 10 39  1  0
 10 40  1  0
 11 41  1  0
 11 42  1  0
 12 43  1  0
 12 44  1  0
 13 45  1  6
 14 46  1  0
 14 47  1  0
 15 48  1  0
 15 49  1  0
 18 50  1  0
 18 51  1  0
 19 52  1  0
 19 53  1  0
 20 54  1  0
 20 55  1  0
 21 56  1  0
 21 57  1  0
 22 58  1  0
 22 59  1  0
 23 60  1  0
 26 61  1  0
 27 62  1  0
 28 63  1  0
 29 64  1  0
 30 65  1  0
M  END
>  <_SMILES>  (58) 
Cc1c(C(=O)N[C@]23CCCCC[C@@H](C2)C3)nn(CCCCCO)c1-c1ccccc1

$$$$

     RDKit          3D

 62 65  0  0  0  0  0  0  0  0999 V2000
    0.2418   -3.8191   -0.0880 C   0  0  0  0  0  0  0  0  0  0  0  0
   -0.2255   -2.4279    0.1438 C   0  0  0  0  0  0  0  0  0  0  0  0
    0.5840   -1.2540    0.2032 C   0  0  0  0  0  0  0  0  0  0  0  0
    2.0502   -1.1511    0.0515 C   0  0  0  0  0  0  0  0  0  0  0  0
    2.7679   -2.1244   -0.1497 O   0  0  0  0  0  0  0  0  0  0  0  0
    2.4957    0.1536    0.1617 N   0  0  0  0  0  0  0  0  0  0  0  0
    3.8876    0.6494    0.0569 C   0  0  2  0  0  0  0  0  0  0  0  0
    3.8578    2.1737    0.2600 C   0  0  0  0  0  0  0  0  0  0  0  0
    5.2068    2.8251    0.5755 C   0  0  0  0  0  0  0  0  0  0  0  0
    6.3071    2.5276   -0.4354 C   0  0  0  0  0  0  0  0  0  0  0  0
    6.9150    1.1325   -0.3018 C   0  0  0  0  0  0  0  0  0  0  0  0
    5.8997   -0.0080   -0.3272 C   0  0  2  0  0  0  0  0  0  0  0  0
    4.6434    0.1623   -1.2179 C   0  0  0  0  0  0  0  0  0  0  0  0
    4.9403   -0.1334    0.8899 C   0  0  0  0  0  0  0  0  0  0  0  0
   -0.1654   -0.1545    0.4275 N   0  0  0  0  0  0  0  0  0  0  0  0
   -1.4266   -0.6234    0.5070 N   0  0  0  0  0  0  0  0  0  0  0  0
   -2.5047    0.3205    0.7552 C   0  0  0  0  0  0  0  0  0  0  0  0
   -3.0127    0.9642   -0.5331 C   0  0  0  0  0  0  0  0  0  0  0  0
   -4.1575    1.9376   -0.2509 C   0  0  0  0  0  0  0  0  0  0  0  0
   -4.6739    2.5753   -1.5388 C   0  0  0  0  0  0  0  0  0  0  0  0
   -5.8134    3.5480   -1.2689 C   0  0  0  0  0  0  0  0  0  0  0  0
   -6.2480    4.0974   -2.5045 O   0  0  0  0  0  0  0  0  0  0  0  0
   -1.5234   -1.9834    0.3445 C   0  0  0  0  0  0  0  0  0  0  0  0
   -2.7750   -2.7278    0.3859 C   0  0  0  0  0  0  0  0  0  0  0  0
   -3.2178   -3.2926    1.5869 C   0  0  0  0  0  0  0  0  0  0  0  0
   -4.4203   -4.0004    1.6283 C   0  0  0  0  0  0  0  0  0  0  0  0
   -5.1820   -4.1500    0.4699 C   0  0  0  0  0  0  0  0  0  0  0  0
   -4.7412   -3.5964   -0.7316 C   0  0  0  0  0  0  0  0  0  0  0  0
   -3.5388   -2.8888   -0.7749 C   0  0  0  0  0  0  0  0  0  0  0  0
   -0.5878   -4.5326   -0.0946 H   0  0  0  0  0  0  0  0  0  0  0  0
    0.7529   -3.8947   -1.0531 H   0  0  0  0  0  0  0  0  0  0  0  0
    0.9373   -4.1245    0.7003 H   0  0  0  0  0  0  0  0  0  0  0  0
    1.7233    0.8009    0.3193 H   0  0  0  0  0  0  0  0  0  0  0  0
    3.4257    2.6495   -0.6301 H   0  0  0  0  0  0  0  0  0  0  0  0
    3.1872    2.4197    1.0946 H   0  0  0  0  0  0  0  0  0  0  0  0
    5.0491    3.9110    0.6022 H   0  0  0  0  0  0  0  0  0  0  0  0
    5.5410    2.5487    1.5822 H   0  0  0  0  0  0  0  0  0  0  0  0
    7.1150    3.2569   -0.2952 H   0  0  0  0  0  0  0  0  0  0  0  0
    5.9317    2.6887   -1.4524 H   0  0  0  0  0  0  0  0  0  0  0  0
    7.6250    0.9950   -1.1269 H   0  0  0  0  0  0  0  0  0  0  0  0
    7.5038    1.0725    0.6217 H   0  0  0  0  0  0  0  0  0  0  0  0
    6.4343   -0.9481   -0.5196 H   0  0  0  0  0  0  0  0  0  0  0  0
    4.7150    0.8728   -2.0460 H   0  0  0  0  0  0  0  0  0  0  0  0
    4.2962   -0.7866   -1.6424 H   0  0  0  0  0  0  0  0  0  0  0  0
    5.2752    0.3244    1.8248 H   0  0  0  0  0  0  0  0  0  0  0  0
    4.6860   -1.1739    1.1211 H   0  0  0  0  0  0  0  0  0  0  0  0
   -2.1163    1.0810    1.4434 H   0  0  0  0  0  0  0  0  0  0  0  0
   -3.3097   -0.2057    1.2782 H   0  0  0  0  0  0  0  0  0  0  0  0
   -2.1915    1.4942   -1.0318 H   0  0  0  0  0  0  0  0  0  0  0  0
   -3.3526    0.1888   -1.2300 H   0  0  0  0  0  0  0  0  0  0  0  0
   -3.8130    2.7209    0.4352 H   0  0  0  0  0  0  0  0  0  0  0  0
   -4.9764    1.4062    0.2492 H   0  0  0  0  0  0  0  0  0  0  0  0
   -3.8611    3.1025   -2.0540 H   0  0  0  0  0  0  0  0  0  0  0  0
   -5.0163    1.7996   -2.2354 H   0  0  0  0  0  0  0  0  0  0  0  0
   -5.4834    4.3657   -0.6203 H   0  0  0  0  0  0  0  0  0  0  0  0
   -6.6594    3.0379   -0.7976 H   0  0  0  0  0  0  0  0  0  0  0  0
   -6.9694    4.7181   -2.3043 H   0  0  0  0  0  0  0  0  0  0  0  0
   -2.6269   -3.1871    2.4938 H   0  0  0  0  0  0  0  0  0  0  0  0
   -4.7599   -4.4392    2.5630 H   0  0  0  0  0  0  0  0  0  0  0  0
   -6.1165   -4.7046    0.5019 H   0  0  0  0  0  0  0  0  0  0  0  0
   -5.3307   -3.7205   -1.6365 H   0  0  0  0  0  0  0  0  0  0  0  0
   -3.1987   -2.4693   -1.7190 H   0  0  0  0  0  0  0  0  0  0  0  0
  1  2  1  0
  2  3  1  0
  3  4  1  0
  4  5  2  0
  4  6  1  0
  7  6  1  6
  7  8  1  0
  8  9  1  0
  9 10  1  0
 10 11  1  0
 11 12  1  0
 12 13  1  0
 12 14  1  0
  3 15  2  0
 15 16  1  0
 16 17  1  0
 17 18  1  0
 18 19  1  0
 19 20  1  0
 20 21  1  0
 21 22  1  0
 16 23  1  0
 23 24  1  0
 24 25  2  0
 25 26  1  0
 26 27  2  0
 27 28  1  0
 28 29  2  0
 23  2  2  0
 29 24  1  0
 13  7  1  0
 14  7  1  0
  1 30  1  0
  1 31  1  0
  1 32  1  0
  6 33  1  0
  8 34  1  0
  8 35  1  0
  9 36  1  0
  9 37  1  0
 10 38  1  0
 10 39  1  0
 11 40  1  0
 11 41  1  0
 12 42  1  6
 13 43  1  0
 13 44  1  0
 14 45  1  0
 14 46  1  0
 17 47  1  0
 17 48  1  0
 18 49  1  0
 18 50  1  0
 19 51  1  0
 19 52  1  0
 20 53  1  0
 20 54  1  0
 21 55  1  0
 21 56  1  0
 22 57  1  0
 25 58  1  0
 26 59  1  0
 27 60  1  0
 28 61  1  0
 29 62  1  0
M  END
>  <_SMILES>  (59) 
Cc1c(C(=O)N[C@]23CCCC[C@H](C2)C3)nn(CCCCCO)c1-c1ccccc1

$$$$

     RDKit          3D

 54 58  0  0  0  0  0  0  0  0999 V2000
   -0.8667   -1.9770    0.9795 O   0  0  0  0  0  0  0  0  0  0  0  0
   -0.3691   -0.9459    0.5366 C   0  0  0  0  0  0  0  0  0  0  0  0
   -1.1278    0.1485    0.1489 N   0  0  0  0  0  0  0  0  0  0  0  0
   -2.5860    0.2383    0.2758 C   0  0  2  0  0  0  0  0  0  0  0  0
   -3.0389    1.6107   -0.2950 C   0  0  0  0  0  0  0  0  0  0  0  0
   -4.5627    1.7790   -0.1886 C   0  0  1  0  0  0  0  0  0  0  0  0
   -5.2498    0.6581   -0.9833 C   0  0  0  0  0  0  0  0  0  0  0  0
   -4.8368   -0.7109   -0.4213 C   0  0  2  0  0  0  0  0  0  0  0  0
   -5.2469   -0.7972    1.0588 C   0  0  0  0  0  0  0  0  0  0  0  0
   -4.5644    0.3218    1.8640 C   0  0  2  0  0  0  0  0  0  0  0  0
   -4.9782    1.6851    1.2879 C   0  0  0  0  0  0  0  0  0  0  0  0
   -3.0371    0.1657    1.7555 C   0  0  0  0  0  0  0  0  0  0  0  0
   -3.3098   -0.8681   -0.5333 C   0  0  0  0  0  0  0  0  0  0  0  0
    1.0924   -0.7640    0.3859 C   0  0  0  0  0  0  0  0  0  0  0  0
    1.7910    0.2093   -0.3793 C   0  0  0  0  0  0  0  0  0  0  0  0
    3.1381   -0.0502   -0.2126 C   0  0  0  0  0  0  0  0  0  0  0  0
    4.2879    0.6467   -0.7768 C   0  0  0  0  0  0  0  0  0  0  0  0
    4.5115    1.9932   -0.4643 C   0  0  0  0  0  0  0  0  0  0  0  0
    5.6045    2.6729   -1.0064 C   0  0  0  0  0  0  0  0  0  0  0  0
    6.4777    2.0132   -1.8695 C   0  0  0  0  0  0  0  0  0  0  0  0
    6.2578    0.6757   -2.1935 C   0  0  0  0  0  0  0  0  0  0  0  0
    5.1650   -0.0048   -1.6522 C   0  0  0  0  0  0  0  0  0  0  0  0
    3.1854   -1.1283    0.6380 N   0  0  0  0  0  0  0  0  0  0  0  0
    4.3527   -1.7899    1.1977 C   0  0  0  0  0  0  0  0  0  0  0  0
    4.4289   -3.2625    0.8108 C   0  0  0  0  0  0  0  0  0  0  0  0
    4.6264   -3.4246   -0.5933 O   0  0  0  0  0  0  0  0  0  0  0  0
    1.9687   -1.5761    1.0026 N   0  0  0  0  0  0  0  0  0  0  0  0
   -0.6306    1.0122   -0.0113 H   0  0  0  0  0  0  0  0  0  0  0  0
   -2.7277    1.7038   -1.3442 H   0  0  0  0  0  0  0  0  0  0  0  0
   -2.5403    2.4270    0.2450 H   0  0  0  0  0  0  0  0  0  0  0  0
   -4.8569    2.7534   -0.5941 H   0  0  0  0  0  0  0  0  0  0  0  0
   -4.9753    0.7267   -2.0431 H   0  0  0  0  0  0  0  0  0  0  0  0
   -6.3393    0.7729   -0.9285 H   0  0  0  0  0  0  0  0  0  0  0  0
   -5.3318   -1.5069   -0.9888 H   0  0  0  0  0  0  0  0  0  0  0  0
   -4.9694   -1.7763    1.4682 H   0  0  0  0  0  0  0  0  0  0  0  0
   -6.3367   -0.7115    1.1500 H   0  0  0  0  0  0  0  0  0  0  0  0
   -4.8674    0.2582    2.9151 H   0  0  0  0  0  0  0  0  0  0  0  0
   -6.0631    1.8177    1.3812 H   0  0  0  0  0  0  0  0  0  0  0  0
   -4.5083    2.4930    1.8621 H   0  0  0  0  0  0  0  0  0  0  0  0
   -2.5392    0.9500    2.3406 H   0  0  0  0  0  0  0  0  0  0  0  0
   -2.7422   -0.7881    2.2085 H   0  0  0  0  0  0  0  0  0  0  0  0
   -3.0055   -0.8245   -1.5873 H   0  0  0  0  0  0  0  0  0  0  0  0
   -3.0318   -1.8659   -0.1757 H   0  0  0  0  0  0  0  0  0  0  0  0
    1.3751    0.9877   -1.0030 H   0  0  0  0  0  0  0  0  0  0  0  0
    3.8407    2.5203    0.2101 H   0  0  0  0  0  0  0  0  0  0  0  0
    5.7744    3.7166   -0.7549 H   0  0  0  0  0  0  0  0  0  0  0  0
    7.3286    2.5419   -2.2919 H   0  0  0  0  0  0  0  0  0  0  0  0
    6.9353    0.1604   -2.8699 H   0  0  0  0  0  0  0  0  0  0  0  0
    5.0055   -1.0461   -1.9238 H   0  0  0  0  0  0  0  0  0  0  0  0
    5.2494   -1.2615    0.8645 H   0  0  0  0  0  0  0  0  0  0  0  0
    4.2810   -1.6829    2.2859 H   0  0  0  0  0  0  0  0  0  0  0  0
    3.5337   -3.8203    1.1060 H   0  0  0  0  0  0  0  0  0  0  0  0
    5.2855   -3.7238    1.3125 H   0  0  0  0  0  0  0  0  0  0  0  0
    3.7427   -3.3523   -1.0016 H   0  0  0  0  0  0  0  0  0  0  0  0
  1  2  2  0
  2  3  1  0
  4  3  1  1
  4  5  1  0
  5  6  1  0
  6  7  1  0
  7  8  1  0
  8  9  1  0
  9 10  1  0
 10 11  1  0
 10 12  1  0
  8 13  1  0
  2 14  1  0
 14 15  1  0
 15 16  2  0
 16 17  1  0
 17 18  2  0
 18 19  1  0
 19 20  2  0
 20 21  1  0
 21 22  2  0
 16 23  1  0
 23 24  1  0
 24 25  1  0
 25 26  1  0
 23 27  1  0
 12  4  1  0
 27 14  2  0
 13  4  1  0
 22 17  1  0
 11  6  1  0
  3 28  1  0
  5 29  1  0
  5 30  1  0
  6 31  1  6
  7 32  1  0
  7 33  1  0
  8 34  1  6
  9 35  1  0
  9 36  1  0
 10 37  1  1
 11 38  1  0
 11 39  1  0
 12 40  1  0
 12 41  1  0
 13 42  1  0
 13 43  1  0
 15 44  1  0
 18 45  1  0
 19 46  1  0
 20 47  1  0
 21 48  1  0
 22 49  1  0
 24 50  1  0
 24 51  1  0
 25 52  1  0
 25 53  1  0
 26 54  1  0
M  END
>  <_SMILES>  (60) 
O=C(N[C@]12C[C@H]3C[C@H](C[C@H](C3)C1)C2)c1cc(-c2ccccc2)n(CCO)n1

$$$$

     RDKit          3D

 45 49  0  0  0  0  0  0  0  0999 V2000
    0.4132   -1.4427    0.3223 O   0  0  0  0  0  0  0  0  0  0  0  0
    0.5263   -0.2454    0.0720 C   0  0  0  0  0  0  0  0  0  0  0  0
   -0.5650    0.5979   -0.0709 N   0  0  0  0  0  0  0  0  0  0  0  0
   -1.9705    0.2063    0.0500 C   0  0  2  0  0  0  0  0  0  0  0  0
   -2.2929   -0.3428    1.4620 C   0  0  0  0  0  0  0  0  0  0  0  0
   -3.7859   -0.6982    1.5769 C   0  0  1  0  0  0  0  0  0  0  0  0
   -4.6289    0.5633    1.3327 C   0  0  0  0  0  0  0  0  0  0  0  0
   -4.3451    1.1201   -0.0711 C   0  0  2  0  0  0  0  0  0  0  0  0
   -4.6989    0.0562   -1.1219 C   0  0  0  0  0  0  0  0  0  0  0  0
   -3.8563   -1.2083   -0.8923 C   0  0  2  0  0  0  0  0  0  0  0  0
   -4.1374   -1.7564    0.5172 C   0  0  0  0  0  0  0  0  0  0  0  0
   -2.3633   -0.8533   -1.0093 C   0  0  0  0  0  0  0  0  0  0  0  0
   -2.8514    1.4634   -0.1846 C   0  0  0  0  0  0  0  0  0  0  0  0
    1.8016    0.4226   -0.1022 C   0  0  0  0  0  0  0  0  0  0  0  0
    1.9813    1.7026   -0.3712 N   0  0  0  0  0  0  0  0  0  0  0  0
    3.3468    1.8889   -0.4488 N   0  0  0  0  0  0  0  0  0  0  0  0
    3.9034    0.7135   -0.2225 C   0  0  0  0  0  0  0  0  0  0  0  0
    5.3099    0.3336   -0.1847 C   0  0  0  0  0  0  0  0  0  0  0  0
    6.2980    1.3039   -0.4136 C   0  0  0  0  0  0  0  0  0  0  0  0
    7.6536    0.9665   -0.3832 C   0  0  0  0  0  0  0  0  0  0  0  0
    8.0389   -0.3465   -0.1233 C   0  0  0  0  0  0  0  0  0  0  0  0
    7.0713   -1.3222    0.1061 C   0  0  0  0  0  0  0  0  0  0  0  0
    5.7151   -0.9848    0.0757 C   0  0  0  0  0  0  0  0  0  0  0  0
    2.9772   -0.2710    0.0071 O   0  0  0  0  0  0  0  0  0  0  0  0
   -0.3500    1.5695   -0.2774 H   0  0  0  0  0  0  0  0  0  0  0  0
   -2.0257    0.3995    2.2256 H   0  0  0  0  0  0  0  0  0  0  0  0
   -1.6964   -1.2360    1.6814 H   0  0  0  0  0  0  0  0  0  0  0  0
   -3.9948   -1.0935    2.5773 H   0  0  0  0  0  0  0  0  0  0  0  0
   -4.3975    1.3215    2.0910 H   0  0  0  0  0  0  0  0  0  0  0  0
   -5.6953    0.3270    1.4338 H   0  0  0  0  0  0  0  0  0  0  0  0
   -4.9459    2.0207   -0.2400 H   0  0  0  0  0  0  0  0  0  0  0  0
   -5.7665   -0.1887   -1.0627 H   0  0  0  0  0  0  0  0  0  0  0  0
   -4.5179    0.4495   -2.1298 H   0  0  0  0  0  0  0  0  0  0  0  0
   -4.1151   -1.9650   -1.6414 H   0  0  0  0  0  0  0  0  0  0  0  0
   -5.1944   -2.0364    0.6052 H   0  0  0  0  0  0  0  0  0  0  0  0
   -3.5515   -2.6677    0.6888 H   0  0  0  0  0  0  0  0  0  0  0  0
   -1.7697   -1.7671   -0.8893 H   0  0  0  0  0  0  0  0  0  0  0  0
   -2.1467   -0.4771   -2.0178 H   0  0  0  0  0  0  0  0  0  0  0  0
   -2.6443    1.8895   -1.1755 H   0  0  0  0  0  0  0  0  0  0  0  0
   -2.5953    2.2447    0.5437 H   0  0  0  0  0  0  0  0  0  0  0  0
    6.0155    2.3357   -0.6184 H   0  0  0  0  0  0  0  0  0  0  0  0
    8.4069    1.7297   -0.5626 H   0  0  0  0  0  0  0  0  0  0  0  0
    9.0935   -0.6097   -0.0996 H   0  0  0  0  0  0  0  0  0  0  0  0
    7.3706   -2.3476    0.3091 H   0  0  0  0  0  0  0  0  0  0  0  0
    4.9792   -1.7657    0.2582 H   0  0  0  0  0  0  0  0  0  0  0  0
  1  2  2  0
  2  3  1  0
  4  3  1  1
  4  5  1  0
  5  6  1  0
  6  7  1  0
  7  8  1  0
  8  9  1  0
  9 10  1  0
 10 11  1  0
 10 12  1  0
  8 13  1  0
  2 14  1  0
 14 15  2  0
 15 16  1  0
 16 17  2  0
 17 18  1  0
 18 19  2  0
 19 20  1  0
 20 21  2  0
 21 22  1  0
 22 23  2  0
 17 24  1  0
 12  4  1  0
 24 14  1  0
 13  4  1  0
 23 18  1  0
 11  6  1  0
  3 25  1  0
  5 26  1  0
  5 27  1  0
  6 28  1  1
  7 29  1  0
  7 30  1  0
  8 31  1  6
  9 32  1  0
  9 33  1  0
 10 34  1  6
 11 35  1  0
 11 36  1  0
 12 37  1  0
 12 38  1  0
 13 39  1  0
 13 40  1  0
 19 41  1  0
 20 42  1  0
 21 43  1  0
 22 44  1  0
 23 45  1  0
M  END
>  <_SMILES>  (61) 
O=C(N[C@]12C[C@H]3C[C@H](C[C@H](C3)C1)C2)c1nnc(-c2ccccc2)o1

$$$$

     RDKit          3D

 45 49  0  0  0  0  0  0  0  0999 V2000
   -0.4369    2.1880    1.3671 O   0  0  0  0  0  0  0  0  0  0  0  0
    0.1914    1.2727    0.8392 C   0  0  0  0  0  0  0  0  0  0  0  0
   -0.4640    0.1965    0.2504 N   0  0  0  0  0  0  0  0  0  0  0  0
   -1.9187    0.0202    0.1844 C   0  0  2  0  0  0  0  0  0  0  0  0
   -2.6020    1.1627   -0.6078 C   0  0  0  0  0  0  0  0  0  0  0  0
   -4.1188    0.9211   -0.7069 C   0  0  1  0  0  0  0  0  0  0  0  0
   -4.3754   -0.4063   -1.4371 C   0  0  0  0  0  0  0  0  0  0  0  0
   -3.7259   -1.5642   -0.6637 C   0  0  2  0  0  0  0  0  0  0  0  0
   -4.3259   -1.6330    0.7491 C   0  0  0  0  0  0  0  0  0  0  0  0
   -4.0690   -0.3130    1.4927 C   0  0  2  0  0  0  0  0  0  0  0  0
   -4.7130    0.8441    0.7099 C   0  0  0  0  0  0  0  0  0  0  0  0
   -2.5521   -0.0732    1.5950 C   0  0  0  0  0  0  0  0  0  0  0  0
   -2.2135   -1.3130   -0.5570 C   0  0  0  0  0  0  0  0  0  0  0  0
    1.6514    1.2339    0.7840 C   0  0  0  0  0  0  0  0  0  0  0  0
    2.4131    2.1775    1.2959 N   0  0  0  0  0  0  0  0  0  0  0  0
    3.7562    1.9155    1.1183 N   0  0  0  0  0  0  0  0  0  0  0  0
    3.9834    0.7830    0.4778 C   0  0  0  0  0  0  0  0  0  0  0  0
    5.3268    0.2640    0.1563 C   0  0  0  0  0  0  0  0  0  0  0  0
    5.5506   -0.9424   -0.5289 C   0  0  0  0  0  0  0  0  0  0  0  0
    6.8497   -1.3842   -0.8059 C   0  0  0  0  0  0  0  0  0  0  0  0
    7.9475   -0.6289   -0.4036 C   0  0  0  0  0  0  0  0  0  0  0  0
    7.7500    0.5686    0.2759 C   0  0  0  0  0  0  0  0  0  0  0  0
    6.4525    1.0091    0.5521 C   0  0  0  0  0  0  0  0  0  0  0  0
    2.5312   -0.0422    0.0482 S   0  0  0  0  0  0  0  0  0  0  0  0
    0.1142   -0.5220   -0.1660 H   0  0  0  0  0  0  0  0  0  0  0  0
   -2.4279    2.1330   -0.1285 H   0  0  0  0  0  0  0  0  0  0  0  0
   -2.1686    1.2357   -1.6139 H   0  0  0  0  0  0  0  0  0  0  0  0
   -4.5874    1.7428   -1.2599 H   0  0  0  0  0  0  0  0  0  0  0  0
   -3.9682   -0.3595   -2.4546 H   0  0  0  0  0  0  0  0  0  0  0  0
   -5.4544   -0.5786   -1.5338 H   0  0  0  0  0  0  0  0  0  0  0  0
   -3.9083   -2.5082   -1.1892 H   0  0  0  0  0  0  0  0  0  0  0  0
   -3.8831   -2.4688    1.3047 H   0  0  0  0  0  0  0  0  0  0  0  0
   -5.4041   -1.8261    0.6895 H   0  0  0  0  0  0  0  0  0  0  0  0
   -4.5023   -0.3655    2.4977 H   0  0  0  0  0  0  0  0  0  0  0  0
   -4.5477    1.7914    1.2377 H   0  0  0  0  0  0  0  0  0  0  0  0
   -5.7985    0.6973    0.6521 H   0  0  0  0  0  0  0  0  0  0  0  0
   -2.0830   -0.8851    2.1661 H   0  0  0  0  0  0  0  0  0  0  0  0
   -2.3759    0.8448    2.1673 H   0  0  0  0  0  0  0  0  0  0  0  0
   -1.7361   -2.1505   -0.0307 H   0  0  0  0  0  0  0  0  0  0  0  0
   -1.7707   -1.2914   -1.5619 H   0  0  0  0  0  0  0  0  0  0  0  0
    4.7268   -1.5670   -0.8635 H   0  0  0  0  0  0  0  0  0  0  0  0
    7.0026   -2.3205   -1.3373 H   0  0  0  0  0  0  0  0  0  0  0  0
    8.9559   -0.9729   -0.6193 H   0  0  0  0  0  0  0  0  0  0  0  0
    8.6028    1.1638    0.5931 H   0  0  0  0  0  0  0  0  0  0  0  0
    6.3252    1.9509    1.0859 H   0  0  0  0  0  0  0  0  0  0  0  0
  1  2  2  0
  2  3  1  0
  4  3  1  1
  4  5  1  0
  5  6  1  0
  6  7  1  0
  7  8  1  0
  8  9  1  0
  9 10  1  0
 10 11  1  0
 10 12  1  0
  8 13  1  0
  2 14  1  0
 14 15  2  0
 15 16  1  0
 16 17  2  0
 17 18  1  0
 18 19  2  0
 19 20  1  0
 20 21  2  0
 21 22  1  0
 22 23  2  0
 17 24  1  0
 12  4  1  0
 24 14  1  0
 13  4  1  0
 23 18  1  0
 11  6  1  0
  3 25  1  0
  5 26  1  0
  5 27  1  0
  6 28  1  6
  7 29  1  0
  7 30  1  0
  8 31  1  6
  9 32  1  0
  9 33  1  0
 10 34  1  1
 11 35  1  0
 11 36  1  0
 12 37  1  0
 12 38  1  0
 13 39  1  0
 13 40  1  0
 19 41  1  0
 20 42  1  0
 21 43  1  0
 22 44  1  0
 23 45  1  0
M  END
>  <_SMILES>  (62) 
O=C(N[C@]12C[C@H]3C[C@H](C[C@H](C3)C1)C2)c1nnc(-c2ccccc2)s1

$$$$

     RDKit          3D

 48 52  0  0  0  0  0  0  0  0999 V2000
   -0.5718   -2.2270   -0.4527 O   0  0  0  0  0  0  0  0  0  0  0  0
   -0.0942   -1.1191   -0.2379 C   0  0  0  0  0  0  0  0  0  0  0  0
   -0.8270    0.0074    0.0780 N   0  0  0  0  0  0  0  0  0  0  0  0
   -2.2835    0.0688    0.2064 C   0  0  2  0  0  0  0  0  0  0  0  0
   -2.9896   -0.3010   -1.1216 C   0  0  0  0  0  0  0  0  0  0  0  0
   -4.5169   -0.1818   -0.9739 C   0  0  1  0  0  0  0  0  0  0  0  0
   -4.9924   -1.1249    0.1445 C   0  0  0  0  0  0  0  0  0  0  0  0
   -4.3249   -0.7448    1.4772 C   0  0  2  0  0  0  0  0  0  0  0  0
   -4.6895    0.7055    1.8313 C   0  0  0  0  0  0  0  0  0  0  0  0
   -4.2090    1.6533    0.7213 C   0  0  2  0  0  0  0  0  0  0  0  0
   -4.8804    1.2652   -0.6054 C   0  0  0  0  0  0  0  0  0  0  0  0
   -2.6849    1.5230    0.5720 C   0  0  0  0  0  0  0  0  0  0  0  0
   -2.7975   -0.8643    1.3307 C   0  0  0  0  0  0  0  0  0  0  0  0
    1.3808   -0.9080   -0.3085 C   0  0  0  0  0  0  0  0  0  0  0  0
    2.2396   -1.9471   -0.6145 C   0  0  0  0  0  0  0  0  0  0  0  0
    3.6066   -1.6793   -0.6639 C   0  0  0  0  0  0  0  0  0  0  0  0
    4.0636   -0.3879   -0.4098 C   0  0  0  0  0  0  0  0  0  0  0  0
    5.4884   -0.0040   -0.4363 C   0  0  0  0  0  0  0  0  0  0  0  0
    6.4182   -0.6357   -1.2839 C   0  0  0  0  0  0  0  0  0  0  0  0
    7.7667   -0.2623   -1.2935 C   0  0  0  0  0  0  0  0  0  0  0  0
    8.2158    0.7548   -0.4570 C   0  0  0  0  0  0  0  0  0  0  0  0
    7.3178    1.4021    0.3852 C   0  0  0  0  0  0  0  0  0  0  0  0
    5.9707    1.0275    0.3923 C   0  0  0  0  0  0  0  0  0  0  0  0
    3.1803    0.5971   -0.1065 N   0  0  0  0  0  0  0  0  0  0  0  0
    1.8299    0.3429   -0.0557 N   0  0  0  0  0  0  0  0  0  0  0  0
   -0.2900    0.8585    0.2261 H   0  0  0  0  0  0  0  0  0  0  0  0
   -2.6402    0.3545   -1.9301 H   0  0  0  0  0  0  0  0  0  0  0  0
   -2.7392   -1.3239   -1.4266 H   0  0  0  0  0  0  0  0  0  0  0  0
   -5.0010   -0.4548   -1.9182 H   0  0  0  0  0  0  0  0  0  0  0  0
   -4.7508   -2.1634   -0.1130 H   0  0  0  0  0  0  0  0  0  0  0  0
   -6.0834   -1.0671    0.2432 H   0  0  0  0  0  0  0  0  0  0  0  0
   -4.6729   -1.4168    2.2696 H   0  0  0  0  0  0  0  0  0  0  0  0
   -4.2306    0.9846    2.7878 H   0  0  0  0  0  0  0  0  0  0  0  0
   -5.7749    0.7984    1.9599 H   0  0  0  0  0  0  0  0  0  0  0  0
   -4.4689    2.6861    0.9789 H   0  0  0  0  0  0  0  0  0  0  0  0
   -5.9690    1.3678   -0.5187 H   0  0  0  0  0  0  0  0  0  0  0  0
   -4.5588    1.9471   -1.4022 H   0  0  0  0  0  0  0  0  0  0  0  0
   -2.3282    2.2183   -0.1998 H   0  0  0  0  0  0  0  0  0  0  0  0
   -2.1944    1.8262    1.5068 H   0  0  0  0  0  0  0  0  0  0  0  0
   -2.5397   -1.9091    1.1209 H   0  0  0  0  0  0  0  0  0  0  0  0
   -2.3102   -0.6131    2.2819 H   0  0  0  0  0  0  0  0  0  0  0  0
    1.8583   -2.9449   -0.8061 H   0  0  0  0  0  0  0  0  0  0  0  0
    4.2970   -2.4872   -0.8832 H   0  0  0  0  0  0  0  0  0  0  0  0
    6.1032   -1.4200   -1.9685 H   0  0  0  0  0  0  0  0  0  0  0  0
    8.4639   -0.7633   -1.9604 H   0  0  0  0  0  0  0  0  0  0  0  0
    9.2626    1.0469   -0.4654 H   0  0  0  0  0  0  0  0  0  0  0  0
    7.6606    2.2013    1.0375 H   0  0  0  0  0  0  0  0  0  0  0  0
    5.2898    1.5518    1.0621 H   0  0  0  0  0  0  0  0  0  0  0  0
  1  2  2  0
  2  3  1  0
  4  3  1  6
  4  5  1  0
  5  6  1  0
  6  7  1  0
  7  8  1  0
  8  9  1  0
  9 10  1  0
 10 11  1  0
 10 12  1  0
  8 13  1  0
  2 14  1  0
 14 15  2  0
 15 16  1  0
 16 17  2  0
 17 18  1  0
 18 19  2  0
 19 20  1  0
 20 21  2  0
 21 22  1  0
 22 23  2  0
 17 24  1  0
 24 25  2  0
 12  4  1  0
 25 14  1  0
 13  4  1  0
 23 18  1  0
 11  6  1  0
  3 26  1  0
  5 27  1  0
  5 28  1  0
  6 29  1  6
  7 30  1  0
  7 31  1  0
  8 32  1  1
  9 33  1  0
  9 34  1  0
 10 35  1  1
 11 36  1  0
 11 37  1  0
 12 38  1  0
 12 39  1  0
 13 40  1  0
 13 41  1  0
 15 42  1  0
 16 43  1  0
 19 44  1  0
 20 45  1  0
 21 46  1  0
 22 47  1  0
 23 48  1  0
M  END
>  <_SMILES>  (63) 
O=C(N[C@]12C[C@H]3C[C@H](C[C@H](C3)C1)C2)c1ccc(-c2ccccc2)nn1

$$$$

     RDKit          3D

 47 51  0  0  0  0  0  0  0  0999 V2000
    0.0696    1.5613   -1.0412 O   0  0  0  0  0  0  0  0  0  0  0  0
    0.2691    0.5100   -0.4431 C   0  0  0  0  0  0  0  0  0  0  0  0
   -0.7193   -0.3136    0.0494 N   0  0  0  0  0  0  0  0  0  0  0  0
   -2.1577   -0.0900   -0.0501 C   0  0  2  0  0  0  0  0  0  0  0  0
   -2.6261   -0.0381   -1.5254 C   0  0  0  0  0  0  0  0  0  0  0  0
   -4.1515    0.1503   -1.6027 C   0  0  1  0  0  0  0  0  0  0  0  0
   -4.8452   -1.0290   -0.9028 C   0  0  0  0  0  0  0  0  0  0  0  0
   -4.4141   -1.0920    0.5708 C   0  0  2  0  0  0  0  0  0  0  0  0
   -4.8017    0.2199    1.2711 C   0  0  0  0  0  0  0  0  0  0  0  0
   -4.1077    1.4065    0.5839 C   0  0  2  0  0  0  0  0  0  0  0  0
   -4.5365    1.4593   -0.8924 C   0  0  0  0  0  0  0  0  0  0  0  0
   -2.5823    1.2184    0.6617 C   0  0  0  0  0  0  0  0  0  0  0  0
   -2.8892   -1.2703    0.6428 C   0  0  0  0  0  0  0  0  0  0  0  0
    1.6230   -0.0056   -0.1778 C   0  0  0  0  0  0  0  0  0  0  0  0
    2.8525    0.5969   -0.5453 C   0  0  0  0  0  0  0  0  0  0  0  0
    3.8474   -0.2402   -0.0801 C   0  0  0  0  0  0  0  0  0  0  0  0
    5.3040   -0.1576   -0.1656 C   0  0  0  0  0  0  0  0  0  0  0  0
    6.1246   -0.6975    0.8354 C   0  0  0  0  0  0  0  0  0  0  0  0
    7.5169   -0.6136    0.7389 C   0  0  0  0  0  0  0  0  0  0  0  0
    8.1050    0.0121   -0.3576 C   0  0  0  0  0  0  0  0  0  0  0  0
    7.3027    0.5579   -1.3562 C   0  0  0  0  0  0  0  0  0  0  0  0
    5.9111    0.4754   -1.2593 C   0  0  0  0  0  0  0  0  0  0  0  0
    3.1730   -1.2799    0.5063 N   0  0  0  0  0  0  0  0  0  0  0  0
    1.8332   -1.1669    0.4762 N   0  0  0  0  0  0  0  0  0  0  0  0
   -0.3649   -1.1461    0.5155 H   0  0  0  0  0  0  0  0  0  0  0  0
   -2.1367    0.7832   -2.0624 H   0  0  0  0  0  0  0  0  0  0  0  0
   -2.3369   -0.9604   -2.0460 H   0  0  0  0  0  0  0  0  0  0  0  0
   -4.4651    0.1931   -2.6517 H   0  0  0  0  0  0  0  0  0  0  0  0
   -5.9343   -0.9170   -0.9703 H   0  0  0  0  0  0  0  0  0  0  0  0
   -4.5898   -1.9681   -1.4089 H   0  0  0  0  0  0  0  0  0  0  0  0
   -4.9092   -1.9352    1.0652 H   0  0  0  0  0  0  0  0  0  0  0  0
   -4.5149    0.1793    2.3291 H   0  0  0  0  0  0  0  0  0  0  0  0
   -5.8900    0.3535    1.2411 H   0  0  0  0  0  0  0  0  0  0  0  0
   -4.3902    2.3394    1.0843 H   0  0  0  0  0  0  0  0  0  0  0  0
   -5.6198    1.6173   -0.9615 H   0  0  0  0  0  0  0  0  0  0  0  0
   -4.0582    2.3111   -1.3913 H   0  0  0  0  0  0  0  0  0  0  0  0
   -2.2615    1.1982    1.7116 H   0  0  0  0  0  0  0  0  0  0  0  0
   -2.0913    2.0875    0.2080 H   0  0  0  0  0  0  0  0  0  0  0  0
   -2.5746   -1.3454    1.6924 H   0  0  0  0  0  0  0  0  0  0  0  0
   -2.6051   -2.2201    0.1699 H   0  0  0  0  0  0  0  0  0  0  0  0
    2.9765    1.5326   -1.0737 H   0  0  0  0  0  0  0  0  0  0  0  0
    5.6981   -1.1707    1.7159 H   0  0  0  0  0  0  0  0  0  0  0  0
    8.1421   -1.0306    1.5245 H   0  0  0  0  0  0  0  0  0  0  0  0
    9.1874    0.0789   -0.4317 H   0  0  0  0  0  0  0  0  0  0  0  0
    7.7578    1.0491   -2.2125 H   0  0  0  0  0  0  0  0  0  0  0  0
    5.3065    0.9036   -2.0557 H   0  0  0  0  0  0  0  0  0  0  0  0
    3.5732   -2.1069    0.9351 H   0  0  0  0  0  0  0  0  0  0  0  0
  1  2  2  0
  2  3  1  0
  4  3  1  6
  4  5  1  0
  5  6  1  0
  6  7  1  0
  7  8  1  0
  8  9  1  0
  9 10  1  0
 10 11  1  0
 10 12  1  0
  8 13  1  0
  2 14  1  0
 14 15  1  0
 15 16  2  0
 16 17  1  0
 17 18  2  0
 18 19  1  0
 19 20  2  0
 20 21  1  0
 21 22  2  0
 16 23  1  0
 23 24  1  0
 12  4  1  0
 24 14  2  0
 13  4  1  0
 22 17  1  0
 11  6  1  0
  3 25  1  0
  5 26  1  0
  5 27  1  0
  6 28  1  6
  7 29  1  0
  7 30  1  0
  8 31  1  1
  9 32  1  0
  9 33  1  0
 10 34  1  1
 11 35  1  0
 11 36  1  0
 12 37  1  0
 12 38  1  0
 13 39  1  0
 13 40  1  0
 15 41  1  0
 18 42  1  0
 19 43  1  0
 20 44  1  0
 21 45  1  0
 22 46  1  0
 23 47  1  0
M  END
>  <_SMILES>  (64) 
O=C(N[C@]12C[C@H]3C[C@H](C[C@H](C3)C1)C2)c1cc(-c2ccccc2)[nH]n1

$$$$

     RDKit          3D

 47 51  0  0  0  0  0  0  0  0999 V2000
   -0.4406   -1.2271   -2.1984 O   0  0  0  0  0  0  0  0  0  0  0  0
    0.1463   -0.7120   -1.2536 C   0  0  0  0  0  0  0  0  0  0  0  0
   -0.4936   -0.0565   -0.2269 N   0  0  0  0  0  0  0  0  0  0  0  0
   -1.9450    0.1195   -0.1132 C   0  0  2  0  0  0  0  0  0  0  0  0
   -2.2412    0.9125    1.1893 C   0  0  0  0  0  0  0  0  0  0  0  0
   -3.7512    1.1331    1.3711 C   0  0  1  0  0  0  0  0  0  0  0  0
   -4.2934    1.9222    0.1694 C   0  0  0  0  0  0  0  0  0  0  0  0
   -4.0347    1.1429   -1.1295 C   0  0  2  0  0  0  0  0  0  0  0  0
   -4.7331   -0.2253   -1.0481 C   0  0  0  0  0  0  0  0  0  0  0  0
   -4.1968   -1.0234    0.1526 C   0  0  2  0  0  0  0  0  0  0  0  0
   -4.4545   -0.2311    1.4438 C   0  0  0  0  0  0  0  0  0  0  0  0
   -2.6826   -1.2396   -0.0184 C   0  0  0  0  0  0  0  0  0  0  0  0
   -2.5203    0.9292   -1.3020 C   0  0  0  0  0  0  0  0  0  0  0  0
    1.5810   -0.7571   -1.1481 C   0  0  0  0  0  0  0  0  0  0  0  0
    2.4962   -0.2818   -0.2293 C   0  0  0  0  0  0  0  0  0  0  0  0
    3.7836   -0.6626   -0.7094 C   0  0  0  0  0  0  0  0  0  0  0  0
    5.0984   -0.4037   -0.1054 C   0  0  0  0  0  0  0  0  0  0  0  0
    6.2691   -0.8657   -0.7287 C   0  0  0  0  0  0  0  0  0  0  0  0
    7.5265   -0.6276   -0.1669 C   0  0  0  0  0  0  0  0  0  0  0  0
    7.6326    0.0773    1.0287 C   0  0  0  0  0  0  0  0  0  0  0  0
    6.4830    0.5436    1.6618 C   0  0  0  0  0  0  0  0  0  0  0  0
    5.2243    0.3052    1.0992 C   0  0  0  0  0  0  0  0  0  0  0  0
    3.6602   -1.3372   -1.8643 N   0  0  0  0  0  0  0  0  0  0  0  0
    2.3416   -1.3770   -2.0987 N   0  0  0  0  0  0  0  0  0  0  0  0
    0.0772    0.3347    0.5071 H   0  0  0  0  0  0  0  0  0  0  0  0
   -1.7262    1.8824    1.1655 H   0  0  0  0  0  0  0  0  0  0  0  0
   -1.8391    0.3742    2.0582 H   0  0  0  0  0  0  0  0  0  0  0  0
   -3.9349    1.6934    2.2946 H   0  0  0  0  0  0  0  0  0  0  0  0
   -3.8116    2.9064    0.1184 H   0  0  0  0  0  0  0  0  0  0  0  0
   -5.3688    2.1001    0.2920 H   0  0  0  0  0  0  0  0  0  0  0  0
   -4.4267    1.7076   -1.9828 H   0  0  0  0  0  0  0  0  0  0  0  0
   -4.5670   -0.7867   -1.9757 H   0  0  0  0  0  0  0  0  0  0  0  0
   -5.8168   -0.0862   -0.9501 H   0  0  0  0  0  0  0  0  0  0  0  0
   -4.7036   -1.9933    0.2076 H   0  0  0  0  0  0  0  0  0  0  0  0
   -5.5327   -0.0899    1.5882 H   0  0  0  0  0  0  0  0  0  0  0  0
   -4.0887   -0.7963    2.3099 H   0  0  0  0  0  0  0  0  0  0  0  0
   -2.2909   -1.8234    0.8249 H   0  0  0  0  0  0  0  0  0  0  0  0
   -2.5091   -1.8442   -0.9162 H   0  0  0  0  0  0  0  0  0  0  0  0
   -2.0123    1.8995   -1.3785 H   0  0  0  0  0  0  0  0  0  0  0  0
   -2.3402    0.4135   -2.2525 H   0  0  0  0  0  0  0  0  0  0  0  0
    2.2788    0.2686    0.6731 H   0  0  0  0  0  0  0  0  0  0  0  0
    6.2078   -1.4191   -1.6643 H   0  0  0  0  0  0  0  0  0  0  0  0
    8.4193   -0.9945   -0.6665 H   0  0  0  0  0  0  0  0  0  0  0  0
    8.6101    0.2628    1.4660 H   0  0  0  0  0  0  0  0  0  0  0  0
    6.5646    1.0944    2.5954 H   0  0  0  0  0  0  0  0  0  0  0  0
    4.3519    0.6846    1.6221 H   0  0  0  0  0  0  0  0  0  0  0  0
    2.0031   -1.8459   -2.9338 H   0  0  0  0  0  0  0  0  0  0  0  0
  1  2  2  0
  2  3  1  0
  4  3  1  6
  4  5  1  0
  5  6  1  0
  6  7  1  0
  7  8  1  0
  8  9  1  0
  9 10  1  0
 10 11  1  0
 10 12  1  0
  8 13  1  0
  2 14  1  0
 14 15  2  0
 15 16  1  0
 16 17  1  0
 17 18  2  0
 18 19  1  0
 19 20  2  0
 20 21  1  0
 21 22  2  0
 16 23  2  0
 23 24  1  0
 12  4  1  0
 24 14  1  0
 13  4  1  0
 22 17  1  0
 11  6  1  0
  3 25  1  0
  5 26  1  0
  5 27  1  0
  6 28  1  1
  7 29  1  0
  7 30  1  0
  8 31  1  6
  9 32  1  0
  9 33  1  0
 10 34  1  1
 11 35  1  0
 11 36  1  0
 12 37  1  0
 12 38  1  0
 13 39  1  0
 13 40  1  0
 15 41  1  0
 18 42  1  0
 19 43  1  0
 20 44  1  0
 21 45  1  0
 22 46  1  0
 24 47  1  0
M  END
>  <_SMILES>  (65) 
O=C(N[C@]12C[C@H]3C[C@H](C[C@H](C3)C1)C2)c1cc(-c2ccccc2)n[nH]1

$$$$

     RDKit          3D

 55 57  0  0  0  0  0  0  0  0999 V2000
    0.2743   -1.2048    1.9404 C   0  0  0  0  0  0  0  0  0  0  0  0
   -0.6049   -0.3264    1.1254 C   0  0  0  0  0  0  0  0  0  0  0  0
   -0.2597    0.9048    0.4782 C   0  0  0  0  0  0  0  0  0  0  0  0
    1.0548    1.5721    0.4147 C   0  0  0  0  0  0  0  0  0  0  0  0
    1.2049    2.7825    0.5600 O   0  0  0  0  0  0  0  0  0  0  0  0
    2.1113    0.7151    0.1589 N   0  0  0  0  0  0  0  0  0  0  0  0
    3.4891    1.1752    0.1189 C   0  0  0  0  0  0  0  0  0  0  0  0
    4.3382    0.2373   -0.7467 C   0  0  0  0  0  0  0  0  0  0  0  0
    5.8059    0.6557   -0.7602 C   0  0  0  0  0  0  0  0  0  0  0  0
    6.3717    0.7639    0.6525 C   0  0  0  0  0  0  0  0  0  0  0  0
    5.5325    1.6934    1.5238 C   0  0  0  0  0  0  0  0  0  0  0  0
    4.0633    1.2795    1.5383 C   0  0  0  0  0  0  0  0  0  0  0  0
   -1.3353    1.4460   -0.1167 N   0  0  0  0  0  0  0  0  0  0  0  0
   -2.3314    0.5735    0.1066 N   0  0  0  0  0  0  0  0  0  0  0  0
   -3.6388    0.8690   -0.4508 C   0  0  0  0  0  0  0  0  0  0  0  0
   -3.9773    0.0774   -1.7154 C   0  0  0  0  0  0  0  0  0  0  0  0
   -2.9949    0.2318   -2.8785 C   0  0  0  0  0  0  0  0  0  0  0  0
   -2.8219    1.6650   -3.3624 C   0  0  0  0  0  0  0  0  0  0  0  0
   -2.0356    1.6505   -4.5479 O   0  0  0  0  0  0  0  0  0  0  0  0
   -1.9550   -0.5102    0.8604 C   0  0  0  0  0  0  0  0  0  0  0  0
   -2.8473   -1.5915    1.2590 C   0  0  0  0  0  0  0  0  0  0  0  0
   -2.7872   -2.8278    0.6063 C   0  0  0  0  0  0  0  0  0  0  0  0
   -3.6386   -3.8662    0.9876 C   0  0  0  0  0  0  0  0  0  0  0  0
   -4.5483   -3.6763    2.0270 C   0  0  0  0  0  0  0  0  0  0  0  0
   -4.6062   -2.4501    2.6883 C   0  0  0  0  0  0  0  0  0  0  0  0
   -3.7561   -1.4103    2.3074 C   0  0  0  0  0  0  0  0  0  0  0  0
    0.7772   -1.9366    1.3006 H   0  0  0  0  0  0  0  0  0  0  0  0
    1.0356   -0.6215    2.4678 H   0  0  0  0  0  0  0  0  0  0  0  0
   -0.2979   -1.7499    2.6979 H   0  0  0  0  0  0  0  0  0  0  0  0
    1.9092   -0.2597   -0.0126 H   0  0  0  0  0  0  0  0  0  0  0  0
    3.4962    2.1747   -0.3350 H   0  0  0  0  0  0  0  0  0  0  0  0
    4.2581   -0.7920   -0.3727 H   0  0  0  0  0  0  0  0  0  0  0  0
    3.9513    0.2243   -1.7730 H   0  0  0  0  0  0  0  0  0  0  0  0
    5.9049    1.6226   -1.2687 H   0  0  0  0  0  0  0  0  0  0  0  0
    6.3907   -0.0698   -1.3368 H   0  0  0  0  0  0  0  0  0  0  0  0
    7.4036    1.1301    0.6096 H   0  0  0  0  0  0  0  0  0  0  0  0
    6.4047   -0.2328    1.1094 H   0  0  0  0  0  0  0  0  0  0  0  0
    5.6175    2.7208    1.1488 H   0  0  0  0  0  0  0  0  0  0  0  0
    5.9253    1.6936    2.5469 H   0  0  0  0  0  0  0  0  0  0  0  0
    3.4884    2.0034    2.1283 H   0  0  0  0  0  0  0  0  0  0  0  0
    3.9620    0.3140    2.0515 H   0  0  0  0  0  0  0  0  0  0  0  0
   -3.6838    1.9470   -0.6461 H   0  0  0  0  0  0  0  0  0  0  0  0
   -4.3820    0.6677    0.3283 H   0  0  0  0  0  0  0  0  0  0  0  0
   -4.0494   -0.9889   -1.4715 H   0  0  0  0  0  0  0  0  0  0  0  0
   -4.9762    0.3803   -2.0532 H   0  0  0  0  0  0  0  0  0  0  0  0
   -3.3456   -0.3859   -3.7157 H   0  0  0  0  0  0  0  0  0  0  0  0
   -2.0153   -0.1831   -2.6108 H   0  0  0  0  0  0  0  0  0  0  0  0
   -2.3109    2.2811   -2.6180 H   0  0  0  0  0  0  0  0  0  0  0  0
   -3.7889    2.1198   -3.5982 H   0  0  0  0  0  0  0  0  0  0  0  0
   -1.7881    2.5735   -4.7308 H   0  0  0  0  0  0  0  0  0  0  0  0
   -2.0815   -2.9861   -0.2059 H   0  0  0  0  0  0  0  0  0  0  0  0
   -3.5911   -4.8234    0.4746 H   0  0  0  0  0  0  0  0  0  0  0  0
   -5.2098   -4.4860    2.3250 H   0  0  0  0  0  0  0  0  0  0  0  0
   -5.3100   -2.3047    3.5038 H   0  0  0  0  0  0  0  0  0  0  0  0
   -3.8017   -0.4616    2.8375 H   0  0  0  0  0  0  0  0  0  0  0  0
  1  2  1  0
  2  3  1  0
  3  4  1  0
  4  5  2  0
  4  6  1  0
  6  7  1  0
  7  8  1  0
  8  9  1  0
  9 10  1  0
 10 11  1  0
 11 12  1  0
  3 13  2  0
 13 14  1  0
 14 15  1  0
 15 16  1  0
 16 17  1  0
 17 18  1  0
 18 19  1  0
 14 20  1  0
 20 21  1  0
 21 22  2  0
 22 23  1  0
 23 24  2  0
 24 25  1  0
 25 26  2  0
 20  2  2  0
 26 21  1  0
 12  7  1  0
  1 27  1  0
  1 28  1  0
  1 29  1  0
  6 30  1  0
  7 31  1  0
  8 32  1  0
  8 33  1  0
  9 34  1  0
  9 35  1  0
 10 36  1  0
 10 37  1  0
 11 38  1  0
 11 39  1  0
 12 40  1  0
 12 41  1  0
 15 42  1  0
 15 43  1  0
 16 44  1  0
 16 45  1  0
 17 46  1  0
 17 47  1  0
 18 48  1  0
 18 49  1  0
 19 50  1  0
 22 51  1  0
 23 52  1  0
 24 53  1  0
 25 54  1  0
 26 55  1  0
M  END
>  <_SMILES>  (66) 
Cc1c(C(=O)NC2CCCCC2)nn(CCCCO)c1-c1ccccc1

$$$$

     RDKit          3D

 52 55  0  0  0  0  0  0  0  0999 V2000
    0.2822   -0.9482   -1.4760 C   0  0  0  0  0  0  0  0  0  0  0  0
   -0.4292   -0.1017   -0.4798 C   0  0  0  0  0  0  0  0  0  0  0  0
    0.0866    1.0186    0.2308 C   0  0  0  0  0  0  0  0  0  0  0  0
    1.4565    1.5671    0.2156 C   0  0  0  0  0  0  0  0  0  0  0  0
    1.7006    2.7695    0.1670 O   0  0  0  0  0  0  0  0  0  0  0  0
    2.4514    0.6066    0.2767 N   0  0  0  0  0  0  0  0  0  0  0  0
    3.8645    0.9503    0.2011 C   0  0  0  0  0  0  0  0  0  0  0  0
    4.2602    1.2204   -1.2626 C   0  0  0  0  0  0  0  0  0  0  0  0
    5.7239    0.8942   -1.5282 C   0  0  0  0  0  0  0  0  0  0  0  0
    6.0305   -0.5808   -1.2636 C   0  0  0  0  0  0  0  0  0  0  0  0
    5.1724   -1.1934   -0.1545 C   0  0  0  0  0  0  0  0  0  0  0  0
    4.7224   -0.1451    0.8570 C   0  0  0  0  0  0  0  0  0  0  0  0
   -0.8715    1.5997    0.9608 N   0  0  0  0  0  0  0  0  0  0  0  0
   -1.9837    0.8328    0.8207 N   0  0  0  0  0  0  0  0  0  0  0  0
   -3.1376    1.1663    1.6043 C   0  0  0  0  0  0  0  0  0  0  0  0
   -3.1651    2.4059    2.2711 C   0  0  0  0  0  0  0  0  0  0  0  0
   -4.2655    2.7793    3.0473 C   0  0  0  0  0  0  0  0  0  0  0  0
   -5.3493    1.9173    3.1775 C   0  0  0  0  0  0  0  0  0  0  0  0
   -5.3284    0.6804    2.5385 C   0  0  0  0  0  0  0  0  0  0  0  0
   -4.2280    0.3024    1.7596 C   0  0  0  0  0  0  0  0  0  0  0  0
   -1.7646   -0.1954   -0.0990 C   0  0  0  0  0  0  0  0  0  0  0  0
   -2.7644   -1.1156   -0.6361 C   0  0  0  0  0  0  0  0  0  0  0  0
   -3.7527   -0.6529   -1.5144 C   0  0  0  0  0  0  0  0  0  0  0  0
   -4.6934   -1.5383   -2.0434 C   0  0  0  0  0  0  0  0  0  0  0  0
   -4.6460   -2.8905   -1.7065 C   0  0  0  0  0  0  0  0  0  0  0  0
   -3.6566   -3.3611   -0.8441 C   0  0  0  0  0  0  0  0  0  0  0  0
   -2.7146   -2.4779   -0.3135 C   0  0  0  0  0  0  0  0  0  0  0  0
    0.7529   -1.8023   -0.9791 H   0  0  0  0  0  0  0  0  0  0  0  0
   -0.4020   -1.3307   -2.2400 H   0  0  0  0  0  0  0  0  0  0  0  0
    1.0576   -0.3788   -1.9979 H   0  0  0  0  0  0  0  0  0  0  0  0
    2.1840   -0.3638    0.3589 H   0  0  0  0  0  0  0  0  0  0  0  0
    4.0034    1.8726    0.7796 H   0  0  0  0  0  0  0  0  0  0  0  0
    3.6380    0.6250   -1.9444 H   0  0  0  0  0  0  0  0  0  0  0  0
    4.0602    2.2703   -1.5084 H   0  0  0  0  0  0  0  0  0  0  0  0
    5.9880    1.1446   -2.5618 H   0  0  0  0  0  0  0  0  0  0  0  0
    6.3552    1.5201   -0.8848 H   0  0  0  0  0  0  0  0  0  0  0  0
    5.8840   -1.1618   -2.1822 H   0  0  0  0  0  0  0  0  0  0  0  0
    7.0927   -0.6777   -1.0079 H   0  0  0  0  0  0  0  0  0  0  0  0
    5.7358   -1.9880    0.3477 H   0  0  0  0  0  0  0  0  0  0  0  0
    4.2895   -1.6705   -0.5983 H   0  0  0  0  0  0  0  0  0  0  0  0
    5.6153    0.3163    1.2990 H   0  0  0  0  0  0  0  0  0  0  0  0
    4.1812   -0.6252    1.6810 H   0  0  0  0  0  0  0  0  0  0  0  0
   -2.3339    3.1053    2.1869 H   0  0  0  0  0  0  0  0  0  0  0  0
   -4.2705    3.7439    3.5483 H   0  0  0  0  0  0  0  0  0  0  0  0
   -6.2051    2.2054    3.7820 H   0  0  0  0  0  0  0  0  0  0  0  0
   -6.1683   -0.0010    2.6516 H   0  0  0  0  0  0  0  0  0  0  0  0
   -4.2576   -0.6881    1.3237 H   0  0  0  0  0  0  0  0  0  0  0  0
   -3.7959    0.3986   -1.7908 H   0  0  0  0  0  0  0  0  0  0  0  0
   -5.4612   -1.1724   -2.7205 H   0  0  0  0  0  0  0  0  0  0  0  0
   -5.3790   -3.5788   -2.1202 H   0  0  0  0  0  0  0  0  0  0  0  0
   -3.6180   -4.4163   -0.5860 H   0  0  0  0  0  0  0  0  0  0  0  0
   -1.9471   -2.8566    0.3574 H   0  0  0  0  0  0  0  0  0  0  0  0
  1  2  1  0
  2  3  1  0
  3  4  1  0
  4  5  2  0
  4  6  1  0
  6  7  1  0
  7  8  1  0
  8  9  1  0
  9 10  1  0
 10 11  1  0
 11 12  1  0
  3 13  2  0
 13 14  1  0
 14 15  1  0
 15 16  2  0
 16 17  1  0
 17 18  2  0
 18 19  1  0
 19 20  2  0
 14 21  1  0
 21 22  1  0
 22 23  2  0
 23 24  1  0
 24 25  2  0
 25 26  1  0
 26 27  2  0
 21  2  2  0
 27 22  1  0
 12  7  1  0
 20 15  1  0
  1 28  1  0
  1 29  1  0
  1 30  1  0
  6 31  1  0
  7 32  1  0
  8 33  1  0
  8 34  1  0
  9 35  1  0
  9 36  1  0
 10 37  1  0
 10 38  1  0
 11 39  1  0
 11 40  1  0
 12 41  1  0
 12 42  1  0
 16 43  1  0
 17 44  1  0
 18 45  1  0
 19 46  1  0
 20 47  1  0
 23 48  1  0
 24 49  1  0
 25 50  1  0
 26 51  1  0
 27 52  1  0
M  END
>  <_SMILES>  (67) 
Cc1c(C(=O)NC2CCCCC2)nn(-c2ccccc2)c1-c1ccccc1

$$$$

     RDKit          3D

 59 63  0  0  0  0  0  0  0  0999 V2000
    5.9612   -2.2580    0.7287 C   0  0  0  0  0  0  0  0  0  0  0  0
    4.6220   -2.8094    0.2635 C   0  0  0  0  0  0  0  0  0  0  0  0
    3.6747   -1.7324   -0.2668 C   0  0  0  0  0  0  0  0  0  0  0  0
    3.2143   -0.7541    0.8125 C   0  0  0  0  0  0  0  0  0  0  0  0
    2.2702    0.2234    0.2918 N   0  0  0  0  0  0  0  0  0  0  0  0
    0.9493   -0.0535    0.3561 N   0  0  0  0  0  0  0  0  0  0  0  0
    0.3617    1.0059   -0.2381 C   0  0  0  0  0  0  0  0  0  0  0  0
   -1.0999    1.1037   -0.3879 C   0  0  0  0  0  0  0  0  0  0  0  0
   -1.6461    2.0582   -0.9294 O   0  0  0  0  0  0  0  0  0  0  0  0
   -1.7609    0.0168    0.1411 N   0  0  0  0  0  0  0  0  0  0  0  0
   -3.2042   -0.1942    0.1525 C   0  0  2  0  0  0  0  0  0  0  0  0
   -3.7824   -0.2598   -1.2828 C   0  0  0  0  0  0  0  0  0  0  0  0
   -5.2968   -0.5308   -1.2444 C   0  0  1  0  0  0  0  0  0  0  0  0
   -5.5551   -1.8738   -0.5434 C   0  0  0  0  0  0  0  0  0  0  0  0
   -5.0093   -1.8298    0.8925 C   0  0  2  0  0  0  0  0  0  0  0  0
   -5.7090   -0.7031    1.6688 C   0  0  0  0  0  0  0  0  0  0  0  0
   -5.4516    0.6467    0.9806 C   0  0  2  0  0  0  0  0  0  0  0  0
   -5.9924    0.5937   -0.4585 C   0  0  0  0  0  0  0  0  0  0  0  0
   -3.9372    0.9179    0.9427 C   0  0  0  0  0  0  0  0  0  0  0  0
   -3.4987   -1.5493    0.8492 C   0  0  0  0  0  0  0  0  0  0  0  0
    1.3282    1.9464   -0.6692 C   0  0  0  0  0  0  0  0  0  0  0  0
    2.5543    1.4280   -0.3064 C   0  0  0  0  0  0  0  0  0  0  0  0
    3.8905    1.9658   -0.5160 C   0  0  0  0  0  0  0  0  0  0  0  0
    4.6040    2.5300    0.5475 C   0  0  0  0  0  0  0  0  0  0  0  0
    5.8883    3.0377    0.3424 C   0  0  0  0  0  0  0  0  0  0  0  0
    6.4629    2.9893   -0.9269 C   0  0  0  0  0  0  0  0  0  0  0  0
    5.7533    2.4384   -1.9932 C   0  0  0  0  0  0  0  0  0  0  0  0
    4.4687    1.9309   -1.7895 C   0  0  0  0  0  0  0  0  0  0  0  0
    6.6303   -3.0797    1.0036 H   0  0  0  0  0  0  0  0  0  0  0  0
    5.8481   -1.6159    1.6070 H   0  0  0  0  0  0  0  0  0  0  0  0
    6.4446   -1.6783   -0.0641 H   0  0  0  0  0  0  0  0  0  0  0  0
    4.1454   -3.3555    1.0858 H   0  0  0  0  0  0  0  0  0  0  0  0
    4.8044   -3.5365   -0.5368 H   0  0  0  0  0  0  0  0  0  0  0  0
    2.7973   -2.2268   -0.7033 H   0  0  0  0  0  0  0  0  0  0  0  0
    4.1594   -1.1902   -1.0878 H   0  0  0  0  0  0  0  0  0  0  0  0
    2.7136   -1.2863    1.6302 H   0  0  0  0  0  0  0  0  0  0  0  0
    4.0532   -0.2065    1.2502 H   0  0  0  0  0  0  0  0  0  0  0  0
   -1.1404   -0.6796    0.5490 H   0  0  0  0  0  0  0  0  0  0  0  0
   -3.6004    0.6781   -1.8208 H   0  0  0  0  0  0  0  0  0  0  0  0
   -3.2767   -1.0466   -1.8579 H   0  0  0  0  0  0  0  0  0  0  0  0
   -5.6911   -0.5660   -2.2661 H   0  0  0  0  0  0  0  0  0  0  0  0
   -6.6307   -2.0885   -0.5291 H   0  0  0  0  0  0  0  0  0  0  0  0
   -5.0755   -2.6868   -1.1023 H   0  0  0  0  0  0  0  0  0  0  0  0
   -5.1935   -2.7897    1.3877 H   0  0  0  0  0  0  0  0  0  0  0  0
   -5.3402   -0.6738    2.7014 H   0  0  0  0  0  0  0  0  0  0  0  0
   -6.7873   -0.8976    1.7212 H   0  0  0  0  0  0  0  0  0  0  0  0
   -5.9556    1.4459    1.5355 H   0  0  0  0  0  0  0  0  0  0  0  0
   -7.0762    0.4247   -0.4444 H   0  0  0  0  0  0  0  0  0  0  0  0
   -5.8271    1.5569   -0.9567 H   0  0  0  0  0  0  0  0  0  0  0  0
   -3.7612    1.9006    0.4892 H   0  0  0  0  0  0  0  0  0  0  0  0
   -3.5427    0.9769    1.9656 H   0  0  0  0  0  0  0  0  0  0  0  0
   -3.0939   -1.5446    1.8702 H   0  0  0  0  0  0  0  0  0  0  0  0
   -2.9861   -2.3645    0.3210 H   0  0  0  0  0  0  0  0  0  0  0  0
    1.1409    2.8835   -1.1759 H   0  0  0  0  0  0  0  0  0  0  0  0
    4.1613    2.5842    1.5395 H   0  0  0  0  0  0  0  0  0  0  0  0
    6.4375    3.4766    1.1714 H   0  0  0  0  0  0  0  0  0  0  0  0
    7.4616    3.3879   -1.0872 H   0  0  0  0  0  0  0  0  0  0  0  0
    6.1980    2.4073   -2.9846 H   0  0  0  0  0  0  0  0  0  0  0  0
    3.9230    1.5062   -2.6292 H   0  0  0  0  0  0  0  0  0  0  0  0
  1  2  1  0
  2  3  1  0
  3  4  1  0
  4  5  1  0
  5  6  1  0
  6  7  2  0
  7  8  1  0
  8  9  2  0
  8 10  1  0
 11 10  1  6
 11 12  1  0
 12 13  1  0
 13 14  1  0
 14 15  1  0
 15 16  1  0
 16 17  1  0
 17 18  1  0
 17 19  1  0
 15 20  1  0
  7 21  1  0
 21 22  2  0
 22 23  1  0
 23 24  2  0
 24 25  1  0
 25 26  2  0
 26 27  1  0
 27 28  2  0
 22  5  1  0
 28 23  1  0
 19 11  1  0
 20 11  1  0
 18 13  1  0
  1 29  1  0
  1 30  1  0
  1 31  1  0
  2 32  1  0
  2 33  1  0
  3 34  1  0
  3 35  1  0
  4 36  1  0
  4 37  1  0
 10 38  1  0
 12 39  1  0
 12 40  1  0
 13 41  1  6
 14 42  1  0
 14 43  1  0
 15 44  1  1
 16 45  1  0
 16 46  1  0
 17 47  1  1
 18 48  1  0
 18 49  1  0
 19 50  1  0
 19 51  1  0
 20 52  1  0
 20 53  1  0
 21 54  1  0
 24 55  1  0
 25 56  1  0
 26 57  1  0
 27 58  1  0
 28 59  1  0
M  END
>  <_SMILES>  (68) 
CCCCn1nc(C(=O)N[C@]23C[C@H]4C[C@H](C[C@H](C4)C2)C3)cc1-c1ccccc1

$$$$

     RDKit          3D

 52 54  0  0  0  0  0  0  0  0999 V2000
    0.0045    1.5109   -1.0022 C   0  0  0  0  0  0  0  0  0  0  0  0
   -0.7270    0.5239   -0.1655 C   0  0  0  0  0  0  0  0  0  0  0  0
   -0.2138   -0.6723    0.4357 C   0  0  0  0  0  0  0  0  0  0  0  0
    1.1654   -1.1971    0.4109 C   0  0  0  0  0  0  0  0  0  0  0  0
    1.4255   -2.3858    0.2455 O   0  0  0  0  0  0  0  0  0  0  0  0
    2.1437   -0.2378    0.6058 N   0  0  0  0  0  0  0  0  0  0  0  0
    3.5605   -0.5535    0.5326 C   0  0  0  0  0  0  0  0  0  0  0  0
    4.0426   -0.5756   -0.9203 C   0  0  0  0  0  0  0  0  0  0  0  0
    5.5071   -1.0070   -1.0288 C   0  0  0  0  0  0  0  0  0  0  0  0
    6.3383   -0.6716    0.2104 C   0  0  0  0  0  0  0  0  0  0  0  0
    5.8328    0.5841    0.9060 C   0  0  0  0  0  0  0  0  0  0  0  0
    4.3811    0.4406    1.3707 C   0  0  0  0  0  0  0  0  0  0  0  0
   -1.1906   -1.3427    1.0709 N   0  0  0  0  0  0  0  0  0  0  0  0
   -2.2909   -0.5856    0.9066 N   0  0  0  0  0  0  0  0  0  0  0  0
   -3.5394   -1.0595    1.4767 C   0  0  0  0  0  0  0  0  0  0  0  0
   -4.3067   -2.0087    0.5573 C   0  0  0  0  0  0  0  0  0  0  0  0
   -3.5048   -3.2150    0.0787 C   0  0  0  0  0  0  0  0  0  0  0  0
   -2.8188   -3.8296    1.1574 O   0  0  0  0  0  0  0  0  0  0  0  0
   -2.0718    0.5534    0.1758 C   0  0  0  0  0  0  0  0  0  0  0  0
   -3.1040    1.5249   -0.1590 C   0  0  0  0  0  0  0  0  0  0  0  0
   -3.8133    1.4132   -1.3597 C   0  0  0  0  0  0  0  0  0  0  0  0
   -4.8044    2.3430   -1.6785 C   0  0  0  0  0  0  0  0  0  0  0  0
   -5.0874    3.3892   -0.8012 C   0  0  0  0  0  0  0  0  0  0  0  0
   -4.3788    3.5094    0.3938 C   0  0  0  0  0  0  0  0  0  0  0  0
   -3.3872    2.5806    0.7143 C   0  0  0  0  0  0  0  0  0  0  0  0
   -0.6651    2.0124   -1.7079 H   0  0  0  0  0  0  0  0  0  0  0  0
    0.7887    1.0244   -1.5908 H   0  0  0  0  0  0  0  0  0  0  0  0
    0.4666    2.2755   -0.3699 H   0  0  0  0  0  0  0  0  0  0  0  0
    1.8564    0.7153    0.7764 H   0  0  0  0  0  0  0  0  0  0  0  0
    3.6962   -1.5586    0.9536 H   0  0  0  0  0  0  0  0  0  0  0  0
    3.4231   -1.2419   -1.5327 H   0  0  0  0  0  0  0  0  0  0  0  0
    3.9258    0.4260   -1.3558 H   0  0  0  0  0  0  0  0  0  0  0  0
    5.5630   -2.0879   -1.2060 H   0  0  0  0  0  0  0  0  0  0  0  0
    5.9485   -0.5301   -1.9124 H   0  0  0  0  0  0  0  0  0  0  0  0
    6.2993   -1.5129    0.9139 H   0  0  0  0  0  0  0  0  0  0  0  0
    7.3899   -0.5521   -0.0737 H   0  0  0  0  0  0  0  0  0  0  0  0
    5.9078    1.4315    0.2127 H   0  0  0  0  0  0  0  0  0  0  0  0
    6.4707    0.8268    1.7635 H   0  0  0  0  0  0  0  0  0  0  0  0
    4.3608    0.1110    2.4175 H   0  0  0  0  0  0  0  0  0  0  0  0
    3.9196    1.4366    1.3664 H   0  0  0  0  0  0  0  0  0  0  0  0
   -4.1579   -0.1902    1.7225 H   0  0  0  0  0  0  0  0  0  0  0  0
   -3.2978   -1.5466    2.4293 H   0  0  0  0  0  0  0  0  0  0  0  0
   -4.6894   -1.4688   -0.3164 H   0  0  0  0  0  0  0  0  0  0  0  0
   -5.1805   -2.3679    1.1151 H   0  0  0  0  0  0  0  0  0  0  0  0
   -4.1803   -3.9556   -0.3612 H   0  0  0  0  0  0  0  0  0  0  0  0
   -2.7804   -2.9377   -0.6947 H   0  0  0  0  0  0  0  0  0  0  0  0
   -1.9827   -3.3241    1.2713 H   0  0  0  0  0  0  0  0  0  0  0  0
   -3.5967    0.6038   -2.0531 H   0  0  0  0  0  0  0  0  0  0  0  0
   -5.3540    2.2526   -2.6120 H   0  0  0  0  0  0  0  0  0  0  0  0
   -5.8588    4.1137   -1.0506 H   0  0  0  0  0  0  0  0  0  0  0  0
   -4.5973    4.3277    1.0752 H   0  0  0  0  0  0  0  0  0  0  0  0
   -2.8380    2.6854    1.6470 H   0  0  0  0  0  0  0  0  0  0  0  0
  1  2  1  0
  2  3  1  0
  3  4  1  0
  4  5  2  0
  4  6  1  0
  6  7  1  0
  7  8  1  0
  8  9  1  0
  9 10  1  0
 10 11  1  0
 11 12  1  0
  3 13  2  0
 13 14  1  0
 14 15  1  0
 15 16  1  0
 16 17  1  0
 17 18  1  0
 14 19  1  0
 19 20  1  0
 20 21  2  0
 21 22  1  0
 22 23  2  0
 23 24  1  0
 24 25  2  0
 19  2  2  0
 25 20  1  0
 12  7  1  0
  1 26  1  0
  1 27  1  0
  1 28  1  0
  6 29  1  0
  7 30  1  0
  8 31  1  0
  8 32  1  0
  9 33  1  0
  9 34  1  0
 10 35  1  0
 10 36  1  0
 11 37  1  0
 11 38  1  0
 12 39  1  0
 12 40  1  0
 15 41  1  0
 15 42  1  0
 16 43  1  0
 16 44  1  0
 17 45  1  0
 17 46  1  0
 18 47  1  0
 21 48  1  0
 22 49  1  0
 23 50  1  0
 24 51  1  0
 25 52  1  0
M  END
>  <_SMILES>  (69) 
Cc1c(C(=O)NC2CCCCC2)nn(CCCO)c1-c1ccccc1

$$$$

     RDKit          3D

 49 53  0  0  0  0  0  0  0  0999 V2000
   -0.4190   -2.0449   -0.6419 O   0  0  0  0  0  0  0  0  0  0  0  0
   -0.0471   -0.9471   -0.2469 C   0  0  0  0  0  0  0  0  0  0  0  0
   -0.8905    0.0640    0.1700 N   0  0  0  0  0  0  0  0  0  0  0  0
   -2.3569   -0.0282    0.1627 C   0  0  2  0  0  0  0  0  0  0  0  0
   -2.9103   -0.1969   -1.2736 C   0  0  0  0  0  0  0  0  0  0  0  0
   -4.4488   -0.2330   -1.2596 C   0  0  1  0  0  0  0  0  0  0  0  0
   -4.9206   -1.4051   -0.3822 C   0  0  0  0  0  0  0  0  0  0  0  0
   -4.4085   -1.2289    1.0576 C   0  0  2  0  0  0  0  0  0  0  0  0
   -4.9435    0.0935    1.6282 C   0  0  0  0  0  0  0  0  0  0  0  0
   -4.4670    1.2687    0.7610 C   0  0  2  0  0  0  0  0  0  0  0  0
   -4.9828    1.0843   -0.6749 C   0  0  0  0  0  0  0  0  0  0  0  0
   -2.9304    1.2926    0.7453 C   0  0  0  0  0  0  0  0  0  0  0  0
   -2.8698   -1.1936    1.0467 C   0  0  0  0  0  0  0  0  0  0  0  0
    1.4013   -0.6377   -0.2415 C   0  0  0  0  0  0  0  0  0  0  0  0
    2.2489   -1.2660   -1.1505 C   0  0  0  0  0  0  0  0  0  0  0  0
    3.6141   -0.9727   -1.1355 C   0  0  0  0  0  0  0  0  0  0  0  0
    4.1125   -0.0603   -0.2031 C   0  0  0  0  0  0  0  0  0  0  0  0
    5.5424    0.3081   -0.1217 C   0  0  0  0  0  0  0  0  0  0  0  0
    6.5701   -0.5944   -0.4542 C   0  0  0  0  0  0  0  0  0  0  0  0
    7.9178   -0.2257   -0.3764 C   0  0  0  0  0  0  0  0  0  0  0  0
    8.2689    1.0546    0.0404 C   0  0  0  0  0  0  0  0  0  0  0  0
    7.2747    1.9644    0.3849 C   0  0  0  0  0  0  0  0  0  0  0  0
    5.9291    1.5924    0.3066 C   0  0  0  0  0  0  0  0  0  0  0  0
    3.2914    0.5533    0.6910 N   0  0  0  0  0  0  0  0  0  0  0  0
    1.9711    0.2421    0.6639 C   0  0  0  0  0  0  0  0  0  0  0  0
   -0.5063    0.9982    0.2246 H   0  0  0  0  0  0  0  0  0  0  0  0
   -2.5346   -1.1195   -1.7317 H   0  0  0  0  0  0  0  0  0  0  0  0
   -2.5619    0.6261   -1.9113 H   0  0  0  0  0  0  0  0  0  0  0  0
   -4.8237   -0.3619   -2.2811 H   0  0  0  0  0  0  0  0  0  0  0  0
   -4.5564   -2.3534   -0.7962 H   0  0  0  0  0  0  0  0  0  0  0  0
   -6.0163   -1.4566   -0.3853 H   0  0  0  0  0  0  0  0  0  0  0  0
   -4.7536   -2.0642    1.6772 H   0  0  0  0  0  0  0  0  0  0  0  0
   -4.5968    0.2241    2.6606 H   0  0  0  0  0  0  0  0  0  0  0  0
   -6.0398    0.0718    1.6608 H   0  0  0  0  0  0  0  0  0  0  0  0
   -4.8478    2.2100    1.1725 H   0  0  0  0  0  0  0  0  0  0  0  0
   -4.6642    1.9280   -1.2993 H   0  0  0  0  0  0  0  0  0  0  0  0
   -6.0797    1.0798   -0.6814 H   0  0  0  0  0  0  0  0  0  0  0  0
   -2.5511    1.4514    1.7638 H   0  0  0  0  0  0  0  0  0  0  0  0
   -2.5823    2.1493    0.1526 H   0  0  0  0  0  0  0  0  0  0  0  0
   -2.4907   -1.0848    2.0713 H   0  0  0  0  0  0  0  0  0  0  0  0
   -2.4981   -2.1584    0.6835 H   0  0  0  0  0  0  0  0  0  0  0  0
    1.8521   -1.9775   -1.8713 H   0  0  0  0  0  0  0  0  0  0  0  0
    4.2656   -1.4487   -1.8611 H   0  0  0  0  0  0  0  0  0  0  0  0
    6.3368   -1.6113   -0.7613 H   0  0  0  0  0  0  0  0  0  0  0  0
    8.6921   -0.9436   -0.6351 H   0  0  0  0  0  0  0  0  0  0  0  0
    9.3154    1.3407    0.1037 H   0  0  0  0  0  0  0  0  0  0  0  0
    7.5408    2.9639    0.7184 H   0  0  0  0  0  0  0  0  0  0  0  0
    5.1682    2.3205    0.5845 H   0  0  0  0  0  0  0  0  0  0  0  0
    1.3851    0.7324    1.4352 H   0  0  0  0  0  0  0  0  0  0  0  0
  1  2  2  0
  2  3  1  0
  4  3  1  6
  4  5  1  0
  5  6  1  0
  6  7  1  0
  7  8  1  0
  8  9  1  0
  9 10  1  0
 10 11  1  0
 10 12  1  0
  8 13  1  0
  2 14  1  0
 14 15  2  0
 15 16  1  0
 16 17  2  0
 17 18  1  0
 18 19  2  0
 19 20  1  0
 20 21  2  0
 21 22  1  0
 22 23  2  0
 17 24  1  0
 24 25  2  0
 12  4  1  0
 25 14  1  0
 13  4  1  0
 23 18  1  0
 11  6  1  0
  3 26  1  0
  5 27  1  0
  5 28  1  0
  6 29  1  6
  7 30  1  0
  7 31  1  0
  8 32  1  1
  9 33  1  0
  9 34  1  0
 10 35  1  1
 11 36  1  0
 11 37  1  0
 12 38  1  0
 12 39  1  0
 13 40  1  0
 13 41  1  0
 15 42  1  0
 16 43  1  0
 19 44  1  0
 20 45  1  0
 21 46  1  0
 22 47  1  0
 23 48  1  0
 25 49  1  0
M  END
>  <_SMILES>  (70) 
O=C(N[C@]12C[C@H]3C[C@H](C[C@H](C3)C1)C2)c1ccc(-c2ccccc2)nc1

$$$$

     RDKit          3D

 55 58  0  0  0  0  0  0  0  0999 V2000
    0.5655   -1.1148   -1.7642 C   0  0  0  0  0  0  0  0  0  0  0  0
   -0.3097   -0.1294   -1.0776 C   0  0  0  0  0  0  0  0  0  0  0  0
    0.0591    1.1425   -0.5300 C   0  0  0  0  0  0  0  0  0  0  0  0
    1.3985    1.7587   -0.4692 C   0  0  0  0  0  0  0  0  0  0  0  0
    1.6117    2.9381   -0.7374 O   0  0  0  0  0  0  0  0  0  0  0  0
    2.4007    0.8911   -0.0691 N   0  0  0  0  0  0  0  0  0  0  0  0
    3.7979    1.2878   -0.0323 C   0  0  0  0  0  0  0  0  0  0  0  0
    4.5735    0.4442    0.9927 C   0  0  0  0  0  0  0  0  0  0  0  0
    6.0726    0.3449    0.6980 C   0  0  0  0  0  0  0  0  0  0  0  0
    6.5843    1.5487   -0.0799 C   0  0  0  0  0  0  0  0  0  0  0  0
    5.8763    1.6957   -1.4276 C   0  0  0  0  0  0  0  0  0  0  0  0
    4.4334    1.1852   -1.4213 C   0  0  0  0  0  0  0  0  0  0  0  0
   -1.0157    1.7805   -0.0378 N   0  0  0  0  0  0  0  0  0  0  0  0
   -2.0413    0.9262   -0.2228 N   0  0  0  0  0  0  0  0  0  0  0  0
   -3.3791    1.3295    0.2020 C   0  0  0  0  0  0  0  0  0  0  0  0
   -3.7678    0.7145    1.5249 C   0  0  0  0  0  0  0  0  0  0  0  0
   -3.0755    1.0484    2.6990 C   0  0  0  0  0  0  0  0  0  0  0  0
   -3.4383    0.4825    3.9219 C   0  0  0  0  0  0  0  0  0  0  0  0
   -4.4982   -0.4196    3.9863 C   0  0  0  0  0  0  0  0  0  0  0  0
   -5.1973   -0.7557    2.8287 C   0  0  0  0  0  0  0  0  0  0  0  0
   -4.8370   -0.1901    1.6044 C   0  0  0  0  0  0  0  0  0  0  0  0
   -1.6747   -0.2377   -0.8560 C   0  0  0  0  0  0  0  0  0  0  0  0
   -2.5960   -1.3141   -1.1940 C   0  0  0  0  0  0  0  0  0  0  0  0
   -2.7949   -2.3747   -0.3040 C   0  0  0  0  0  0  0  0  0  0  0  0
   -3.6812   -3.4041   -0.6252 C   0  0  0  0  0  0  0  0  0  0  0  0
   -4.3665   -3.3809   -1.8393 C   0  0  0  0  0  0  0  0  0  0  0  0
   -4.1656   -2.3305   -2.7343 C   0  0  0  0  0  0  0  0  0  0  0  0
   -3.2807   -1.2994   -2.4138 C   0  0  0  0  0  0  0  0  0  0  0  0
    0.0045   -1.7076   -2.4937 H   0  0  0  0  0  0  0  0  0  0  0  0
    1.3736   -0.6141   -2.3069 H   0  0  0  0  0  0  0  0  0  0  0  0
    1.0082   -1.8011   -1.0356 H   0  0  0  0  0  0  0  0  0  0  0  0
    2.1462   -0.0571    0.1688 H   0  0  0  0  0  0  0  0  0  0  0  0
    3.8338    2.3389    0.2836 H   0  0  0  0  0  0  0  0  0  0  0  0
    4.4225    0.8825    1.9877 H   0  0  0  0  0  0  0  0  0  0  0  0
    4.1680   -0.5739    1.0547 H   0  0  0  0  0  0  0  0  0  0  0  0
    6.6254    0.2367    1.6380 H   0  0  0  0  0  0  0  0  0  0  0  0
    6.2667   -0.5653    0.1163 H   0  0  0  0  0  0  0  0  0  0  0  0
    6.4251    2.4562    0.5161 H   0  0  0  0  0  0  0  0  0  0  0  0
    7.6653    1.4671   -0.2398 H   0  0  0  0  0  0  0  0  0  0  0  0
    5.8942    2.7529   -1.7192 H   0  0  0  0  0  0  0  0  0  0  0  0
    6.4355    1.1565   -2.2018 H   0  0  0  0  0  0  0  0  0  0  0  0
    4.4174    0.1373   -1.7502 H   0  0  0  0  0  0  0  0  0  0  0  0
    3.8499    1.7408   -2.1654 H   0  0  0  0  0  0  0  0  0  0  0  0
   -3.3974    2.4234    0.2784 H   0  0  0  0  0  0  0  0  0  0  0  0
   -4.0764    1.0544   -0.5969 H   0  0  0  0  0  0  0  0  0  0  0  0
   -2.2442    1.7519    2.6632 H   0  0  0  0  0  0  0  0  0  0  0  0
   -2.8929    0.7478    4.8239 H   0  0  0  0  0  0  0  0  0  0  0  0
   -4.7802   -0.8591    4.9393 H   0  0  0  0  0  0  0  0  0  0  0  0
   -6.0244   -1.4590    2.8787 H   0  0  0  0  0  0  0  0  0  0  0  0
   -5.3921   -0.4693    0.7109 H   0  0  0  0  0  0  0  0  0  0  0  0
   -2.2700   -2.3977    0.6487 H   0  0  0  0  0  0  0  0  0  0  0  0
   -3.8366   -4.2225    0.0730 H   0  0  0  0  0  0  0  0  0  0  0  0
   -5.0551   -4.1840   -2.0897 H   0  0  0  0  0  0  0  0  0  0  0  0
   -4.6953   -2.3158   -3.6833 H   0  0  0  0  0  0  0  0  0  0  0  0
   -3.1257   -0.4877   -3.1210 H   0  0  0  0  0  0  0  0  0  0  0  0
  1  2  1  0
  2  3  1  0
  3  4  1  0
  4  5  2  0
  4  6  1  0
  6  7  1  0
  7  8  1  0
  8  9  1  0
  9 10  1  0
 10 11  1  0
 11 12  1  0
  3 13  2  0
 13 14  1  0
 14 15  1  0
 15 16  1  0
 16 17  2  0
 17 18  1  0
 18 19  2  0
 19 20  1  0
 20 21  2  0
 14 22  1  0
 22 23  1  0
 23 24  2  0
 24 25  1  0
 25 26  2  0
 26 27  1  0
 27 28  2  0
 22  2  2  0
 28 23  1  0
 12  7  1  0
 21 16  1  0
  1 29  1  0
  1 30  1  0
  1 31  1  0
  6 32  1  0
  7 33  1  0
  8 34  1  0
  8 35  1  0
  9 36  1  0
  9 37  1  0
 10 38  1  0
 10 39  1  0
 11 40  1  0
 11 41  1  0
 12 42  1  0
 12 43  1  0
 15 44  1  0
 15 45  1  0
 17 46  1  0
 18 47  1  0
 19 48  1  0
 20 49  1  0
 21 50  1  0
 24 51  1  0
 25 52  1  0
 26 53  1  0
 27 54  1  0
 28 55  1  0
M  END
>  <_SMILES>  (71) 
Cc1c(C(=O)NC2CCCCC2)nn(Cc2ccccc2)c1-c1ccccc1

$$$$

     RDKit          3D

 54 58  0  0  0  0  0  0  0  0999 V2000
    3.1962    1.7492   -0.7033 C   0  0  0  0  0  0  0  0  0  0  0  0
    2.6830    0.4623   -0.1171 C   0  0  0  0  0  0  0  0  0  0  0  0
    1.3363    0.3324   -0.0916 N   0  0  0  0  0  0  0  0  0  0  0  0
    0.8576   -0.8193    0.4325 C   0  0  0  0  0  0  0  0  0  0  0  0
   -0.6495   -0.9640    0.4606 C   0  0  0  0  0  0  0  0  0  0  0  0
   -1.2038   -1.9605    0.9105 O   0  0  0  0  0  0  0  0  0  0  0  0
   -1.3285    0.1264   -0.0651 N   0  0  0  0  0  0  0  0  0  0  0  0
   -2.7804    0.2621   -0.1662 C   0  0  2  0  0  0  0  0  0  0  0  0
   -3.1011    1.6357   -0.8145 C   0  0  0  0  0  0  0  0  0  0  0  0
   -4.6183    1.8410   -0.9497 C   0  0  1  0  0  0  0  0  0  0  0  0
   -5.2018    0.7229   -1.8275 C   0  0  0  0  0  0  0  0  0  0  0  0
   -4.9181   -0.6465   -1.1903 C   0  0  2  0  0  0  0  0  0  0  0  0
   -5.5563   -0.6973    0.2084 C   0  0  0  0  0  0  0  0  0  0  0  0
   -4.9777    0.4184    1.0954 C   0  0  2  0  0  0  0  0  0  0  0  0
   -5.2611    1.7815    0.4448 C   0  0  0  0  0  0  0  0  0  0  0  0
   -3.4567    0.2235    1.2266 C   0  0  0  0  0  0  0  0  0  0  0  0
   -3.3971   -0.8420   -1.0603 C   0  0  0  0  0  0  0  0  0  0  0  0
    1.5987   -1.8271    0.9214 N   0  0  0  0  0  0  0  0  0  0  0  0
    2.9400   -1.6656    0.8811 C   0  0  0  0  0  0  0  0  0  0  0  0
    3.7427   -2.8105    1.4354 C   0  0  0  0  0  0  0  0  0  0  0  0
    3.5550   -0.5208    0.3637 C   0  0  0  0  0  0  0  0  0  0  0  0
    5.0134   -0.3617    0.3277 C   0  0  0  0  0  0  0  0  0  0  0  0
    5.7542   -0.7936   -0.7837 C   0  0  0  0  0  0  0  0  0  0  0  0
    7.1418   -0.6411   -0.8179 C   0  0  0  0  0  0  0  0  0  0  0  0
    7.8058   -0.0555    0.2579 C   0  0  0  0  0  0  0  0  0  0  0  0
    7.0848    0.3776    1.3685 C   0  0  0  0  0  0  0  0  0  0  0  0
    5.6972    0.2256    1.4038 C   0  0  0  0  0  0  0  0  0  0  0  0
    2.3645    2.3868   -1.0218 H   0  0  0  0  0  0  0  0  0  0  0  0
    3.7755    2.3065    0.0391 H   0  0  0  0  0  0  0  0  0  0  0  0
    3.8173    1.5512   -1.5822 H   0  0  0  0  0  0  0  0  0  0  0  0
   -0.7335    0.8803   -0.4008 H   0  0  0  0  0  0  0  0  0  0  0  0
   -2.6703    2.4469   -0.2123 H   0  0  0  0  0  0  0  0  0  0  0  0
   -2.6288    1.7055   -1.8036 H   0  0  0  0  0  0  0  0  0  0  0  0
   -4.8205    2.8151   -1.4088 H   0  0  0  0  0  0  0  0  0  0  0  0
   -6.2831    0.8646   -1.9455 H   0  0  0  0  0  0  0  0  0  0  0  0
   -4.7635    0.7670   -2.8321 H   0  0  0  0  0  0  0  0  0  0  0  0
   -5.3394   -1.4399   -1.8177 H   0  0  0  0  0  0  0  0  0  0  0  0
   -5.3723   -1.6757    0.6690 H   0  0  0  0  0  0  0  0  0  0  0  0
   -6.6443   -0.5834    0.1270 H   0  0  0  0  0  0  0  0  0  0  0  0
   -5.4413    0.3795    2.0875 H   0  0  0  0  0  0  0  0  0  0  0  0
   -4.8653    2.5873    1.0751 H   0  0  0  0  0  0  0  0  0  0  0  0
   -6.3434    1.9414    0.3658 H   0  0  0  0  0  0  0  0  0  0  0  0
   -3.2614   -0.7304    1.7307 H   0  0  0  0  0  0  0  0  0  0  0  0
   -3.0345    1.0041    1.8730 H   0  0  0  0  0  0  0  0  0  0  0  0
   -3.1994   -1.8376   -0.6459 H   0  0  0  0  0  0  0  0  0  0  0  0
   -2.9320   -0.8258   -2.0548 H   0  0  0  0  0  0  0  0  0  0  0  0
    4.3492   -2.4799    2.2841 H   0  0  0  0  0  0  0  0  0  0  0  0
    4.3912   -3.2352    0.6631 H   0  0  0  0  0  0  0  0  0  0  0  0
    3.0828   -3.6093    1.7906 H   0  0  0  0  0  0  0  0  0  0  0  0
    5.2524   -1.2549   -1.6324 H   0  0  0  0  0  0  0  0  0  0  0  0
    7.7045   -0.9807   -1.6840 H   0  0  0  0  0  0  0  0  0  0  0  0
    8.8863    0.0620    0.2313 H   0  0  0  0  0  0  0  0  0  0  0  0
    7.6029    0.8330    2.2089 H   0  0  0  0  0  0  0  0  0  0  0  0
    5.1502    0.5681    2.2805 H   0  0  0  0  0  0  0  0  0  0  0  0
  1  2  1  0
  2  3  1  0
  3  4  2  0
  4  5  1  0
  5  6  2  0
  5  7  1  0
  8  7  1  1
  8  9  1  0
  9 10  1  0
 10 11  1  0
 11 12  1  0
 12 13  1  0
 13 14  1  0
 14 15  1  0
 14 16  1  0
 12 17  1  0
  4 18  1  0
 18 19  2  0
 19 20  1  0
 19 21  1  0
 21 22  1  0
 22 23  2  0
 23 24  1  0
 24 25  2  0
 25 26  1  0
 26 27  2  0
 21  2  2  0
 27 22  1  0
 16  8  1  0
 17  8  1  0
 15 10  1  0
  1 28  1  0
  1 29  1  0
  1 30  1  0
  7 31  1  0
  9 32  1  0
  9 33  1  0
 10 34  1  6
 11 35  1  0
 11 36  1  0
 12 37  1  6
 13 38  1  0
 13 39  1  0
 14 40  1  1
 15 41  1  0
 15 42  1  0
 16 43  1  0
 16 44  1  0
 17 45  1  0
 17 46  1  0
 20 47  1  0
 20 48  1  0
 20 49  1  0
 23 50  1  0
 24 51  1  0
 25 52  1  0
 26 53  1  0
 27 54  1  0
M  END
>  <_SMILES>  (72) 
Cc1nc(C(=O)N[C@]23C[C@H]4C[C@H](C[C@H](C4)C2)C3)nc(C)c1-c1ccccc1

$$$$

     RDKit          3D

 49 53  0  0  0  0  0  0  0  0999 V2000
   -0.7090   -0.9674   -2.0032 O   0  0  0  0  0  0  0  0  0  0  0  0
   -0.2082   -0.4806   -0.9972 C   0  0  0  0  0  0  0  0  0  0  0  0
   -0.9136    0.0324    0.0707 N   0  0  0  0  0  0  0  0  0  0  0  0
   -2.3685    0.0841    0.1943 C   0  0  2  0  0  0  0  0  0  0  0  0
   -3.0063    0.9375   -0.9298 C   0  0  0  0  0  0  0  0  0  0  0  0
   -4.5327    1.0154   -0.7501 C   0  0  1  0  0  0  0  0  0  0  0  0
   -5.1196   -0.4061   -0.7847 C   0  0  0  0  0  0  0  0  0  0  0  0
   -4.5196   -1.2543    0.3495 C   0  0  2  0  0  0  0  0  0  0  0  0
   -4.8392   -0.5938    1.6999 C   0  0  0  0  0  0  0  0  0  0  0  0
   -4.2480    0.8240    1.7436 C   0  0  2  0  0  0  0  0  0  0  0  0
   -4.8522    1.6628    0.6066 C   0  0  0  0  0  0  0  0  0  0  0  0
   -2.7249    0.7411    1.5543 C   0  0  0  0  0  0  0  0  0  0  0  0
   -2.9931   -1.3328    0.1701 C   0  0  0  0  0  0  0  0  0  0  0  0
    1.2811   -0.3986   -0.8344 C   0  0  0  0  0  0  0  0  0  0  0  0
    2.1156   -0.8785   -1.8335 C   0  0  0  0  0  0  0  0  0  0  0  0
    3.4938   -0.7829   -1.6432 C   0  0  0  0  0  0  0  0  0  0  0  0
    4.0105   -0.2151   -0.4703 C   0  0  0  0  0  0  0  0  0  0  0  0
    5.4572   -0.0984   -0.2394 C   0  0  0  0  0  0  0  0  0  0  0  0
    6.3022   -1.2144   -0.3638 C   0  0  0  0  0  0  0  0  0  0  0  0
    7.6777   -1.1058   -0.1421 C   0  0  0  0  0  0  0  0  0  0  0  0
    8.2330    0.1224    0.2064 C   0  0  0  0  0  0  0  0  0  0  0  0
    7.4146    1.2416    0.3332 C   0  0  0  0  0  0  0  0  0  0  0  0
    6.0388    1.1316    0.1124 C   0  0  0  0  0  0  0  0  0  0  0  0
    3.0766    0.2330    0.4683 C   0  0  0  0  0  0  0  0  0  0  0  0
    1.7305    0.1610    0.3239 N   0  0  0  0  0  0  0  0  0  0  0  0
   -0.3335    0.3938    0.8253 H   0  0  0  0  0  0  0  0  0  0  0  0
   -2.7836    0.5141   -1.9165 H   0  0  0  0  0  0  0  0  0  0  0  0
   -2.5776    1.9483   -0.9258 H   0  0  0  0  0  0  0  0  0  0  0  0
   -4.9688    1.6149   -1.5570 H   0  0  0  0  0  0  0  0  0  0  0  0
   -6.2108   -0.3624   -0.6817 H   0  0  0  0  0  0  0  0  0  0  0  0
   -4.9100   -0.8746   -1.7542 H   0  0  0  0  0  0  0  0  0  0  0  0
   -4.9464   -2.2632    0.3220 H   0  0  0  0  0  0  0  0  0  0  0  0
   -4.4284   -1.1970    2.5189 H   0  0  0  0  0  0  0  0  0  0  0  0
   -5.9251   -0.5519    1.8490 H   0  0  0  0  0  0  0  0  0  0  0  0
   -4.4763    1.2902    2.7085 H   0  0  0  0  0  0  0  0  0  0  0  0
   -5.9384    1.7436    0.7368 H   0  0  0  0  0  0  0  0  0  0  0  0
   -4.4509    2.6831    0.6389 H   0  0  0  0  0  0  0  0  0  0  0  0
   -2.2804    0.1674    2.3786 H   0  0  0  0  0  0  0  0  0  0  0  0
   -2.2895    1.7477    1.6128 H   0  0  0  0  0  0  0  0  0  0  0  0
   -2.5551   -1.9521    0.9640 H   0  0  0  0  0  0  0  0  0  0  0  0
   -2.7698   -1.8426   -0.7746 H   0  0  0  0  0  0  0  0  0  0  0  0
    1.7057   -1.3131   -2.7397 H   0  0  0  0  0  0  0  0  0  0  0  0
    4.1620   -1.1433   -2.4226 H   0  0  0  0  0  0  0  0  0  0  0  0
    5.8911   -2.1879   -0.6246 H   0  0  0  0  0  0  0  0  0  0  0  0
    8.3138   -1.9819   -0.2399 H   0  0  0  0  0  0  0  0  0  0  0  0
    9.3030    0.2076    0.3779 H   0  0  0  0  0  0  0  0  0  0  0  0
    7.8462    2.2029    0.6004 H   0  0  0  0  0  0  0  0  0  0  0  0
    5.4242    2.0253    0.2042 H   0  0  0  0  0  0  0  0  0  0  0  0
    3.4020    0.6731    1.4090 H   0  0  0  0  0  0  0  0  0  0  0  0
  1  2  2  0
  2  3  1  0
  4  3  1  6
  4  5  1  0
  5  6  1  0
  6  7  1  0
  7  8  1  0
  8  9  1  0
  9 10  1  0
 10 11  1  0
 10 12  1  0
  8 13  1  0
  2 14  1  0
 14 15  2  0
 15 16  1  0
 16 17  2  0
 17 18  1  0
 18 19  2  0
 19 20  1  0
 20 21  2  0
 21 22  1  0
 22 23  2  0
 17 24  1  0
 24 25  2  0
 12  4  1  0
 25 14  1  0
 13  4  1  0
 23 18  1  0
 11  6  1  0
  3 26  1  0
  5 27  1  0
  5 28  1  0
  6 29  1  6
  7 30  1  0
  7 31  1  0
  8 32  1  1
  9 33  1  0
  9 34  1  0
 10 35  1  1
 11 36  1  0
 11 37  1  0
 12 38  1  0
 12 39  1  0
 13 40  1  0
 13 41  1  0
 15 42  1  0
 16 43  1  0
 19 44  1  0
 20 45  1  0
 21 46  1  0
 22 47  1  0
 23 48  1  0
 24 49  1  0
M  END
>  <_SMILES>  (73) 
O=C(N[C@]12C[C@H]3C[C@H](C[C@H](C3)C1)C2)c1ccc(-c2ccccc2)cn1

$$$$

     RDKit          3D

 54 55  0  0  0  0  0  0  0  0999 V2000
   -2.0364    1.0754    2.0370 C   0  0  0  0  0  0  0  0  0  0  0  0
   -1.0415    0.8128    0.9646 C   0  0  0  0  0  0  0  0  0  0  0  0
   -1.2800    0.7040   -0.4452 C   0  0  0  0  0  0  0  0  0  0  0  0
   -2.5680    0.7792   -1.1656 C   0  0  0  0  0  0  0  0  0  0  0  0
   -2.7025    1.3723   -2.2310 O   0  0  0  0  0  0  0  0  0  0  0  0
   -3.5958    0.0933   -0.5371 N   0  0  0  0  0  0  0  0  0  0  0  0
   -4.9412   -0.0898   -1.0971 C   0  0  0  0  0  0  0  0  0  0  0  0
   -5.7795   -0.8644   -0.0628 C   0  0  0  0  0  0  0  0  0  0  0  0
   -4.8860   -0.9095   -2.3951 C   0  0  0  0  0  0  0  0  0  0  0  0
   -5.6303    1.2610   -1.3515 C   0  0  0  0  0  0  0  0  0  0  0  0
   -0.1292    0.5009   -1.1080 N   0  0  0  0  0  0  0  0  0  0  0  0
    0.8183    0.4807   -0.1569 N   0  0  0  0  0  0  0  0  0  0  0  0
    2.2033    0.2974   -0.5631 C   0  0  0  0  0  0  0  0  0  0  0  0
    2.5662   -1.1799   -0.7069 C   0  0  0  0  0  0  0  0  0  0  0  0
    4.0506   -1.4095   -1.0015 C   0  0  0  0  0  0  0  0  0  0  0  0
    4.4827   -0.8910   -2.3723 C   0  0  0  0  0  0  0  0  0  0  0  0
    5.9429   -1.2210   -2.6594 C   0  0  0  0  0  0  0  0  0  0  0  0
    6.2992   -0.7574   -3.9542 O   0  0  0  0  0  0  0  0  0  0  0  0
    0.3275    0.6451    1.1142 C   0  0  0  0  0  0  0  0  0  0  0  0
    1.1489    0.6531    2.3172 C   0  0  0  0  0  0  0  0  0  0  0  0
    1.4163   -0.5406    2.9957 C   0  0  0  0  0  0  0  0  0  0  0  0
    2.2073   -0.5321    4.1458 C   0  0  0  0  0  0  0  0  0  0  0  0
    2.7298    0.6690    4.6244 C   0  0  0  0  0  0  0  0  0  0  0  0
    2.4603    1.8629    3.9562 C   0  0  0  0  0  0  0  0  0  0  0  0
    1.6700    1.8561    2.8057 C   0  0  0  0  0  0  0  0  0  0  0  0
   -2.4980    0.1384    2.3638 H   0  0  0  0  0  0  0  0  0  0  0  0
   -2.8247    1.7486    1.6856 H   0  0  0  0  0  0  0  0  0  0  0  0
   -1.5719    1.5474    2.9085 H   0  0  0  0  0  0  0  0  0  0  0  0
   -3.3014   -0.5607    0.1759 H   0  0  0  0  0  0  0  0  0  0  0  0
   -6.8023   -1.0310   -0.4187 H   0  0  0  0  0  0  0  0  0  0  0  0
   -5.3358   -1.8436    0.1523 H   0  0  0  0  0  0  0  0  0  0  0  0
   -5.8368   -0.3186    0.8864 H   0  0  0  0  0  0  0  0  0  0  0  0
   -4.3408   -0.3847   -3.1863 H   0  0  0  0  0  0  0  0  0  0  0  0
   -5.8927   -1.1187   -2.7742 H   0  0  0  0  0  0  0  0  0  0  0  0
   -4.3810   -1.8687   -2.2329 H   0  0  0  0  0  0  0  0  0  0  0  0
   -5.6282    1.8795   -0.4466 H   0  0  0  0  0  0  0  0  0  0  0  0
   -6.6724    1.1204   -1.6607 H   0  0  0  0  0  0  0  0  0  0  0  0
   -5.1359    1.8352   -2.1411 H   0  0  0  0  0  0  0  0  0  0  0  0
    2.3285    0.8322   -1.5114 H   0  0  0  0  0  0  0  0  0  0  0  0
    2.8444    0.7911    0.1741 H   0  0  0  0  0  0  0  0  0  0  0  0
    1.9565   -1.6404   -1.4944 H   0  0  0  0  0  0  0  0  0  0  0  0
    2.3157   -1.7089    0.2210 H   0  0  0  0  0  0  0  0  0  0  0  0
    4.2466   -2.4877   -0.9498 H   0  0  0  0  0  0  0  0  0  0  0  0
    4.6580   -0.9405   -0.2179 H   0  0  0  0  0  0  0  0  0  0  0  0
    4.3445    0.1943   -2.4375 H   0  0  0  0  0  0  0  0  0  0  0  0
    3.8519   -1.3238   -3.1585 H   0  0  0  0  0  0  0  0  0  0  0  0
    6.6075   -0.7510   -1.9273 H   0  0  0  0  0  0  0  0  0  0  0  0
    6.1115   -2.3020   -2.6314 H   0  0  0  0  0  0  0  0  0  0  0  0
    6.1328    0.2002   -3.9833 H   0  0  0  0  0  0  0  0  0  0  0  0
    1.0094   -1.4817    2.6335 H   0  0  0  0  0  0  0  0  0  0  0  0
    2.4134   -1.4617    4.6702 H   0  0  0  0  0  0  0  0  0  0  0  0
    3.3439    0.6754    5.5216 H   0  0  0  0  0  0  0  0  0  0  0  0
    2.8631    2.7998    4.3326 H   0  0  0  0  0  0  0  0  0  0  0  0
    1.4612    2.7929    2.2937 H   0  0  0  0  0  0  0  0  0  0  0  0
  1  2  1  0
  2  3  1  0
  3  4  1  0
  4  5  2  0
  4  6  1  0
  6  7  1  0
  7  8  1  0
  7  9  1  0
  7 10  1  0
  3 11  2  0
 11 12  1  0
 12 13  1  0
 13 14  1  0
 14 15  1  0
 15 16  1  0
 16 17  1  0
 17 18  1  0
 12 19  1  0
 19 20  1  0
 20 21  2  0
 21 22  1  0
 22 23  2  0
 23 24  1  0
 24 25  2  0
 19  2  2  0
 25 20  1  0
  1 26  1  0
  1 27  1  0
  1 28  1  0
  6 29  1  0
  8 30  1  0
  8 31  1  0
  8 32  1  0
  9 33  1  0
  9 34  1  0
  9 35  1  0
 10 36  1  0
 10 37  1  0
 10 38  1  0
 13 39  1  0
 13 40  1  0
 14 41  1  0
 14 42  1  0
 15 43  1  0
 15 44  1  0
 16 45  1  0
 16 46  1  0
 17 47  1  0
 17 48  1  0
 18 49  1  0
 21 50  1  0
 22 51  1  0
 23 52  1  0
 24 53  1  0
 25 54  1  0
M  END
>  <_SMILES>  (74) 
Cc1c(C(=O)NC(C)(C)C)nn(CCCCCO)c1-c1ccccc1

$$$$

     RDKit          3D

 46 49  0  0  0  0  0  0  0  0999 V2000
    0.4951   -1.5757   -1.5297 C   0  0  0  0  0  0  0  0  0  0  0  0
    0.0338   -0.4178   -0.7160 C   0  0  0  0  0  0  0  0  0  0  0  0
    0.7995    0.7093   -0.3076 C   0  0  0  0  0  0  0  0  0  0  0  0
    2.2391    0.9661   -0.5280 C   0  0  0  0  0  0  0  0  0  0  0  0
    2.6439    2.0409   -0.9571 O   0  0  0  0  0  0  0  0  0  0  0  0
    3.0279   -0.1210   -0.1809 N   0  0  0  0  0  0  0  0  0  0  0  0
    4.4251   -0.2502   -0.3055 C   0  0  0  0  0  0  0  0  0  0  0  0
    5.0029   -1.4293    0.1850 C   0  0  0  0  0  0  0  0  0  0  0  0
    6.3812   -1.6408    0.0937 C   0  0  0  0  0  0  0  0  0  0  0  0
    7.1955   -0.6755   -0.4911 C   0  0  0  0  0  0  0  0  0  0  0  0
    6.6304    0.4982   -0.9834 C   0  0  0  0  0  0  0  0  0  0  0  0
    5.2506    0.7101   -0.8922 C   0  0  0  0  0  0  0  0  0  0  0  0
    0.0350    1.5982    0.3345 N   0  0  0  0  0  0  0  0  0  0  0  0
   -1.2056    1.0498    0.4217 N   0  0  0  0  0  0  0  0  0  0  0  0
   -2.2063    1.7579    1.1658 C   0  0  0  0  0  0  0  0  0  0  0  0
   -3.4162    1.1752    1.5610 C   0  0  0  0  0  0  0  0  0  0  0  0
   -4.3567    1.9149    2.2882 C   0  0  0  0  0  0  0  0  0  0  0  0
   -4.0978    3.2379    2.6365 C   0  0  0  0  0  0  0  0  0  0  0  0
   -2.8928    3.8254    2.2661 C   0  0  0  0  0  0  0  0  0  0  0  0
   -1.9513    3.0908    1.5405 C   0  0  0  0  0  0  0  0  0  0  0  0
   -1.2551   -0.1734   -0.2519 C   0  0  0  0  0  0  0  0  0  0  0  0
   -2.4445   -0.9805   -0.5134 C   0  0  0  0  0  0  0  0  0  0  0  0
   -3.4106   -0.5410   -1.4276 C   0  0  0  0  0  0  0  0  0  0  0  0
   -4.5352   -1.3243   -1.6926 C   0  0  0  0  0  0  0  0  0  0  0  0
   -4.6958   -2.5536   -1.0546 C   0  0  0  0  0  0  0  0  0  0  0  0
   -3.7312   -3.0044   -0.1543 C   0  0  0  0  0  0  0  0  0  0  0  0
   -2.6055   -2.2232    0.1128 C   0  0  0  0  0  0  0  0  0  0  0  0
   -0.3065   -1.9632   -2.1665 H   0  0  0  0  0  0  0  0  0  0  0  0
    0.8362   -2.3843   -0.8757 H   0  0  0  0  0  0  0  0  0  0  0  0
    1.3211   -1.2923   -2.1896 H   0  0  0  0  0  0  0  0  0  0  0  0
    2.5487   -0.8865    0.2734 H   0  0  0  0  0  0  0  0  0  0  0  0
    4.3917   -2.1993    0.6481 H   0  0  0  0  0  0  0  0  0  0  0  0
    6.8181   -2.5579    0.4803 H   0  0  0  0  0  0  0  0  0  0  0  0
    8.2682   -0.8349   -0.5630 H   0  0  0  0  0  0  0  0  0  0  0  0
    7.2612    1.2565   -1.4409 H   0  0  0  0  0  0  0  0  0  0  0  0
    4.8555    1.6390   -1.2918 H   0  0  0  0  0  0  0  0  0  0  0  0
   -3.6632    0.1411    1.3577 H   0  0  0  0  0  0  0  0  0  0  0  0
   -5.2922    1.4496    2.5897 H   0  0  0  0  0  0  0  0  0  0  0  0
   -4.8306    3.8073    3.2020 H   0  0  0  0  0  0  0  0  0  0  0  0
   -2.6800    4.8558    2.5393 H   0  0  0  0  0  0  0  0  0  0  0  0
   -1.0193    3.5820    1.2627 H   0  0  0  0  0  0  0  0  0  0  0  0
   -3.2934    0.4129   -1.9377 H   0  0  0  0  0  0  0  0  0  0  0  0
   -5.2842   -0.9758   -2.3994 H   0  0  0  0  0  0  0  0  0  0  0  0
   -5.5718   -3.1629   -1.2632 H   0  0  0  0  0  0  0  0  0  0  0  0
   -3.8553   -3.9654    0.3385 H   0  0  0  0  0  0  0  0  0  0  0  0
   -1.8597   -2.5860    0.8160 H   0  0  0  0  0  0  0  0  0  0  0  0
  1  2  1  0
  2  3  1  0
  3  4  1  0
  4  5  2  0
  4  6  1  0
  6  7  1  0
  7  8  2  0
  8  9  1  0
  9 10  2  0
 10 11  1  0
 11 12  2  0
  3 13  2  0
 13 14  1  0
 14 15  1  0
 15 16  2  0
 16 17  1  0
 17 18  2  0
 18 19  1  0
 19 20  2  0
 14 21  1  0
 21 22  1  0
 22 23  2  0
 23 24  1  0
 24 25  2  0
 25 26  1  0
 26 27  2  0
 21  2  2  0
 27 22  1  0
 12  7  1  0
 20 15  1  0
  1 28  1  0
  1 29  1  0
  1 30  1  0
  6 31  1  0
  8 32  1  0
  9 33  1  0
 10 34  1  0
 11 35  1  0
 12 36  1  0
 16 37  1  0
 17 38  1  0
 18 39  1  0
 19 40  1  0
 20 41  1  0
 23 42  1  0
 24 43  1  0
 25 44  1  0
 26 45  1  0
 27 46  1  0
M  END
>  <_SMILES>  (75) 
Cc1c(C(=O)Nc2ccccc2)nn(-c2ccccc2)c1-c1ccccc1

$$$$

     RDKit          3D

 57 61  0  0  0  0  0  0  0  0999 V2000
    5.7864   -2.3587    0.0477 C   0  0  0  0  0  0  0  0  0  0  0  0
    4.4531   -2.2334   -0.4315 O   0  0  0  0  0  0  0  0  0  0  0  0
    3.4734   -2.2597    0.6112 C   0  0  0  0  0  0  0  0  0  0  0  0
    3.2819   -0.8990    1.2768 C   0  0  0  0  0  0  0  0  0  0  0  0
    2.4467   -0.0072    0.4862 N   0  0  0  0  0  0  0  0  0  0  0  0
    1.1054   -0.1897    0.5196 N   0  0  0  0  0  0  0  0  0  0  0  0
    0.6173    0.8127   -0.2406 C   0  0  0  0  0  0  0  0  0  0  0  0
   -0.8258    0.9753   -0.4845 C   0  0  0  0  0  0  0  0  0  0  0  0
   -1.2831    1.8891   -1.1618 O   0  0  0  0  0  0  0  0  0  0  0  0
   -1.5806   -0.0019    0.1270 N   0  0  0  0  0  0  0  0  0  0  0  0
   -3.0318   -0.1366    0.0648 C   0  0  2  0  0  0  0  0  0  0  0  0
   -3.4477   -1.3767    0.9000 C   0  0  0  0  0  0  0  0  0  0  0  0
   -4.9719   -1.5735    0.8727 C   0  0  1  0  0  0  0  0  0  0  0  0
   -5.6517   -0.3246    1.4554 C   0  0  0  0  0  0  0  0  0  0  0  0
   -5.2736    0.9134    0.6270 C   0  0  2  0  0  0  0  0  0  0  0  0
   -5.7258    0.7073   -0.8287 C   0  0  0  0  0  0  0  0  0  0  0  0
   -5.0493   -0.5404   -1.4216 C   0  0  2  0  0  0  0  0  0  0  0  0
   -5.4287   -1.7701   -0.5814 C   0  0  0  0  0  0  0  0  0  0  0  0
   -3.5223   -0.3528   -1.3881 C   0  0  0  0  0  0  0  0  0  0  0  0
   -3.7466    1.1014    0.6610 C   0  0  0  0  0  0  0  0  0  0  0  0
    1.6613    1.6354   -0.7261 C   0  0  0  0  0  0  0  0  0  0  0  0
    2.8336    1.0920   -0.2425 C   0  0  0  0  0  0  0  0  0  0  0  0
    4.2047    1.5445   -0.4218 C   0  0  0  0  0  0  0  0  0  0  0  0
    5.0437    0.9143   -1.3463 C   0  0  0  0  0  0  0  0  0  0  0  0
    6.3590    1.3505   -1.5154 C   0  0  0  0  0  0  0  0  0  0  0  0
    6.8399    2.4230   -0.7656 C   0  0  0  0  0  0  0  0  0  0  0  0
    6.0056    3.0627    0.1505 C   0  0  0  0  0  0  0  0  0  0  0  0
    4.6899    2.6269    0.3203 C   0  0  0  0  0  0  0  0  0  0  0  0
    5.9213   -3.3211    0.5503 H   0  0  0  0  0  0  0  0  0  0  0  0
    6.0409   -1.5412    0.7273 H   0  0  0  0  0  0  0  0  0  0  0  0
    6.4628   -2.3186   -0.8104 H   0  0  0  0  0  0  0  0  0  0  0  0
    2.5363   -2.6050    0.1609 H   0  0  0  0  0  0  0  0  0  0  0  0
    3.7613   -3.0077    1.3598 H   0  0  0  0  0  0  0  0  0  0  0  0
    4.2316   -0.3960    1.4750 H   0  0  0  0  0  0  0  0  0  0  0  0
    2.7661   -1.0245    2.2365 H   0  0  0  0  0  0  0  0  0  0  0  0
   -1.0265   -0.6862    0.6373 H   0  0  0  0  0  0  0  0  0  0  0  0
   -3.1077   -1.2638    1.9383 H   0  0  0  0  0  0  0  0  0  0  0  0
   -2.9517   -2.2766    0.5121 H   0  0  0  0  0  0  0  0  0  0  0  0
   -5.2423   -2.4531    1.4674 H   0  0  0  0  0  0  0  0  0  0  0  0
   -5.3470   -0.1843    2.4998 H   0  0  0  0  0  0  0  0  0  0  0  0
   -6.7407   -0.4566    1.4564 H   0  0  0  0  0  0  0  0  0  0  0  0
   -5.7637    1.8003    1.0441 H   0  0  0  0  0  0  0  0  0  0  0  0
   -5.4738    1.5908   -1.4281 H   0  0  0  0  0  0  0  0  0  0  0  0
   -6.8163    0.5960   -0.8691 H   0  0  0  0  0  0  0  0  0  0  0  0
   -5.3806   -0.6840   -2.4562 H   0  0  0  0  0  0  0  0  0  0  0  0
   -4.9634   -2.6699   -1.0024 H   0  0  0  0  0  0  0  0  0  0  0  0
   -6.5138   -1.9271   -0.6154 H   0  0  0  0  0  0  0  0  0  0  0  0
   -3.2524    0.4998   -2.0226 H   0  0  0  0  0  0  0  0  0  0  0  0
   -3.0285   -1.2300   -1.8266 H   0  0  0  0  0  0  0  0  0  0  0  0
   -3.4137    1.2685    1.6939 H   0  0  0  0  0  0  0  0  0  0  0  0
   -3.4860    2.0095    0.1044 H   0  0  0  0  0  0  0  0  0  0  0  0
    1.5597    2.5120   -1.3516 H   0  0  0  0  0  0  0  0  0  0  0  0
    4.6761    0.0802   -1.9412 H   0  0  0  0  0  0  0  0  0  0  0  0
    7.0042    0.8563   -2.2370 H   0  0  0  0  0  0  0  0  0  0  0  0
    7.8624    2.7659   -0.9014 H   0  0  0  0  0  0  0  0  0  0  0  0
    6.3770    3.9050    0.7285 H   0  0  0  0  0  0  0  0  0  0  0  0
    4.0455    3.1374    1.0323 H   0  0  0  0  0  0  0  0  0  0  0  0
  1  2  1  0
  2  3  1  0
  3  4  1  0
  4  5  1  0
  5  6  1  0
  6  7  2  0
  7  8  1  0
  8  9  2  0
  8 10  1  0
 11 10  1  6
 11 12  1  0
 12 13  1  0
 13 14  1  0
 14 15  1  0
 15 16  1  0
 16 17  1  0
 17 18  1  0
 17 19  1  0
 15 20  1  0
  7 21  1  0
 21 22  2  0
 22 23  1  0
 23 24  2  0
 24 25  1  0
 25 26  2  0
 26 27  1  0
 27 28  2  0
 22  5  1  0
 28 23  1  0
 19 11  1  0
 20 11  1  0
 18 13  1  0
  1 29  1  0
  1 30  1  0
  1 31  1  0
  3 32  1  0
  3 33  1  0
  4 34  1  0
  4 35  1  0
 10 36  1  0
 12 37  1  0
 12 38  1  0
 13 39  1  1
 14 40  1  0
 14 41  1  0
 15 42  1  1
 16 43  1  0
 16 44  1  0
 17 45  1  6
 18 46  1  0
 18 47  1  0
 19 48  1  0
 19 49  1  0
 20 50  1  0
 20 51  1  0
 21 52  1  0
 24 53  1  0
 25 54  1  0
 26 55  1  0
 27 56  1  0
 28 57  1  0
M  END
>  <_SMILES>  (76) 
COCCn1nc(C(=O)N[C@]23C[C@H]4C[C@H](C[C@H](C4)C2)C3)cc1-c1ccccc1

$$$$

     RDKit          3D

 51 55  0  0  0  0  0  0  0  0999 V2000
    4.4319    0.6729   -2.4788 C   0  0  0  0  0  0  0  0  0  0  0  0
    3.4292    0.3621   -1.4060 C   0  0  0  0  0  0  0  0  0  0  0  0
    2.0630    0.4760   -1.6908 C   0  0  0  0  0  0  0  0  0  0  0  0
    1.1461    0.1747   -0.6986 C   0  0  0  0  0  0  0  0  0  0  0  0
   -0.3219    0.2727   -0.9484 C   0  0  0  0  0  0  0  0  0  0  0  0
   -0.7419    0.6249   -2.0444 O   0  0  0  0  0  0  0  0  0  0  0  0
   -1.1169   -0.0577    0.1308 N   0  0  0  0  0  0  0  0  0  0  0  0
   -2.5801   -0.0413    0.1490 C   0  0  2  0  0  0  0  0  0  0  0  0
   -3.1384    1.3776   -0.1229 C   0  0  0  0  0  0  0  0  0  0  0  0
   -4.6757    1.3774   -0.0504 C   0  0  1  0  0  0  0  0  0  0  0  0
   -5.2315    0.3942   -1.0948 C   0  0  0  0  0  0  0  0  0  0  0  0
   -4.7124   -1.0262   -0.8139 C   0  0  2  0  0  0  0  0  0  0  0  0
   -5.1547   -1.4587    0.5929 C   0  0  0  0  0  0  0  0  0  0  0  0
   -4.5949   -0.4847    1.6414 C   0  0  2  0  0  0  0  0  0  0  0  0
   -5.1182    0.9309    1.3520 C   0  0  0  0  0  0  0  0  0  0  0  0
   -3.0602   -0.4816    1.5579 C   0  0  0  0  0  0  0  0  0  0  0  0
   -3.1751   -1.0272   -0.8868 C   0  0  0  0  0  0  0  0  0  0  0  0
    1.5255   -0.2236    0.5366 N   0  0  0  0  0  0  0  0  0  0  0  0
    2.8609   -0.3230    0.8260 N   0  0  0  0  0  0  0  0  0  0  0  0
    3.7984   -0.0256   -0.1121 C   0  0  0  0  0  0  0  0  0  0  0  0
    5.1862   -0.1601    0.3499 C   0  0  0  0  0  0  0  0  0  0  0  0
    6.0610    0.9394    0.3772 C   0  0  0  0  0  0  0  0  0  0  0  0
    7.3797    0.7983    0.8178 C   0  0  0  0  0  0  0  0  0  0  0  0
    7.8428   -0.4436    1.2457 C   0  0  0  0  0  0  0  0  0  0  0  0
    6.9878   -1.5428    1.2403 C   0  0  0  0  0  0  0  0  0  0  0  0
    5.6696   -1.4005    0.7998 C   0  0  0  0  0  0  0  0  0  0  0  0
    3.9688    0.6445   -3.4714 H   0  0  0  0  0  0  0  0  0  0  0  0
    4.8504    1.6728   -2.3299 H   0  0  0  0  0  0  0  0  0  0  0  0
    5.2402   -0.0653   -2.4881 H   0  0  0  0  0  0  0  0  0  0  0  0
    1.7156    0.7871   -2.6720 H   0  0  0  0  0  0  0  0  0  0  0  0
   -0.6234   -0.3287    0.9780 H   0  0  0  0  0  0  0  0  0  0  0  0
   -2.7301    2.0900    0.6060 H   0  0  0  0  0  0  0  0  0  0  0  0
   -2.8276    1.7380   -1.1107 H   0  0  0  0  0  0  0  0  0  0  0  0
   -5.0545    2.3853   -0.2534 H   0  0  0  0  0  0  0  0  0  0  0  0
   -4.9338    0.7098   -2.1023 H   0  0  0  0  0  0  0  0  0  0  0  0
   -6.3282    0.4030   -1.0696 H   0  0  0  0  0  0  0  0  0  0  0  0
   -5.1172   -1.7214   -1.5579 H   0  0  0  0  0  0  0  0  0  0  0  0
   -4.8023   -2.4765    0.8004 H   0  0  0  0  0  0  0  0  0  0  0  0
   -6.2498   -1.4829    0.6507 H   0  0  0  0  0  0  0  0  0  0  0  0
   -4.9106   -0.7980    2.6428 H   0  0  0  0  0  0  0  0  0  0  0  0
   -6.2127    0.9477    1.4228 H   0  0  0  0  0  0  0  0  0  0  0  0
   -4.7396    1.6323    2.1056 H   0  0  0  0  0  0  0  0  0  0  0  0
   -2.6496    0.1903    2.3236 H   0  0  0  0  0  0  0  0  0  0  0  0
   -2.6750   -1.4832    1.7918 H   0  0  0  0  0  0  0  0  0  0  0  0
   -2.8659   -0.7601   -1.9043 H   0  0  0  0  0  0  0  0  0  0  0  0
   -2.7931   -2.0405   -0.7061 H   0  0  0  0  0  0  0  0  0  0  0  0
    5.7146    1.9231    0.0666 H   0  0  0  0  0  0  0  0  0  0  0  0
    8.0421    1.6601    0.8342 H   0  0  0  0  0  0  0  0  0  0  0  0
    8.8672   -0.5530    1.5924 H   0  0  0  0  0  0  0  0  0  0  0  0
    7.3430   -2.5110    1.5839 H   0  0  0  0  0  0  0  0  0  0  0  0
    5.0115   -2.2680    0.8103 H   0  0  0  0  0  0  0  0  0  0  0  0
  1  2  1  0
  2  3  1  0
  3  4  2  0
  4  5  1  0
  5  6  2  0
  5  7  1  0
  8  7  1  1
  8  9  1  0
  9 10  1  0
 10 11  1  0
 11 12  1  0
 12 13  1  0
 13 14  1  0
 14 15  1  0
 14 16  1  0
 12 17  1  0
  4 18  1  0
 18 19  2  0
 19 20  1  0
 20 21  1  0
 21 22  2  0
 22 23  1  0
 23 24  2  0
 24 25  1  0
 25 26  2  0
 20  2  2  0
 26 21  1  0
 16  8  1  0
 17  8  1  0
 15 10  1  0
  1 27  1  0
  1 28  1  0
  1 29  1  0
  3 30  1  0
  7 31  1  0
  9 32  1  0
  9 33  1  0
 10 34  1  6
 11 35  1  0
 11 36  1  0
 12 37  1  6
 13 38  1  0
 13 39  1  0
 14 40  1  1
 15 41  1  0
 15 42  1  0
 16 43  1  0
 16 44  1  0
 17 45  1  0
 17 46  1  0
 22 47  1  0
 23 48  1  0
 24 49  1  0
 25 50  1  0
 26 51  1  0
M  END
>  <_SMILES>  (77) 
Cc1cc(C(=O)N[C@]23C[C@H]4C[C@H](C[C@H](C4)C2)C3)nnc1-c1ccccc1

$$$$

     RDKit          3D

 59 63  0  0  0  0  0  0  0  0999 V2000
    6.2837    1.3242    0.6297 N   0  0  0  0  0  0  0  0  0  0  0  0
    5.6828    2.6575    0.3721 C   0  0  0  0  0  0  0  0  0  0  0  0
    4.1653    2.5738    0.3894 C   0  0  0  0  0  0  0  0  0  0  0  0
    3.5889    1.9675   -0.8922 C   0  0  0  0  0  0  0  0  0  0  0  0
    2.4480    1.1129   -0.6130 N   0  0  0  0  0  0  0  0  0  0  0  0
    1.2345    1.6697   -0.5948 N   0  0  0  0  0  0  0  0  0  0  0  0
    0.3968    0.6780   -0.2400 C   0  0  0  0  0  0  0  0  0  0  0  0
   -1.0597    0.9065   -0.1068 C   0  0  0  0  0  0  0  0  0  0  0  0
   -1.5383    2.0299    0.0095 O   0  0  0  0  0  0  0  0  0  0  0  0
   -1.8258   -0.2478   -0.1321 N   0  0  0  0  0  0  0  0  0  0  0  0
   -3.2937   -0.2700   -0.0981 C   0  0  2  0  0  0  0  0  0  0  0  0
   -3.9047    0.4349   -1.3341 C   0  0  0  0  0  0  0  0  0  0  0  0
   -5.4408    0.3452   -1.3037 C   0  0  1  0  0  0  0  0  0  0  0  0
   -5.8640   -1.1321   -1.3179 C   0  0  0  0  0  0  0  0  0  0  0  0
   -5.2898   -1.8546   -0.0891 C   0  0  2  0  0  0  0  0  0  0  0  0
   -5.8168   -1.1838    1.1885 C   0  0  0  0  0  0  0  0  0  0  0  0
   -5.3923    0.2925    1.2179 C   0  0  2  0  0  0  0  0  0  0  0  0
   -5.9622    1.0096   -0.0180 C   0  0  0  0  0  0  0  0  0  0  0  0
   -3.8560    0.3817    1.1910 C   0  0  0  0  0  0  0  0  0  0  0  0
   -3.7566   -1.7531   -0.1156 C   0  0  0  0  0  0  0  0  0  0  0  0
    1.1368   -0.5156    0.0010 C   0  0  0  0  0  0  0  0  0  0  0  0
    2.4629   -0.2064   -0.2342 C   0  0  0  0  0  0  0  0  0  0  0  0
    3.6629   -1.0104   -0.0578 C   0  0  0  0  0  0  0  0  0  0  0  0
    4.0661   -1.3879    1.2291 C   0  0  0  0  0  0  0  0  0  0  0  0
    5.2379   -2.1247    1.4126 C   0  0  0  0  0  0  0  0  0  0  0  0
    6.0095   -2.4925    0.3109 C   0  0  0  0  0  0  0  0  0  0  0  0
    5.6049   -2.1359   -0.9751 C   0  0  0  0  0  0  0  0  0  0  0  0
    4.4325   -1.4004   -1.1602 C   0  0  0  0  0  0  0  0  0  0  0  0
    7.3096    1.3825    0.6823 H   0  0  0  0  0  0  0  0  0  0  0  0
    5.9645    0.9260    1.5246 H   0  0  0  0  0  0  0  0  0  0  0  0
    6.0643    0.6224   -0.0915 H   0  0  0  0  0  0  0  0  0  0  0  0
    6.0429    3.3095    1.1735 H   0  0  0  0  0  0  0  0  0  0  0  0
    6.0748    3.0128   -0.5854 H   0  0  0  0  0  0  0  0  0  0  0  0
    3.8389    2.0247    1.2818 H   0  0  0  0  0  0  0  0  0  0  0  0
    3.7610    3.5885    0.4953 H   0  0  0  0  0  0  0  0  0  0  0  0
    3.2548    2.7586   -1.5746 H   0  0  0  0  0  0  0  0  0  0  0  0
    4.3223    1.3721   -1.4430 H   0  0  0  0  0  0  0  0  0  0  0  0
   -1.3713   -1.0897   -0.4544 H   0  0  0  0  0  0  0  0  0  0  0  0
   -3.5222   -0.0218   -2.2564 H   0  0  0  0  0  0  0  0  0  0  0  0
   -3.6085    1.4900   -1.3692 H   0  0  0  0  0  0  0  0  0  0  0  0
   -5.8571    0.8566   -2.1788 H   0  0  0  0  0  0  0  0  0  0  0  0
   -6.9583   -1.2085   -1.3201 H   0  0  0  0  0  0  0  0  0  0  0  0
   -5.5094   -1.6150   -2.2368 H   0  0  0  0  0  0  0  0  0  0  0  0
   -5.5915   -2.9078   -0.1050 H   0  0  0  0  0  0  0  0  0  0  0  0
   -6.9102   -1.2607    1.2289 H   0  0  0  0  0  0  0  0  0  0  0  0
   -5.4282   -1.7034    2.0730 H   0  0  0  0  0  0  0  0  0  0  0  0
   -5.7731    0.7675    2.1289 H   0  0  0  0  0  0  0  0  0  0  0  0
   -5.6773    2.0688   -0.0014 H   0  0  0  0  0  0  0  0  0  0  0  0
   -7.0584    0.9747    0.0024 H   0  0  0  0  0  0  0  0  0  0  0  0
   -3.5638    1.4354    1.2618 H   0  0  0  0  0  0  0  0  0  0  0  0
   -3.4369   -0.1129    2.0771 H   0  0  0  0  0  0  0  0  0  0  0  0
   -3.3341   -2.2900    0.7443 H   0  0  0  0  0  0  0  0  0  0  0  0
   -3.3703   -2.2584   -1.0111 H   0  0  0  0  0  0  0  0  0  0  0  0
    0.7547   -1.4694    0.3391 H   0  0  0  0  0  0  0  0  0  0  0  0
    3.4550   -1.1334    2.0947 H   0  0  0  0  0  0  0  0  0  0  0  0
    5.5268   -2.4503    2.4109 H   0  0  0  0  0  0  0  0  0  0  0  0
    6.9007   -3.1032    0.4502 H   0  0  0  0  0  0  0  0  0  0  0  0
    6.1805   -2.4694   -1.8375 H   0  0  0  0  0  0  0  0  0  0  0  0
    4.1065   -1.1651   -2.1730 H   0  0  0  0  0  0  0  0  0  0  0  0
  1  2  1  0
  2  3  1  0
  3  4  1  0
  4  5  1  0
  5  6  1  0
  6  7  2  0
  7  8  1  0
  8  9  2  0
  8 10  1  0
 11 10  1  6
 11 12  1  0
 12 13  1  0
 13 14  1  0
 14 15  1  0
 15 16  1  0
 16 17  1  0
 17 18  1  0
 17 19  1  0
 15 20  1  0
  7 21  1  0
 21 22  2  0
 22 23  1  0
 23 24  2  0
 24 25  1  0
 25 26  2  0
 26 27  1  0
 27 28  2  0
 22  5  1  0
 28 23  1  0
 19 11  1  0
 20 11  1  0
 18 13  1  0
  1 29  1  0
  1 30  1  0
  1 31  1  0
  2 32  1  0
  2 33  1  0
  3 34  1  0
  3 35  1  0
  4 36  1  0
  4 37  1  0
 10 38  1  0
 12 39  1  0
 12 40  1  0
 13 41  1  6
 14 42  1  0
 14 43  1  0
 15 44  1  1
 16 45  1  0
 16 46  1  0
 17 47  1  1
 18 48  1  0
 18 49  1  0
 19 50  1  0
 19 51  1  0
 20 52  1  0
 20 53  1  0
 21 54  1  0
 24 55  1  0
 25 56  1  0
 26 57  1  0
 27 58  1  0
 28 59  1  0
M  CHG  1   1   1
M  END
>  <_SMILES>  (78) 
[NH3+]CCCn1nc(C(=O)N[C@]23C[C@H]4C[C@H](C[C@H](C4)C2)C3)cc1-c1ccccc1

$$$$

     RDKit          3D

 46 50  0  0  0  0  0  0  0  0999 V2000
    0.2003   -1.3912   -0.9772 O   0  0  0  0  0  0  0  0  0  0  0  0
    0.3819   -0.3781   -0.3092 C   0  0  0  0  0  0  0  0  0  0  0  0
   -0.6346    0.3321    0.3060 N   0  0  0  0  0  0  0  0  0  0  0  0
   -2.0567    0.0038    0.2668 C   0  0  2  0  0  0  0  0  0  0  0  0
   -2.3408   -1.3832    0.8949 C   0  0  0  0  0  0  0  0  0  0  0  0
   -3.8504   -1.6826    0.8862 C   0  0  1  0  0  0  0  0  0  0  0  0
   -4.5861   -0.6087    1.7030 C   0  0  0  0  0  0  0  0  0  0  0  0
   -4.3388    0.7783    1.0893 C   0  0  2  0  0  0  0  0  0  0  0  0
   -4.8534    0.7935   -0.3585 C   0  0  0  0  0  0  0  0  0  0  0  0
   -4.1192   -0.2722   -1.1874 C   0  0  2  0  0  0  0  0  0  0  0  0
   -4.3631   -1.6570   -0.5639 C   0  0  0  0  0  0  0  0  0  0  0  0
   -2.6098    0.0280   -1.1798 C   0  0  0  0  0  0  0  0  0  0  0  0
   -2.8295    1.0683    1.0910 C   0  0  0  0  0  0  0  0  0  0  0  0
    1.7185    0.2163   -0.0752 C   0  0  0  0  0  0  0  0  0  0  0  0
    1.8987    1.3325    0.6646 N   0  0  0  0  0  0  0  0  0  0  0  0
    3.2322    1.4868    0.5983 N   0  0  0  0  0  0  0  0  0  0  0  0
    3.8355    0.5109   -0.1463 C   0  0  0  0  0  0  0  0  0  0  0  0
    5.2732    0.4045   -0.4044 C   0  0  0  0  0  0  0  0  0  0  0  0
    5.7456   -0.6540   -1.1964 C   0  0  0  0  0  0  0  0  0  0  0  0
    7.1078   -0.7972   -1.4705 C   0  0  0  0  0  0  0  0  0  0  0  0
    8.0203    0.1185   -0.9550 C   0  0  0  0  0  0  0  0  0  0  0  0
    7.5710    1.1753   -0.1669 C   0  0  0  0  0  0  0  0  0  0  0  0
    6.2064    1.3190    0.1077 C   0  0  0  0  0  0  0  0  0  0  0  0
    2.8925   -0.3022   -0.5808 N   0  0  0  0  0  0  0  0  0  0  0  0
   -0.3195    1.1485    0.8242 H   0  0  0  0  0  0  0  0  0  0  0  0
   -1.8166   -2.1756    0.3478 H   0  0  0  0  0  0  0  0  0  0  0  0
   -1.9593   -1.4169    1.9239 H   0  0  0  0  0  0  0  0  0  0  0  0
   -4.0330   -2.6697    1.3253 H   0  0  0  0  0  0  0  0  0  0  0  0
   -5.6616   -0.8237    1.7223 H   0  0  0  0  0  0  0  0  0  0  0  0
   -4.2393   -0.6259    2.7435 H   0  0  0  0  0  0  0  0  0  0  0  0
   -4.8630    1.5409    1.6760 H   0  0  0  0  0  0  0  0  0  0  0  0
   -4.6988    1.7851   -0.8013 H   0  0  0  0  0  0  0  0  0  0  0  0
   -5.9334    0.6025   -0.3746 H   0  0  0  0  0  0  0  0  0  0  0  0
   -4.4923   -0.2599   -2.2177 H   0  0  0  0  0  0  0  0  0  0  0  0
   -3.8550   -2.4289   -1.1548 H   0  0  0  0  0  0  0  0  0  0  0  0
   -5.4342   -1.8932   -0.5857 H   0  0  0  0  0  0  0  0  0  0  0  0
   -2.4212    1.0070   -1.6396 H   0  0  0  0  0  0  0  0  0  0  0  0
   -2.0962   -0.7095   -1.8078 H   0  0  0  0  0  0  0  0  0  0  0  0
   -2.4579    1.0883    2.1243 H   0  0  0  0  0  0  0  0  0  0  0  0
   -2.6450    2.0702    0.6805 H   0  0  0  0  0  0  0  0  0  0  0  0
    3.6600    2.2689    1.0773 H   0  0  0  0  0  0  0  0  0  0  0  0
    5.0445   -1.3800   -1.6079 H   0  0  0  0  0  0  0  0  0  0  0  0
    7.4512   -1.6247   -2.0863 H   0  0  0  0  0  0  0  0  0  0  0  0
    9.0806    0.0077   -1.1677 H   0  0  0  0  0  0  0  0  0  0  0  0
    8.2853    1.8899    0.2353 H   0  0  0  0  0  0  0  0  0  0  0  0
    5.9033    2.1576    0.7267 H   0  0  0  0  0  0  0  0  0  0  0  0
  1  2  2  0
  2  3  1  0
  4  3  1  6
  4  5  1  0
  5  6  1  0
  6  7  1  0
  7  8  1  0
  8  9  1  0
  9 10  1  0
 10 11  1  0
 10 12  1  0
  8 13  1  0
  2 14  1  0
 14 15  2  0
 15 16  1  0
 16 17  1  0
 17 18  1  0
 18 19  2  0
 19 20  1  0
 20 21  2  0
 21 22  1  0
 22 23  2  0
 17 24  2  0
 12  4  1  0
 24 14  1  0
 13  4  1  0
 23 18  1  0
 11  6  1  0
  3 25  1  0
  5 26  1  0
  5 27  1  0
  6 28  1  1
  7 29  1  0
  7 30  1  0
  8 31  1  1
  9 32  1  0
  9 33  1  0
 10 34  1  6
 11 35  1  0
 11 36  1  0
 12 37  1  0
 12 38  1  0
 13 39  1  0
 13 40  1  0
 16 41  1  0
 19 42  1  0
 20 43  1  0
 21 44  1  0
 22 45  1  0
 23 46  1  0
M  END
>  <_SMILES>  (79) 
O=C(N[C@]12C[C@H]3C[C@H](C[C@H](C3)C1)C2)c1n[nH]c(-c2ccccc2)n1

$$$$

     RDKit          3D

 46 50  0  0  0  0  0  0  0  0999 V2000
    0.1967    0.6819    1.4388 O   0  0  0  0  0  0  0  0  0  0  0  0
    0.3851    0.1523    0.3484 C   0  0  0  0  0  0  0  0  0  0  0  0
   -0.6191   -0.2228   -0.5155 N   0  0  0  0  0  0  0  0  0  0  0  0
   -2.0543   -0.0590   -0.2894 C   0  0  2  0  0  0  0  0  0  0  0  0
   -2.5285   -0.8419    0.9601 C   0  0  0  0  0  0  0  0  0  0  0  0
   -4.0486   -0.6926    1.1478 C   0  0  1  0  0  0  0  0  0  0  0  0
   -4.3947    0.7975    1.3096 C   0  0  0  0  0  0  0  0  0  0  0  0
   -3.9608    1.5807    0.0588 C   0  0  2  0  0  0  0  0  0  0  0  0
   -4.6832    1.0108   -1.1721 C   0  0  0  0  0  0  0  0  0  0  0  0
   -4.3343   -0.4759   -1.3436 C   0  0  2  0  0  0  0  0  0  0  0  0
   -4.7705   -1.2492   -0.0894 C   0  0  0  0  0  0  0  0  0  0  0  0
   -2.8144   -0.6197   -1.5212 C   0  0  0  0  0  0  0  0  0  0  0  0
   -2.4406    1.4324   -0.1294 C   0  0  0  0  0  0  0  0  0  0  0  0
    1.7084   -0.1360   -0.1466 C   0  0  0  0  0  0  0  0  0  0  0  0
    1.9906   -0.7006   -1.3024 N   0  0  0  0  0  0  0  0  0  0  0  0
    3.3606   -0.7964   -1.3918 N   0  0  0  0  0  0  0  0  0  0  0  0
    3.8979   -0.2909   -0.2934 C   0  0  0  0  0  0  0  0  0  0  0  0
    5.3246   -0.1951    0.0218 C   0  0  0  0  0  0  0  0  0  0  0  0
    6.2638   -0.6751   -0.9044 C   0  0  0  0  0  0  0  0  0  0  0  0
    7.6346   -0.6033   -0.6439 C   0  0  0  0  0  0  0  0  0  0  0  0
    8.0874   -0.0490    0.5497 C   0  0  0  0  0  0  0  0  0  0  0  0
    7.1708    0.4327    1.4812 C   0  0  0  0  0  0  0  0  0  0  0  0
    5.7981    0.3608    1.2203 C   0  0  0  0  0  0  0  0  0  0  0  0
    2.8738    0.1348    0.5126 N   0  0  0  0  0  0  0  0  0  0  0  0
   -0.3051   -0.6506   -1.3833 H   0  0  0  0  0  0  0  0  0  0  0  0
   -2.2667   -1.9037    0.8620 H   0  0  0  0  0  0  0  0  0  0  0  0
   -2.0203   -0.4832    1.8630 H   0  0  0  0  0  0  0  0  0  0  0  0
   -4.3660   -1.2445    2.0396 H   0  0  0  0  0  0  0  0  0  0  0  0
   -3.8959    1.2038    2.1980 H   0  0  0  0  0  0  0  0  0  0  0  0
   -5.4737    0.9153    1.4685 H   0  0  0  0  0  0  0  0  0  0  0  0
   -4.2158    2.6395    0.1789 H   0  0  0  0  0  0  0  0  0  0  0  0
   -5.7677    1.1307   -1.0592 H   0  0  0  0  0  0  0  0  0  0  0  0
   -4.3928    1.5704   -2.0698 H   0  0  0  0  0  0  0  0  0  0  0  0
   -4.8494   -0.8774   -2.2234 H   0  0  0  0  0  0  0  0  0  0  0  0
   -5.8565   -1.1681    0.0421 H   0  0  0  0  0  0  0  0  0  0  0  0
   -4.5430   -2.3157   -0.2081 H   0  0  0  0  0  0  0  0  0  0  0  0
   -2.4971   -0.0940   -2.4318 H   0  0  0  0  0  0  0  0  0  0  0  0
   -2.5582   -1.6768   -1.6735 H   0  0  0  0  0  0  0  0  0  0  0  0
   -1.9290    1.8792    0.7313 H   0  0  0  0  0  0  0  0  0  0  0  0
   -2.1157    2.0029   -1.0095 H   0  0  0  0  0  0  0  0  0  0  0  0
    5.9282   -1.1123   -1.8441 H   0  0  0  0  0  0  0  0  0  0  0  0
    8.3448   -0.9810   -1.3752 H   0  0  0  0  0  0  0  0  0  0  0  0
    9.1537    0.0074    0.7534 H   0  0  0  0  0  0  0  0  0  0  0  0
    7.5250    0.8657    2.4136 H   0  0  0  0  0  0  0  0  0  0  0  0
    5.1198    0.7482    1.9744 H   0  0  0  0  0  0  0  0  0  0  0  0
    2.9380    0.5675    1.4212 H   0  0  0  0  0  0  0  0  0  0  0  0
  1  2  2  0
  2  3  1  0
  4  3  1  6
  4  5  1  0
  5  6  1  0
  6  7  1  0
  7  8  1  0
  8  9  1  0
  9 10  1  0
 10 11  1  0
 10 12  1  0
  8 13  1  0
  2 14  1  0
 14 15  2  0
 15 16  1  0
 16 17  2  0
 17 18  1  0
 18 19  2  0
 19 20  1  0
 20 21  2  0
 21 22  1  0
 22 23  2  0
 17 24  1  0
 12  4  1  0
 24 14  1  0
 13  4  1  0
 23 18  1  0
 11  6  1  0
  3 25  1  0
  5 26  1  0
  5 27  1  0
  6 28  1  1
  7 29  1  0
  7 30  1  0
  8 31  1  1
  9 32  1  0
  9 33  1  0
 10 34  1  6
 11 35  1  0
 11 36  1  0
 12 37  1  0
 12 38  1  0
 13 39  1  0
 13 40  1  0
 19 41  1  0
 20 42  1  0
 21 43  1  0
 22 44  1  0
 23 45  1  0
 24 46  1  0
M  END
>  <_SMILES>  (80) 
O=C(N[C@]12C[C@H]3C[C@H](C[C@H](C3)C1)C2)c1nnc(-c2ccccc2)[nH]1

$$$$

     RDKit          3D

 46 50  0  0  0  0  0  0  0  0999 V2000
    0.1960    1.1683   -1.2212 O   0  0  0  0  0  0  0  0  0  0  0  0
    0.4137    0.1510   -0.5722 C   0  0  0  0  0  0  0  0  0  0  0  0
   -0.5911   -0.5388    0.0971 N   0  0  0  0  0  0  0  0  0  0  0  0
   -1.9924   -0.0952    0.1528 C   0  0  2  0  0  0  0  0  0  0  0  0
   -2.7989   -1.1531    0.9565 C   0  0  0  0  0  0  0  0  0  0  0  0
   -4.2791   -0.7550    1.0666 C   0  0  1  0  0  0  0  0  0  0  0  0
   -4.3838    0.6050    1.7744 C   0  0  0  0  0  0  0  0  0  0  0  0
   -3.6164    1.6720    0.9778 C   0  0  2  0  0  0  0  0  0  0  0  0
   -4.2113    1.7736   -0.4372 C   0  0  0  0  0  0  0  0  0  0  0  0
   -4.1111    0.4157   -1.1532 C   0  0  2  0  0  0  0  0  0  0  0  0
   -4.8764   -0.6424   -0.3441 C   0  0  0  0  0  0  0  0  0  0  0  0
   -2.6309    0.0062   -1.2565 C   0  0  0  0  0  0  0  0  0  0  0  0
   -2.1354    1.2655    0.8778 C   0  0  0  0  0  0  0  0  0  0  0  0
    1.7298   -0.4332   -0.4211 C   0  0  0  0  0  0  0  0  0  0  0  0
    2.8708    0.2273   -0.4175 N   0  0  0  0  0  0  0  0  0  0  0  0
    3.8300   -0.7493   -0.2519 C   0  0  0  0  0  0  0  0  0  0  0  0
    5.2547   -0.4383   -0.1810 C   0  0  0  0  0  0  0  0  0  0  0  0
    5.6960    0.8874   -0.3046 C   0  0  0  0  0  0  0  0  0  0  0  0
    7.0576    1.1945   -0.2374 C   0  0  0  0  0  0  0  0  0  0  0  0
    7.9928    0.1791   -0.0460 C   0  0  0  0  0  0  0  0  0  0  0  0
    7.5691   -1.1428    0.0778 C   0  0  0  0  0  0  0  0  0  0  0  0
    6.2074   -1.4501    0.0105 C   0  0  0  0  0  0  0  0  0  0  0  0
    3.3202   -1.9894   -0.1573 N   0  0  0  0  0  0  0  0  0  0  0  0
    2.0080   -1.7614   -0.3005 N   0  0  0  0  0  0  0  0  0  0  0  0
   -0.2867   -1.0978    0.8830 H   0  0  0  0  0  0  0  0  0  0  0  0
   -2.3740   -1.2671    1.9629 H   0  0  0  0  0  0  0  0  0  0  0  0
   -2.7136   -2.1370    0.4758 H   0  0  0  0  0  0  0  0  0  0  0  0
   -4.8248   -1.5129    1.6397 H   0  0  0  0  0  0  0  0  0  0  0  0
   -5.4369    0.8961    1.8730 H   0  0  0  0  0  0  0  0  0  0  0  0
   -3.9775    0.5315    2.7907 H   0  0  0  0  0  0  0  0  0  0  0  0
   -3.6992    2.6405    1.4837 H   0  0  0  0  0  0  0  0  0  0  0  0
   -3.6798    2.5412   -1.0130 H   0  0  0  0  0  0  0  0  0  0  0  0
   -5.2605    2.0887   -0.3795 H   0  0  0  0  0  0  0  0  0  0  0  0
   -4.5424    0.4949   -2.1574 H   0  0  0  0  0  0  0  0  0  0  0  0
   -5.9377   -0.3719   -0.2817 H   0  0  0  0  0  0  0  0  0  0  0  0
   -4.8246   -1.6131   -0.8523 H   0  0  0  0  0  0  0  0  0  0  0  0
   -2.5441   -0.9551   -1.7796 H   0  0  0  0  0  0  0  0  0  0  0  0
   -2.1072    0.7409   -1.8780 H   0  0  0  0  0  0  0  0  0  0  0  0
   -1.6960    1.2057    1.8822 H   0  0  0  0  0  0  0  0  0  0  0  0
   -1.5838    2.0515    0.3487 H   0  0  0  0  0  0  0  0  0  0  0  0
    4.9773    1.6910   -0.4565 H   0  0  0  0  0  0  0  0  0  0  0  0
    7.3848    2.2262   -0.3359 H   0  0  0  0  0  0  0  0  0  0  0  0
    9.0518    0.4182    0.0054 H   0  0  0  0  0  0  0  0  0  0  0  0
    8.2967   -1.9364    0.2259 H   0  0  0  0  0  0  0  0  0  0  0  0
    5.8927   -2.4871    0.1079 H   0  0  0  0  0  0  0  0  0  0  0  0
    1.3662   -2.5447   -0.3233 H   0  0  0  0  0  0  0  0  0  0  0  0
  1  2  2  0
  2  3  1  0
  4  3  1  6
  4  5  1  0
  5  6  1  0
  6  7  1  0
  7  8  1  0
  8  9  1  0
  9 10  1  0
 10 11  1  0
 10 12  1  0
  8 13  1  0
  2 14  1  0
 14 15  2  0
 15 16  1  0
 16 17  1  0
 17 18  2  0
 18 19  1  0
 19 20  2  0
 20 21  1  0
 21 22  2  0
 16 23  2  0
 23 24  1  0
 12  4  1  0
 24 14  1  0
 13  4  1  0
 22 17  1  0
 11  6  1  0
  3 25  1  0
  5 26  1  0
  5 27  1  0
  6 28  1  1
  7 29  1  0
  7 30  1  0
  8 31  1  1
  9 32  1  0
  9 33  1  0
 10 34  1  6
 11 35  1  0
 11 36  1  0
 12 37  1  0
 12 38  1  0
 13 39  1  0
 13 40  1  0
 18 41  1  0
 19 42  1  0
 20 43  1  0
 21 44  1  0
 22 45  1  0
 24 46  1  0
M  END
>  <_SMILES>  (81) 
O=C(N[C@]12C[C@H]3C[C@H](C[C@H](C3)C1)C2)c1nc(-c2ccccc2)n[nH]1

$$$$

     RDKit          3D

 56 60  0  0  0  0  0  0  0  0999 V2000
   -4.1885    2.3018   -2.6210 C   0  0  0  0  0  0  0  0  0  0  0  0
   -4.9441    1.0964   -2.0802 C   0  0  0  0  0  0  0  0  0  0  0  0
   -4.1286   -0.1958   -2.1285 C   0  0  0  0  0  0  0  0  0  0  0  0
   -2.9717   -0.1943   -1.2497 N   0  0  0  0  0  0  0  0  0  0  0  0
   -1.7611    0.0511   -1.7842 N   0  0  0  0  0  0  0  0  0  0  0  0
   -0.9091    0.0456   -0.7442 C   0  0  0  0  0  0  0  0  0  0  0  0
    0.5369    0.3055   -0.9244 C   0  0  0  0  0  0  0  0  0  0  0  0
    0.9992    0.8295   -1.9337 O   0  0  0  0  0  0  0  0  0  0  0  0
    1.3289   -0.1077    0.1374 N   0  0  0  0  0  0  0  0  0  0  0  0
    2.7934   -0.0378    0.1597 C   0  0  2  0  0  0  0  0  0  0  0  0
    3.4251   -0.9181   -0.9468 C   0  0  0  0  0  0  0  0  0  0  0  0
    4.9612   -0.8736   -0.8627 C   0  0  1  0  0  0  0  0  0  0  0  0
    5.4360    0.5806   -1.0235 C   0  0  0  0  0  0  0  0  0  0  0  0
    4.8459    1.4575    0.0942 C   0  0  2  0  0  0  0  0  0  0  0  0
    5.2971    0.9128    1.4581 C   0  0  0  0  0  0  0  0  0  0  0  0
    4.8165   -0.5364    1.6277 C   0  0  2  0  0  0  0  0  0  0  0  0
    5.4108   -1.4047    0.5076 C   0  0  0  0  0  0  0  0  0  0  0  0
    3.2830   -0.5729    1.5338 C   0  0  0  0  0  0  0  0  0  0  0  0
    3.3095    1.4163    0.0119 C   0  0  0  0  0  0  0  0  0  0  0  0
   -1.6150   -0.2285    0.4602 C   0  0  0  0  0  0  0  0  0  0  0  0
   -2.9379   -0.4072    0.1069 C   0  0  0  0  0  0  0  0  0  0  0  0
   -4.0908   -0.7003    0.9466 C   0  0  0  0  0  0  0  0  0  0  0  0
   -4.7228   -1.9472    0.8788 C   0  0  0  0  0  0  0  0  0  0  0  0
   -5.8251   -2.2233    1.6902 C   0  0  0  0  0  0  0  0  0  0  0  0
   -6.2978   -1.2573    2.5774 C   0  0  0  0  0  0  0  0  0  0  0  0
   -5.6671   -0.0167    2.6578 C   0  0  0  0  0  0  0  0  0  0  0  0
   -4.5642    0.2602    1.8477 C   0  0  0  0  0  0  0  0  0  0  0  0
   -3.8373    2.1202   -3.6417 H   0  0  0  0  0  0  0  0  0  0  0  0
   -3.3246    2.5456   -1.9954 H   0  0  0  0  0  0  0  0  0  0  0  0
   -4.8439    3.1785   -2.6394 H   0  0  0  0  0  0  0  0  0  0  0  0
   -5.2708    1.3086   -1.0563 H   0  0  0  0  0  0  0  0  0  0  0  0
   -5.8508    0.9568   -2.6806 H   0  0  0  0  0  0  0  0  0  0  0  0
   -4.7548   -1.0482   -1.8464 H   0  0  0  0  0  0  0  0  0  0  0  0
   -3.7742   -0.3897   -3.1482 H   0  0  0  0  0  0  0  0  0  0  0  0
    0.8918   -0.7162    0.8141 H   0  0  0  0  0  0  0  0  0  0  0  0
    3.0757   -1.9544   -0.8499 H   0  0  0  0  0  0  0  0  0  0  0  0
    3.1116   -0.5811   -1.9419 H   0  0  0  0  0  0  0  0  0  0  0  0
    5.3917   -1.4929   -1.6576 H   0  0  0  0  0  0  0  0  0  0  0  0
    6.5317    0.6215   -0.9911 H   0  0  0  0  0  0  0  0  0  0  0  0
    5.1320    0.9679   -2.0038 H   0  0  0  0  0  0  0  0  0  0  0  0
    5.1937    2.4899   -0.0238 H   0  0  0  0  0  0  0  0  0  0  0  0
    4.8941    1.5386    2.2638 H   0  0  0  0  0  0  0  0  0  0  0  0
    6.3902    0.9572    1.5368 H   0  0  0  0  0  0  0  0  0  0  0  0
    5.1370   -0.9205    2.6026 H   0  0  0  0  0  0  0  0  0  0  0  0
    5.0896   -2.4464    0.6299 H   0  0  0  0  0  0  0  0  0  0  0  0
    6.5059   -1.3998    0.5706 H   0  0  0  0  0  0  0  0  0  0  0  0
    2.9299   -1.6018    1.6857 H   0  0  0  0  0  0  0  0  0  0  0  0
    2.8472    0.0227    2.3472 H   0  0  0  0  0  0  0  0  0  0  0  0
    2.9970    1.8521   -0.9437 H   0  0  0  0  0  0  0  0  0  0  0  0
    2.8757    2.0517    0.7951 H   0  0  0  0  0  0  0  0  0  0  0  0
   -1.2189   -0.2837    1.4640 H   0  0  0  0  0  0  0  0  0  0  0  0
   -4.3567   -2.7141    0.2001 H   0  0  0  0  0  0  0  0  0  0  0  0
   -6.3122   -3.1934    1.6331 H   0  0  0  0  0  0  0  0  0  0  0  0
   -7.1556   -1.4729    3.2096 H   0  0  0  0  0  0  0  0  0  0  0  0
   -6.0331    0.7356    3.3518 H   0  0  0  0  0  0  0  0  0  0  0  0
   -4.0818    1.2326    1.9182 H   0  0  0  0  0  0  0  0  0  0  0  0
  1  2  1  0
  2  3  1  0
  3  4  1  0
  4  5  1  0
  5  6  2  0
  6  7  1  0
  7  8  2  0
  7  9  1  0
 10  9  1  1
 10 11  1  0
 11 12  1  0
 12 13  1  0
 13 14  1  0
 14 15  1  0
 15 16  1  0
 16 17  1  0
 16 18  1  0
 14 19  1  0
  6 20  1  0
 20 21  2  0
 21 22  1  0
 22 23  2  0
 23 24  1  0
 24 25  2  0
 25 26  1  0
 26 27  2  0
 21  4  1  0
 27 22  1  0
 18 10  1  0
 19 10  1  0
 17 12  1  0
  1 28  1  0
  1 29  1  0
  1 30  1  0
  2 31  1  0
  2 32  1  0
  3 33  1  0
  3 34  1  0
  9 35  1  0
 11 36  1  0
 11 37  1  0
 12 38  1  6
 13 39  1  0
 13 40  1  0
 14 41  1  6
 15 42  1  0
 15 43  1  0
 16 44  1  1
 17 45  1  0
 17 46  1  0
 18 47  1  0
 18 48  1  0
 19 49  1  0
 19 50  1  0
 20 51  1  0
 23 52  1  0
 24 53  1  0
 25 54  1  0
 26 55  1  0
 27 56  1  0
M  END
>  <_SMILES>  (82) 
CCCn1nc(C(=O)N[C@]23C[C@H]4C[C@H](C[C@H](C4)C2)C3)cc1-c1ccccc1

$$$$

     RDKit          3D

 49 53  0  0  0  0  0  0  0  0999 V2000
    4.3886   -0.3987    3.1000 C   0  0  0  0  0  0  0  0  0  0  0  0
    3.3835   -0.2556    2.0128 C   0  0  0  0  0  0  0  0  0  0  0  0
    2.0413   -0.2826    2.3595 N   0  0  0  0  0  0  0  0  0  0  0  0
    1.2841   -0.1357    1.2899 C   0  0  0  0  0  0  0  0  0  0  0  0
   -0.1850   -0.1244    1.3469 C   0  0  0  0  0  0  0  0  0  0  0  0
   -0.8199   -0.2381    2.3942 O   0  0  0  0  0  0  0  0  0  0  0  0
   -0.8332    0.0237    0.1259 N   0  0  0  0  0  0  0  0  0  0  0  0
   -2.2852    0.0556   -0.0701 C   0  0  2  0  0  0  0  0  0  0  0  0
   -2.9558   -1.2659    0.3808 C   0  0  0  0  0  0  0  0  0  0  0  0
   -4.4706   -1.2237    0.1120 C   0  0  1  0  0  0  0  0  0  0  0  0
   -5.0880   -0.0408    0.8776 C   0  0  0  0  0  0  0  0  0  0  0  0
   -4.4564    1.2813    0.4092 C   0  0  2  0  0  0  0  0  0  0  0  0
   -4.7007    1.4539   -1.0980 C   0  0  0  0  0  0  0  0  0  0  0  0
   -4.0775    0.2793   -1.8679 C   0  0  2  0  0  0  0  0  0  0  0  0
   -4.7147   -1.0359   -1.3935 C   0  0  0  0  0  0  0  0  0  0  0  0
   -2.5672    0.2375   -1.5870 C   0  0  0  0  0  0  0  0  0  0  0  0
   -2.9416    1.2425    0.6784 C   0  0  0  0  0  0  0  0  0  0  0  0
    2.1451    0.0429   -0.1868 S   0  0  0  0  0  0  0  0  0  0  0  0
    3.6330   -0.0888    0.6592 C   0  0  0  0  0  0  0  0  0  0  0  0
    4.8993   -0.0389   -0.0690 C   0  0  0  0  0  0  0  0  0  0  0  0
    5.7718   -1.1353   -0.0389 C   0  0  0  0  0  0  0  0  0  0  0  0
    6.9884   -1.0925   -0.7237 C   0  0  0  0  0  0  0  0  0  0  0  0
    7.3446    0.0473   -1.4421 C   0  0  0  0  0  0  0  0  0  0  0  0
    6.4865    1.1449   -1.4770 C   0  0  0  0  0  0  0  0  0  0  0  0
    5.2692    1.1030   -0.7932 C   0  0  0  0  0  0  0  0  0  0  0  0
    3.9254   -0.2485    4.0805 H   0  0  0  0  0  0  0  0  0  0  0  0
    4.8286   -1.4004    3.0817 H   0  0  0  0  0  0  0  0  0  0  0  0
    5.1896    0.3392    2.9916 H   0  0  0  0  0  0  0  0  0  0  0  0
   -0.2433    0.0991   -0.6934 H   0  0  0  0  0  0  0  0  0  0  0  0
   -2.7896   -1.4469    1.4490 H   0  0  0  0  0  0  0  0  0  0  0  0
   -2.5060   -2.1167   -0.1478 H   0  0  0  0  0  0  0  0  0  0  0  0
   -4.9304   -2.1605    0.4462 H   0  0  0  0  0  0  0  0  0  0  0  0
   -6.1724   -0.0153    0.7140 H   0  0  0  0  0  0  0  0  0  0  0  0
   -4.9318   -0.1696    1.9557 H   0  0  0  0  0  0  0  0  0  0  0  0
   -4.9061    2.1190    0.9540 H   0  0  0  0  0  0  0  0  0  0  0  0
   -4.2667    2.4007   -1.4423 H   0  0  0  0  0  0  0  0  0  0  0  0
   -5.7776    1.5054   -1.2999 H   0  0  0  0  0  0  0  0  0  0  0  0
   -4.2509    0.4077   -2.9421 H   0  0  0  0  0  0  0  0  0  0  0  0
   -5.7919   -1.0267   -1.6004 H   0  0  0  0  0  0  0  0  0  0  0  0
   -4.2908   -1.8806   -1.9503 H   0  0  0  0  0  0  0  0  0  0  0  0
   -2.1080   -0.5817   -2.1567 H   0  0  0  0  0  0  0  0  0  0  0  0
   -2.0980    1.1621   -1.9495 H   0  0  0  0  0  0  0  0  0  0  0  0
   -2.4815    2.1881    0.3630 H   0  0  0  0  0  0  0  0  0  0  0  0
   -2.7752    1.1668    1.7591 H   0  0  0  0  0  0  0  0  0  0  0  0
    5.5064   -2.0356    0.5111 H   0  0  0  0  0  0  0  0  0  0  0  0
    7.6568   -1.9494   -0.6972 H   0  0  0  0  0  0  0  0  0  0  0  0
    8.2919    0.0805   -1.9746 H   0  0  0  0  0  0  0  0  0  0  0  0
    6.7654    2.0354   -2.0345 H   0  0  0  0  0  0  0  0  0  0  0  0
    4.6167    1.9728   -0.8232 H   0  0  0  0  0  0  0  0  0  0  0  0
  1  2  1  0
  2  3  1  0
  3  4  2  0
  4  5  1  0
  5  6  2  0
  5  7  1  0
  8  7  1  6
  8  9  1  0
  9 10  1  0
 10 11  1  0
 11 12  1  0
 12 13  1  0
 13 14  1  0
 14 15  1  0
 14 16  1  0
 12 17  1  0
  4 18  1  0
 18 19  1  0
 19 20  1  0
 20 21  2  0
 21 22  1  0
 22 23  2  0
 23 24  1  0
 24 25  2  0
 19  2  2  0
 25 20  1  0
 16  8  1  0
 17  8  1  0
 15 10  1  0
  1 26  1  0
  1 27  1  0
  1 28  1  0
  7 29  1  0
  9 30  1  0
  9 31  1  0
 10 32  1  1
 11 33  1  0
 11 34  1  0
 12 35  1  1
 13 36  1  0
 13 37  1  0
 14 38  1  6
 15 39  1  0
 15 40  1  0
 16 41  1  0
 16 42  1  0
 17 43  1  0
 17 44  1  0
 21 45  1  0
 22 46  1  0
 23 47  1  0
 24 48  1  0
 25 49  1  0
M  END
>  <_SMILES>  (83) 
Cc1nc(C(=O)N[C@]23C[C@H]4C[C@H](C[C@H](C4)C2)C3)sc1-c1ccccc1

$$$$

     RDKit          3D

 54 58  0  0  0  0  0  0  0  0999 V2000
   -0.5488    1.5984   -1.5446 O   0  0  0  0  0  0  0  0  0  0  0  0
   -0.2392    0.7204   -0.7482 C   0  0  0  0  0  0  0  0  0  0  0  0
   -1.1519   -0.0148   -0.0188 N   0  0  0  0  0  0  0  0  0  0  0  0
   -2.6059    0.1033   -0.0893 C   0  0  2  0  0  0  0  0  0  0  0  0
   -3.2300   -0.9108    0.9063 C   0  0  0  0  0  0  0  0  0  0  0  0
   -4.7650   -0.8374    0.8783 C   0  0  1  0  0  0  0  0  0  0  0  0
   -5.2086    0.5823    1.2643 C   0  0  0  0  0  0  0  0  0  0  0  0
   -4.6221    1.6021    0.2756 C   0  0  2  0  0  0  0  0  0  0  0  0
   -5.1131    1.2726   -1.1444 C   0  0  0  0  0  0  0  0  0  0  0  0
   -4.6730   -0.1470   -1.5408 C   0  0  2  0  0  0  0  0  0  0  0  0
   -5.2590   -1.1569   -0.5414 C   0  0  0  0  0  0  0  0  0  0  0  0
   -3.1367   -0.2295   -1.5056 C   0  0  0  0  0  0  0  0  0  0  0  0
   -3.0857    1.5204    0.3117 C   0  0  0  0  0  0  0  0  0  0  0  0
    1.1546    0.3295   -0.4689 C   0  0  0  0  0  0  0  0  0  0  0  0
    1.4342   -0.6312    0.4438 N   0  0  0  0  0  0  0  0  0  0  0  0
    2.7816   -0.7404    0.4049 N   0  0  0  0  0  0  0  0  0  0  0  0
    3.4149   -1.7373    1.2589 C   0  0  0  0  0  0  0  0  0  0  0  0
    3.3511   -1.3264    2.7250 C   0  0  0  0  0  0  0  0  0  0  0  0
    2.0332   -1.4744    3.2517 O   0  0  0  0  0  0  0  0  0  0  0  0
    3.3866    0.1470   -0.4490 C   0  0  0  0  0  0  0  0  0  0  0  0
    4.8269    0.2593   -0.6382 C   0  0  0  0  0  0  0  0  0  0  0  0
    5.6142    0.9237    0.3096 C   0  0  0  0  0  0  0  0  0  0  0  0
    6.9956    1.0186    0.1328 C   0  0  0  0  0  0  0  0  0  0  0  0
    7.5953    0.4544   -0.9923 C   0  0  0  0  0  0  0  0  0  0  0  0
    6.8153   -0.2004   -1.9444 C   0  0  0  0  0  0  0  0  0  0  0  0
    5.4336   -0.2966   -1.7698 C   0  0  0  0  0  0  0  0  0  0  0  0
    2.3481    0.8387   -1.0443 C   0  0  0  0  0  0  0  0  0  0  0  0
    2.4829    2.0612   -2.2185 Cl  0  0  0  0  0  0  0  0  0  0  0  0
   -0.7350   -0.7339    0.5668 H   0  0  0  0  0  0  0  0  0  0  0  0
   -2.9044   -1.9305    0.6602 H   0  0  0  0  0  0  0  0  0  0  0  0
   -2.8683   -0.7118    1.9241 H   0  0  0  0  0  0  0  0  0  0  0  0
   -5.1832   -1.5610    1.5869 H   0  0  0  0  0  0  0  0  0  0  0  0
   -6.3037    0.6461    1.2633 H   0  0  0  0  0  0  0  0  0  0  0  0
   -4.8771    0.8148    2.2837 H   0  0  0  0  0  0  0  0  0  0  0  0
   -4.9442    2.6121    0.5529 H   0  0  0  0  0  0  0  0  0  0  0  0
   -4.7120    2.0024   -1.8584 H   0  0  0  0  0  0  0  0  0  0  0  0
   -6.2063    1.3511   -1.1894 H   0  0  0  0  0  0  0  0  0  0  0  0
   -5.0314   -0.3766   -2.5504 H   0  0  0  0  0  0  0  0  0  0  0  0
   -4.9637   -2.1756   -0.8211 H   0  0  0  0  0  0  0  0  0  0  0  0
   -6.3550   -1.1230   -0.5733 H   0  0  0  0  0  0  0  0  0  0  0  0
   -2.7240    0.4617   -2.2501 H   0  0  0  0  0  0  0  0  0  0  0  0
   -2.8096   -1.2339   -1.8049 H   0  0  0  0  0  0  0  0  0  0  0  0
   -2.7216    1.7718    1.3165 H   0  0  0  0  0  0  0  0  0  0  0  0
   -2.6727    2.2797   -0.3627 H   0  0  0  0  0  0  0  0  0  0  0  0
    4.4524   -1.8626    0.9381 H   0  0  0  0  0  0  0  0  0  0  0  0
    2.8832   -2.6798    1.0857 H   0  0  0  0  0  0  0  0  0  0  0  0
    3.6660   -0.2882    2.8724 H   0  0  0  0  0  0  0  0  0  0  0  0
    4.0074   -1.9696    3.3190 H   0  0  0  0  0  0  0  0  0  0  0  0
    1.4237   -1.0478    2.6145 H   0  0  0  0  0  0  0  0  0  0  0  0
    5.1585    1.3840    1.1833 H   0  0  0  0  0  0  0  0  0  0  0  0
    7.6035    1.5410    0.8674 H   0  0  0  0  0  0  0  0  0  0  0  0
    8.6706    0.5340   -1.1328 H   0  0  0  0  0  0  0  0  0  0  0  0
    7.2821   -0.6305   -2.8271 H   0  0  0  0  0  0  0  0  0  0  0  0
    4.8358   -0.8029   -2.5246 H   0  0  0  0  0  0  0  0  0  0  0  0
  1  2  2  0
  2  3  1  0
  4  3  1  6
  4  5  1  0
  5  6  1  0
  6  7  1  0
  7  8  1  0
  8  9  1  0
  9 10  1  0
 10 11  1  0
 10 12  1  0
  8 13  1  0
  2 14  1  0
 14 15  2  0
 15 16  1  0
 16 17  1  0
 17 18  1  0
 18 19  1  0
 16 20  1  0
 20 21  1  0
 21 22  2  0
 22 23  1  0
 23 24  2  0
 24 25  1  0
 25 26  2  0
 20 27  2  0
 27 28  1  0
 12  4  1  0
 27 14  1  0
 13  4  1  0
 26 21  1  0
 11  6  1  0
  3 29  1  0
  5 30  1  0
  5 31  1  0
  6 32  1  1
  7 33  1  0
  7 34  1  0
  8 35  1  1
  9 36  1  0
  9 37  1  0
 10 38  1  6
 11 39  1  0
 11 40  1  0
 12 41  1  0
 12 42  1  0
 13 43  1  0
 13 44  1  0
 17 45  1  0
 17 46  1  0
 18 47  1  0
 18 48  1  0
 19 49  1  0
 22 50  1  0
 23 51  1  0
 24 52  1  0
 25 53  1  0
 26 54  1  0
M  END
>  <_SMILES>  (84) 
O=C(N[C@]12C[C@H]3C[C@H](C[C@H](C3)C1)C2)c1nn(CCO)c(-c2ccccc2)c1Cl

$$$$

     RDKit          3D

 53 57  0  0  0  0  0  0  0  0999 V2000
    4.6247   -2.0717   -2.5957 C   0  0  0  0  0  0  0  0  0  0  0  0
    4.0306   -2.5198   -1.2721 C   0  0  0  0  0  0  0  0  0  0  0  0
    2.9971   -1.6148   -0.8001 N   0  0  0  0  0  0  0  0  0  0  0  0
    1.7262   -1.8385   -1.1808 N   0  0  0  0  0  0  0  0  0  0  0  0
    1.0161   -0.8295   -0.6455 C   0  0  0  0  0  0  0  0  0  0  0  0
   -0.4449   -0.7131   -0.8536 C   0  0  0  0  0  0  0  0  0  0  0  0
   -1.0431   -1.3213   -1.7364 O   0  0  0  0  0  0  0  0  0  0  0  0
   -1.0854    0.1294    0.0439 N   0  0  0  0  0  0  0  0  0  0  0  0
   -2.5352    0.3424    0.0961 C   0  0  2  0  0  0  0  0  0  0  0  0
   -2.8332    1.3735    1.2198 C   0  0  0  0  0  0  0  0  0  0  0  0
   -4.3416    1.6426    1.3386 C   0  0  1  0  0  0  0  0  0  0  0  0
   -4.8607    2.1975    0.0035 C   0  0  0  0  0  0  0  0  0  0  0  0
   -4.5997    1.1842   -1.1214 C   0  0  2  0  0  0  0  0  0  0  0  0
   -5.3185   -0.1357   -0.7931 C   0  0  0  0  0  0  0  0  0  0  0  0
   -4.8061   -0.7001    0.5429 C   0  0  2  0  0  0  0  0  0  0  0  0
   -5.0649    0.3250    1.6584 C   0  0  0  0  0  0  0  0  0  0  0  0
   -3.2937   -0.9644    0.4354 C   0  0  0  0  0  0  0  0  0  0  0  0
   -3.0869    0.9229   -1.2311 C   0  0  0  0  0  0  0  0  0  0  0  0
    1.8767    0.0346    0.0880 C   0  0  0  0  0  0  0  0  0  0  0  0
    3.1450   -0.5016   -0.0105 C   0  0  0  0  0  0  0  0  0  0  0  0
    4.4044   -0.0161    0.5329 C   0  0  0  0  0  0  0  0  0  0  0  0
    5.0352    1.0932   -0.0407 C   0  0  0  0  0  0  0  0  0  0  0  0
    6.2429    1.5624    0.4794 C   0  0  0  0  0  0  0  0  0  0  0  0
    6.8222    0.9294    1.5783 C   0  0  0  0  0  0  0  0  0  0  0  0
    6.1942   -0.1711    2.1603 C   0  0  0  0  0  0  0  0  0  0  0  0
    4.9869   -0.6419    1.6409 C   0  0  0  0  0  0  0  0  0  0  0  0
    5.3892   -2.7807   -2.9278 H   0  0  0  0  0  0  0  0  0  0  0  0
    5.0902   -1.0846   -2.5084 H   0  0  0  0  0  0  0  0  0  0  0  0
    3.8555   -2.0098   -3.3728 H   0  0  0  0  0  0  0  0  0  0  0  0
    4.8056   -2.5931   -0.5038 H   0  0  0  0  0  0  0  0  0  0  0  0
    3.5786   -3.5133   -1.3728 H   0  0  0  0  0  0  0  0  0  0  0  0
   -0.5543    0.4103    0.8552 H   0  0  0  0  0  0  0  0  0  0  0  0
   -2.4487    1.0059    2.1808 H   0  0  0  0  0  0  0  0  0  0  0  0
   -2.3032    2.3141    1.0184 H   0  0  0  0  0  0  0  0  0  0  0  0
   -4.5263    2.3691    2.1377 H   0  0  0  0  0  0  0  0  0  0  0  0
   -5.9347    2.4081    0.0770 H   0  0  0  0  0  0  0  0  0  0  0  0
   -4.3647    3.1486   -0.2260 H   0  0  0  0  0  0  0  0  0  0  0  0
   -4.9746    1.5827   -2.0709 H   0  0  0  0  0  0  0  0  0  0  0  0
   -6.4010    0.0326   -0.7369 H   0  0  0  0  0  0  0  0  0  0  0  0
   -5.1509   -0.8636   -1.5964 H   0  0  0  0  0  0  0  0  0  0  0  0
   -5.3281   -1.6355    0.7733 H   0  0  0  0  0  0  0  0  0  0  0  0
   -4.7157   -0.0710    2.6199 H   0  0  0  0  0  0  0  0  0  0  0  0
   -6.1423    0.5040    1.7603 H   0  0  0  0  0  0  0  0  0  0  0  0
   -2.9200   -1.3834    1.3789 H   0  0  0  0  0  0  0  0  0  0  0  0
   -3.1180   -1.7292   -0.3302 H   0  0  0  0  0  0  0  0  0  0  0  0
   -2.5634    1.8550   -1.4813 H   0  0  0  0  0  0  0  0  0  0  0  0
   -2.9083    0.2377   -2.0673 H   0  0  0  0  0  0  0  0  0  0  0  0
    1.6162    0.9420    0.6137 H   0  0  0  0  0  0  0  0  0  0  0  0
    4.5926    1.5946   -0.8986 H   0  0  0  0  0  0  0  0  0  0  0  0
    6.7307    2.4224    0.0276 H   0  0  0  0  0  0  0  0  0  0  0  0
    7.7619    1.2963    1.9836 H   0  0  0  0  0  0  0  0  0  0  0  0
    6.6430   -0.6607    3.0209 H   0  0  0  0  0  0  0  0  0  0  0  0
    4.5021   -1.4958    2.1085 H   0  0  0  0  0  0  0  0  0  0  0  0
  1  2  1  0
  2  3  1  0
  3  4  1  0
  4  5  2  0
  5  6  1  0
  6  7  2  0
  6  8  1  0
  9  8  1  6
  9 10  1  0
 10 11  1  0
 11 12  1  0
 12 13  1  0
 13 14  1  0
 14 15  1  0
 15 16  1  0
 15 17  1  0
 13 18  1  0
  5 19  1  0
 19 20  2  0
 20 21  1  0
 21 22  2  0
 22 23  1  0
 23 24  2  0
 24 25  1  0
 25 26  2  0
 20  3  1  0
 26 21  1  0
 17  9  1  0
 18  9  1  0
 16 11  1  0
  1 27  1  0
  1 28  1  0
  1 29  1  0
  2 30  1  0
  2 31  1  0
  8 32  1  0
 10 33  1  0
 10 34  1  0
 11 35  1  1
 12 36  1  0
 12 37  1  0
 13 38  1  6
 14 39  1  0
 14 40  1  0
 15 41  1  1
 16 42  1  0
 16 43  1  0
 17 44  1  0
 17 45  1  0
 18 46  1  0
 18 47  1  0
 19 48  1  0
 22 49  1  0
 23 50  1  0
 24 51  1  0
 25 52  1  0
 26 53  1  0
M  END
>  <_SMILES>  (85) 
CCn1nc(C(=O)N[C@]23C[C@H]4C[C@H](C[C@H](C4)C2)C3)cc1-c1ccccc1

$$$$

     RDKit          3D

 50 54  0  0  0  0  0  0  0  0999 V2000
    3.5668   -2.4347    0.6136 C   0  0  0  0  0  0  0  0  0  0  0  0
    2.9617   -1.1583    0.3057 N   0  0  0  0  0  0  0  0  0  0  0  0
    1.6152   -1.0679    0.2888 N   0  0  0  0  0  0  0  0  0  0  0  0
    1.3751    0.2037   -0.0917 C   0  0  0  0  0  0  0  0  0  0  0  0
    0.0079    0.7259   -0.2537 C   0  0  0  0  0  0  0  0  0  0  0  0
   -0.2205    1.8783   -0.6039 O   0  0  0  0  0  0  0  0  0  0  0  0
   -0.9572   -0.2157    0.0283 N   0  0  0  0  0  0  0  0  0  0  0  0
   -2.4012   -0.0173   -0.0351 C   0  0  2  0  0  0  0  0  0  0  0  0
   -3.0991   -1.3446    0.3642 C   0  0  0  0  0  0  0  0  0  0  0  0
   -4.6285   -1.1990    0.3166 C   0  0  1  0  0  0  0  0  0  0  0  0
   -5.0598   -0.0915    1.2907 C   0  0  0  0  0  0  0  0  0  0  0  0
   -4.3996    1.2395    0.8978 C   0  0  2  0  0  0  0  0  0  0  0  0
   -4.8226    1.6127   -0.5333 C   0  0  0  0  0  0  0  0  0  0  0  0
   -4.3939    0.5102   -1.5165 C   0  0  2  0  0  0  0  0  0  0  0  0
   -5.0542   -0.8166   -1.1097 C   0  0  0  0  0  0  0  0  0  0  0  0
   -2.8638    0.3535   -1.4659 C   0  0  0  0  0  0  0  0  0  0  0  0
   -2.8695    1.0831    0.9490 C   0  0  0  0  0  0  0  0  0  0  0  0
    2.5865    0.9075   -0.2956 C   0  0  0  0  0  0  0  0  0  0  0  0
    3.6025    0.0171   -0.0090 C   0  0  0  0  0  0  0  0  0  0  0  0
    5.0472    0.2103   -0.0465 C   0  0  0  0  0  0  0  0  0  0  0  0
    5.8267    0.0185    1.1018 C   0  0  0  0  0  0  0  0  0  0  0  0
    7.2105    0.2107    1.0573 C   0  0  0  0  0  0  0  0  0  0  0  0
    7.8174    0.6011   -0.1347 C   0  0  0  0  0  0  0  0  0  0  0  0
    9.5205    0.8358   -0.1895 Cl  0  0  0  0  0  0  0  0  0  0  0  0
    7.0526    0.8056   -1.2809 C   0  0  0  0  0  0  0  0  0  0  0  0
    5.6689    0.6141   -1.2352 C   0  0  0  0  0  0  0  0  0  0  0  0
    3.8442   -2.4336    1.6703 H   0  0  0  0  0  0  0  0  0  0  0  0
    4.4445   -2.5807   -0.0203 H   0  0  0  0  0  0  0  0  0  0  0  0
    2.8446   -3.2315    0.4158 H   0  0  0  0  0  0  0  0  0  0  0  0
   -0.5789   -1.1197    0.3039 H   0  0  0  0  0  0  0  0  0  0  0  0
   -2.7835   -2.1540   -0.3078 H   0  0  0  0  0  0  0  0  0  0  0  0
   -2.7875   -1.6462    1.3733 H   0  0  0  0  0  0  0  0  0  0  0  0
   -5.0996   -2.1462    0.6016 H   0  0  0  0  0  0  0  0  0  0  0  0
   -4.7771   -0.3621    2.3155 H   0  0  0  0  0  0  0  0  0  0  0  0
   -6.1516    0.0138    1.2789 H   0  0  0  0  0  0  0  0  0  0  0  0
   -4.7132    2.0264    1.5929 H   0  0  0  0  0  0  0  0  0  0  0  0
   -5.9099    1.7507   -0.5775 H   0  0  0  0  0  0  0  0  0  0  0  0
   -4.3685    2.5688   -0.8211 H   0  0  0  0  0  0  0  0  0  0  0  0
   -4.7035    0.7802   -2.5323 H   0  0  0  0  0  0  0  0  0  0  0  0
   -4.7674   -1.6090   -1.8119 H   0  0  0  0  0  0  0  0  0  0  0  0
   -6.1459   -0.7239   -1.1628 H   0  0  0  0  0  0  0  0  0  0  0  0
   -2.3975    1.2889   -1.7975 H   0  0  0  0  0  0  0  0  0  0  0  0
   -2.5436   -0.4183   -2.1781 H   0  0  0  0  0  0  0  0  0  0  0  0
   -2.5534    0.8352    1.9708 H   0  0  0  0  0  0  0  0  0  0  0  0
   -2.4033    2.0462    0.7092 H   0  0  0  0  0  0  0  0  0  0  0  0
    2.6903    1.9412   -0.5973 H   0  0  0  0  0  0  0  0  0  0  0  0
    5.3627   -0.2640    2.0442 H   0  0  0  0  0  0  0  0  0  0  0  0
    7.8051    0.0626    1.9549 H   0  0  0  0  0  0  0  0  0  0  0  0
    7.5232    1.1156   -2.2102 H   0  0  0  0  0  0  0  0  0  0  0  0
    5.0802    0.7776   -2.1357 H   0  0  0  0  0  0  0  0  0  0  0  0
  1  2  1  0
  2  3  1  0
  3  4  2  0
  4  5  1  0
  5  6  2  0
  5  7  1  0
  8  7  1  6
  8  9  1  0
  9 10  1  0
 10 11  1  0
 11 12  1  0
 12 13  1  0
 13 14  1  0
 14 15  1  0
 14 16  1  0
 12 17  1  0
  4 18  1  0
 18 19  2  0
 19 20  1  0
 20 21  1  0
 21 22  2  0
 22 23  1  0
 23 24  1  0
 23 25  2  0
 25 26  1  0
 19  2  1  0
 26 20  2  0
 16  8  1  0
 17  8  1  0
 15 10  1  0
  1 27  1  0
  1 28  1  0
  1 29  1  0
  7 30  1  0
  9 31  1  0
  9 32  1  0
 10 33  1  1
 11 34  1  0
 11 35  1  0
 12 36  1  1
 13 37  1  0
 13 38  1  0
 14 39  1  6
 15 40  1  0
 15 41  1  0
 16 42  1  0
 16 43  1  0
 17 44  1  0
 17 45  1  0
 18 46  1  0
 21 47  1  0
 22 48  1  0
 25 49  1  0
 26 50  1  0
M  END
>  <_SMILES>  (86) 
Cn1nc(C(=O)N[C@]23C[C@H]4C[C@H](C[C@H](C4)C2)C3)cc1-c1ccc(Cl)cc1

$$$$

     RDKit          3D

 50 54  0  0  0  0  0  0  0  0999 V2000
    4.4214    2.0461   -2.0346 C   0  0  0  0  0  0  0  0  0  0  0  0
    3.3512    1.3136   -1.3963 N   0  0  0  0  0  0  0  0  0  0  0  0
    2.0865    1.5645   -1.7742 N   0  0  0  0  0  0  0  0  0  0  0  0
    1.3327    0.6984   -1.0745 C   0  0  0  0  0  0  0  0  0  0  0  0
   -0.1384    0.6469   -1.2308 C   0  0  0  0  0  0  0  0  0  0  0  0
   -0.7236    1.1351   -2.1930 O   0  0  0  0  0  0  0  0  0  0  0  0
   -0.8018    0.0137   -0.1894 N   0  0  0  0  0  0  0  0  0  0  0  0
   -2.2601   -0.0874   -0.0719 C   0  0  2  0  0  0  0  0  0  0  0  0
   -2.8900   -0.8440   -1.2692 C   0  0  0  0  0  0  0  0  0  0  0  0
   -4.4123   -0.9786   -1.0855 C   0  0  1  0  0  0  0  0  0  0  0  0
   -4.7017   -1.7675    0.2006 C   0  0  0  0  0  0  0  0  0  0  0  0
   -4.1055   -1.0325    1.4107 C   0  0  2  0  0  0  0  0  0  0  0  0
   -4.7321    0.3667    1.5164 C   0  0  0  0  0  0  0  0  0  0  0  0
   -4.4439    1.1689    0.2376 C   0  0  2  0  0  0  0  0  0  0  0  0
   -5.0340    0.4239   -0.9720 C   0  0  0  0  0  0  0  0  0  0  0  0
   -2.9219    1.3068    0.0555 C   0  0  0  0  0  0  0  0  0  0  0  0
   -2.5875   -0.8916    1.2167 C   0  0  0  0  0  0  0  0  0  0  0  0
    2.1613   -0.0949   -0.2319 C   0  0  0  0  0  0  0  0  0  0  0  0
    3.4573    0.3397   -0.4338 C   0  0  0  0  0  0  0  0  0  0  0  0
    4.7012   -0.1198    0.1717 C   0  0  0  0  0  0  0  0  0  0  0  0
    5.5100    0.7629    0.9019 C   0  0  0  0  0  0  0  0  0  0  0  0
    6.6963    0.3123    1.4849 C   0  0  0  0  0  0  0  0  0  0  0  0
    7.0684   -1.0190    1.3409 C   0  0  0  0  0  0  0  0  0  0  0  0
    8.2060   -1.4500    1.9006 F   0  0  0  0  0  0  0  0  0  0  0  0
    6.2757   -1.9101    0.6276 C   0  0  0  0  0  0  0  0  0  0  0  0
    5.0886   -1.4613    0.0450 C   0  0  0  0  0  0  0  0  0  0  0  0
    4.6962    2.8811   -1.3859 H   0  0  0  0  0  0  0  0  0  0  0  0
    4.0748    2.4199   -3.0020 H   0  0  0  0  0  0  0  0  0  0  0  0
    5.2720    1.3788   -2.1920 H   0  0  0  0  0  0  0  0  0  0  0  0
   -0.2658   -0.1514    0.6501 H   0  0  0  0  0  0  0  0  0  0  0  0
   -2.6948   -0.3235   -2.2135 H   0  0  0  0  0  0  0  0  0  0  0  0
   -2.4357   -1.8386   -1.3679 H   0  0  0  0  0  0  0  0  0  0  0  0
   -4.8421   -1.5047   -1.9453 H   0  0  0  0  0  0  0  0  0  0  0  0
   -4.2753   -2.7755    0.1263 H   0  0  0  0  0  0  0  0  0  0  0  0
   -5.7841   -1.8885    0.3311 H   0  0  0  0  0  0  0  0  0  0  0  0
   -4.3108   -1.5995    2.3256 H   0  0  0  0  0  0  0  0  0  0  0  0
   -5.8150    0.2817    1.6696 H   0  0  0  0  0  0  0  0  0  0  0  0
   -4.3276    0.8940    2.3891 H   0  0  0  0  0  0  0  0  0  0  0  0
   -4.8972    2.1634    0.3161 H   0  0  0  0  0  0  0  0  0  0  0  0
   -4.8458    0.9929   -1.8907 H   0  0  0  0  0  0  0  0  0  0  0  0
   -6.1227    0.3423   -0.8656 H   0  0  0  0  0  0  0  0  0  0  0  0
   -2.7220    1.9178   -0.8327 H   0  0  0  0  0  0  0  0  0  0  0  0
   -2.4921    1.8522    0.9059 H   0  0  0  0  0  0  0  0  0  0  0  0
   -2.1257   -1.8869    1.1675 H   0  0  0  0  0  0  0  0  0  0  0  0
   -2.1497   -0.3947    2.0930 H   0  0  0  0  0  0  0  0  0  0  0  0
    1.8581   -0.8859    0.4389 H   0  0  0  0  0  0  0  0  0  0  0  0
    5.2160    1.8018    1.0344 H   0  0  0  0  0  0  0  0  0  0  0  0
    7.3274    0.9879    2.0536 H   0  0  0  0  0  0  0  0  0  0  0  0
    6.5852   -2.9457    0.5295 H   0  0  0  0  0  0  0  0  0  0  0  0
    4.4734   -2.1620   -0.5156 H   0  0  0  0  0  0  0  0  0  0  0  0
  1  2  1  0
  2  3  1  0
  3  4  2  0
  4  5  1  0
  5  6  2  0
  5  7  1  0
  8  7  1  6
  8  9  1  0
  9 10  1  0
 10 11  1  0
 11 12  1  0
 12 13  1  0
 13 14  1  0
 14 15  1  0
 14 16  1  0
 12 17  1  0
  4 18  1  0
 18 19  2  0
 19 20  1  0
 20 21  1  0
 21 22  2  0
 22 23  1  0
 23 24  1  0
 23 25  2  0
 25 26  1  0
 19  2  1  0
 26 20  2  0
 16  8  1  0
 17  8  1  0
 15 10  1  0
  1 27  1  0
  1 28  1  0
  1 29  1  0
  7 30  1  0
  9 31  1  0
  9 32  1  0
 10 33  1  6
 11 34  1  0
 11 35  1  0
 12 36  1  1
 13 37  1  0
 13 38  1  0
 14 39  1  1
 15 40  1  0
 15 41  1  0
 16 42  1  0
 16 43  1  0
 17 44  1  0
 17 45  1  0
 18 46  1  0
 21 47  1  0
 22 48  1  0
 25 49  1  0
 26 50  1  0
M  END
>  <_SMILES>  (87) 
Cn1nc(C(=O)N[C@]23C[C@H]4C[C@H](C[C@H](C4)C2)C3)cc1-c1ccc(F)cc1

$$$$

     RDKit          3D

 49 53  0  0  0  0  0  0  0  0999 V2000
    3.7606   -2.3055    1.6251 C   0  0  0  0  0  0  0  0  0  0  0  0
    3.1046   -1.2158    0.8708 C   0  0  0  0  0  0  0  0  0  0  0  0
    1.7269   -1.1539    0.8091 N   0  0  0  0  0  0  0  0  0  0  0  0
    1.4932   -0.0953    0.0496 C   0  0  0  0  0  0  0  0  0  0  0  0
    0.1758    0.4004   -0.3291 C   0  0  0  0  0  0  0  0  0  0  0  0
   -0.0149    1.3813   -1.0434 O   0  0  0  0  0  0  0  0  0  0  0  0
   -0.8564   -0.3565    0.2025 N   0  0  0  0  0  0  0  0  0  0  0  0
   -2.2855   -0.1192    0.0066 C   0  0  2  0  0  0  0  0  0  0  0  0
   -2.6829   -0.2192   -1.4871 C   0  0  0  0  0  0  0  0  0  0  0  0
   -4.1988   -0.0159   -1.6588 C   0  0  1  0  0  0  0  0  0  0  0  0
   -4.9495   -1.1027   -0.8733 C   0  0  0  0  0  0  0  0  0  0  0  0
   -4.5901   -1.0145    0.6181 C   0  0  2  0  0  0  0  0  0  0  0  0
   -4.9833    0.3703    1.1557 C   0  0  0  0  0  0  0  0  0  0  0  0
   -4.2328    1.4657    0.3821 C   0  0  2  0  0  0  0  0  0  0  0  0
   -4.5893    1.3674   -1.1110 C   0  0  0  0  0  0  0  0  0  0  0  0
   -2.7170    1.2635    0.5553 C   0  0  0  0  0  0  0  0  0  0  0  0
   -3.0744   -1.2076    0.7836 C   0  0  0  0  0  0  0  0  0  0  0  0
    2.6175    0.5436   -0.3894 O   0  0  0  0  0  0  0  0  0  0  0  0
    3.6582   -0.1736    0.1449 C   0  0  0  0  0  0  0  0  0  0  0  0
    4.9970    0.3141   -0.1673 C   0  0  0  0  0  0  0  0  0  0  0  0
    6.0947    0.0022    0.6474 C   0  0  0  0  0  0  0  0  0  0  0  0
    7.3758    0.4706    0.3372 C   0  0  0  0  0  0  0  0  0  0  0  0
    7.5774    1.2600   -0.7919 C   0  0  0  0  0  0  0  0  0  0  0  0
    6.4990    1.5849   -1.6095 C   0  0  0  0  0  0  0  0  0  0  0  0
    5.2194    1.1166   -1.2980 C   0  0  0  0  0  0  0  0  0  0  0  0
    4.5834   -2.7406    1.0497 H   0  0  0  0  0  0  0  0  0  0  0  0
    3.0490   -3.1072    1.8471 H   0  0  0  0  0  0  0  0  0  0  0  0
    4.1535   -1.9307    2.5750 H   0  0  0  0  0  0  0  0  0  0  0  0
   -0.5589   -1.1432    0.7741 H   0  0  0  0  0  0  0  0  0  0  0  0
   -2.3890   -1.1968   -1.8912 H   0  0  0  0  0  0  0  0  0  0  0  0
   -2.1526    0.5313   -2.0850 H   0  0  0  0  0  0  0  0  0  0  0  0
   -4.4613   -0.0804   -2.7207 H   0  0  0  0  0  0  0  0  0  0  0  0
   -6.0316   -0.9813   -1.0060 H   0  0  0  0  0  0  0  0  0  0  0  0
   -4.6901   -2.0944   -1.2638 H   0  0  0  0  0  0  0  0  0  0  0  0
   -5.1253   -1.7925    1.1740 H   0  0  0  0  0  0  0  0  0  0  0  0
   -6.0660    0.5169    1.0577 H   0  0  0  0  0  0  0  0  0  0  0  0
   -4.7483    0.4383    2.2250 H   0  0  0  0  0  0  0  0  0  0  0  0
   -4.5195    2.4510    0.7663 H   0  0  0  0  0  0  0  0  0  0  0  0
   -5.6645    1.5344   -1.2502 H   0  0  0  0  0  0  0  0  0  0  0  0
   -4.0699    2.1533   -1.6730 H   0  0  0  0  0  0  0  0  0  0  0  0
   -2.1882    2.0729    0.0384 H   0  0  0  0  0  0  0  0  0  0  0  0
   -2.4475    1.3494    1.6162 H   0  0  0  0  0  0  0  0  0  0  0  0
   -2.8117   -1.1751    1.8496 H   0  0  0  0  0  0  0  0  0  0  0  0
   -2.7880   -2.2068    0.4286 H   0  0  0  0  0  0  0  0  0  0  0  0
    5.9725   -0.5952    1.5459 H   0  0  0  0  0  0  0  0  0  0  0  0
    8.2152    0.2222    0.9819 H   0  0  0  0  0  0  0  0  0  0  0  0
    8.5724    1.6254   -1.0320 H   0  0  0  0  0  0  0  0  0  0  0  0
    6.6489    2.2042   -2.4902 H   0  0  0  0  0  0  0  0  0  0  0  0
    4.3924    1.3842   -1.9538 H   0  0  0  0  0  0  0  0  0  0  0  0
  1  2  1  0
  2  3  1  0
  3  4  2  0
  4  5  1  0
  5  6  2  0
  5  7  1  0
  8  7  1  6
  8  9  1  0
  9 10  1  0
 10 11  1  0
 11 12  1  0
 12 13  1  0
 13 14  1  0
 14 15  1  0
 14 16  1  0
 12 17  1  0
  4 18  1  0
 18 19  1  0
 19 20  1  0
 20 21  2  0
 21 22  1  0
 22 23  2  0
 23 24  1  0
 24 25  2  0
 19  2  2  0
 25 20  1  0
 16  8  1  0
 17  8  1  0
 15 10  1  0
  1 26  1  0
  1 27  1  0
  1 28  1  0
  7 29  1  0
  9 30  1  0
  9 31  1  0
 10 32  1  6
 11 33  1  0
 11 34  1  0
 12 35  1  1
 13 36  1  0
 13 37  1  0
 14 38  1  1
 15 39  1  0
 15 40  1  0
 16 41  1  0
 16 42  1  0
 17 43  1  0
 17 44  1  0
 21 45  1  0
 22 46  1  0
 23 47  1  0
 24 48  1  0
 25 49  1  0
M  END
>  <_SMILES>  (88) 
Cc1nc(C(=O)N[C@]23C[C@H]4C[C@H](C[C@H](C4)C2)C3)oc1-c1ccccc1

$$$$

     RDKit          3D

 55 59  0  0  0  0  0  0  0  0999 V2000
    4.2446   -1.6855   -2.0010 C   0  0  0  0  0  0  0  0  0  0  0  0
    3.2126   -0.9359   -1.2006 C   0  0  0  0  0  0  0  0  0  0  0  0
    1.8582   -1.2291   -1.3964 C   0  0  0  0  0  0  0  0  0  0  0  0
    0.9134   -0.5361   -0.6570 C   0  0  0  0  0  0  0  0  0  0  0  0
   -0.5472   -0.8266   -0.8431 C   0  0  0  0  0  0  0  0  0  0  0  0
   -0.9291   -1.6725   -1.6422 O   0  0  0  0  0  0  0  0  0  0  0  0
   -1.3713   -0.0628   -0.0438 N   0  0  0  0  0  0  0  0  0  0  0  0
   -2.8302   -0.1245   -0.0056 C   0  0  2  0  0  0  0  0  0  0  0  0
   -3.3303   -1.5247    0.4275 C   0  0  0  0  0  0  0  0  0  0  0  0
   -4.8670   -1.5500    0.5061 C   0  0  1  0  0  0  0  0  0  0  0  0
   -5.3401   -0.5130    1.5371 C   0  0  0  0  0  0  0  0  0  0  0  0
   -4.8747    0.8911    1.1207 C   0  0  2  0  0  0  0  0  0  0  0  0
   -5.4611    1.2339   -0.2578 C   0  0  0  0  0  0  0  0  0  0  0  0
   -4.9888    0.2071   -1.2991 C   0  0  2  0  0  0  0  0  0  0  0  0
   -5.4502   -1.1969   -0.8728 C   0  0  0  0  0  0  0  0  0  0  0  0
   -3.4520    0.2328   -1.3782 C   0  0  0  0  0  0  0  0  0  0  0  0
   -3.3403    0.9085    1.0342 C   0  0  0  0  0  0  0  0  0  0  0  0
    1.2205    0.4226    0.2582 N   0  0  0  0  0  0  0  0  0  0  0  0
    2.5370    0.7024    0.4435 C   0  0  0  0  0  0  0  0  0  0  0  0
    2.8274    1.7687    1.4650 C   0  0  0  0  0  0  0  0  0  0  0  0
    3.5755    0.0542   -0.2583 C   0  0  0  0  0  0  0  0  0  0  0  0
    4.9865    0.3949   -0.0198 C   0  0  0  0  0  0  0  0  0  0  0  0
    5.6165    1.4029   -0.7662 C   0  0  0  0  0  0  0  0  0  0  0  0
    6.9554    1.7275   -0.5382 C   0  0  0  0  0  0  0  0  0  0  0  0
    7.6810    1.0479    0.4380 C   0  0  0  0  0  0  0  0  0  0  0  0
    7.0704    0.0434    1.1862 C   0  0  0  0  0  0  0  0  0  0  0  0
    5.7316   -0.2815    0.9586 C   0  0  0  0  0  0  0  0  0  0  0  0
    4.9130   -2.2433   -1.3375 H   0  0  0  0  0  0  0  0  0  0  0  0
    4.8288   -0.9940   -2.6162 H   0  0  0  0  0  0  0  0  0  0  0  0
    3.7777   -2.4094   -2.6776 H   0  0  0  0  0  0  0  0  0  0  0  0
    1.5402   -1.9830   -2.1109 H   0  0  0  0  0  0  0  0  0  0  0  0
   -0.8803    0.5916    0.5625 H   0  0  0  0  0  0  0  0  0  0  0  0
   -2.9956   -2.2948   -0.2777 H   0  0  0  0  0  0  0  0  0  0  0  0
   -2.9020   -1.7939    1.4019 H   0  0  0  0  0  0  0  0  0  0  0  0
   -5.2046   -2.5485    0.8054 H   0  0  0  0  0  0  0  0  0  0  0  0
   -6.4338   -0.5368    1.6179 H   0  0  0  0  0  0  0  0  0  0  0  0
   -4.9422   -0.7616    2.5286 H   0  0  0  0  0  0  0  0  0  0  0  0
   -5.2122    1.6267    1.8594 H   0  0  0  0  0  0  0  0  0  0  0  0
   -5.1502    2.2422   -0.5576 H   0  0  0  0  0  0  0  0  0  0  0  0
   -6.5569    1.2403   -0.2079 H   0  0  0  0  0  0  0  0  0  0  0  0
   -5.4125    0.4537   -2.2791 H   0  0  0  0  0  0  0  0  0  0  0  0
   -6.5459   -1.2350   -0.8360 H   0  0  0  0  0  0  0  0  0  0  0  0
   -5.1308   -1.9381   -1.6157 H   0  0  0  0  0  0  0  0  0  0  0  0
   -3.1220   -0.4705   -2.1520 H   0  0  0  0  0  0  0  0  0  0  0  0
   -3.1111    1.2255   -1.7003 H   0  0  0  0  0  0  0  0  0  0  0  0
   -2.9115    0.6929    2.0221 H   0  0  0  0  0  0  0  0  0  0  0  0
   -2.9963    1.9163    0.7651 H   0  0  0  0  0  0  0  0  0  0  0  0
    3.4326    1.3648    2.2822 H   0  0  0  0  0  0  0  0  0  0  0  0
    3.3472    2.6134    1.0031 H   0  0  0  0  0  0  0  0  0  0  0  0
    1.8968    2.1499    1.8993 H   0  0  0  0  0  0  0  0  0  0  0  0
    5.0631    1.9410   -1.5334 H   0  0  0  0  0  0  0  0  0  0  0  0
    7.4315    2.5100   -1.1236 H   0  0  0  0  0  0  0  0  0  0  0  0
    8.7235    1.3002    0.6149 H   0  0  0  0  0  0  0  0  0  0  0  0
    7.6364   -0.4884    1.9468 H   0  0  0  0  0  0  0  0  0  0  0  0
    5.2688   -1.0697    1.5494 H   0  0  0  0  0  0  0  0  0  0  0  0
  1  2  1  0
  2  3  2  0
  3  4  1  0
  4  5  1  0
  5  6  2  0
  5  7  1  0
  8  7  1  6
  8  9  1  0
  9 10  1  0
 10 11  1  0
 11 12  1  0
 12 13  1  0
 13 14  1  0
 14 15  1  0
 14 16  1  0
 12 17  1  0
  4 18  2  0
 18 19  1  0
 19 20  1  0
 19 21  2  0
 21 22  1  0
 22 23  2  0
 23 24  1  0
 24 25  2  0
 25 26  1  0
 26 27  2  0
 21  2  1  0
 27 22  1  0
 16  8  1  0
 17  8  1  0
 15 10  1  0
  1 28  1  0
  1 29  1  0
  1 30  1  0
  3 31  1  0
  7 32  1  0
  9 33  1  0
  9 34  1  0
 10 35  1  1
 11 36  1  0
 11 37  1  0
 12 38  1  1
 13 39  1  0
 13 40  1  0
 14 41  1  6
 15 42  1  0
 15 43  1  0
 16 44  1  0
 16 45  1  0
 17 46  1  0
 17 47  1  0
 20 48  1  0
 20 49  1  0
 20 50  1  0
 23 51  1  0
 24 52  1  0
 25 53  1  0
 26 54  1  0
 27 55  1  0
M  END
>  <_SMILES>  (89) 
Cc1cc(C(=O)N[C@]23C[C@H]4C[C@H](C[C@H](C4)C2)C3)nc(C)c1-c1ccccc1

$$$$

     RDKit          3D

 56 60  0  0  0  0  0  0  0  0999 V2000
    1.4689    2.1312    1.4082 C   0  0  0  0  0  0  0  0  0  0  0  0
    1.6523    0.6271    1.2723 C   0  0  0  0  0  0  0  0  0  0  0  0
    2.0535    0.2202   -0.1102 C   0  0  0  0  0  0  0  0  0  0  0  0
    1.2365    0.1876   -1.2889 C   0  0  0  0  0  0  0  0  0  0  0  0
   -0.1968    0.5118   -1.4111 C   0  0  0  0  0  0  0  0  0  0  0  0
   -0.6334    1.2950   -2.2477 O   0  0  0  0  0  0  0  0  0  0  0  0
   -0.9897   -0.1681   -0.5028 N   0  0  0  0  0  0  0  0  0  0  0  0
   -2.4517   -0.1076   -0.4633 C   0  0  2  0  0  0  0  0  0  0  0  0
   -2.9653    1.3344   -0.2195 C   0  0  0  0  0  0  0  0  0  0  0  0
   -4.5016    1.3545   -0.1291 C   0  0  1  0  0  0  0  0  0  0  0  0
   -5.0923    0.8074   -1.4399 C   0  0  0  0  0  0  0  0  0  0  0  0
   -4.6189   -0.6376   -1.6722 C   0  0  2  0  0  0  0  0  0  0  0  0
   -5.0695   -1.5139   -0.4926 C   0  0  0  0  0  0  0  0  0  0  0  0
   -4.4750   -0.9759    0.8185 C   0  0  2  0  0  0  0  0  0  0  0  0
   -4.9539    0.4669    1.0406 C   0  0  0  0  0  0  0  0  0  0  0  0
   -2.9415   -0.9878    0.7189 C   0  0  0  0  0  0  0  0  0  0  0  0
   -3.0828   -0.6596   -1.7647 C   0  0  0  0  0  0  0  0  0  0  0  0
    1.9482   -0.2090   -2.3566 N   0  0  0  0  0  0  0  0  0  0  0  0
    3.1918   -0.3926   -1.8876 N   0  0  0  0  0  0  0  0  0  0  0  0
    4.2372   -0.7723   -2.8110 C   0  0  0  0  0  0  0  0  0  0  0  0
    3.3127   -0.1813   -0.5368 C   0  0  0  0  0  0  0  0  0  0  0  0
    4.5606   -0.3287    0.2029 C   0  0  0  0  0  0  0  0  0  0  0  0
    5.2571    0.8033    0.6402 C   0  0  0  0  0  0  0  0  0  0  0  0
    6.4530    0.6642    1.3467 C   0  0  0  0  0  0  0  0  0  0  0  0
    6.9568   -0.6064    1.6220 C   0  0  0  0  0  0  0  0  0  0  0  0
    6.2654   -1.7388    1.1933 C   0  0  0  0  0  0  0  0  0  0  0  0
    5.0694   -1.6012    0.4863 C   0  0  0  0  0  0  0  0  0  0  0  0
    0.6745    2.4981    0.7499 H   0  0  0  0  0  0  0  0  0  0  0  0
    1.1992    2.3880    2.4375 H   0  0  0  0  0  0  0  0  0  0  0  0
    2.3896    2.6669    1.1539 H   0  0  0  0  0  0  0  0  0  0  0  0
    2.4073    0.2972    1.9958 H   0  0  0  0  0  0  0  0  0  0  0  0
    0.7256    0.1193    1.5595 H   0  0  0  0  0  0  0  0  0  0  0  0
   -0.5436   -0.9546   -0.0485 H   0  0  0  0  0  0  0  0  0  0  0  0
   -2.5305    1.7383    0.7043 H   0  0  0  0  0  0  0  0  0  0  0  0
   -2.6512    2.0074   -1.0252 H   0  0  0  0  0  0  0  0  0  0  0  0
   -4.8480    2.3815    0.0319 H   0  0  0  0  0  0  0  0  0  0  0  0
   -6.1880    0.8393   -1.3978 H   0  0  0  0  0  0  0  0  0  0  0  0
   -4.7877    1.4414   -2.2817 H   0  0  0  0  0  0  0  0  0  0  0  0
   -5.0496   -1.0225   -2.6033 H   0  0  0  0  0  0  0  0  0  0  0  0
   -4.7492   -2.5509   -0.6520 H   0  0  0  0  0  0  0  0  0  0  0  0
   -6.1646   -1.5249   -0.4308 H   0  0  0  0  0  0  0  0  0  0  0  0
   -4.7966   -1.6051    1.6559 H   0  0  0  0  0  0  0  0  0  0  0  0
   -4.5505    0.8553    1.9839 H   0  0  0  0  0  0  0  0  0  0  0  0
   -6.0470    0.4900    1.1282 H   0  0  0  0  0  0  0  0  0  0  0  0
   -2.5053   -0.6301    1.6613 H   0  0  0  0  0  0  0  0  0  0  0  0
   -2.5894   -2.0204    0.5919 H   0  0  0  0  0  0  0  0  0  0  0  0
   -2.7674   -0.0690   -2.6331 H   0  0  0  0  0  0  0  0  0  0  0  0
   -2.7344   -1.6846   -1.9480 H   0  0  0  0  0  0  0  0  0  0  0  0
    5.1246   -0.1660   -2.6138 H   0  0  0  0  0  0  0  0  0  0  0  0
    3.8984   -0.5946   -3.8353 H   0  0  0  0  0  0  0  0  0  0  0  0
    4.4507   -1.8341   -2.6670 H   0  0  0  0  0  0  0  0  0  0  0  0
    4.8739    1.7992    0.4290 H   0  0  0  0  0  0  0  0  0  0  0  0
    6.9907    1.5473    1.6823 H   0  0  0  0  0  0  0  0  0  0  0  0
    7.8875   -0.7139    2.1735 H   0  0  0  0  0  0  0  0  0  0  0  0
    6.6559   -2.7293    1.4129 H   0  0  0  0  0  0  0  0  0  0  0  0
    4.5341   -2.4919    0.1657 H   0  0  0  0  0  0  0  0  0  0  0  0
  1  2  1  0
  2  3  1  0
  3  4  1  0
  4  5  1  0
  5  6  2  0
  5  7  1  0
  8  7  1  6
  8  9  1  0
  9 10  1  0
 10 11  1  0
 11 12  1  0
 12 13  1  0
 13 14  1  0
 14 15  1  0
 14 16  1  0
 12 17  1  0
  4 18  2  0
 18 19  1  0
 19 20  1  0
 19 21  1  0
 21 22  1  0
 22 23  2  0
 23 24  1  0
 24 25  2  0
 25 26  1  0
 26 27  2  0
 21  3  2  0
 27 22  1  0
 16  8  1  0
 17  8  1  0
 15 10  1  0
  1 28  1  0
  1 29  1  0
  1 30  1  0
  2 31  1  0
  2 32  1  0
  7 33  1  0
  9 34  1  0
  9 35  1  0
 10 36  1  1
 11 37  1  0
 11 38  1  0
 12 39  1  6
 13 40  1  0
 13 41  1  0
 14 42  1  1
 15 43  1  0
 15 44  1  0
 16 45  1  0
 16 46  1  0
 17 47  1  0
 17 48  1  0
 20 49  1  0
 20 50  1  0
 20 51  1  0
 23 52  1  0
 24 53  1  0
 25 54  1  0
 26 55  1  0
 27 56  1  0
M  END
>  <_SMILES>  (90) 
CCc1c(C(=O)N[C@]23C[C@H]4C[C@H](C[C@H](C4)C2)C3)nn(C)c1-c1ccccc1

$$$$

     RDKit          3D

 59 63  0  0  0  0  0  0  0  0999 V2000
    2.8583   -3.7998   -1.0777 C   0  0  0  0  0  0  0  0  0  0  0  0
    2.5512   -2.5509   -0.2670 C   0  0  0  0  0  0  0  0  0  0  0  0
    2.5106   -1.3049   -1.1531 C   0  0  0  0  0  0  0  0  0  0  0  0
    2.2050   -0.0636   -0.3756 C   0  0  0  0  0  0  0  0  0  0  0  0
    0.9185    0.4278    0.0092 C   0  0  0  0  0  0  0  0  0  0  0  0
   -0.4074   -0.1703   -0.2556 C   0  0  0  0  0  0  0  0  0  0  0  0
   -0.5615   -1.2215   -0.8677 O   0  0  0  0  0  0  0  0  0  0  0  0
   -1.4378    0.5836    0.2640 N   0  0  0  0  0  0  0  0  0  0  0  0
   -2.8605    0.2712    0.1911 C   0  0  2  0  0  0  0  0  0  0  0  0
   -3.1872   -1.0669    0.8992 C   0  0  0  0  0  0  0  0  0  0  0  0
   -4.6991   -1.3498    0.8507 C   0  0  1  0  0  0  0  0  0  0  0  0
   -5.4515   -0.2146    1.5630 C   0  0  0  0  0  0  0  0  0  0  0  0
   -5.1617    1.1246    0.8672 C   0  0  2  0  0  0  0  0  0  0  0  0
   -5.6189    1.0465   -0.5978 C   0  0  0  0  0  0  0  0  0  0  0  0
   -4.8675   -0.0813   -1.3226 C   0  0  2  0  0  0  0  0  0  0  0  0
   -5.1546   -1.4176   -0.6169 C   0  0  0  0  0  0  0  0  0  0  0  0
   -3.3556    0.2020   -1.2748 C   0  0  0  0  0  0  0  0  0  0  0  0
   -3.6498    1.3979    0.9095 C   0  0  0  0  0  0  0  0  0  0  0  0
    1.0256    1.5849    0.6970 N   0  0  0  0  0  0  0  0  0  0  0  0
    2.3496    1.8163    0.7532 N   0  0  0  0  0  0  0  0  0  0  0  0
    2.8290    2.9896    1.4484 C   0  0  0  0  0  0  0  0  0  0  0  0
    3.1086    0.8661    0.1187 C   0  0  0  0  0  0  0  0  0  0  0  0
    4.5632    0.9050    0.0381 C   0  0  0  0  0  0  0  0  0  0  0  0
    5.3365    0.1024    0.8837 C   0  0  0  0  0  0  0  0  0  0  0  0
    6.7299    0.1414    0.8092 C   0  0  0  0  0  0  0  0  0  0  0  0
    7.3560    0.9801   -0.1120 C   0  0  0  0  0  0  0  0  0  0  0  0
    6.5908    1.7783   -0.9616 C   0  0  0  0  0  0  0  0  0  0  0  0
    5.1972    1.7404   -0.8882 C   0  0  0  0  0  0  0  0  0  0  0  0
    2.0944   -3.9676   -1.8435 H   0  0  0  0  0  0  0  0  0  0  0  0
    2.8840   -4.6782   -0.4253 H   0  0  0  0  0  0  0  0  0  0  0  0
    3.8307   -3.7163   -1.5735 H   0  0  0  0  0  0  0  0  0  0  0  0
    1.5920   -2.6839    0.2472 H   0  0  0  0  0  0  0  0  0  0  0  0
    3.3123   -2.4336    0.5136 H   0  0  0  0  0  0  0  0  0  0  0  0
    3.4751   -1.1906   -1.6639 H   0  0  0  0  0  0  0  0  0  0  0  0
    1.7680   -1.4327   -1.9495 H   0  0  0  0  0  0  0  0  0  0  0  0
   -1.1221    1.4217    0.7487 H   0  0  0  0  0  0  0  0  0  0  0  0
   -2.6522   -1.8997    0.4275 H   0  0  0  0  0  0  0  0  0  0  0  0
   -2.8465   -1.0350    1.9424 H   0  0  0  0  0  0  0  0  0  0  0  0
   -4.9121   -2.3026    1.3481 H   0  0  0  0  0  0  0  0  0  0  0  0
   -5.1457   -0.1646    2.6153 H   0  0  0  0  0  0  0  0  0  0  0  0
   -6.5297   -0.4161    1.5541 H   0  0  0  0  0  0  0  0  0  0  0  0
   -5.6981    1.9311    1.3795 H   0  0  0  0  0  0  0  0  0  0  0  0
   -6.7000    0.8667   -0.6440 H   0  0  0  0  0  0  0  0  0  0  0  0
   -5.4336    2.0038   -1.1003 H   0  0  0  0  0  0  0  0  0  0  0  0
   -5.1997   -0.1353   -2.3654 H   0  0  0  0  0  0  0  0  0  0  0  0
   -6.2271   -1.6429   -0.6653 H   0  0  0  0  0  0  0  0  0  0  0  0
   -4.6344   -2.2336   -1.1335 H   0  0  0  0  0  0  0  0  0  0  0  0
   -2.8274   -0.5826   -1.8296 H   0  0  0  0  0  0  0  0  0  0  0  0
   -3.1357    1.1449   -1.7925 H   0  0  0  0  0  0  0  0  0  0  0  0
   -3.4357    2.3673    0.4397 H   0  0  0  0  0  0  0  0  0  0  0  0
   -3.3186    1.4843    1.9531 H   0  0  0  0  0  0  0  0  0  0  0  0
    3.1945    3.7024    0.7054 H   0  0  0  0  0  0  0  0  0  0  0  0
    2.0089    3.4337    2.0190 H   0  0  0  0  0  0  0  0  0  0  0  0
    3.6285    2.6942    2.1322 H   0  0  0  0  0  0  0  0  0  0  0  0
    4.8575   -0.5573    1.6036 H   0  0  0  0  0  0  0  0  0  0  0  0
    7.3261   -0.4851    1.4676 H   0  0  0  0  0  0  0  0  0  0  0  0
    8.4412    1.0073   -0.1719 H   0  0  0  0  0  0  0  0  0  0  0  0
    7.0790    2.4257   -1.6855 H   0  0  0  0  0  0  0  0  0  0  0  0
    4.6096    2.3578   -1.5637 H   0  0  0  0  0  0  0  0  0  0  0  0
  1  2  1  0
  2  3  1  0
  3  4  1  0
  4  5  1  0
  5  6  1  0
  6  7  2  0
  6  8  1  0
  9  8  1  6
  9 10  1  0
 10 11  1  0
 11 12  1  0
 12 13  1  0
 13 14  1  0
 14 15  1  0
 15 16  1  0
 15 17  1  0
 13 18  1  0
  5 19  2  0
 19 20  1  0
 20 21  1  0
 20 22  1  0
 22 23  1  0
 23 24  2  0
 24 25  1  0
 25 26  2  0
 26 27  1  0
 27 28  2  0
 22  4  2  0
 28 23  1  0
 17  9  1  0
 18  9  1  0
 16 11  1  0
  1 29  1  0
  1 30  1  0
  1 31  1  0
  2 32  1  0
  2 33  1  0
  3 34  1  0
  3 35  1  0
  8 36  1  0
 10 37  1  0
 10 38  1  0
 11 39  1  1
 12 40  1  0
 12 41  1  0
 13 42  1  1
 14 43  1  0
 14 44  1  0
 15 45  1  6
 16 46  1  0
 16 47  1  0
 17 48  1  0
 17 49  1  0
 18 50  1  0
 18 51  1  0
 21 52  1  0
 21 53  1  0
 21 54  1  0
 24 55  1  0
 25 56  1  0
 26 57  1  0
 27 58  1  0
 28 59  1  0
M  END
>  <_SMILES>  (91) 
CCCc1c(C(=O)N[C@]23C[C@H]4C[C@H](C[C@H](C4)C2)C3)nn(C)c1-c1ccccc1

$$$$

     RDKit          3D

 51 55  0  0  0  0  0  0  0  0999 V2000
    3.3795   -1.2839   -1.2801 C   0  0  0  0  0  0  0  0  0  0  0  0
    2.9058   -0.3753   -0.1802 C   0  0  0  0  0  0  0  0  0  0  0  0
    1.5645   -0.2036   -0.0942 N   0  0  0  0  0  0  0  0  0  0  0  0
    1.1233    0.6152    0.8932 C   0  0  0  0  0  0  0  0  0  0  0  0
   -0.3768    0.8025    0.9829 C   0  0  0  0  0  0  0  0  0  0  0  0
   -0.8978    1.5172    1.8315 O   0  0  0  0  0  0  0  0  0  0  0  0
   -1.0895    0.0959    0.0243 N   0  0  0  0  0  0  0  0  0  0  0  0
   -2.5435    0.0883   -0.1270 C   0  0  2  0  0  0  0  0  0  0  0  0
   -3.0940    1.5034   -0.4320 C   0  0  0  0  0  0  0  0  0  0  0  0
   -4.6188    1.4587   -0.6359 C   0  0  1  0  0  0  0  0  0  0  0  0
   -4.9463    0.5342   -1.8191 C   0  0  0  0  0  0  0  0  0  0  0  0
   -4.4290   -0.8847   -1.5350 C   0  0  2  0  0  0  0  0  0  0  0  0
   -5.0982   -1.4252   -0.2617 C   0  0  0  0  0  0  0  0  0  0  0  0
   -4.7716   -0.5122    0.9306 C   0  0  2  0  0  0  0  0  0  0  0  0
   -5.2839    0.9083    0.6373 C   0  0  0  0  0  0  0  0  0  0  0  0
   -3.2469   -0.4685    1.1355 C   0  0  0  0  0  0  0  0  0  0  0  0
   -2.9078   -0.8333   -1.3220 C   0  0  0  0  0  0  0  0  0  0  0  0
    1.8966    1.2618    1.7819 N   0  0  0  0  0  0  0  0  0  0  0  0
    3.2212    1.0559    1.6521 C   0  0  0  0  0  0  0  0  0  0  0  0
    3.8036    0.2447    0.6883 C   0  0  0  0  0  0  0  0  0  0  0  0
    5.2549    0.0792    0.6216 C   0  0  0  0  0  0  0  0  0  0  0  0
    5.8901   -0.9621    1.3157 C   0  0  0  0  0  0  0  0  0  0  0  0
    7.2763   -1.1187    1.2528 C   0  0  0  0  0  0  0  0  0  0  0  0
    8.0444   -0.2353    0.4973 C   0  0  0  0  0  0  0  0  0  0  0  0
    7.4288    0.8055   -0.1946 C   0  0  0  0  0  0  0  0  0  0  0  0
    6.0426    0.9628   -0.1323 C   0  0  0  0  0  0  0  0  0  0  0  0
    2.5310   -1.6656   -1.8579 H   0  0  0  0  0  0  0  0  0  0  0  0
    3.9131   -2.1442   -0.8645 H   0  0  0  0  0  0  0  0  0  0  0  0
    4.0353   -0.7434   -1.9695 H   0  0  0  0  0  0  0  0  0  0  0  0
   -0.5200   -0.4551   -0.6138 H   0  0  0  0  0  0  0  0  0  0  0  0
   -2.6091    1.9121   -1.3283 H   0  0  0  0  0  0  0  0  0  0  0  0
   -2.8635    2.1978    0.3846 H   0  0  0  0  0  0  0  0  0  0  0  0
   -4.9930    2.4678   -0.8416 H   0  0  0  0  0  0  0  0  0  0  0  0
   -4.4890    0.9236   -2.7369 H   0  0  0  0  0  0  0  0  0  0  0  0
   -6.0299    0.5113   -1.9882 H   0  0  0  0  0  0  0  0  0  0  0  0
   -4.6623   -1.5397   -2.3819 H   0  0  0  0  0  0  0  0  0  0  0  0
   -6.1844   -1.4817   -0.4041 H   0  0  0  0  0  0  0  0  0  0  0  0
   -4.7502   -2.4455   -0.0590 H   0  0  0  0  0  0  0  0  0  0  0  0
   -5.2541   -0.8996    1.8350 H   0  0  0  0  0  0  0  0  0  0  0  0
   -6.3737    0.8943    0.5133 H   0  0  0  0  0  0  0  0  0  0  0  0
   -5.0687    1.5673    1.4874 H   0  0  0  0  0  0  0  0  0  0  0  0
   -2.8717   -1.4748    1.3638 H   0  0  0  0  0  0  0  0  0  0  0  0
   -3.0224    0.1486    2.0134 H   0  0  0  0  0  0  0  0  0  0  0  0
   -2.5244   -1.8475   -1.1468 H   0  0  0  0  0  0  0  0  0  0  0  0
   -2.4180   -0.4753   -2.2375 H   0  0  0  0  0  0  0  0  0  0  0  0
    3.8330    1.5861    2.3795 H   0  0  0  0  0  0  0  0  0  0  0  0
    5.3068   -1.6608    1.9130 H   0  0  0  0  0  0  0  0  0  0  0  0
    7.7567   -1.9293    1.7952 H   0  0  0  0  0  0  0  0  0  0  0  0
    9.1238   -0.3567    0.4496 H   0  0  0  0  0  0  0  0  0  0  0  0
    8.0282    1.4966   -0.7822 H   0  0  0  0  0  0  0  0  0  0  0  0
    5.5796    1.7829   -0.6785 H   0  0  0  0  0  0  0  0  0  0  0  0
  1  2  1  0
  2  3  2  0
  3  4  1  0
  4  5  1  0
  5  6  2  0
  5  7  1  0
  8  7  1  1
  8  9  1  0
  9 10  1  0
 10 11  1  0
 11 12  1  0
 12 13  1  0
 13 14  1  0
 14 15  1  0
 14 16  1  0
 12 17  1  0
  4 18  2  0
 18 19  1  0
 19 20  2  0
 20 21  1  0
 21 22  2  0
 22 23  1  0
 23 24  2  0
 24 25  1  0
 25 26  2  0
 20  2  1  0
 26 21  1  0
 16  8  1  0
 17  8  1  0
 15 10  1  0
  1 27  1  0
  1 28  1  0
  1 29  1  0
  7 30  1  0
  9 31  1  0
  9 32  1  0
 10 33  1  6
 11 34  1  0
 11 35  1  0
 12 36  1  6
 13 37  1  0
 13 38  1  0
 14 39  1  1
 15 40  1  0
 15 41  1  0
 16 42  1  0
 16 43  1  0
 17 44  1  0
 17 45  1  0
 19 46  1  0
 22 47  1  0
 23 48  1  0
 24 49  1  0
 25 50  1  0
 26 51  1  0
M  END
>  <_SMILES>  (92) 
Cc1nc(C(=O)N[C@]23C[C@H]4C[C@H](C[C@H](C4)C2)C3)ncc1-c1ccccc1

$$$$

     RDKit          3D

 55 57  0  0  0  0  0  0  0  0999 V2000
    3.1811   -0.0489   -2.6119 O   0  0  0  0  0  0  0  0  0  0  0  0
    2.4329    0.2694   -1.6930 C   0  0  0  0  0  0  0  0  0  0  0  0
    2.8348    0.9808   -0.5819 N   0  0  0  0  0  0  0  0  0  0  0  0
    4.2265    1.2715   -0.2879 C   0  0  0  0  0  0  0  0  0  0  0  0
    4.3193    2.5407    0.5754 C   0  0  0  0  0  0  0  0  0  0  0  0
    5.5756    2.5509    1.4362 C   0  0  0  0  0  0  0  0  0  0  0  0
    5.6016    1.3708    2.4093 C   0  0  0  0  0  0  0  0  0  0  0  0
    4.8838    0.1272    1.8802 C   0  0  0  0  0  0  0  0  0  0  0  0
    4.9207    0.0573    0.3575 C   0  0  0  0  0  0  0  0  0  0  0  0
    1.0065   -0.0893   -1.6599 C   0  0  0  0  0  0  0  0  0  0  0  0
    0.2764   -0.7777   -2.6585 C   0  0  0  0  0  0  0  0  0  0  0  0
   -1.0121   -0.8934   -2.1786 C   0  0  0  0  0  0  0  0  0  0  0  0
   -2.1813   -1.5059   -2.7920 C   0  0  0  0  0  0  0  0  0  0  0  0
   -2.6608   -2.7381   -2.3336 C   0  0  0  0  0  0  0  0  0  0  0  0
   -3.7879   -3.3168   -2.9202 C   0  0  0  0  0  0  0  0  0  0  0  0
   -4.4378   -2.6695   -3.9702 C   0  0  0  0  0  0  0  0  0  0  0  0
   -3.9594   -1.4464   -4.4382 C   0  0  0  0  0  0  0  0  0  0  0  0
   -2.8321   -0.8668   -3.8529 C   0  0  0  0  0  0  0  0  0  0  0  0
   -0.9952   -0.2677   -0.9551 N   0  0  0  0  0  0  0  0  0  0  0  0
   -2.1131   -0.0567   -0.0470 C   0  0  0  0  0  0  0  0  0  0  0  0
   -2.1022   -1.0495    1.1123 C   0  0  0  0  0  0  0  0  0  0  0  0
   -3.3681   -1.0196    1.9749 C   0  0  0  0  0  0  0  0  0  0  0  0
   -3.6086    0.3030    2.7053 C   0  0  0  0  0  0  0  0  0  0  0  0
   -4.5828    1.2241    1.9791 C   0  0  0  0  0  0  0  0  0  0  0  0
   -4.7132    2.4438    2.6959 O   0  0  0  0  0  0  0  0  0  0  0  0
    0.2182    0.2143   -0.6081 N   0  0  0  0  0  0  0  0  0  0  0  0
    2.1257    1.0488    0.1449 H   0  0  0  0  0  0  0  0  0  0  0  0
    4.7251    1.4604   -1.2473 H   0  0  0  0  0  0  0  0  0  0  0  0
    4.2999    3.4244   -0.0739 H   0  0  0  0  0  0  0  0  0  0  0  0
    3.4430    2.6282    1.2318 H   0  0  0  0  0  0  0  0  0  0  0  0
    5.6462    3.4905    1.9958 H   0  0  0  0  0  0  0  0  0  0  0  0
    6.4585    2.5080    0.7860 H   0  0  0  0  0  0  0  0  0  0  0  0
    5.1413    1.6633    3.3610 H   0  0  0  0  0  0  0  0  0  0  0  0
    6.6463    1.1279    2.6381 H   0  0  0  0  0  0  0  0  0  0  0  0
    5.3403   -0.7704    2.3124 H   0  0  0  0  0  0  0  0  0  0  0  0
    3.8392    0.1381    2.2160 H   0  0  0  0  0  0  0  0  0  0  0  0
    5.9708    0.0356    0.0377 H   0  0  0  0  0  0  0  0  0  0  0  0
    4.4733   -0.8837    0.0166 H   0  0  0  0  0  0  0  0  0  0  0  0
    0.6555   -1.1444   -3.6029 H   0  0  0  0  0  0  0  0  0  0  0  0
   -2.1529   -3.2610   -1.5268 H   0  0  0  0  0  0  0  0  0  0  0  0
   -4.1538   -4.2762   -2.5636 H   0  0  0  0  0  0  0  0  0  0  0  0
   -5.3129   -3.1222   -4.4298 H   0  0  0  0  0  0  0  0  0  0  0  0
   -4.4611   -0.9450   -5.2619 H   0  0  0  0  0  0  0  0  0  0  0  0
   -2.4659    0.0863   -4.2282 H   0  0  0  0  0  0  0  0  0  0  0  0
   -3.0412   -0.1310   -0.6221 H   0  0  0  0  0  0  0  0  0  0  0  0
   -2.0306    0.9740    0.3158 H   0  0  0  0  0  0  0  0  0  0  0  0
   -1.9826   -2.0680    0.7221 H   0  0  0  0  0  0  0  0  0  0  0  0
   -1.2250   -0.8660    1.7459 H   0  0  0  0  0  0  0  0  0  0  0  0
   -4.2410   -1.2952    1.3712 H   0  0  0  0  0  0  0  0  0  0  0  0
   -3.2577   -1.8070    2.7317 H   0  0  0  0  0  0  0  0  0  0  0  0
   -2.6647    0.8255    2.9026 H   0  0  0  0  0  0  0  0  0  0  0  0
   -4.0310    0.0865    3.6955 H   0  0  0  0  0  0  0  0  0  0  0  0
   -5.5729    0.7647    1.8935 H   0  0  0  0  0  0  0  0  0  0  0  0
   -4.2353    1.4684    0.9729 H   0  0  0  0  0  0  0  0  0  0  0  0
   -5.0594    2.2322    3.5799 H   0  0  0  0  0  0  0  0  0  0  0  0
  1  2  2  0
  2  3  1  0
  3  4  1  0
  4  5  1  0
  5  6  1  0
  6  7  1  0
  7  8  1  0
  8  9  1  0
  2 10  1  0
 10 11  1  0
 11 12  2  0
 12 13  1  0
 13 14  2  0
 14 15  1  0
 15 16  2  0
 16 17  1  0
 17 18  2  0
 12 19  1  0
 19 20  1  0
 20 21  1  0
 21 22  1  0
 22 23  1  0
 23 24  1  0
 24 25  1  0
 19 26  1  0
  9  4  1  0
 26 10  2  0
 18 13  1  0
  3 27  1  0
  4 28  1  0
  5 29  1  0
  5 30  1  0
  6 31  1  0
  6 32  1  0
  7 33  1  0
  7 34  1  0
  8 35  1  0
  8 36  1  0
  9 37  1  0
  9 38  1  0
 11 39  1  0
 14 40  1  0
 15 41  1  0
 16 42  1  0
 17 43  1  0
 18 44  1  0
 20 45  1  0
 20 46  1  0
 21 47  1  0
 21 48  1  0
 22 49  1  0
 22 50  1  0
 23 51  1  0
 23 52  1  0
 24 53  1  0
 24 54  1  0
 25 55  1  0
M  END
>  <_SMILES>  (93) 
O=C(NC1CCCCC1)c1cc(-c2ccccc2)n(CCCCCO)n1

$$$$

     RDKit          3D

 55 57  0  0  0  0  0  0  0  0999 V2000
    1.6580   -2.5564   -1.8185 C   0  0  0  0  0  0  0  0  0  0  0  0
    1.0320   -1.4329   -1.0724 C   0  0  0  0  0  0  0  0  0  0  0  0
    1.6970   -0.2750   -0.5499 C   0  0  0  0  0  0  0  0  0  0  0  0
    3.1560    0.0010   -0.6166 C   0  0  0  0  0  0  0  0  0  0  0  0
    3.9521   -0.9257   -0.7929 O   0  0  0  0  0  0  0  0  0  0  0  0
    3.6227    1.3180   -0.4757 N   0  0  0  0  0  0  0  0  0  0  0  0
    2.7703    2.5060   -0.5553 C   0  0  0  0  0  0  0  0  0  0  0  0
    3.5429    3.7406   -1.0123 C   0  0  0  0  0  0  0  0  0  0  0  0
    4.7440    4.0345   -0.1159 C   0  0  0  0  0  0  0  0  0  0  0  0
    5.3786    2.7712    0.4655 C   0  0  0  0  0  0  0  0  0  0  0  0
    5.0618    1.5318   -0.3626 C   0  0  0  0  0  0  0  0  0  0  0  0
    0.8177    0.5233    0.0834 N   0  0  0  0  0  0  0  0  0  0  0  0
   -0.3702   -0.0983   -0.0401 N   0  0  0  0  0  0  0  0  0  0  0  0
   -1.5340    0.5158    0.5842 C   0  0  0  0  0  0  0  0  0  0  0  0
   -1.7990   -0.0512    1.9780 C   0  0  0  0  0  0  0  0  0  0  0  0
   -2.8227    0.7508    2.7859 C   0  0  0  0  0  0  0  0  0  0  0  0
   -4.2198    0.9090    2.1727 C   0  0  0  0  0  0  0  0  0  0  0  0
   -4.9229   -0.4104    1.8771 C   0  0  0  0  0  0  0  0  0  0  0  0
   -4.4115   -0.9498    0.6706 O   0  0  0  0  0  0  0  0  0  0  0  0
   -0.3047   -1.2807   -0.7338 C   0  0  0  0  0  0  0  0  0  0  0  0
   -1.4369   -2.1648   -0.9858 C   0  0  0  0  0  0  0  0  0  0  0  0
   -1.5877   -3.3409   -0.2417 C   0  0  0  0  0  0  0  0  0  0  0  0
   -2.6542   -4.2055   -0.4966 C   0  0  0  0  0  0  0  0  0  0  0  0
   -3.5725   -3.9022   -1.5009 C   0  0  0  0  0  0  0  0  0  0  0  0
   -3.4251   -2.7355   -2.2503 C   0  0  0  0  0  0  0  0  0  0  0  0
   -2.3589   -1.8697   -1.9954 C   0  0  0  0  0  0  0  0  0  0  0  0
    2.2469   -3.1814   -1.1398 H   0  0  0  0  0  0  0  0  0  0  0  0
    2.3168   -2.1781   -2.6067 H   0  0  0  0  0  0  0  0  0  0  0  0
    0.9085   -3.1929   -2.2988 H   0  0  0  0  0  0  0  0  0  0  0  0
    2.3497    2.6796    0.4417 H   0  0  0  0  0  0  0  0  0  0  0  0
    1.9525    2.3276   -1.2602 H   0  0  0  0  0  0  0  0  0  0  0  0
    2.8811    4.6132   -1.0462 H   0  0  0  0  0  0  0  0  0  0  0  0
    3.8987    3.5771   -2.0380 H   0  0  0  0  0  0  0  0  0  0  0  0
    4.4421    4.6910    0.7091 H   0  0  0  0  0  0  0  0  0  0  0  0
    5.4888    4.5941   -0.6945 H   0  0  0  0  0  0  0  0  0  0  0  0
    4.9981    2.6230    1.4846 H   0  0  0  0  0  0  0  0  0  0  0  0
    6.4625    2.9058    0.5525 H   0  0  0  0  0  0  0  0  0  0  0  0
    5.4629    1.6306   -1.3784 H   0  0  0  0  0  0  0  0  0  0  0  0
    5.5367    0.6563    0.0936 H   0  0  0  0  0  0  0  0  0  0  0  0
   -2.3827    0.3838   -0.0909 H   0  0  0  0  0  0  0  0  0  0  0  0
   -1.3356    1.5933    0.6403 H   0  0  0  0  0  0  0  0  0  0  0  0
   -2.1117   -1.0991    1.9089 H   0  0  0  0  0  0  0  0  0  0  0  0
   -0.8604   -0.0630    2.5479 H   0  0  0  0  0  0  0  0  0  0  0  0
   -2.9252    0.2779    3.7710 H   0  0  0  0  0  0  0  0  0  0  0  0
   -2.4160    1.7530    2.9718 H   0  0  0  0  0  0  0  0  0  0  0  0
   -4.1500    1.5102    1.2587 H   0  0  0  0  0  0  0  0  0  0  0  0
   -4.8302    1.4756    2.8863 H   0  0  0  0  0  0  0  0  0  0  0  0
   -5.9953   -0.2414    1.7389 H   0  0  0  0  0  0  0  0  0  0  0  0
   -4.7808   -1.1307    2.6889 H   0  0  0  0  0  0  0  0  0  0  0  0
   -4.7551   -1.8551    0.5737 H   0  0  0  0  0  0  0  0  0  0  0  0
   -0.8706   -3.5893    0.5375 H   0  0  0  0  0  0  0  0  0  0  0  0
   -2.7609   -5.1189    0.0826 H   0  0  0  0  0  0  0  0  0  0  0  0
   -4.3980   -4.5789   -1.7062 H   0  0  0  0  0  0  0  0  0  0  0  0
   -4.1366   -2.4991   -3.0371 H   0  0  0  0  0  0  0  0  0  0  0  0
   -2.2492   -0.9672   -2.5916 H   0  0  0  0  0  0  0  0  0  0  0  0
  1  2  1  0
  2  3  1  0
  3  4  1  0
  4  5  2  0
  4  6  1  0
  6  7  1  0
  7  8  1  0
  8  9  1  0
  9 10  1  0
 10 11  1  0
  3 12  2  0
 12 13  1  0
 13 14  1  0
 14 15  1  0
 15 16  1  0
 16 17  1  0
 17 18  1  0
 18 19  1  0
 13 20  1  0
 20 21  1  0
 21 22  2  0
 22 23  1  0
 23 24  2  0
 24 25  1  0
 25 26  2  0
 20  2  2  0
 26 21  1  0
 11  6  1  0
  1 27  1  0
  1 28  1  0
  1 29  1  0
  7 30  1  0
  7 31  1  0
  8 32  1  0
  8 33  1  0
  9 34  1  0
  9 35  1  0
 10 36  1  0
 10 37  1  0
 11 38  1  0
 11 39  1  0
 14 40  1  0
 14 41  1  0
 15 42  1  0
 15 43  1  0
 16 44  1  0
 16 45  1  0
 17 46  1  0
 17 47  1  0
 18 48  1  0
 18 49  1  0
 19 50  1  0
 22 51  1  0
 23 52  1  0
 24 53  1  0
 25 54  1  0
 26 55  1  0
M  END
>  <_SMILES>  (94) 
Cc1c(C(=O)N2CCCCC2)nn(CCCCCO)c1-c1ccccc1

$$$$

     RDKit          3D

 64 68  0  0  0  0  0  0  0  0999 V2000
   -0.1100   -2.1511    0.9481 C   0  0  0  0  0  0  0  0  0  0  0  0
   -0.8809   -1.1222    0.2017 C   0  0  0  0  0  0  0  0  0  0  0  0
   -0.4396    0.1849   -0.1859 C   0  0  0  0  0  0  0  0  0  0  0  0
    0.8866    0.8022    0.0220 C   0  0  0  0  0  0  0  0  0  0  0  0
    1.0344    1.9695    0.3687 O   0  0  0  0  0  0  0  0  0  0  0  0
    1.9421   -0.0573   -0.2401 N   0  0  0  0  0  0  0  0  0  0  0  0
    3.3544    0.3299   -0.2220 C   0  0  2  0  0  0  0  0  0  0  0  0
    3.6676    1.4008   -1.2954 C   0  0  0  0  0  0  0  0  0  0  0  0
    5.1678    1.7445   -1.2947 C   0  0  1  0  0  0  0  0  0  0  0  0
    5.5665    2.2719    0.0942 C   0  0  0  0  0  0  0  0  0  0  0  0
    5.2955    1.2016    1.1654 C   0  0  2  0  0  0  0  0  0  0  0  0
    6.1073   -0.0611    0.8381 C   0  0  0  0  0  0  0  0  0  0  0  0
    5.7056   -0.5977   -0.5442 C   0  0  2  0  0  0  0  0  0  0  0  0
    5.9796    0.4775   -1.6076 C   0  0  0  0  0  0  0  0  0  0  0  0
    4.2053   -0.9304   -0.5387 C   0  0  0  0  0  0  0  0  0  0  0  0
    3.7955    0.8566    1.1675 C   0  0  0  0  0  0  0  0  0  0  0  0
   -1.4128    0.8420   -0.8360 N   0  0  0  0  0  0  0  0  0  0  0  0
   -2.4661    0.0071   -0.8244 N   0  0  0  0  0  0  0  0  0  0  0  0
   -3.7052    0.4366   -1.4560 C   0  0  0  0  0  0  0  0  0  0  0  0
   -4.8220    0.7345   -0.4600 C   0  0  0  0  0  0  0  0  0  0  0  0
   -4.5991    1.9955    0.1731 O   0  0  0  0  0  0  0  0  0  0  0  0
   -5.6088    2.3014    1.1300 C   0  0  0  0  0  0  0  0  0  0  0  0
   -5.2631    3.6100    1.8321 C   0  0  0  0  0  0  0  0  0  0  0  0
   -6.3067    3.9958    2.7200 O   0  0  0  0  0  0  0  0  0  0  0  0
   -2.1833   -1.2205   -0.2690 C   0  0  0  0  0  0  0  0  0  0  0  0
   -3.1262   -2.3306   -0.1916 C   0  0  0  0  0  0  0  0  0  0  0  0
   -3.7489   -2.6429    1.0223 C   0  0  0  0  0  0  0  0  0  0  0  0
   -4.6540   -3.7029    1.0973 C   0  0  0  0  0  0  0  0  0  0  0  0
   -4.9366   -4.4600   -0.0387 C   0  0  0  0  0  0  0  0  0  0  0  0
   -4.3123   -4.1612   -1.2492 C   0  0  0  0  0  0  0  0  0  0  0  0
   -3.4071   -3.1010   -1.3255 C   0  0  0  0  0  0  0  0  0  0  0  0
    0.4933   -2.7480    0.2568 H   0  0  0  0  0  0  0  0  0  0  0  0
    0.5575   -1.6869    1.6810 H   0  0  0  0  0  0  0  0  0  0  0  0
   -0.7690   -2.8306    1.4967 H   0  0  0  0  0  0  0  0  0  0  0  0
    1.6981   -0.8879   -0.7628 H   0  0  0  0  0  0  0  0  0  0  0  0
    3.0901    2.3153   -1.1154 H   0  0  0  0  0  0  0  0  0  0  0  0
    3.3680    1.0392   -2.2879 H   0  0  0  0  0  0  0  0  0  0  0  0
    5.3709    2.5093   -2.0526 H   0  0  0  0  0  0  0  0  0  0  0  0
    5.0028    3.1842    0.3247 H   0  0  0  0  0  0  0  0  0  0  0  0
    6.6290    2.5446    0.0993 H   0  0  0  0  0  0  0  0  0  0  0  0
    5.5874    1.5825    2.1505 H   0  0  0  0  0  0  0  0  0  0  0  0
    7.1799    0.1679    0.8544 H   0  0  0  0  0  0  0  0  0  0  0  0
    5.9336   -0.8275    1.6033 H   0  0  0  0  0  0  0  0  0  0  0  0
    6.2841   -1.4997   -0.7729 H   0  0  0  0  0  0  0  0  0  0  0  0
    7.0502    0.7151   -1.6330 H   0  0  0  0  0  0  0  0  0  0  0  0
    5.7140    0.0981   -2.6019 H   0  0  0  0  0  0  0  0  0  0  0  0
    4.0020   -1.7179    0.1995 H   0  0  0  0  0  0  0  0  0  0  0  0
    3.9173   -1.3449   -1.5143 H   0  0  0  0  0  0  0  0  0  0  0  0
    3.5854    0.1049    1.9397 H   0  0  0  0  0  0  0  0  0  0  0  0
    3.2294    1.7514    1.4495 H   0  0  0  0  0  0  0  0  0  0  0  0
   -3.4779    1.3253   -2.0565 H   0  0  0  0  0  0  0  0  0  0  0  0
   -4.0053   -0.3621   -2.1418 H   0  0  0  0  0  0  0  0  0  0  0  0
   -5.7721    0.7901   -1.0041 H   0  0  0  0  0  0  0  0  0  0  0  0
   -4.9055   -0.0468    0.3012 H   0  0  0  0  0  0  0  0  0  0  0  0
   -6.5797    2.3906    0.6284 H   0  0  0  0  0  0  0  0  0  0  0  0
   -5.6895    1.4975    1.8715 H   0  0  0  0  0  0  0  0  0  0  0  0
   -5.0908    4.4145    1.1088 H   0  0  0  0  0  0  0  0  0  0  0  0
   -4.3395    3.4961    2.4091 H   0  0  0  0  0  0  0  0  0  0  0  0
   -7.0374    4.3318    2.1733 H   0  0  0  0  0  0  0  0  0  0  0  0
   -3.5336   -2.0592    1.9150 H   0  0  0  0  0  0  0  0  0  0  0  0
   -5.1355   -3.9395    2.0428 H   0  0  0  0  0  0  0  0  0  0  0  0
   -5.6390   -5.2877    0.0210 H   0  0  0  0  0  0  0  0  0  0  0  0
   -4.5259   -4.7579   -2.1324 H   0  0  0  0  0  0  0  0  0  0  0  0
   -2.9174   -2.8851   -2.2723 H   0  0  0  0  0  0  0  0  0  0  0  0
  1  2  1  0
  2  3  1  0
  3  4  1  0
  4  5  2  0
  4  6  1  0
  7  6  1  1
  7  8  1  0
  8  9  1  0
  9 10  1  0
 10 11  1  0
 11 12  1  0
 12 13  1  0
 13 14  1  0
 13 15  1  0
 11 16  1  0
  3 17  2  0
 17 18  1  0
 18 19  1  0
 19 20  1  0
 20 21  1  0
 21 22  1  0
 22 23  1  0
 23 24  1  0
 18 25  1  0
 25 26  1  0
 26 27  2  0
 27 28  1  0
 28 29  2  0
 29 30  1  0
 30 31  2  0
 25  2  2  0
 31 26  1  0
 15  7  1  0
 16  7  1  0
 14  9  1  0
  1 32  1  0
  1 33  1  0
  1 34  1  0
  6 35  1  0
  8 36  1  0
  8 37  1  0
  9 38  1  6
 10 39  1  0
 10 40  1  0
 11 41  1  1
 12 42  1  0
 12 43  1  0
 13 44  1  6
 14 45  1  0
 14 46  1  0
 15 47  1  0
 15 48  1  0
 16 49  1  0
 16 50  1  0
 19 51  1  0
 19 52  1  0
 20 53  1  0
 20 54  1  0
 22 55  1  0
 22 56  1  0
 23 57  1  0
 23 58  1  0
 24 59  1  0
 27 60  1  0
 28 61  1  0
 29 62  1  0
 30 63  1  0
 31 64  1  0
M  END
>  <_SMILES>  (95) 
Cc1c(C(=O)N[C@]23C[C@H]4C[C@H](C[C@H](C4)C2)C3)nn(CCOCCO)c1-c1ccccc1

$$$$

     RDKit          3D

 57 62  0  0  0  0  0  0  0  0999 V2000
    1.2231   -2.0968   -0.8915 O   0  0  0  0  0  0  0  0  0  0  0  0
    0.7578   -1.0697   -0.4111 C   0  0  0  0  0  0  0  0  0  0  0  0
    1.5024    0.0146   -0.0021 N   0  0  0  0  0  0  0  0  0  0  0  0
    2.9553    0.1354   -0.0634 C   0  0  2  0  0  0  0  0  0  0  0  0
    3.6545   -0.9500    0.7919 C   0  0  0  0  0  0  0  0  0  0  0  0
    5.1825   -0.7715    0.7493 C   0  0  1  0  0  0  0  0  0  0  0  0
    5.6636   -0.8733   -0.7081 C   0  0  0  0  0  0  0  0  0  0  0  0
    5.0026    0.2225   -1.5616 C   0  0  2  0  0  0  0  0  0  0  0  0
    5.3692    1.6009   -0.9894 C   0  0  0  0  0  0  0  0  0  0  0  0
    4.8835    1.7117    0.4643 C   0  0  2  0  0  0  0  0  0  0  0  0
    5.5480    0.6127    1.3083 C   0  0  0  0  0  0  0  0  0  0  0  0
    3.3585    1.5233    0.5020 C   0  0  0  0  0  0  0  0  0  0  0  0
    3.4746    0.0442   -1.5197 C   0  0  0  0  0  0  0  0  0  0  0  0
   -0.6876   -0.8761   -0.2092 C   0  0  0  0  0  0  0  0  0  0  0  0
   -1.7168   -1.7796   -0.5308 C   0  0  0  0  0  0  0  0  0  0  0  0
   -2.9024   -1.1520   -0.1964 C   0  0  0  0  0  0  0  0  0  0  0  0
   -4.2515   -1.6270   -0.4897 C   0  0  0  0  0  0  0  0  0  0  0  0
   -4.7094   -2.8303    0.0620 C   0  0  0  0  0  0  0  0  0  0  0  0
   -5.9927   -3.2969   -0.2299 C   0  0  0  0  0  0  0  0  0  0  0  0
   -6.8221   -2.5707   -1.0832 C   0  0  0  0  0  0  0  0  0  0  0  0
   -6.3686   -1.3809   -1.6504 C   0  0  0  0  0  0  0  0  0  0  0  0
   -5.0857   -0.9126   -1.3600 C   0  0  0  0  0  0  0  0  0  0  0  0
   -2.5354    0.0547    0.4033 N   0  0  0  0  0  0  0  0  0  0  0  0
   -3.3256    1.0372    1.0820 C   0  0  0  0  0  0  0  0  0  0  0  0
   -4.6253    0.7756    1.5321 C   0  0  0  0  0  0  0  0  0  0  0  0
   -5.3579    1.7667    2.1950 C   0  0  0  0  0  0  0  0  0  0  0  0
   -4.7987    3.0212    2.4249 C   0  0  0  0  0  0  0  0  0  0  0  0
   -3.5003    3.2877    2.0014 C   0  0  0  0  0  0  0  0  0  0  0  0
   -2.7646    2.3013    1.3395 C   0  0  0  0  0  0  0  0  0  0  0  0
   -1.1867    0.2592    0.3078 N   0  0  0  0  0  0  0  0  0  0  0  0
    0.9460    0.7780    0.3763 H   0  0  0  0  0  0  0  0  0  0  0  0
    3.3012   -0.8981    1.8301 H   0  0  0  0  0  0  0  0  0  0  0  0
    3.4016   -1.9544    0.4319 H   0  0  0  0  0  0  0  0  0  0  0  0
    5.6617   -1.5511    1.3520 H   0  0  0  0  0  0  0  0  0  0  0  0
    5.4206   -1.8627   -1.1148 H   0  0  0  0  0  0  0  0  0  0  0  0
    6.7550   -0.7716   -0.7494 H   0  0  0  0  0  0  0  0  0  0  0  0
    5.3543    0.1472   -2.5967 H   0  0  0  0  0  0  0  0  0  0  0  0
    4.9150    2.3924   -1.5981 H   0  0  0  0  0  0  0  0  0  0  0  0
    6.4552    1.7485   -1.0340 H   0  0  0  0  0  0  0  0  0  0  0  0
    5.1449    2.6964    0.8675 H   0  0  0  0  0  0  0  0  0  0  0  0
    5.2225    0.6932    2.3527 H   0  0  0  0  0  0  0  0  0  0  0  0
    6.6371    0.7433    1.3032 H   0  0  0  0  0  0  0  0  0  0  0  0
    2.8728    2.3216   -0.0751 H   0  0  0  0  0  0  0  0  0  0  0  0
    2.9981    1.6296    1.5340 H   0  0  0  0  0  0  0  0  0  0  0  0
    2.9920    0.8099   -2.1412 H   0  0  0  0  0  0  0  0  0  0  0  0
    3.2150   -0.9224   -1.9676 H   0  0  0  0  0  0  0  0  0  0  0  0
   -1.6052   -2.7463   -1.0045 H   0  0  0  0  0  0  0  0  0  0  0  0
   -4.0721   -3.4095    0.7266 H   0  0  0  0  0  0  0  0  0  0  0  0
   -6.3431   -4.2293    0.2055 H   0  0  0  0  0  0  0  0  0  0  0  0
   -7.8200   -2.9363   -1.3124 H   0  0  0  0  0  0  0  0  0  0  0  0
   -7.0114   -0.8195   -2.3237 H   0  0  0  0  0  0  0  0  0  0  0  0
   -4.7424    0.0118   -1.8197 H   0  0  0  0  0  0  0  0  0  0  0  0
   -5.0958   -0.1949    1.4233 H   0  0  0  0  0  0  0  0  0  0  0  0
   -6.3660    1.5513    2.5415 H   0  0  0  0  0  0  0  0  0  0  0  0
   -5.3714    3.7867    2.9420 H   0  0  0  0  0  0  0  0  0  0  0  0
   -3.0565    4.2627    2.1855 H   0  0  0  0  0  0  0  0  0  0  0  0
   -1.7533    2.5420    1.0172 H   0  0  0  0  0  0  0  0  0  0  0  0
  1  2  2  0
  2  3  1  0
  4  3  1  6
  4  5  1  0
  5  6  1  0
  6  7  1  0
  7  8  1  0
  8  9  1  0
  9 10  1  0
 10 11  1  0
 10 12  1  0
  8 13  1  0
  2 14  1  0
 14 15  1  0
 15 16  2  0
 16 17  1  0
 17 18  2  0
 18 19  1  0
 19 20  2  0
 20 21  1  0
 21 22  2  0
 16 23  1  0
 23 24  1  0
 24 25  2  0
 25 26  1  0
 26 27  2  0
 27 28  1  0
 28 29  2  0
 23 30  1  0
 12  4  1  0
 30 14  2  0
 13  4  1  0
 22 17  1  0
 29 24  1  0
 11  6  1  0
  3 31  1  0
  5 32  1  0
  5 33  1  0
  6 34  1  1
  7 35  1  0
  7 36  1  0
  8 37  1  6
  9 38  1  0
  9 39  1  0
 10 40  1  1
 11 41  1  0
 11 42  1  0
 12 43  1  0
 12 44  1  0
 13 45  1  0
 13 46  1  0
 15 47  1  0
 18 48  1  0
 19 49  1  0
 20 50  1  0
 21 51  1  0
 22 52  1  0
 25 53  1  0
 26 54  1  0
 27 55  1  0
 28 56  1  0
 29 57  1  0
M  END
>  <_SMILES>  (96) 
O=C(N[C@]12C[C@H]3C[C@H](C[C@H](C3)C1)C2)c1cc(-c2ccccc2)n(-c2ccccc2)n1

$$$$

     RDKit          3D

 52 54  0  0  0  0  0  0  0  0999 V2000
   -1.3749   -3.0283   -1.4266 C   0  0  0  0  0  0  0  0  0  0  0  0
   -0.6431   -2.0668   -0.5625 C   0  0  0  0  0  0  0  0  0  0  0  0
   -1.0981   -0.7815   -0.1400 C   0  0  0  0  0  0  0  0  0  0  0  0
   -2.3686   -0.1008   -0.4742 C   0  0  0  0  0  0  0  0  0  0  0  0
   -3.2611   -0.6623   -1.1006 O   0  0  0  0  0  0  0  0  0  0  0  0
   -2.3828    1.1998   -0.0066 N   0  0  0  0  0  0  0  0  0  0  0  0
   -3.3996    2.1615   -0.1070 C   0  0  0  0  0  0  0  0  0  0  0  0
   -4.6295    1.9345   -0.7260 C   0  0  0  0  0  0  0  0  0  0  0  0
   -5.5913    2.9488   -0.7807 C   0  0  0  0  0  0  0  0  0  0  0  0
   -5.3309    4.1956   -0.2162 C   0  0  0  0  0  0  0  0  0  0  0  0
   -4.1073    4.4308    0.4048 C   0  0  0  0  0  0  0  0  0  0  0  0
   -3.1470    3.4176    0.4585 C   0  0  0  0  0  0  0  0  0  0  0  0
   -0.1893   -0.1846    0.6551 N   0  0  0  0  0  0  0  0  0  0  0  0
    0.8476   -1.0410    0.6857 N   0  0  0  0  0  0  0  0  0  0  0  0
    2.0389   -0.6534    1.4212 C   0  0  0  0  0  0  0  0  0  0  0  0
    3.0461    0.1431    0.5865 C   0  0  0  0  0  0  0  0  0  0  0  0
    2.5374    1.4788    0.0279 C   0  0  0  0  0  0  0  0  0  0  0  0
    2.1606    2.4957    1.1113 C   0  0  0  0  0  0  0  0  0  0  0  0
    1.6374    3.7964    0.5110 C   0  0  0  0  0  0  0  0  0  0  0  0
    0.3780    3.5645   -0.1049 O   0  0  0  0  0  0  0  0  0  0  0  0
    0.6215   -2.2041   -0.0079 C   0  0  0  0  0  0  0  0  0  0  0  0
    1.5790   -3.2966   -0.1132 C   0  0  0  0  0  0  0  0  0  0  0  0
    1.6048   -4.3062    0.8549 C   0  0  0  0  0  0  0  0  0  0  0  0
    2.5251   -5.3511    0.7549 C   0  0  0  0  0  0  0  0  0  0  0  0
    3.4193   -5.3931   -0.3144 C   0  0  0  0  0  0  0  0  0  0  0  0
    3.3924   -4.3938   -1.2866 C   0  0  0  0  0  0  0  0  0  0  0  0
    2.4726   -3.3485   -1.1882 C   0  0  0  0  0  0  0  0  0  0  0  0
   -2.3216   -3.3176   -0.9594 H   0  0  0  0  0  0  0  0  0  0  0  0
   -1.5897   -2.5789   -2.4015 H   0  0  0  0  0  0  0  0  0  0  0  0
   -0.7979   -3.9415   -1.6007 H   0  0  0  0  0  0  0  0  0  0  0  0
   -1.5127    1.4693    0.4537 H   0  0  0  0  0  0  0  0  0  0  0  0
   -4.8723    0.9773   -1.1762 H   0  0  0  0  0  0  0  0  0  0  0  0
   -6.5454    2.7589   -1.2657 H   0  0  0  0  0  0  0  0  0  0  0  0
   -6.0815    4.9801   -0.2596 H   0  0  0  0  0  0  0  0  0  0  0  0
   -3.8993    5.4000    0.8495 H   0  0  0  0  0  0  0  0  0  0  0  0
   -2.1975    3.6182    0.9493 H   0  0  0  0  0  0  0  0  0  0  0  0
    1.7145   -0.0910    2.3037 H   0  0  0  0  0  0  0  0  0  0  0  0
    2.5128   -1.5660    1.7981 H   0  0  0  0  0  0  0  0  0  0  0  0
    3.9344    0.3319    1.2017 H   0  0  0  0  0  0  0  0  0  0  0  0
    3.3791   -0.4724   -0.2582 H   0  0  0  0  0  0  0  0  0  0  0  0
    1.6909    1.3040   -0.6452 H   0  0  0  0  0  0  0  0  0  0  0  0
    3.3325    1.9098   -0.5940 H   0  0  0  0  0  0  0  0  0  0  0  0
    3.0411    2.7101    1.7277 H   0  0  0  0  0  0  0  0  0  0  0  0
    1.3879    2.0775    1.7645 H   0  0  0  0  0  0  0  0  0  0  0  0
    2.3330    4.1941   -0.2350 H   0  0  0  0  0  0  0  0  0  0  0  0
    1.4982    4.5449    1.2972 H   0  0  0  0  0  0  0  0  0  0  0  0
    0.1394    4.3745   -0.5883 H   0  0  0  0  0  0  0  0  0  0  0  0
    0.9053   -4.2861    1.6874 H   0  0  0  0  0  0  0  0  0  0  0  0
    2.5405   -6.1346    1.5081 H   0  0  0  0  0  0  0  0  0  0  0  0
    4.1333   -6.2091   -0.3936 H   0  0  0  0  0  0  0  0  0  0  0  0
    4.0841   -4.4310   -2.1243 H   0  0  0  0  0  0  0  0  0  0  0  0
    2.4535   -2.5775   -1.9551 H   0  0  0  0  0  0  0  0  0  0  0  0
  1  2  1  0
  2  3  1  0
  3  4  1  0
  4  5  2  0
  4  6  1  0
  6  7  1  0
  7  8  2  0
  8  9  1  0
  9 10  2  0
 10 11  1  0
 11 12  2  0
  3 13  2  0
 13 14  1  0
 14 15  1  0
 15 16  1  0
 16 17  1  0
 17 18  1  0
 18 19  1  0
 19 20  1  0
 14 21  1  0
 21 22  1  0
 22 23  2  0
 23 24  1  0
 24 25  2  0
 25 26  1  0
 26 27  2  0
 21  2  2  0
 27 22  1  0
 12  7  1  0
  1 28  1  0
  1 29  1  0
  1 30  1  0
  6 31  1  0
  8 32  1  0
  9 33  1  0
 10 34  1  0
 11 35  1  0
 12 36  1  0
 15 37  1  0
 15 38  1  0
 16 39  1  0
 16 40  1  0
 17 41  1  0
 17 42  1  0
 18 43  1  0
 18 44  1  0
 19 45  1  0
 19 46  1  0
 20 47  1  0
 23 48  1  0
 24 49  1  0
 25 50  1  0
 26 51  1  0
 27 52  1  0
M  END
>  <_SMILES>  (97) 
Cc1c(C(=O)Nc2ccccc2)nn(CCCCCO)c1-c1ccccc1

$$$$

     RDKit          3D

 60 65  0  0  0  0  0  0  0  0999 V2000
   -1.4495   -2.1723   -0.9489 O   0  0  0  0  0  0  0  0  0  0  0  0
   -1.0531   -1.1911   -0.3303 C   0  0  0  0  0  0  0  0  0  0  0  0
   -1.8214   -0.0864   -0.0342 N   0  0  0  0  0  0  0  0  0  0  0  0
   -3.2210    0.1131   -0.3943 C   0  0  2  0  0  0  0  0  0  0  0  0
   -3.6751    1.4969    0.1415 C   0  0  0  0  0  0  0  0  0  0  0  0
   -5.1475    1.7667   -0.2074 C   0  0  1  0  0  0  0  0  0  0  0  0
   -5.3167    1.7390   -1.7346 C   0  0  0  0  0  0  0  0  0  0  0  0
   -4.8964    0.3668   -2.2843 C   0  0  2  0  0  0  0  0  0  0  0  0
   -5.7707   -0.7254   -1.6449 C   0  0  0  0  0  0  0  0  0  0  0  0
   -5.6071   -0.7066   -0.1155 C   0  0  2  0  0  0  0  0  0  0  0  0
   -6.0233    0.6719    0.4218 C   0  0  0  0  0  0  0  0  0  0  0  0
   -4.1325   -0.9669    0.2393 C   0  0  0  0  0  0  0  0  0  0  0  0
   -3.4215    0.1067   -1.9300 C   0  0  0  0  0  0  0  0  0  0  0  0
    0.3233   -1.0777    0.1812 C   0  0  0  0  0  0  0  0  0  0  0  0
    1.3620   -2.0303    0.0498 C   0  0  0  0  0  0  0  0  0  0  0  0
    2.4600   -1.4883    0.6841 C   0  0  0  0  0  0  0  0  0  0  0  0
    3.7966   -2.0343    0.8579 C   0  0  0  0  0  0  0  0  0  0  0  0
    4.7966   -1.7621   -0.0814 C   0  0  0  0  0  0  0  0  0  0  0  0
    6.0822   -2.2778    0.0914 C   0  0  0  0  0  0  0  0  0  0  0  0
    6.3714   -3.0733    1.1993 C   0  0  0  0  0  0  0  0  0  0  0  0
    5.3758   -3.3567    2.1336 C   0  0  0  0  0  0  0  0  0  0  0  0
    4.0899   -2.8404    1.9629 C   0  0  0  0  0  0  0  0  0  0  0  0
    2.0445   -0.2582    1.1401 N   0  0  0  0  0  0  0  0  0  0  0  0
    2.8189    0.7120    1.9102 C   0  0  0  0  0  0  0  0  0  0  0  0
    3.7097    1.5609    1.0362 C   0  0  0  0  0  0  0  0  0  0  0  0
    5.1030    1.5265    1.1967 C   0  0  0  0  0  0  0  0  0  0  0  0
    5.9292    2.3148    0.3939 C   0  0  0  0  0  0  0  0  0  0  0  0
    5.3731    3.1500   -0.5727 C   0  0  0  0  0  0  0  0  0  0  0  0
    3.9906    3.1993   -0.7375 C   0  0  0  0  0  0  0  0  0  0  0  0
    3.1625    2.4118    0.0636 C   0  0  0  0  0  0  0  0  0  0  0  0
    0.7426    0.0060    0.8673 N   0  0  0  0  0  0  0  0  0  0  0  0
   -1.3241    0.6284    0.4926 H   0  0  0  0  0  0  0  0  0  0  0  0
   -3.0436    2.2906   -0.2799 H   0  0  0  0  0  0  0  0  0  0  0  0
   -3.5386    1.5434    1.2303 H   0  0  0  0  0  0  0  0  0  0  0  0
   -5.4461    2.7472    0.1799 H   0  0  0  0  0  0  0  0  0  0  0  0
   -4.7096    2.5288   -2.1937 H   0  0  0  0  0  0  0  0  0  0  0  0
   -6.3609    1.9452   -1.9998 H   0  0  0  0  0  0  0  0  0  0  0  0
   -5.0225    0.3509   -3.3727 H   0  0  0  0  0  0  0  0  0  0  0  0
   -5.4896   -1.7095   -2.0398 H   0  0  0  0  0  0  0  0  0  0  0  0
   -6.8229   -0.5648   -1.9102 H   0  0  0  0  0  0  0  0  0  0  0  0
   -6.2369   -1.4830    0.3331 H   0  0  0  0  0  0  0  0  0  0  0  0
   -5.9246    0.6940    1.5140 H   0  0  0  0  0  0  0  0  0  0  0  0
   -7.0797    0.8598    0.1937 H   0  0  0  0  0  0  0  0  0  0  0  0
   -3.8522   -1.9682   -0.1086 H   0  0  0  0  0  0  0  0  0  0  0  0
   -4.0065   -0.9746    1.3300 H   0  0  0  0  0  0  0  0  0  0  0  0
   -2.7851    0.8698   -2.3970 H   0  0  0  0  0  0  0  0  0  0  0  0
   -3.1144   -0.8538   -2.3606 H   0  0  0  0  0  0  0  0  0  0  0  0
    1.3045   -2.9896   -0.4468 H   0  0  0  0  0  0  0  0  0  0  0  0
    4.5815   -1.1412   -0.9488 H   0  0  0  0  0  0  0  0  0  0  0  0
    6.8555   -2.0599   -0.6407 H   0  0  0  0  0  0  0  0  0  0  0  0
    7.3716   -3.4784    1.3307 H   0  0  0  0  0  0  0  0  0  0  0  0
    5.5990   -3.9847    2.9923 H   0  0  0  0  0  0  0  0  0  0  0  0
    3.3187   -3.0742    2.6932 H   0  0  0  0  0  0  0  0  0  0  0  0
    3.3924    0.1536    2.6584 H   0  0  0  0  0  0  0  0  0  0  0  0
    2.1150    1.3508    2.4572 H   0  0  0  0  0  0  0  0  0  0  0  0
    5.5582    0.8758    1.9411 H   0  0  0  0  0  0  0  0  0  0  0  0
    7.0079    2.2754    0.5220 H   0  0  0  0  0  0  0  0  0  0  0  0
    6.0171    3.7629   -1.1979 H   0  0  0  0  0  0  0  0  0  0  0  0
    3.5555    3.8504   -1.4914 H   0  0  0  0  0  0  0  0  0  0  0  0
    2.0841    2.4607   -0.0797 H   0  0  0  0  0  0  0  0  0  0  0  0
  1  2  2  0
  2  3  1  0
  4  3  1  6
  4  5  1  0
  5  6  1  0
  6  7  1  0
  7  8  1  0
  8  9  1  0
  9 10  1  0
 10 11  1  0
 10 12  1  0
  8 13  1  0
  2 14  1  0
 14 15  1  0
 15 16  2  0
 16 17  1  0
 17 18  2  0
 18 19  1  0
 19 20  2  0
 20 21  1  0
 21 22  2  0
 16 23  1  0
 23 24  1  0
 24 25  1  0
 25 26  2  0
 26 27  1  0
 27 28  2  0
 28 29  1  0
 29 30  2  0
 23 31  1  0
 12  4  1  0
 31 14  2  0
 13  4  1  0
 22 17  1  0
 30 25  1  0
 11  6  1  0
  3 32  1  0
  5 33  1  0
  5 34  1  0
  6 35  1  1
  7 36  1  0
  7 37  1  0
  8 38  1  6
  9 39  1  0
  9 40  1  0
 10 41  1  1
 11 42  1  0
 11 43  1  0
 12 44  1  0
 12 45  1  0
 13 46  1  0
 13 47  1  0
 15 48  1  0
 18 49  1  0
 19 50  1  0
 20 51  1  0
 21 52  1  0
 22 53  1  0
 24 54  1  0
 24 55  1  0
 26 56  1  0
 27 57  1  0
 28 58  1  0
 29 59  1  0
 30 60  1  0
M  END
>  <_SMILES>  (98) 
O=C(N[C@]12C[C@H]3C[C@H](C[C@H](C3)C1)C2)c1cc(-c2ccccc2)n(Cc2ccccc2)n1

$$$$

     RDKit          3D

 60 64  0  0  0  0  0  0  0  0999 V2000
   -0.7963    2.2084   -0.0735 C   0  0  0  0  0  0  0  0  0  0  0  0
   -1.3864    0.8447   -0.0624 C   0  0  0  0  0  0  0  0  0  0  0  0
   -0.7435   -0.3880   -0.4095 C   0  0  0  0  0  0  0  0  0  0  0  0
    0.6604   -0.6020   -0.8138 C   0  0  0  0  0  0  0  0  0  0  0  0
    0.9822   -1.3379   -1.7409 O   0  0  0  0  0  0  0  0  0  0  0  0
    1.5695    0.0887   -0.0289 N   0  0  0  0  0  0  0  0  0  0  0  0
    3.0247   -0.0368   -0.1354 C   0  0  2  0  0  0  0  0  0  0  0  0
    3.6702    0.9237    0.9008 C   0  0  0  0  0  0  0  0  0  0  0  0
    5.2039    0.8402    0.8514 C   0  0  1  0  0  0  0  0  0  0  0  0
    5.6404   -0.6011    1.1576 C   0  0  0  0  0  0  0  0  0  0  0  0
    5.0345   -1.5642    0.1243 C   0  0  2  0  0  0  0  0  0  0  0  0
    5.5106   -1.1633   -1.2824 C   0  0  0  0  0  0  0  0  0  0  0  0
    5.0776    0.2788   -1.5976 C   0  0  2  0  0  0  0  0  0  0  0  0
    5.6843    1.2301   -0.5548 C   0  0  0  0  0  0  0  0  0  0  0  0
    3.5423    0.3702   -1.5386 C   0  0  0  0  0  0  0  0  0  0  0  0
    3.4992   -1.4753    0.1848 C   0  0  0  0  0  0  0  0  0  0  0  0
   -1.6024   -1.4163   -0.3184 N   0  0  0  0  0  0  0  0  0  0  0  0
   -2.7519   -0.8687    0.1092 N   0  0  0  0  0  0  0  0  0  0  0  0
   -3.8956   -1.7423    0.3213 C   0  0  0  0  0  0  0  0  0  0  0  0
   -4.5868   -2.0921   -0.9949 C   0  0  0  0  0  0  0  0  0  0  0  0
   -5.8315   -2.9346   -0.7680 C   0  0  0  0  0  0  0  0  0  0  0  0
   -5.5057   -4.1455   -0.1033 O   0  0  0  0  0  0  0  0  0  0  0  0
   -2.6870    0.4931    0.2691 C   0  0  0  0  0  0  0  0  0  0  0  0
   -3.8087    1.3292    0.6923 C   0  0  0  0  0  0  0  0  0  0  0  0
   -4.6543    1.8636   -0.2915 C   0  0  0  0  0  0  0  0  0  0  0  0
   -5.7403    2.6657    0.0646 C   0  0  0  0  0  0  0  0  0  0  0  0
   -5.9909    2.9449    1.4064 C   0  0  0  0  0  0  0  0  0  0  0  0
   -5.1543    2.4249    2.3946 C   0  0  0  0  0  0  0  0  0  0  0  0
   -4.0656    1.6217    2.0419 C   0  0  0  0  0  0  0  0  0  0  0  0
   -3.0683    1.0089    3.3152 Cl  0  0  0  0  0  0  0  0  0  0  0  0
   -1.5639    2.9763   -0.2126 H   0  0  0  0  0  0  0  0  0  0  0  0
   -0.0752    2.3182   -0.8896 H   0  0  0  0  0  0  0  0  0  0  0  0
   -0.2841    2.4074    0.8731 H   0  0  0  0  0  0  0  0  0  0  0  0
    1.2002    0.4361    0.8469 H   0  0  0  0  0  0  0  0  0  0  0  0
    3.3479    1.9561    0.7098 H   0  0  0  0  0  0  0  0  0  0  0  0
    3.3212    0.6771    1.9126 H   0  0  0  0  0  0  0  0  0  0  0  0
    5.6359    1.5225    1.5920 H   0  0  0  0  0  0  0  0  0  0  0  0
    6.7349   -0.6729    1.1401 H   0  0  0  0  0  0  0  0  0  0  0  0
    5.3189   -0.8841    2.1674 H   0  0  0  0  0  0  0  0  0  0  0  0
    5.3531   -2.5893    0.3441 H   0  0  0  0  0  0  0  0  0  0  0  0
    5.0949   -1.8511   -2.0290 H   0  0  0  0  0  0  0  0  0  0  0  0
    6.6026   -1.2476   -1.3453 H   0  0  0  0  0  0  0  0  0  0  0  0
    5.4253    0.5586   -2.5983 H   0  0  0  0  0  0  0  0  0  0  0  0
    5.3944    2.2644   -0.7771 H   0  0  0  0  0  0  0  0  0  0  0  0
    6.7794    1.1892   -0.6018 H   0  0  0  0  0  0  0  0  0  0  0  0
    3.1215   -0.2749   -2.3180 H   0  0  0  0  0  0  0  0  0  0  0  0
    3.2187    1.3917   -1.7781 H   0  0  0  0  0  0  0  0  0  0  0  0
    3.0701   -2.1948   -0.5227 H   0  0  0  0  0  0  0  0  0  0  0  0
    3.1468   -1.7762    1.1801 H   0  0  0  0  0  0  0  0  0  0  0  0
   -4.5874   -1.2469    1.0096 H   0  0  0  0  0  0  0  0  0  0  0  0
   -3.5205   -2.6400    0.8268 H   0  0  0  0  0  0  0  0  0  0  0  0
   -4.8616   -1.1785   -1.5350 H   0  0  0  0  0  0  0  0  0  0  0  0
   -3.8854   -2.6442   -1.6328 H   0  0  0  0  0  0  0  0  0  0  0  0
   -6.5590   -2.3946   -0.1536 H   0  0  0  0  0  0  0  0  0  0  0  0
   -6.3112   -3.1797   -1.7209 H   0  0  0  0  0  0  0  0  0  0  0  0
   -4.9008   -4.6463   -0.6798 H   0  0  0  0  0  0  0  0  0  0  0  0
   -4.4667    1.6594   -1.3442 H   0  0  0  0  0  0  0  0  0  0  0  0
   -6.3888    3.0752   -0.7067 H   0  0  0  0  0  0  0  0  0  0  0  0
   -6.8362    3.5704    1.6839 H   0  0  0  0  0  0  0  0  0  0  0  0
   -5.3554    2.6498    3.4392 H   0  0  0  0  0  0  0  0  0  0  0  0
  1  2  1  0
  2  3  1  0
  3  4  1  0
  4  5  2  0
  4  6  1  0
  7  6  1  6
  7  8  1  0
  8  9  1  0
  9 10  1  0
 10 11  1  0
 11 12  1  0
 12 13  1  0
 13 14  1  0
 13 15  1  0
 11 16  1  0
  3 17  2  0
 17 18  1  0
 18 19  1  0
 19 20  1  0
 20 21  1  0
 21 22  1  0
 18 23  1  0
 23 24  1  0
 24 25  2  0
 25 26  1  0
 26 27  2  0
 27 28  1  0
 28 29  2  0
 29 30  1  0
 23  2  2  0
 29 24  1  0
 15  7  1  0
 16  7  1  0
 14  9  1  0
  1 31  1  0
  1 32  1  0
  1 33  1  0
  6 34  1  0
  8 35  1  0
  8 36  1  0
  9 37  1  1
 10 38  1  0
 10 39  1  0
 11 40  1  1
 12 41  1  0
 12 42  1  0
 13 43  1  6
 14 44  1  0
 14 45  1  0
 15 46  1  0
 15 47  1  0
 16 48  1  0
 16 49  1  0
 19 50  1  0
 19 51  1  0
 20 52  1  0
 20 53  1  0
 21 54  1  0
 21 55  1  0
 22 56  1  0
 25 57  1  0
 26 58  1  0
 27 59  1  0
 28 60  1  0
M  END
>  <_SMILES>  (99) 
Cc1c(C(=O)N[C@]23C[C@H]4C[C@H](C[C@H](C4)C2)C3)nn(CCCO)c1-c1ccccc1Cl

$$$$

     RDKit          3D

 63 67  0  0  0  0  0  0  0  0999 V2000
   -1.4552    1.6085   -0.7656 O   0  0  0  0  0  0  0  0  0  0  0  0
   -1.2688    0.4790   -0.3183 C   0  0  0  0  0  0  0  0  0  0  0  0
   -2.3147   -0.3191    0.1099 N   0  0  0  0  0  0  0  0  0  0  0  0
   -3.7310    0.0571    0.0926 C   0  0  2  0  0  0  0  0  0  0  0  0
   -4.2341    0.3409   -1.3448 C   0  0  0  0  0  0  0  0  0  0  0  0
   -5.7356    0.6789   -1.3361 C   0  0  1  0  0  0  0  0  0  0  0  0
   -6.5215   -0.5118   -0.7653 C   0  0  0  0  0  0  0  0  0  0  0  0
   -6.0584   -0.8059    0.6699 C   0  0  2  0  0  0  0  0  0  0  0  0
   -6.2982    0.4331    1.5464 C   0  0  0  0  0  0  0  0  0  0  0  0
   -5.5110    1.6296    0.9896 C   0  0  2  0  0  0  0  0  0  0  0  0
   -5.9714    1.9142   -0.4503 C   0  0  0  0  0  0  0  0  0  0  0  0
   -4.0092    1.2929    0.9842 C   0  0  0  0  0  0  0  0  0  0  0  0
   -4.5566   -1.1315    0.6579 C   0  0  0  0  0  0  0  0  0  0  0  0
    0.0856   -0.1127   -0.2011 C   0  0  0  0  0  0  0  0  0  0  0  0
    1.1677    0.6069   -0.5632 N   0  0  0  0  0  0  0  0  0  0  0  0
    2.2191   -0.1980   -0.3387 N   0  0  0  0  0  0  0  0  0  0  0  0
    3.5486    0.2992   -0.6624 C   0  0  0  0  0  0  0  0  0  0  0  0
    4.1131    1.1835    0.4484 C   0  0  0  0  0  0  0  0  0  0  0  0
    5.5520    1.6361    0.1870 C   0  0  0  0  0  0  0  0  0  0  0  0
    5.6781    2.5913   -1.0045 C   0  0  0  0  0  0  0  0  0  0  0  0
    7.1089    3.0848   -1.1961 C   0  0  0  0  0  0  0  0  0  0  0  0
    7.5426    3.8295   -0.0673 O   0  0  0  0  0  0  0  0  0  0  0  0
    1.8767   -1.4272    0.1623 C   0  0  0  0  0  0  0  0  0  0  0  0
    2.8283   -2.4807    0.4881 C   0  0  0  0  0  0  0  0  0  0  0  0
    3.5286   -2.4517    1.6992 C   0  0  0  0  0  0  0  0  0  0  0  0
    4.4468   -3.4580    2.0040 C   0  0  0  0  0  0  0  0  0  0  0  0
    4.6657   -4.4991    1.1030 C   0  0  0  0  0  0  0  0  0  0  0  0
    3.9651   -4.5380   -0.1018 C   0  0  0  0  0  0  0  0  0  0  0  0
    3.0468   -3.5324   -0.4088 C   0  0  0  0  0  0  0  0  0  0  0  0
    0.4976   -1.4002    0.2559 C   0  0  0  0  0  0  0  0  0  0  0  0
   -0.4881   -2.6724    0.8167 Cl  0  0  0  0  0  0  0  0  0  0  0  0
   -2.0838   -1.2345    0.4736 H   0  0  0  0  0  0  0  0  0  0  0  0
   -3.6851    1.1752   -1.7964 H   0  0  0  0  0  0  0  0  0  0  0  0
   -4.0508   -0.5303   -1.9874 H   0  0  0  0  0  0  0  0  0  0  0  0
   -6.0723    0.8872   -2.3579 H   0  0  0  0  0  0  0  0  0  0  0  0
   -7.5959   -0.2911   -0.7749 H   0  0  0  0  0  0  0  0  0  0  0  0
   -6.3726   -1.3966   -1.3964 H   0  0  0  0  0  0  0  0  0  0  0  0
   -6.6187   -1.6573    1.0720 H   0  0  0  0  0  0  0  0  0  0  0  0
   -7.3689    0.6698    1.5762 H   0  0  0  0  0  0  0  0  0  0  0  0
   -5.9886    0.2282    2.5786 H   0  0  0  0  0  0  0  0  0  0  0  0
   -5.6886    2.5113    1.6155 H   0  0  0  0  0  0  0  0  0  0  0  0
   -5.4256    2.7754   -0.8550 H   0  0  0  0  0  0  0  0  0  0  0  0
   -7.0355    2.1805   -0.4563 H   0  0  0  0  0  0  0  0  0  0  0  0
   -3.4505    2.1671    0.6303 H   0  0  0  0  0  0  0  0  0  0  0  0
   -3.6648    1.1035    2.0094 H   0  0  0  0  0  0  0  0  0  0  0  0
   -4.3787   -2.0336    0.0571 H   0  0  0  0  0  0  0  0  0  0  0  0
   -4.2225   -1.3720    1.6762 H   0  0  0  0  0  0  0  0  0  0  0  0
    3.4555    0.8514   -1.6043 H   0  0  0  0  0  0  0  0  0  0  0  0
    4.2009   -0.5591   -0.8526 H   0  0  0  0  0  0  0  0  0  0  0  0
    3.4707    2.0613    0.5928 H   0  0  0  0  0  0  0  0  0  0  0  0
    4.0934    0.6326    1.3967 H   0  0  0  0  0  0  0  0  0  0  0  0
    6.1909    0.7589    0.0284 H   0  0  0  0  0  0  0  0  0  0  0  0
    5.9188    2.1340    1.0928 H   0  0  0  0  0  0  0  0  0  0  0  0
    5.0175    3.4512   -0.8407 H   0  0  0  0  0  0  0  0  0  0  0  0
    5.3557    2.0935   -1.9249 H   0  0  0  0  0  0  0  0  0  0  0  0
    7.1775    3.7278   -2.0794 H   0  0  0  0  0  0  0  0  0  0  0  0
    7.7954    2.2439   -1.3355 H   0  0  0  0  0  0  0  0  0  0  0  0
    6.9462    4.5922    0.0267 H   0  0  0  0  0  0  0  0  0  0  0  0
    3.3601   -1.6512    2.4159 H   0  0  0  0  0  0  0  0  0  0  0  0
    4.9879   -3.4323    2.9466 H   0  0  0  0  0  0  0  0  0  0  0  0
    5.3789   -5.2841    1.3425 H   0  0  0  0  0  0  0  0  0  0  0  0
    4.1315   -5.3535   -0.8011 H   0  0  0  0  0  0  0  0  0  0  0  0
    2.5042   -3.5762   -1.3504 H   0  0  0  0  0  0  0  0  0  0  0  0
  1  2  2  0
  2  3  1  0
  4  3  1  6
  4  5  1  0
  5  6  1  0
  6  7  1  0
  7  8  1  0
  8  9  1  0
  9 10  1  0
 10 11  1  0
 10 12  1  0
  8 13  1  0
  2 14  1  0
 14 15  2  0
 15 16  1  0
 16 17  1  0
 17 18  1  0
 18 19  1  0
 19 20  1  0
 20 21  1  0
 21 22  1  0
 16 23  1  0
 23 24  1  0
 24 25  2  0
 25 26  1  0
 26 27  2  0
 27 28  1  0
 28 29  2  0
 23 30  2  0
 30 31  1  0
 12  4  1  0
 30 14  1  0
 13  4  1  0
 29 24  1  0
 11  6  1  0
  3 32  1  0
  5 33  1  0
  5 34  1  0
  6 35  1  6
  7 36  1  0
  7 37  1  0
  8 38  1  1
  9 39  1  0
  9 40  1  0
 10 41  1  1
 11 42  1  0
 11 43  1  0
 12 44  1  0
 12 45  1  0
 13 46  1  0
 13 47  1  0
 17 48  1  0
 17 49  1  0
 18 50  1  0
 18 51  1  0
 19 52  1  0
 19 53  1  0
 20 54  1  0
 20 55  1  0
 21 56  1  0
 21 57  1  0
 22 58  1  0
 25 59  1  0
 26 60  1  0
 27 61  1  0
 28 62  1  0
 29 63  1  0
M  END
>  <_SMILES>  (100) 
O=C(N[C@]12C[C@H]3C[C@H](C[C@H](C3)C1)C2)c1nn(CCCCCO)c(-c2ccccc2)c1Cl

$$$$

     RDKit          3D

 53 57  0  0  0  0  0  0  0  0999 V2000
   -1.8869    0.8337    1.1757 C   0  0  0  0  0  0  0  0  0  0  0  0
   -2.1170   -0.3203    0.2679 C   0  0  0  0  0  0  0  0  0  0  0  0
   -1.1598   -1.2921   -0.1755 C   0  0  0  0  0  0  0  0  0  0  0  0
    0.2888   -1.3525    0.1125 C   0  0  0  0  0  0  0  0  0  0  0  0
    0.8813   -2.4022    0.3405 O   0  0  0  0  0  0  0  0  0  0  0  0
    0.9152   -0.1168    0.0679 N   0  0  0  0  0  0  0  0  0  0  0  0
    2.3586    0.0899    0.2078 C   0  0  2  0  0  0  0  0  0  0  0  0
    3.1482   -0.5988   -0.9320 C   0  0  0  0  0  0  0  0  0  0  0  0
    4.6546   -0.3152   -0.7943 C   0  0  1  0  0  0  0  0  0  0  0  0
    4.8954    1.2008   -0.8711 C   0  0  0  0  0  0  0  0  0  0  0  0
    4.1404    1.9107    0.2637 C   0  0  2  0  0  0  0  0  0  0  0  0
    4.6395    1.3813    1.6167 C   0  0  0  0  0  0  0  0  0  0  0  0
    4.3960   -0.1329    1.7083 C   0  0  2  0  0  0  0  0  0  0  0  0
    5.1469   -0.8383    0.5659 C   0  0  0  0  0  0  0  0  0  0  0  0
    2.8891   -0.4157    1.5736 C   0  0  0  0  0  0  0  0  0  0  0  0
    2.6379    1.6161    0.1309 C   0  0  0  0  0  0  0  0  0  0  0  0
   -1.7477   -2.2165   -0.9529 N   0  0  0  0  0  0  0  0  0  0  0  0
   -3.0405   -1.8606   -0.9972 N   0  0  0  0  0  0  0  0  0  0  0  0
   -3.9568   -2.6892   -1.7473 C   0  0  0  0  0  0  0  0  0  0  0  0
   -3.3209   -0.7106   -0.3027 C   0  0  0  0  0  0  0  0  0  0  0  0
   -4.6469   -0.0992   -0.2140 C   0  0  0  0  0  0  0  0  0  0  0  0
   -4.9148    1.0258   -1.0093 C   0  0  0  0  0  0  0  0  0  0  0  0
   -6.1634    1.6495   -0.9639 C   0  0  0  0  0  0  0  0  0  0  0  0
   -7.1575    1.1589   -0.1205 C   0  0  0  0  0  0  0  0  0  0  0  0
   -6.9037    0.0452    0.6804 C   0  0  0  0  0  0  0  0  0  0  0  0
   -5.6545   -0.5824    0.6377 C   0  0  0  0  0  0  0  0  0  0  0  0
   -5.4082   -1.9497    1.6670 Cl  0  0  0  0  0  0  0  0  0  0  0  0
   -1.5447    1.7030    0.6055 H   0  0  0  0  0  0  0  0  0  0  0  0
   -1.1340    0.5947    1.9334 H   0  0  0  0  0  0  0  0  0  0  0  0
   -2.8025    1.1136    1.7064 H   0  0  0  0  0  0  0  0  0  0  0  0
    0.3868    0.6168   -0.3844 H   0  0  0  0  0  0  0  0  0  0  0  0
    2.9851   -1.6831   -0.9209 H   0  0  0  0  0  0  0  0  0  0  0  0
    2.7893   -0.2447   -1.9073 H   0  0  0  0  0  0  0  0  0  0  0  0
    5.1992   -0.8166   -1.6021 H   0  0  0  0  0  0  0  0  0  0  0  0
    4.5603    1.5849   -1.8424 H   0  0  0  0  0  0  0  0  0  0  0  0
    5.9689    1.4140   -0.7977 H   0  0  0  0  0  0  0  0  0  0  0  0
    4.3126    2.9911    0.2032 H   0  0  0  0  0  0  0  0  0  0  0  0
    4.1205    1.8948    2.4353 H   0  0  0  0  0  0  0  0  0  0  0  0
    5.7087    1.5970    1.7326 H   0  0  0  0  0  0  0  0  0  0  0  0
    4.7563   -0.5066    2.6733 H   0  0  0  0  0  0  0  0  0  0  0  0
    4.9921   -1.9224    0.6288 H   0  0  0  0  0  0  0  0  0  0  0  0
    6.2255   -0.6646    0.6647 H   0  0  0  0  0  0  0  0  0  0  0  0
    2.3425    0.0690    2.3932 H   0  0  0  0  0  0  0  0  0  0  0  0
    2.7218   -1.4925    1.6891 H   0  0  0  0  0  0  0  0  0  0  0  0
    2.0851    2.1409    0.9217 H   0  0  0  0  0  0  0  0  0  0  0  0
    2.2670    2.0202   -0.8207 H   0  0  0  0  0  0  0  0  0  0  0  0
   -4.7614   -2.0736   -2.1551 H   0  0  0  0  0  0  0  0  0  0  0  0
   -3.4158   -3.1621   -2.5716 H   0  0  0  0  0  0  0  0  0  0  0  0
   -4.3566   -3.4499   -1.0730 H   0  0  0  0  0  0  0  0  0  0  0  0
   -4.1484    1.4213   -1.6732 H   0  0  0  0  0  0  0  0  0  0  0  0
   -6.3588    2.5193   -1.5868 H   0  0  0  0  0  0  0  0  0  0  0  0
   -8.1297    1.6449   -0.0834 H   0  0  0  0  0  0  0  0  0  0  0  0
   -7.6832   -0.3283    1.3401 H   0  0  0  0  0  0  0  0  0  0  0  0
  1  2  1  0
  2  3  1  0
  3  4  1  0
  4  5  2  0
  4  6  1  0
  7  6  1  6
  7  8  1  0
  8  9  1  0
  9 10  1  0
 10 11  1  0
 11 12  1  0
 12 13  1  0
 13 14  1  0
 13 15  1  0
 11 16  1  0
  3 17  2  0
 17 18  1  0
 18 19  1  0
 18 20  1  0
 20 21  1  0
 21 22  2  0
 22 23  1  0
 23 24  2  0
 24 25  1  0
 25 26  2  0
 26 27  1  0
 20  2  2  0
 26 21  1  0
 15  7  1  0
 16  7  1  0
 14  9  1  0
  1 28  1  0
  1 29  1  0
  1 30  1  0
  6 31  1  0
  8 32  1  0
  8 33  1  0
  9 34  1  6
 10 35  1  0
 10 36  1  0
 11 37  1  1
 12 38  1  0
 12 39  1  0
 13 40  1  1
 14 41  1  0
 14 42  1  0
 15 43  1  0
 15 44  1  0
 16 45  1  0
 16 46  1  0
 19 47  1  0
 19 48  1  0
 19 49  1  0
 22 50  1  0
 23 51  1  0
 24 52  1  0
 25 53  1  0
M  END
>  <_SMILES>  (101) 
Cc1c(C(=O)N[C@]23C[C@H]4C[C@H](C[C@H](C4)C2)C3)nn(C)c1-c1ccccc1Cl

$$$$

     RDKit          3D

 66 70  0  0  0  0  0  0  0  0999 V2000
    6.7163    4.3749    1.0243 C   0  0  0  0  0  0  0  0  0  0  0  0
    6.1359    3.5044    0.0619 O   0  0  0  0  0  0  0  0  0  0  0  0
    5.0877    2.7196    0.6270 C   0  0  0  0  0  0  0  0  0  0  0  0
    4.5230    1.8241   -0.4694 C   0  0  0  0  0  0  0  0  0  0  0  0
    3.3928    0.9404    0.0495 C   0  0  0  0  0  0  0  0  0  0  0  0
    2.8329    0.0541   -1.0607 C   0  0  0  0  0  0  0  0  0  0  0  0
    1.7629   -0.8064   -0.5813 N   0  0  0  0  0  0  0  0  0  0  0  0
    0.5070   -0.3186   -0.5576 N   0  0  0  0  0  0  0  0  0  0  0  0
   -0.2338   -1.3311   -0.0606 C   0  0  0  0  0  0  0  0  0  0  0  0
   -1.6926   -1.1857    0.1228 C   0  0  0  0  0  0  0  0  0  0  0  0
   -2.4025   -2.0770    0.5756 O   0  0  0  0  0  0  0  0  0  0  0  0
   -2.1522    0.0528   -0.2702 N   0  0  0  0  0  0  0  0  0  0  0  0
   -3.5351    0.5146   -0.2316 C   0  0  2  0  0  0  0  0  0  0  0  0
   -4.0952    0.5195    1.2124 C   0  0  0  0  0  0  0  0  0  0  0  0
   -5.5377    1.0554    1.2316 C   0  0  1  0  0  0  0  0  0  0  0  0
   -5.5530    2.4929    0.6885 C   0  0  0  0  0  0  0  0  0  0  0  0
   -5.0209    2.5150   -0.7530 C   0  0  2  0  0  0  0  0  0  0  0  0
   -5.9074    1.6234   -1.6366 C   0  0  0  0  0  0  0  0  0  0  0  0
   -5.8943    0.1807   -1.1069 C   0  0  2  0  0  0  0  0  0  0  0  0
   -6.4198    0.1662    0.3386 C   0  0  0  0  0  0  0  0  0  0  0  0
   -4.4518   -0.3554   -1.1267 C   0  0  0  0  0  0  0  0  0  0  0  0
   -3.5838    1.9699   -0.7681 C   0  0  0  0  0  0  0  0  0  0  0  0
    0.5775   -2.4685    0.2321 C   0  0  0  0  0  0  0  0  0  0  0  0
    0.1191   -3.7665    0.7913 C   0  0  0  0  0  0  0  0  0  0  0  0
    1.8661   -2.0944   -0.1169 C   0  0  0  0  0  0  0  0  0  0  0  0
    3.1158   -2.8381   -0.0299 C   0  0  0  0  0  0  0  0  0  0  0  0
    3.5825   -3.5638   -1.1312 C   0  0  0  0  0  0  0  0  0  0  0  0
    4.7834   -4.2706   -1.0480 C   0  0  0  0  0  0  0  0  0  0  0  0
    5.5193   -4.2588    0.1364 C   0  0  0  0  0  0  0  0  0  0  0  0
    5.0543   -3.5446    1.2401 C   0  0  0  0  0  0  0  0  0  0  0  0
    3.8536   -2.8373    1.1586 C   0  0  0  0  0  0  0  0  0  0  0  0
    5.9674    5.0733    1.4100 H   0  0  0  0  0  0  0  0  0  0  0  0
    7.1544    3.8000    1.8458 H   0  0  0  0  0  0  0  0  0  0  0  0
    7.5096    4.9476    0.5366 H   0  0  0  0  0  0  0  0  0  0  0  0
    4.3054    3.3798    1.0187 H   0  0  0  0  0  0  0  0  0  0  0  0
    5.4868    2.1110    1.4466 H   0  0  0  0  0  0  0  0  0  0  0  0
    5.3290    1.2050   -0.8831 H   0  0  0  0  0  0  0  0  0  0  0  0
    4.1672    2.4474   -1.2994 H   0  0  0  0  0  0  0  0  0  0  0  0
    2.5927    1.5675    0.4625 H   0  0  0  0  0  0  0  0  0  0  0  0
    3.7606    0.3190    0.8750 H   0  0  0  0  0  0  0  0  0  0  0  0
    3.6145   -0.5770   -1.4956 H   0  0  0  0  0  0  0  0  0  0  0  0
    2.4192    0.6623   -1.8741 H   0  0  0  0  0  0  0  0  0  0  0  0
   -1.4198    0.6619   -0.6300 H   0  0  0  0  0  0  0  0  0  0  0  0
   -3.4593    1.1353    1.8619 H   0  0  0  0  0  0  0  0  0  0  0  0
   -4.0834   -0.4901    1.6401 H   0  0  0  0  0  0  0  0  0  0  0  0
   -5.9214    1.0445    2.2579 H   0  0  0  0  0  0  0  0  0  0  0  0
   -4.9383    3.1409    1.3253 H   0  0  0  0  0  0  0  0  0  0  0  0
   -6.5736    2.8938    0.7175 H   0  0  0  0  0  0  0  0  0  0  0  0
   -5.0314    3.5417   -1.1353 H   0  0  0  0  0  0  0  0  0  0  0  0
   -5.5476    1.6457   -2.6726 H   0  0  0  0  0  0  0  0  0  0  0  0
   -6.9341    2.0093   -1.6477 H   0  0  0  0  0  0  0  0  0  0  0  0
   -6.5306   -0.4498   -1.7378 H   0  0  0  0  0  0  0  0  0  0  0  0
   -7.4566    0.5239    0.3629 H   0  0  0  0  0  0  0  0  0  0  0  0
   -6.4284   -0.8608    0.7240 H   0  0  0  0  0  0  0  0  0  0  0  0
   -4.0721   -0.3677   -2.1569 H   0  0  0  0  0  0  0  0  0  0  0  0
   -4.4531   -1.3983   -0.7882 H   0  0  0  0  0  0  0  0  0  0  0  0
   -2.9360    2.6175   -0.1620 H   0  0  0  0  0  0  0  0  0  0  0  0
   -3.1843    2.0088   -1.7905 H   0  0  0  0  0  0  0  0  0  0  0  0
   -0.6239   -4.2259    0.1315 H   0  0  0  0  0  0  0  0  0  0  0  0
    0.9445   -4.4757    0.9060 H   0  0  0  0  0  0  0  0  0  0  0  0
   -0.3331   -3.6190    1.7772 H   0  0  0  0  0  0  0  0  0  0  0  0
    3.0116   -3.5854   -2.0567 H   0  0  0  0  0  0  0  0  0  0  0  0
    5.1422   -4.8339   -1.9056 H   0  0  0  0  0  0  0  0  0  0  0  0
    6.4529   -4.8120    0.2012 H   0  0  0  0  0  0  0  0  0  0  0  0
    5.6243   -3.5422    2.1656 H   0  0  0  0  0  0  0  0  0  0  0  0
    3.4950   -2.2894    2.0269 H   0  0  0  0  0  0  0  0  0  0  0  0
  1  2  1  0
  2  3  1  0
  3  4  1  0
  4  5  1  0
  5  6  1  0
  6  7  1  0
  7  8  1  0
  8  9  2  0
  9 10  1  0
 10 11  2  0
 10 12  1  0
 13 12  1  1
 13 14  1  0
 14 15  1  0
 15 16  1  0
 16 17  1  0
 17 18  1  0
 18 19  1  0
 19 20  1  0
 19 21  1  0
 17 22  1  0
  9 23  1  0
 23 24  1  0
 23 25  2  0
 25 26  1  0
 26 27  2  0
 27 28  1  0
 28 29  2  0
 29 30  1  0
 30 31  2  0
 25  7  1  0
 31 26  1  0
 21 13  1  0
 22 13  1  0
 20 15  1  0
  1 32  1  0
  1 33  1  0
  1 34  1  0
  3 35  1  0
  3 36  1  0
  4 37  1  0
  4 38  1  0
  5 39  1  0
  5 40  1  0
  6 41  1  0
  6 42  1  0
 12 43  1  0
 14 44  1  0
 14 45  1  0
 15 46  1  1
 16 47  1  0
 16 48  1  0
 17 49  1  6
 18 50  1  0
 18 51  1  0
 19 52  1  6
 20 53  1  0
 20 54  1  0
 21 55  1  0
 21 56  1  0
 22 57  1  0
 22 58  1  0
 24 59  1  0
 24 60  1  0
 24 61  1  0
 27 62  1  0
 28 63  1  0
 29 64  1  0
 30 65  1  0
 31 66  1  0
M  END
>  <_SMILES>  (102) 
COCCCCn1nc(C(=O)N[C@]23C[C@H]4C[C@H](C[C@H](C4)C2)C3)c(C)c1-c1ccccc1

$$$$

     RDKit          3D

 42 43  0  0  0  0  0  0  0  0999 V2000
   -3.5395    1.8895   -0.8090 C   0  0  0  0  0  0  0  0  0  0  0  0
   -2.1702    1.7009   -0.2645 C   0  0  0  0  0  0  0  0  0  0  0  0
   -1.2154    2.7242    0.0165 C   0  0  0  0  0  0  0  0  0  0  0  0
   -1.3704    4.1771   -0.1662 C   0  0  0  0  0  0  0  0  0  0  0  0
   -0.2674    4.9026    0.1907 N   0  0  0  0  0  0  0  0  0  0  0  0
   -2.3836    4.7214   -0.5930 O   0  0  0  0  0  0  0  0  0  0  0  0
   -0.0710    2.2027    0.5033 N   0  0  0  0  0  0  0  0  0  0  0  0
   -0.2948    0.8742    0.5293 N   0  0  0  0  0  0  0  0  0  0  0  0
    0.7662   -0.0016    1.0017 C   0  0  0  0  0  0  0  0  0  0  0  0
    1.7334   -0.3834   -0.1177 C   0  0  0  0  0  0  0  0  0  0  0  0
    2.8132   -1.3390    0.3912 C   0  0  0  0  0  0  0  0  0  0  0  0
    3.7618   -1.8244   -0.7108 C   0  0  0  0  0  0  0  0  0  0  0  0
    4.5984   -0.7246   -1.3549 C   0  0  0  0  0  0  0  0  0  0  0  0
    5.3531   -0.0466   -0.3619 O   0  0  0  0  0  0  0  0  0  0  0  0
   -1.5416    0.5139    0.0796 C   0  0  0  0  0  0  0  0  0  0  0  0
   -2.0216   -0.8594    0.0024 C   0  0  0  0  0  0  0  0  0  0  0  0
   -1.8675   -1.5937   -1.1783 C   0  0  0  0  0  0  0  0  0  0  0  0
   -2.3228   -2.9112   -1.2502 C   0  0  0  0  0  0  0  0  0  0  0  0
   -2.9378   -3.4980   -0.1448 C   0  0  0  0  0  0  0  0  0  0  0  0
   -3.1021   -2.7679    1.0319 C   0  0  0  0  0  0  0  0  0  0  0  0
   -2.6472   -1.4502    1.1055 C   0  0  0  0  0  0  0  0  0  0  0  0
   -3.4968    2.3694   -1.7920 H   0  0  0  0  0  0  0  0  0  0  0  0
   -4.0671    0.9379   -0.9257 H   0  0  0  0  0  0  0  0  0  0  0  0
   -4.1337    2.5191   -0.1389 H   0  0  0  0  0  0  0  0  0  0  0  0
   -0.2928    5.9084    0.1504 H   0  0  0  0  0  0  0  0  0  0  0  0
    0.5249    4.4049    0.5809 H   0  0  0  0  0  0  0  0  0  0  0  0
    1.2908    0.5285    1.8058 H   0  0  0  0  0  0  0  0  0  0  0  0
    0.3056   -0.8889    1.4475 H   0  0  0  0  0  0  0  0  0  0  0  0
    2.1918    0.5263   -0.5224 H   0  0  0  0  0  0  0  0  0  0  0  0
    1.1856   -0.8542   -0.9427 H   0  0  0  0  0  0  0  0  0  0  0  0
    2.3312   -2.2185    0.8366 H   0  0  0  0  0  0  0  0  0  0  0  0
    3.3857   -0.8581    1.1933 H   0  0  0  0  0  0  0  0  0  0  0  0
    4.4411   -2.5582   -0.2592 H   0  0  0  0  0  0  0  0  0  0  0  0
    3.1915   -2.3482   -1.4866 H   0  0  0  0  0  0  0  0  0  0  0  0
    3.9706    0.0008   -1.8804 H   0  0  0  0  0  0  0  0  0  0  0  0
    5.2939   -1.1626   -2.0781 H   0  0  0  0  0  0  0  0  0  0  0  0
    5.8725    0.6387   -0.8166 H   0  0  0  0  0  0  0  0  0  0  0  0
   -1.3959   -1.1417   -2.0478 H   0  0  0  0  0  0  0  0  0  0  0  0
   -2.2020   -3.4780   -2.1698 H   0  0  0  0  0  0  0  0  0  0  0  0
   -3.2952   -4.5231   -0.2023 H   0  0  0  0  0  0  0  0  0  0  0  0
   -3.5884   -3.2229    1.8910 H   0  0  0  0  0  0  0  0  0  0  0  0
   -2.7864   -0.8862    2.0249 H   0  0  0  0  0  0  0  0  0  0  0  0
  1  2  1  0
  2  3  1  0
  3  4  1  0
  4  5  1  0
  4  6  2  0
  3  7  2  0
  7  8  1  0
  8  9  1  0
  9 10  1  0
 10 11  1  0
 11 12  1  0
 12 13  1  0
 13 14  1  0
  8 15  1  0
 15 16  1  0
 16 17  2  0
 17 18  1  0
 18 19  2  0
 19 20  1  0
 20 21  2  0
 15  2  2  0
 21 16  1  0
  1 22  1  0
  1 23  1  0
  1 24  1  0
  5 25  1  0
  5 26  1  0
  9 27  1  0
  9 28  1  0
 10 29  1  0
 10 30  1  0
 11 31  1  0
 11 32  1  0
 12 33  1  0
 12 34  1  0
 13 35  1  0
 13 36  1  0
 14 37  1  0
 17 38  1  0
 18 39  1  0
 19 40  1  0
 20 41  1  0
 21 42  1  0
M  END
>  <_SMILES>  (103) 
Cc1c(C(N)=O)nn(CCCCCO)c1-c1ccccc1

$$$$

     RDKit          3D

 45 47  0  0  0  0  0  0  0  0999 V2000
    0.8458   -1.2107   -0.7377 C   0  0  0  0  0  0  0  0  0  0  0  0
    1.2285    0.2144   -0.5614 C   0  0  0  0  0  0  0  0  0  0  0  0
    0.3630    1.3564   -0.4998 C   0  0  0  0  0  0  0  0  0  0  0  0
   -1.1118    1.3918   -0.5407 C   0  0  0  0  0  0  0  0  0  0  0  0
   -1.7499    2.2036   -1.2057 O   0  0  0  0  0  0  0  0  0  0  0  0
   -1.7219    0.4316    0.2491 N   0  0  0  0  0  0  0  0  0  0  0  0
   -3.1634    0.2506    0.2708 C   0  0  0  0  0  0  0  0  0  0  0  0
   -3.6118   -0.3661    1.6059 C   0  0  0  0  0  0  0  0  0  0  0  0
   -4.9353   -1.1304    1.5158 C   0  0  0  0  0  0  0  0  0  0  0  0
   -5.8257   -0.6039    0.3995 C   0  0  0  0  0  0  0  0  0  0  0  0
   -5.1511   -0.7230   -0.9679 C   0  0  0  0  0  0  0  0  0  0  0  0
   -3.6261   -0.6044   -0.9119 C   0  0  0  0  0  0  0  0  0  0  0  0
    1.0774    2.4894   -0.3943 N   0  0  0  0  0  0  0  0  0  0  0  0
    2.3572    2.0882   -0.3682 N   0  0  0  0  0  0  0  0  0  0  0  0
    3.3970    3.0838   -0.2384 C   0  0  0  0  0  0  0  0  0  0  0  0
    2.5140    0.7285   -0.4647 C   0  0  0  0  0  0  0  0  0  0  0  0
    3.8044    0.0495   -0.4727 C   0  0  0  0  0  0  0  0  0  0  0  0
    4.6461    0.1390   -1.5874 C   0  0  0  0  0  0  0  0  0  0  0  0
    5.8806   -0.5131   -1.5908 C   0  0  0  0  0  0  0  0  0  0  0  0
    6.2783   -1.2595   -0.4824 C   0  0  0  0  0  0  0  0  0  0  0  0
    5.4420   -1.3579    0.6289 C   0  0  0  0  0  0  0  0  0  0  0  0
    4.2068   -0.7070    0.6334 C   0  0  0  0  0  0  0  0  0  0  0  0
   -0.0639   -1.3040   -1.3392 H   0  0  0  0  0  0  0  0  0  0  0  0
    0.6695   -1.6793    0.2355 H   0  0  0  0  0  0  0  0  0  0  0  0
    1.6319   -1.7742   -1.2506 H   0  0  0  0  0  0  0  0  0  0  0  0
   -1.1352   -0.1833    0.7948 H   0  0  0  0  0  0  0  0  0  0  0  0
   -3.6218    1.2439    0.1750 H   0  0  0  0  0  0  0  0  0  0  0  0
   -2.8484   -1.0478    2.0027 H   0  0  0  0  0  0  0  0  0  0  0  0
   -3.7015    0.4388    2.3468 H   0  0  0  0  0  0  0  0  0  0  0  0
   -4.7272   -2.1928    1.3360 H   0  0  0  0  0  0  0  0  0  0  0  0
   -5.4580   -1.0744    2.4774 H   0  0  0  0  0  0  0  0  0  0  0  0
   -6.0657    0.4485    0.5969 H   0  0  0  0  0  0  0  0  0  0  0  0
   -6.7795   -1.1435    0.3869 H   0  0  0  0  0  0  0  0  0  0  0  0
   -5.5591    0.0516   -1.6285 H   0  0  0  0  0  0  0  0  0  0  0  0
   -5.4113   -1.6840   -1.4281 H   0  0  0  0  0  0  0  0  0  0  0  0
   -3.2599   -0.1969   -1.8620 H   0  0  0  0  0  0  0  0  0  0  0  0
   -3.1867   -1.6075   -0.8273 H   0  0  0  0  0  0  0  0  0  0  0  0
    4.1426    2.7314    0.4783 H   0  0  0  0  0  0  0  0  0  0  0  0
    3.8454    3.2387   -1.2226 H   0  0  0  0  0  0  0  0  0  0  0  0
    2.9604    4.0180    0.1255 H   0  0  0  0  0  0  0  0  0  0  0  0
    4.3412    0.7080   -2.4629 H   0  0  0  0  0  0  0  0  0  0  0  0
    6.5294   -0.4423   -2.4601 H   0  0  0  0  0  0  0  0  0  0  0  0
    7.2392   -1.7680   -0.4863 H   0  0  0  0  0  0  0  0  0  0  0  0
    5.7512   -1.9420    1.4918 H   0  0  0  0  0  0  0  0  0  0  0  0
    3.5631   -0.7893    1.5060 H   0  0  0  0  0  0  0  0  0  0  0  0
  1  2  1  0
  2  3  1  0
  3  4  1  0
  4  5  2  0
  4  6  1  0
  6  7  1  0
  7  8  1  0
  8  9  1  0
  9 10  1  0
 10 11  1  0
 11 12  1  0
  3 13  2  0
 13 14  1  0
 14 15  1  0
 14 16  1  0
 16 17  1  0
 17 18  2  0
 18 19  1  0
 19 20  2  0
 20 21  1  0
 21 22  2  0
 16  2  2  0
 22 17  1  0
 12  7  1  0
  1 23  1  0
  1 24  1  0
  1 25  1  0
  6 26  1  0
  7 27  1  0
  8 28  1  0
  8 29  1  0
  9 30  1  0
  9 31  1  0
 10 32  1  0
 10 33  1  0
 11 34  1  0
 11 35  1  0
 12 36  1  0
 12 37  1  0
 15 38  1  0
 15 39  1  0
 15 40  1  0
 18 41  1  0
 19 42  1  0
 20 43  1  0
 21 44  1  0
 22 45  1  0
M  END
>  <_SMILES>  (104) 
Cc1c(C(=O)NC2CCCCC2)nn(C)c1-c1ccccc1

$$$$
