
     RDKit          3D

 44 46  0  0  0  0  0  0  0  0999 V2000
    8.0650   -0.2400  -53.4910 O   0  0  0  0  0  0  0  0  0  0  0  0
    8.7990   -1.2240  -53.4830 C   0  0  0  0  0  0  0  0  0  0  0  0
    8.7590   -2.1950  -52.5050 N   0  0  0  0  0  0  0  0  0  0  0  0
    7.7380   -2.2300  -51.4700 C   0  0  0  0  0  0  0  0  0  0  0  0
    6.4540   -2.8770  -52.0200 C   0  0  0  0  0  0  0  0  0  0  0  0
    5.6400   -3.5490  -50.9210 C   0  0  0  0  0  0  0  0  0  0  0  0
    6.4290   -4.6680  -50.2390 C   0  0  0  0  0  0  0  0  0  0  0  0
    7.9390   -4.4230  -50.2100 C   0  0  0  0  0  0  0  0  0  0  0  0
    8.2700   -2.9350  -50.2110 C   0  0  0  0  0  0  0  0  0  0  0  0
    9.7780   -1.4740  -54.5110 C   0  0  0  0  0  0  0  0  0  0  0  0
   10.3210   -0.5610  -55.2930 N   0  0  0  0  0  0  0  0  0  0  0  0
   11.2080   -1.1990  -56.1290 N   0  0  0  0  0  0  0  0  0  0  0  0
   11.1920   -2.4860  -55.8430 C   0  0  0  0  0  0  0  0  0  0  0  0
   11.9970   -3.5640  -56.4970 C   0  0  0  0  0  0  0  0  0  0  0  0
   11.5660   -3.7820  -57.9550 C   0  0  0  0  0  0  0  0  0  0  0  0
   12.3810   -4.8900  -58.6200 C   0  0  0  0  0  0  0  0  0  0  0  0
   12.3240   -6.1880  -57.8210 C   0  0  0  0  0  0  0  0  0  0  0  0
   12.7500   -5.9770  -56.3710 C   0  0  0  0  0  0  0  0  0  0  0  0
   11.9360   -4.8740  -55.6990 C   0  0  0  0  0  0  0  0  0  0  0  0
   10.3000   -2.6970  -54.8260 N   0  0  0  0  0  0  0  0  0  0  0  0
    9.3310   -3.0180  -52.6750 H   0  0  0  0  0  0  0  0  0  0  0  0
    7.4811   -1.2035  -51.1693 H   0  0  0  0  0  0  0  0  0  0  0  0
    5.8379   -2.0981  -52.4930 H   0  0  0  0  0  0  0  0  0  0  0  0
    6.7460   -3.6484  -52.7478 H   0  0  0  0  0  0  0  0  0  0  0  0
    5.3664   -2.7952  -50.1680 H   0  0  0  0  0  0  0  0  0  0  0  0
    4.7429   -3.9909  -51.3791 H   0  0  0  0  0  0  0  0  0  0  0  0
    6.0722   -4.7634  -49.2028 H   0  0  0  0  0  0  0  0  0  0  0  0
    6.2620   -5.5838  -50.8250 H   0  0  0  0  0  0  0  0  0  0  0  0
    8.3567   -4.8803  -49.3009 H   0  0  0  0  0  0  0  0  0  0  0  0
    8.3761   -4.8716  -51.1142 H   0  0  0  0  0  0  0  0  0  0  0  0
    7.8161   -2.4691  -49.3239 H   0  0  0  0  0  0  0  0  0  0  0  0
    9.3648   -2.8293  -50.1980 H   0  0  0  0  0  0  0  0  0  0  0  0
   13.0446   -3.2288  -56.5065 H   0  0  0  0  0  0  0  0  0  0  0  0
   10.5018   -4.0596  -57.9755 H   0  0  0  0  0  0  0  0  0  0  0  0
   11.7375   -2.8473  -58.5091 H   0  0  0  0  0  0  0  0  0  0  0  0
   11.9786   -5.0732  -59.6272 H   0  0  0  0  0  0  0  0  0  0  0  0
   13.4300   -4.5626  -58.6687 H   0  0  0  0  0  0  0  0  0  0  0  0
   11.2933   -6.5719  -57.8375 H   0  0  0  0  0  0  0  0  0  0  0  0
   13.0191   -6.9053  -58.2818 H   0  0  0  0  0  0  0  0  0  0  0  0
   12.6047   -6.9158  -55.8164 H   0  0  0  0  0  0  0  0  0  0  0  0
   13.8078   -5.6755  -56.3644 H   0  0  0  0  0  0  0  0  0  0  0  0
   10.8876   -5.1985  -55.6243 H   0  0  0  0  0  0  0  0  0  0  0  0
   12.3612   -4.6904  -54.7013 H   0  0  0  0  0  0  0  0  0  0  0  0
   10.0620   -3.5700  -54.3780 H   0  0  0  0  0  0  0  0  0  0  0  0
  1  2  2  0
  2  3  1  0
  3  4  1  0
  4  5  1  0
  5  6  1  0
  6  7  1  0
  7  8  1  0
  8  9  1  0
  2 10  1  0
 10 11  2  0
 11 12  1  0
 12 13  2  0
 13 14  1  0
 14 15  1  0
 15 16  1  0
 16 17  1  0
 17 18  1  0
 18 19  1  0
 13 20  1  0
  9  4  1  0
 20 10  1  0
 19 14  1  0
  3 21  1  0
  4 22  1  0
  5 23  1  0
  5 24  1  0
  6 25  1  0
  6 26  1  0
  7 27  1  0
  7 28  1  0
  8 29  1  0
  8 30  1  0
  9 31  1  0
  9 32  1  0
 14 33  1  0
 15 34  1  0
 15 35  1  0
 16 36  1  0
 16 37  1  0
 17 38  1  0
 17 39  1  0
 18 40  1  0
 18 41  1  0
 19 42  1  0
 19 43  1  0
 20 44  1  0
M  END
>  <meeko>  (1) 
{"is_sidechain": false}

$$$$

     RDKit          3D

 44 46  0  0  0  0  0  0  0  0999 V2000
    5.5570   -0.3530  -53.5450 O   0  0  0  0  0  0  0  0  0  0  0  0
    6.7270   -0.4120  -53.9120 C   0  0  0  0  0  0  0  0  0  0  0  0
    7.6590   -1.2630  -53.3580 N   0  0  0  0  0  0  0  0  0  0  0  0
    7.3140   -2.2920  -52.3950 C   0  0  0  0  0  0  0  0  0  0  0  0
    7.8420   -3.6600  -52.8350 C   0  0  0  0  0  0  0  0  0  0  0  0
    7.4020   -4.7760  -51.8830 C   0  0  0  0  0  0  0  0  0  0  0  0
    7.1710   -4.3010  -50.4480 C   0  0  0  0  0  0  0  0  0  0  0  0
    8.0720   -3.1290  -50.0880 C   0  0  0  0  0  0  0  0  0  0  0  0
    7.8350   -1.9200  -50.9980 C   0  0  0  0  0  0  0  0  0  0  0  0
    7.2570    0.4010  -54.9770 C   0  0  0  0  0  0  0  0  0  0  0  0
    8.5130    0.7870  -55.1140 N   0  0  0  0  0  0  0  0  0  0  0  0
    8.4870    1.5230  -56.2750 C   0  0  0  0  0  0  0  0  0  0  0  0
    9.7240    2.1770  -56.8190 C   0  0  0  0  0  0  0  0  0  0  0  0
   10.0110    3.5220  -56.1370 C   0  0  0  0  0  0  0  0  0  0  0  0
    9.1090    4.6630  -56.6110 C   0  0  0  0  0  0  0  0  0  0  0  0
    8.7750    4.6100  -58.1030 C   0  0  0  0  0  0  0  0  0  0  0  0
    9.7310    3.7210  -58.8820 C   0  0  0  0  0  0  0  0  0  0  0  0
    9.7210    2.2830  -58.3580 C   0  0  0  0  0  0  0  0  0  0  0  0
    7.2830    1.6050  -56.8580 N   0  0  0  0  0  0  0  0  0  0  0  0
    6.5240    0.8850  -56.0160 N   0  0  0  0  0  0  0  0  0  0  0  0
    8.5550   -1.2980  -53.8370 H   0  0  0  0  0  0  0  0  0  0  0  0
    6.2173   -2.3607  -52.3450 H   0  0  0  0  0  0  0  0  0  0  0  0
    7.4601   -3.8811  -53.8426 H   0  0  0  0  0  0  0  0  0  0  0  0
    8.9412   -3.6194  -52.8272 H   0  0  0  0  0  0  0  0  0  0  0  0
    6.4634   -5.2065  -52.2621 H   0  0  0  0  0  0  0  0  0  0  0  0
    8.2178   -5.5132  -51.8513 H   0  0  0  0  0  0  0  0  0  0  0  0
    6.1216   -3.9892  -50.3409 H   0  0  0  0  0  0  0  0  0  0  0  0
    7.4074   -5.1344  -49.7701 H   0  0  0  0  0  0  0  0  0  0  0  0
    7.8720   -2.8343  -49.0473 H   0  0  0  0  0  0  0  0  0  0  0  0
    9.1157   -3.4514  -50.2177 H   0  0  0  0  0  0  0  0  0  0  0  0
    7.0972   -1.2617  -50.5160 H   0  0  0  0  0  0  0  0  0  0  0  0
    8.8083   -1.4271  -51.1383 H   0  0  0  0  0  0  0  0  0  0  0  0
   10.5616    1.5094  -56.5686 H   0  0  0  0  0  0  0  0  0  0  0  0
    9.8710    3.3974  -55.0531 H   0  0  0  0  0  0  0  0  0  0  0  0
   11.0421    3.7998  -56.4008 H   0  0  0  0  0  0  0  0  0  0  0  0
    8.1677    4.6190  -56.0436 H   0  0  0  0  0  0  0  0  0  0  0  0
    9.6615    5.5988  -56.4404 H   0  0  0  0  0  0  0  0  0  0  0  0
    7.7536    4.2195  -58.2223 H   0  0  0  0  0  0  0  0  0  0  0  0
    8.8668    5.6307  -58.5027 H   0  0  0  0  0  0  0  0  0  0  0  0
    9.4315    3.7168  -59.9404 H   0  0  0  0  0  0  0  0  0  0  0  0
   10.7479    4.1227  -58.7616 H   0  0  0  0  0  0  0  0  0  0  0  0
    8.8179    1.7826  -58.7376 H   0  0  0  0  0  0  0  0  0  0  0  0
   10.6481    1.8084  -58.7119 H   0  0  0  0  0  0  0  0  0  0  0  0
    5.5330    0.7610  -56.1960 H   0  0  0  0  0  0  0  0  0  0  0  0
  1  2  2  0
  2  3  1  0
  3  4  1  0
  4  5  1  0
  5  6  1  0
  6  7  1  0
  7  8  1  0
  8  9  1  0
  2 10  1  0
 10 11  2  0
 11 12  1  0
 12 13  1  0
 13 14  1  0
 14 15  1  0
 15 16  1  0
 16 17  1  0
 17 18  1  0
 12 19  2  0
 19 20  1  0
  9  4  1  0
 20 10  1  0
 18 13  1  0
  3 21  1  0
  4 22  1  0
  5 23  1  0
  5 24  1  0
  6 25  1  0
  6 26  1  0
  7 27  1  0
  7 28  1  0
  8 29  1  0
  8 30  1  0
  9 31  1  0
  9 32  1  0
 13 33  1  0
 14 34  1  0
 14 35  1  0
 15 36  1  0
 15 37  1  0
 16 38  1  0
 16 39  1  0
 17 40  1  0
 17 41  1  0
 18 42  1  0
 18 43  1  0
 20 44  1  0
M  END
>  <meeko>  (2) 
{"is_sidechain": false}

$$$$

     RDKit          3D

 44 46  0  0  0  0  0  0  0  0999 V2000
    7.0160    1.5130  -56.9180 O   0  0  0  0  0  0  0  0  0  0  0  0
    7.8440    1.1650  -56.0810 C   0  0  0  0  0  0  0  0  0  0  0  0
    9.1580    1.6050  -56.0920 N   0  0  0  0  0  0  0  0  0  0  0  0
    9.6280    2.6490  -56.9820 C   0  0  0  0  0  0  0  0  0  0  0  0
   11.1430    2.5220  -57.2090 C   0  0  0  0  0  0  0  0  0  0  0  0
   11.8190    3.8410  -57.5930 C   0  0  0  0  0  0  0  0  0  0  0  0
   10.8630    4.7880  -58.3020 C   0  0  0  0  0  0  0  0  0  0  0  0
    9.6630    5.1460  -57.4240 C   0  0  0  0  0  0  0  0  0  0  0  0
    9.2640    4.0360  -56.4480 C   0  0  0  0  0  0  0  0  0  0  0  0
    7.5480    0.2530  -54.9540 C   0  0  0  0  0  0  0  0  0  0  0  0
    6.2960    0.0740  -54.4740 N   0  0  0  0  0  0  0  0  0  0  0  0
    6.5040   -0.8140  -53.4880 N   0  0  0  0  0  0  0  0  0  0  0  0
    7.8220   -1.1570  -53.3840 C   0  0  0  0  0  0  0  0  0  0  0  0
    8.3630   -2.1280  -52.3790 C   0  0  0  0  0  0  0  0  0  0  0  0
    8.1850   -3.5920  -52.8300 C   0  0  0  0  0  0  0  0  0  0  0  0
    7.0220   -4.2830  -52.1220 C   0  0  0  0  0  0  0  0  0  0  0  0
    7.1920   -4.2820  -50.6020 C   0  0  0  0  0  0  0  0  0  0  0  0
    7.9480   -3.0640  -50.0690 C   0  0  0  0  0  0  0  0  0  0  0  0
    7.7880   -1.8530  -50.9790 C   0  0  0  0  0  0  0  0  0  0  0  0
    8.5010   -0.5000  -54.2970 N   0  0  0  0  0  0  0  0  0  0  0  0
    9.6990    1.3470  -55.2700 H   0  0  0  0  0  0  0  0  0  0  0  0
    9.1239    2.5254  -57.9519 H   0  0  0  0  0  0  0  0  0  0  0  0
   11.6037    2.1526  -56.2809 H   0  0  0  0  0  0  0  0  0  0  0  0
   11.2855    1.8297  -58.0518 H   0  0  0  0  0  0  0  0  0  0  0  0
   12.1894    4.3290  -56.6794 H   0  0  0  0  0  0  0  0  0  0  0  0
   12.6431    3.6109  -58.2843 H   0  0  0  0  0  0  0  0  0  0  0  0
   11.4027    5.7109  -58.5609 H   0  0  0  0  0  0  0  0  0  0  0  0
   10.4879    4.2830  -59.2044 H   0  0  0  0  0  0  0  0  0  0  0  0
    9.9133    6.0461  -56.8433 H   0  0  0  0  0  0  0  0  0  0  0  0
    8.8077    5.3063  -58.0969 H   0  0  0  0  0  0  0  0  0  0  0  0
    9.7855    4.1976  -55.4931 H   0  0  0  0  0  0  0  0  0  0  0  0
    8.1727    4.0747  -56.3152 H   0  0  0  0  0  0  0  0  0  0  0  0
    5.7180   -1.1360  -52.9350 H   0  0  0  0  0  0  0  0  0  0  0  0
    9.4497   -1.9714  -52.3113 H   0  0  0  0  0  0  0  0  0  0  0  0
    7.9978   -3.6073  -53.9138 H   0  0  0  0  0  0  0  0  0  0  0  0
    9.1053   -4.1363  -52.5717 H   0  0  0  0  0  0  0  0  0  0  0  0
    6.0896   -3.7570  -52.3751 H   0  0  0  0  0  0  0  0  0  0  0  0
    6.9936   -5.3297  -52.4592 H   0  0  0  0  0  0  0  0  0  0  0  0
    6.1935   -4.3002  -50.1408 H   0  0  0  0  0  0  0  0  0  0  0  0
    7.7893   -5.1692  -50.3446 H   0  0  0  0  0  0  0  0  0  0  0  0
    7.5592   -2.8128  -49.0711 H   0  0  0  0  0  0  0  0  0  0  0  0
    9.0172   -3.3187  -50.0255 H   0  0  0  0  0  0  0  0  0  0  0  0
    6.7186   -1.6127  -51.0714 H   0  0  0  0  0  0  0  0  0  0  0  0
    8.3387   -1.0100  -50.5362 H   0  0  0  0  0  0  0  0  0  0  0  0
  1  2  2  0
  2  3  1  0
  3  4  1  0
  4  5  1  0
  5  6  1  0
  6  7  1  0
  7  8  1  0
  8  9  1  0
  2 10  1  0
 10 11  2  0
 11 12  1  0
 12 13  1  0
 13 14  1  0
 14 15  1  0
 15 16  1  0
 16 17  1  0
 17 18  1  0
 18 19  1  0
 13 20  2  0
  9  4  1  0
 20 10  1  0
 19 14  1  0
  3 21  1  0
  4 22  1  0
  5 23  1  0
  5 24  1  0
  6 25  1  0
  6 26  1  0
  7 27  1  0
  7 28  1  0
  8 29  1  0
  8 30  1  0
  9 31  1  0
  9 32  1  0
 12 33  1  0
 14 34  1  0
 15 35  1  0
 15 36  1  0
 16 37  1  0
 16 38  1  0
 17 39  1  0
 17 40  1  0
 18 41  1  0
 18 42  1  0
 19 43  1  0
 19 44  1  0
M  END
>  <meeko>  (3) 
{"is_sidechain": false}

$$$$

     RDKit          3D

 52 56  0  0  0  0  0  0  0  0999 V2000
    5.9730    1.4130  -56.8360 O   0  0  0  0  0  0  0  0  0  0  0  0
    6.9420    1.1510  -56.1290 C   0  0  0  0  0  0  0  0  0  0  0  0
    8.1950    1.7040  -56.3740 N   0  0  0  0  0  0  0  0  0  0  0  0
    8.3870    2.6740  -57.4500 C   0  0  2  0  0  0  0  0  0  0  0  0
    9.5910    2.3160  -58.3600 C   0  0  1  0  0  0  0  0  0  0  0  0
    9.6340    3.3150  -59.5330 C   0  0  0  0  0  0  0  0  0  0  0  0
    9.8080    4.7500  -59.0030 C   0  0  2  0  0  0  0  0  0  0  0  0
   11.1250    4.8360  -58.2120 C   0  0  0  0  0  0  0  0  0  0  0  0
   11.0960    3.8490  -57.0320 C   0  0  2  0  0  0  0  0  0  0  0  0
   10.9110    2.4210  -57.5710 C   0  0  0  0  0  0  0  0  0  0  0  0
    9.9160    4.1990  -56.1110 C   0  0  0  0  0  0  0  0  0  0  0  0
    8.5880    4.1040  -56.8880 C   0  0  1  0  0  0  0  0  0  0  0  0
    8.6350    5.0940  -58.0690 C   0  0  0  0  0  0  0  0  0  0  0  0
    6.9010    0.2690  -54.9830 C   0  0  0  0  0  0  0  0  0  0  0  0
    5.8010   -0.1330  -54.3770 N   0  0  0  0  0  0  0  0  0  0  0  0
    6.1590   -0.9580  -53.3360 N   0  0  0  0  0  0  0  0  0  0  0  0
    7.4680   -1.0760  -53.3390 C   0  0  0  0  0  0  0  0  0  0  0  0
    8.3190   -1.8890  -52.4140 C   0  0  0  0  0  0  0  0  0  0  0  0
    7.7810   -1.7880  -50.9740 C   0  0  0  0  0  0  0  0  0  0  0  0
    8.2040   -2.9850  -50.1320 C   0  0  0  0  0  0  0  0  0  0  0  0
    7.6530   -4.2960  -50.6940 C   0  0  0  0  0  0  0  0  0  0  0  0
    7.4520   -4.2750  -52.2110 C   0  0  0  0  0  0  0  0  0  0  0  0
    8.4440   -3.3450  -52.9040 C   0  0  0  0  0  0  0  0  0  0  0  0
    7.9730   -0.3170  -54.3600 N   0  0  0  0  0  0  0  0  0  0  0  0
    8.8060    1.7890  -55.5730 H   0  0  0  0  0  0  0  0  0  0  0  0
    7.4700    2.6405  -58.0566 H   0  0  0  0  0  0  0  0  0  0  0  0
    9.4735    1.2858  -58.7272 H   0  0  0  0  0  0  0  0  0  0  0  0
   10.4791    3.0659  -60.1916 H   0  0  0  0  0  0  0  0  0  0  0  0
    8.6897    3.2514  -60.0935 H   0  0  0  0  0  0  0  0  0  0  0  0
    9.8292    5.4573  -59.8452 H   0  0  0  0  0  0  0  0  0  0  0  0
   11.9656    4.5854  -58.8758 H   0  0  0  0  0  0  0  0  0  0  0  0
   11.2472    5.8582  -57.8246 H   0  0  0  0  0  0  0  0  0  0  0  0
   12.0391    3.9137  -56.4695 H   0  0  0  0  0  0  0  0  0  0  0  0
   11.7518    2.1716  -58.2349 H   0  0  0  0  0  0  0  0  0  0  0  0
   10.8796    1.7194  -56.7244 H   0  0  0  0  0  0  0  0  0  0  0  0
    9.8936    3.4954  -55.2658 H   0  0  0  0  0  0  0  0  0  0  0  0
   10.0424    5.2270  -55.7405 H   0  0  0  0  0  0  0  0  0  0  0  0
    7.7575    4.3427  -56.2074 H   0  0  0  0  0  0  0  0  0  0  0  0
    7.6920    5.0331  -58.6321 H   0  0  0  0  0  0  0  0  0  0  0  0
    8.7736    6.1129  -57.6784 H   0  0  0  0  0  0  0  0  0  0  0  0
    9.3398   -1.4791  -52.4127 H   0  0  0  0  0  0  0  0  0  0  0  0
    8.1713   -0.8699  -50.5107 H   0  0  0  0  0  0  0  0  0  0  0  0
    6.6820   -1.7694  -51.0178 H   0  0  0  0  0  0  0  0  0  0  0  0
    9.3026   -3.0384  -50.1151 H   0  0  0  0  0  0  0  0  0  0  0  0
    7.7998   -2.8504  -49.1179 H   0  0  0  0  0  0  0  0  0  0  0  0
    8.3580   -5.1037  -50.4476 H   0  0  0  0  0  0  0  0  0  0  0  0
    6.6635   -4.4517  -50.2393 H   0  0  0  0  0  0  0  0  0  0  0  0
    7.5875   -5.2943  -52.6018 H   0  0  0  0  0  0  0  0  0  0  0  0
    6.4369   -3.9036  -52.4151 H   0  0  0  0  0  0  0  0  0  0  0  0
    9.4647   -3.7008  -52.7000 H   0  0  0  0  0  0  0  0  0  0  0  0
    8.2225   -3.3583  -53.9814 H   0  0  0  0  0  0  0  0  0  0  0  0
    8.9380   -0.2400  -54.6400 H   0  0  0  0  0  0  0  0  0  0  0  0
  1  2  2  0
  2  3  1  0
  3  4  1  0
  4  5  1  0
  5  6  1  0
  6  7  1  0
  7  8  1  0
  8  9  1  0
  9 10  1  0
  9 11  1  0
 11 12  1  0
 12 13  1  0
  2 14  1  0
 14 15  2  0
 15 16  1  0
 16 17  2  0
 17 18  1  0
 18 19  1  0
 19 20  1  0
 20 21  1  0
 21 22  1  0
 22 23  1  0
 17 24  1  0
 12  4  1  0
 24 14  1  0
 10  5  1  0
 23 18  1  0
 13  7  1  0
  3 25  1  0
  4 26  1  1
  5 27  1  1
  6 28  1  0
  6 29  1  0
  7 30  1  1
  8 31  1  0
  8 32  1  0
  9 33  1  6
 10 34  1  0
 10 35  1  0
 11 36  1  0
 11 37  1  0
 12 38  1  6
 13 39  1  0
 13 40  1  0
 18 41  1  0
 19 42  1  0
 19 43  1  0
 20 44  1  0
 20 45  1  0
 21 46  1  0
 21 47  1  0
 22 48  1  0
 22 49  1  0
 23 50  1  0
 23 51  1  0
 24 52  1  0
M  END
>  <meeko>  (4) 
{"is_sidechain": false}

$$$$

     RDKit          3D

 52 56  0  0  0  0  0  0  0  0999 V2000
    6.5420    1.3500  -56.2040 O   0  0  0  0  0  0  0  0  0  0  0  0
    7.7120    1.0940  -55.9310 C   0  0  0  0  0  0  0  0  0  0  0  0
    8.7690    1.7170  -56.5880 N   0  0  0  0  0  0  0  0  0  0  0  0
    8.5200    2.6620  -57.6750 C   0  0  2  0  0  0  0  0  0  0  0  0
    9.5780    2.5170  -58.7980 C   0  0  1  0  0  0  0  0  0  0  0  0
    9.1760    3.4280  -59.9730 C   0  0  0  0  0  0  0  0  0  0  0  0
    9.1270    4.8960  -59.5130 C   0  0  2  0  0  0  0  0  0  0  0  0
   10.5170    5.3100  -58.9990 C   0  0  0  0  0  0  0  0  0  0  0  0
   10.9310    4.4110  -57.8210 C   0  0  2  0  0  0  0  0  0  0  0  0
   10.9690    2.9480  -58.2920 C   0  0  0  0  0  0  0  0  0  0  0  0
    9.9000    4.5510  -56.6900 C   0  0  0  0  0  0  0  0  0  0  0  0
    8.5020    4.1340  -57.1880 C   0  0  1  0  0  0  0  0  0  0  0  0
    8.1050    5.0380  -58.3720 C   0  0  0  0  0  0  0  0  0  0  0  0
    8.1190    0.1310  -54.9310 C   0  0  0  0  0  0  0  0  0  0  0  0
    7.3690   -0.3230  -53.9440 N   0  0  0  0  0  0  0  0  0  0  0  0
    8.1950   -1.1930  -53.2810 C   0  0  0  0  0  0  0  0  0  0  0  0
    7.7380   -1.9520  -52.0750 C   0  0  0  0  0  0  0  0  0  0  0  0
    8.9140   -2.5960  -51.3250 C   0  0  0  0  0  0  0  0  0  0  0  0
    8.4440   -3.3690  -50.0950 C   0  0  0  0  0  0  0  0  0  0  0  0
    7.3830   -4.4050  -50.4540 C   0  0  0  0  0  0  0  0  0  0  0  0
    6.2090   -3.7730  -51.1960 C   0  0  0  0  0  0  0  0  0  0  0  0
    6.6730   -3.0010  -52.4300 C   0  0  0  0  0  0  0  0  0  0  0  0
    9.4240   -1.3010  -53.8020 N   0  0  0  0  0  0  0  0  0  0  0  0
    9.3580   -0.4330  -54.8220 N   0  0  0  0  0  0  0  0  0  0  0  0
    9.6370    1.2010  -56.6280 H   0  0  0  0  0  0  0  0  0  0  0  0
    7.5235    2.4142  -58.0694 H   0  0  0  0  0  0  0  0  0  0  0  0
    9.6232    1.4645  -59.1144 H   0  0  0  0  0  0  0  0  0  0  0  0
    9.9141    3.3249  -60.7820 H   0  0  0  0  0  0  0  0  0  0  0  0
    8.1803    3.1309  -60.3339 H   0  0  0  0  0  0  0  0  0  0  0  0
    8.8331    5.5388  -60.3559 H   0  0  0  0  0  0  0  0  0  0  0  0
   11.2514    5.2072  -59.8115 H   0  0  0  0  0  0  0  0  0  0  0  0
   10.4801    6.3558  -58.6599 H   0  0  0  0  0  0  0  0  0  0  0  0
   11.9245    4.7108  -57.4562 H   0  0  0  0  0  0  0  0  0  0  0  0
   11.6999    2.8475  -59.1079 H   0  0  0  0  0  0  0  0  0  0  0  0
   11.2593    2.3058  -57.4475 H   0  0  0  0  0  0  0  0  0  0  0  0
   10.1935    3.9054  -55.8491 H   0  0  0  0  0  0  0  0  0  0  0  0
    9.8659    5.6010  -56.3639 H   0  0  0  0  0  0  0  0  0  0  0  0
    7.7826    4.2346  -56.3619 H   0  0  0  0  0  0  0  0  0  0  0  0
    7.1098    4.7436  -58.7365 H   0  0  0  0  0  0  0  0  0  0  0  0
    8.0860    6.0848  -58.0345 H   0  0  0  0  0  0  0  0  0  0  0  0
    7.2728   -1.2194  -51.3991 H   0  0  0  0  0  0  0  0  0  0  0  0
    9.4337   -3.2881  -52.0039 H   0  0  0  0  0  0  0  0  0  0  0  0
    9.5872   -1.7935  -50.9891 H   0  0  0  0  0  0  0  0  0  0  0  0
    9.3065   -3.8825  -49.6451 H   0  0  0  0  0  0  0  0  0  0  0  0
    8.0001   -2.6530  -49.3877 H   0  0  0  0  0  0  0  0  0  0  0  0
    7.8379   -5.1744  -51.0951 H   0  0  0  0  0  0  0  0  0  0  0  0
    7.0029   -4.8458  -49.5206 H   0  0  0  0  0  0  0  0  0  0  0  0
    5.5168   -4.5676  -51.5115 H   0  0  0  0  0  0  0  0  0  0  0  0
    5.7121   -3.0663  -50.5150 H   0  0  0  0  0  0  0  0  0  0  0  0
    7.0986   -3.7101  -53.1553 H   0  0  0  0  0  0  0  0  0  0  0  0
    5.8037   -2.4778  -52.8549 H   0  0  0  0  0  0  0  0  0  0  0  0
   10.1810   -0.2600  -55.3850 H   0  0  0  0  0  0  0  0  0  0  0  0
  1  2  2  0
  2  3  1  0
  3  4  1  0
  4  5  1  0
  5  6  1  0
  6  7  1  0
  7  8  1  0
  8  9  1  0
  9 10  1  0
  9 11  1  0
 11 12  1  0
 12 13  1  0
  2 14  1  0
 14 15  2  0
 15 16  1  0
 16 17  1  0
 17 18  1  0
 18 19  1  0
 19 20  1  0
 20 21  1  0
 21 22  1  0
 16 23  2  0
 23 24  1  0
 12  4  1  0
 24 14  1  0
 10  5  1  0
 22 17  1  0
 13  7  1  0
  3 25  1  0
  4 26  1  1
  5 27  1  1
  6 28  1  0
  6 29  1  0
  7 30  1  1
  8 31  1  0
  8 32  1  0
  9 33  1  6
 10 34  1  0
 10 35  1  0
 11 36  1  0
 11 37  1  0
 12 38  1  6
 13 39  1  0
 13 40  1  0
 17 41  1  0
 18 42  1  0
 18 43  1  0
 19 44  1  0
 19 45  1  0
 20 46  1  0
 20 47  1  0
 21 48  1  0
 21 49  1  0
 22 50  1  0
 22 51  1  0
 24 52  1  0
M  END
>  <meeko>  (5) 
{"is_sidechain": false}

$$$$

     RDKit          3D

 52 56  0  0  0  0  0  0  0  0999 V2000
    6.2990    1.1880  -56.5810 O   0  0  0  0  0  0  0  0  0  0  0  0
    7.4320    1.1290  -56.1120 C   0  0  0  0  0  0  0  0  0  0  0  0
    8.5000    1.8520  -56.6190 N   0  0  0  0  0  0  0  0  0  0  0  0
    8.4130    2.6080  -57.8540 C   0  0  2  0  0  0  0  0  0  0  0  0
    9.6600    2.4080  -58.7500 C   0  0  1  0  0  0  0  0  0  0  0  0
    9.4070    3.1110  -60.0980 C   0  0  0  0  0  0  0  0  0  0  0  0
    9.1710    4.6160  -59.8750 C   0  0  2  0  0  0  0  0  0  0  0  0
   10.4180    5.2260  -59.2120 C   0  0  0  0  0  0  0  0  0  0  0  0
   10.6810    4.5400  -57.8600 C   0  0  2  0  0  0  0  0  0  0  0  0
   10.9030    3.0360  -58.0890 C   0  0  0  0  0  0  0  0  0  0  0  0
    9.4590    4.7420  -56.9480 C   0  0  0  0  0  0  0  0  0  0  0  0
    8.2060    4.1190  -57.5940 C   0  0  1  0  0  0  0  0  0  0  0  0
    7.9570    4.8140  -58.9480 C   0  0  0  0  0  0  0  0  0  0  0  0
    7.8200    0.2790  -54.9650 C   0  0  0  0  0  0  0  0  0  0  0  0
    9.0770    0.1380  -54.5080 N   0  0  0  0  0  0  0  0  0  0  0  0
    8.9130   -0.7070  -53.4830 N   0  0  0  0  0  0  0  0  0  0  0  0
    7.6020   -1.0600  -53.3210 C   0  0  0  0  0  0  0  0  0  0  0  0
    7.1130   -1.9890  -52.2560 C   0  0  0  0  0  0  0  0  0  0  0  0
    6.6830   -3.3460  -52.8440 C   0  0  0  0  0  0  0  0  0  0  0  0
    6.7580   -4.4970  -51.8370 C   0  0  0  0  0  0  0  0  0  0  0  0
    6.5240   -4.0220  -50.4100 C   0  0  0  0  0  0  0  0  0  0  0  0
    7.5680   -2.9930  -49.9720 C   0  0  0  0  0  0  0  0  0  0  0  0
    8.1350   -2.1660  -51.1290 C   0  0  0  0  0  0  0  0  0  0  0  0
    6.8840   -0.4520  -54.2410 N   0  0  0  0  0  0  0  0  0  0  0  0
    9.4030    1.6160  -56.2160 H   0  0  0  0  0  0  0  0  0  0  0  0
    7.5329    2.2153  -58.3843 H   0  0  0  0  0  0  0  0  0  0  0  0
    9.8368    1.3319  -58.8939 H   0  0  0  0  0  0  0  0  0  0  0  0
   10.2821    2.9728  -60.7500 H   0  0  0  0  0  0  0  0  0  0  0  0
    8.5150    2.6732  -60.5700 H   0  0  0  0  0  0  0  0  0  0  0  0
    8.9800    5.1078  -60.8402 H   0  0  0  0  0  0  0  0  0  0  0  0
   11.2880    5.0818  -59.8695 H   0  0  0  0  0  0  0  0  0  0  0  0
   10.2510    6.3006  -59.0464 H   0  0  0  0  0  0  0  0  0  0  0  0
   11.5735    4.9760  -57.3875 H   0  0  0  0  0  0  0  0  0  0  0  0
   11.7744    2.8932  -58.7450 H   0  0  0  0  0  0  0  0  0  0  0  0
   11.0785    2.5477  -57.1191 H   0  0  0  0  0  0  0  0  0  0  0  0
    9.6459    4.2593  -55.9774 H   0  0  0  0  0  0  0  0  0  0  0  0
    9.2916    5.8197  -56.8046 H   0  0  0  0  0  0  0  0  0  0  0  0
    7.3526    4.2513  -56.9127 H   0  0  0  0  0  0  0  0  0  0  0  0
    7.0635    4.3803  -59.4208 H   0  0  0  0  0  0  0  0  0  0  0  0
    7.8051    5.8901  -58.7781 H   0  0  0  0  0  0  0  0  0  0  0  0
    9.7230   -0.9960  -52.9470 H   0  0  0  0  0  0  0  0  0  0  0  0
    6.2227   -1.5216  -51.8101 H   0  0  0  0  0  0  0  0  0  0  0  0
    5.6450   -3.2594  -53.1977 H   0  0  0  0  0  0  0  0  0  0  0  0
    7.3822   -3.5824  -53.6596 H   0  0  0  0  0  0  0  0  0  0  0  0
    5.9917   -5.2434  -52.0930 H   0  0  0  0  0  0  0  0  0  0  0  0
    7.7680   -4.9296  -51.8899 H   0  0  0  0  0  0  0  0  0  0  0  0
    5.5256   -3.5645  -50.3468 H   0  0  0  0  0  0  0  0  0  0  0  0
    6.6042   -4.8934  -49.7435 H   0  0  0  0  0  0  0  0  0  0  0  0
    7.0993   -2.3071  -49.2510 H   0  0  0  0  0  0  0  0  0  0  0  0
    8.4075   -3.5516  -49.5324 H   0  0  0  0  0  0  0  0  0  0  0  0
    8.4227   -1.1742  -50.7502 H   0  0  0  0  0  0  0  0  0  0  0  0
    9.0051   -2.7009  -51.5374 H   0  0  0  0  0  0  0  0  0  0  0  0
  1  2  2  0
  2  3  1  0
  3  4  1  0
  4  5  1  0
  5  6  1  0
  6  7  1  0
  7  8  1  0
  8  9  1  0
  9 10  1  0
  9 11  1  0
 11 12  1  0
 12 13  1  0
  2 14  1  0
 14 15  2  0
 15 16  1  0
 16 17  1  0
 17 18  1  0
 18 19  1  0
 19 20  1  0
 20 21  1  0
 21 22  1  0
 22 23  1  0
 17 24  2  0
 12  4  1  0
 24 14  1  0
 10  5  1  0
 23 18  1  0
 13  7  1  0
  3 25  1  0
  4 26  1  1
  5 27  1  1
  6 28  1  0
  6 29  1  0
  7 30  1  1
  8 31  1  0
  8 32  1  0
  9 33  1  6
 10 34  1  0
 10 35  1  0
 11 36  1  0
 11 37  1  0
 12 38  1  6
 13 39  1  0
 13 40  1  0
 16 41  1  0
 18 42  1  0
 19 43  1  0
 19 44  1  0
 20 45  1  0
 20 46  1  0
 21 47  1  0
 21 48  1  0
 22 49  1  0
 22 50  1  0
 23 51  1  0
 23 52  1  0
M  END
>  <meeko>  (6) 
{"is_sidechain": false}

$$$$

     RDKit          3D

 41 43  0  0  0  0  0  0  0  0999 V2000
    9.0740   -1.0650  -53.9140 O   0  0  0  0  0  0  0  0  0  0  0  0
    9.7260   -0.7550  -54.9080 C   0  0  0  0  0  0  0  0  0  0  0  0
   10.7790   -1.4960  -55.3890 N   0  0  0  0  0  0  0  0  0  0  0  0
   11.1240   -2.7920  -54.8640 C   0  0  0  0  0  0  0  0  0  0  0  0
   11.5210   -3.7340  -55.9700 C   0  0  0  0  0  0  0  0  0  0  0  0
   11.9310   -5.0430  -55.6830 C   0  0  0  0  0  0  0  0  0  0  0  0
   12.3180   -5.9040  -56.7110 C   0  0  0  0  0  0  0  0  0  0  0  0
   12.3080   -5.4630  -58.0330 C   0  0  0  0  0  0  0  0  0  0  0  0
   11.9130   -4.1590  -58.3300 C   0  0  0  0  0  0  0  0  0  0  0  0
   11.5240   -3.2980  -57.3040 C   0  0  0  0  0  0  0  0  0  0  0  0
    9.4450    0.4270  -55.6830 C   0  0  0  0  0  0  0  0  0  0  0  0
    8.2840    1.0510  -55.7410 N   0  0  0  0  0  0  0  0  0  0  0  0
    8.4300    2.1300  -56.5830 N   0  0  0  0  0  0  0  0  0  0  0  0
    9.6720    2.1480  -57.0200 C   0  0  0  0  0  0  0  0  0  0  0  0
   10.2830    3.1420  -57.9540 C   0  0  0  0  0  0  0  0  0  0  0  0
    9.9510    2.8350  -59.4200 C   0  0  0  0  0  0  0  0  0  0  0  0
   10.4510    3.9380  -60.3560 C   0  0  0  0  0  0  0  0  0  0  0  0
   11.7050    4.6520  -59.8490 C   0  0  0  0  0  0  0  0  0  0  0  0
   12.5610    3.7450  -58.9760 C   0  0  0  0  0  0  0  0  0  0  0  0
   11.8030    3.2620  -57.7360 C   0  0  0  0  0  0  0  0  0  0  0  0
   10.3440    1.0870  -56.4740 N   0  0  0  0  0  0  0  0  0  0  0  0
   11.1630   -1.2070  -56.2830 H   0  0  0  0  0  0  0  0  0  0  0  0
   11.9656   -2.6841  -54.1639 H   0  0  0  0  0  0  0  0  0  0  0  0
   10.2450   -3.2068  -54.3489 H   0  0  0  0  0  0  0  0  0  0  0  0
   11.9479   -5.3942  -54.6407 H   0  0  0  0  0  0  0  0  0  0  0  0
   12.6314   -6.9322  -56.4774 H   0  0  0  0  0  0  0  0  0  0  0  0
   12.6117   -6.1435  -58.8421 H   0  0  0  0  0  0  0  0  0  0  0  0
   11.9082   -3.8096  -59.3730 H   0  0  0  0  0  0  0  0  0  0  0  0
   11.2171   -2.2689  -57.5423 H   0  0  0  0  0  0  0  0  0  0  0  0
    9.8344    4.1186  -57.7194 H   0  0  0  0  0  0  0  0  0  0  0  0
   10.4277    1.8847  -59.7021 H   0  0  0  0  0  0  0  0  0  0  0  0
    8.8572    2.7714  -59.5181 H   0  0  0  0  0  0  0  0  0  0  0  0
   10.6789    3.4875  -61.3333 H   0  0  0  0  0  0  0  0  0  0  0  0
    9.6536    4.6932  -60.4181 H   0  0  0  0  0  0  0  0  0  0  0  0
   12.3014    4.9799  -60.7132 H   0  0  0  0  0  0  0  0  0  0  0  0
   11.3857    5.5098  -59.2390 H   0  0  0  0  0  0  0  0  0  0  0  0
   12.8690    2.8701  -59.5674 H   0  0  0  0  0  0  0  0  0  0  0  0
   13.4335    4.3231  -58.6377 H   0  0  0  0  0  0  0  0  0  0  0  0
   12.1933    2.2735  -57.4523 H   0  0  0  0  0  0  0  0  0  0  0  0
   11.9588    4.0135  -56.9480 H   0  0  0  0  0  0  0  0  0  0  0  0
   11.3100    0.8260  -56.6090 H   0  0  0  0  0  0  0  0  0  0  0  0
  1  2  2  0
  2  3  1  0
  3  4  1  0
  4  5  1  0
  5  6  2  0
  6  7  1  0
  7  8  2  0
  8  9  1  0
  9 10  2  0
  2 11  1  0
 11 12  2  0
 12 13  1  0
 13 14  2  0
 14 15  1  0
 15 16  1  0
 16 17  1  0
 17 18  1  0
 18 19  1  0
 19 20  1  0
 14 21  1  0
 10  5  1  0
 21 11  1  0
 20 15  1  0
  3 22  1  0
  4 23  1  0
  4 24  1  0
  6 25  1  0
  7 26  1  0
  8 27  1  0
  9 28  1  0
 10 29  1  0
 15 30  1  0
 16 31  1  0
 16 32  1  0
 17 33  1  0
 17 34  1  0
 18 35  1  0
 18 36  1  0
 19 37  1  0
 19 38  1  0
 20 39  1  0
 20 40  1  0
 21 41  1  0
M  END
>  <meeko>  (7) 
{"is_sidechain": false}

$$$$

     RDKit          3D

 41 43  0  0  0  0  0  0  0  0999 V2000
    8.5650   -0.1710  -54.7850 O   0  0  0  0  0  0  0  0  0  0  0  0
    9.5070    0.1310  -55.5100 C   0  0  0  0  0  0  0  0  0  0  0  0
   10.5800   -0.6930  -55.7530 N   0  0  0  0  0  0  0  0  0  0  0  0
   10.7870   -1.9310  -55.0480 C   0  0  0  0  0  0  0  0  0  0  0  0
   11.1220   -3.0450  -56.0060 C   0  0  0  0  0  0  0  0  0  0  0  0
   11.7190   -2.7600  -57.2430 C   0  0  0  0  0  0  0  0  0  0  0  0
   12.0100   -3.7870  -58.1420 C   0  0  0  0  0  0  0  0  0  0  0  0
   11.6990   -5.1060  -57.8190 C   0  0  0  0  0  0  0  0  0  0  0  0
   11.0940   -5.4000  -56.5990 C   0  0  0  0  0  0  0  0  0  0  0  0
   10.8030   -4.3750  -55.6970 C   0  0  0  0  0  0  0  0  0  0  0  0
    9.5990    1.4000  -56.1880 C   0  0  0  0  0  0  0  0  0  0  0  0
   10.7030    1.9640  -56.6430 N   0  0  0  0  0  0  0  0  0  0  0  0
   10.2470    3.1420  -57.1870 C   0  0  0  0  0  0  0  0  0  0  0  0
   11.1570    4.1330  -57.8380 C   0  0  0  0  0  0  0  0  0  0  0  0
   12.3190    3.4480  -58.5680 C   0  0  0  0  0  0  0  0  0  0  0  0
   13.3260    4.4630  -59.1170 C   0  0  0  0  0  0  0  0  0  0  0  0
   12.6980    5.8060  -59.4930 C   0  0  0  0  0  0  0  0  0  0  0  0
   11.2430    5.6540  -59.9110 C   0  0  0  0  0  0  0  0  0  0  0  0
   10.3830    5.0690  -58.7880 C   0  0  0  0  0  0  0  0  0  0  0  0
    8.9240    3.3280  -57.0940 N   0  0  0  0  0  0  0  0  0  0  0  0
    8.5390    2.2120  -56.4540 N   0  0  0  0  0  0  0  0  0  0  0  0
   11.3490   -0.2820  -56.2710 H   0  0  0  0  0  0  0  0  0  0  0  0
   11.6165   -1.8061  -54.3365 H   0  0  0  0  0  0  0  0  0  0  0  0
    9.8605   -2.1917  -54.5155 H   0  0  0  0  0  0  0  0  0  0  0  0
   11.9595   -1.7194  -57.5063 H   0  0  0  0  0  0  0  0  0  0  0  0
   12.4853   -3.5548  -59.1064 H   0  0  0  0  0  0  0  0  0  0  0  0
   11.9311   -5.9152  -58.5271 H   0  0  0  0  0  0  0  0  0  0  0  0
   10.8453   -6.4412  -56.3461 H   0  0  0  0  0  0  0  0  0  0  0  0
   10.3203   -4.6123  -54.7375 H   0  0  0  0  0  0  0  0  0  0  0  0
   11.5891    4.7480  -57.0348 H   0  0  0  0  0  0  0  0  0  0  0  0
   12.8360    2.7789  -57.8644 H   0  0  0  0  0  0  0  0  0  0  0  0
   11.9040    2.8858  -59.4175 H   0  0  0  0  0  0  0  0  0  0  0  0
   14.0941    4.6408  -58.3499 H   0  0  0  0  0  0  0  0  0  0  0  0
   13.7467    4.0342  -60.0385 H   0  0  0  0  0  0  0  0  0  0  0  0
   12.7501    6.4787  -58.6243 H   0  0  0  0  0  0  0  0  0  0  0  0
   13.2570    6.2170  -60.3465 H   0  0  0  0  0  0  0  0  0  0  0  0
   10.8465    6.6431  -60.1837 H   0  0  0  0  0  0  0  0  0  0  0  0
   11.2049    4.9614  -60.7647 H   0  0  0  0  0  0  0  0  0  0  0  0
    9.9711    5.9003  -58.1970 H   0  0  0  0  0  0  0  0  0  0  0  0
    9.5980    4.4645  -59.2659 H   0  0  0  0  0  0  0  0  0  0  0  0
    7.5610    2.0600  -56.2290 H   0  0  0  0  0  0  0  0  0  0  0  0
  1  2  2  0
  2  3  1  0
  3  4  1  0
  4  5  1  0
  5  6  2  0
  6  7  1  0
  7  8  2  0
  8  9  1  0
  9 10  2  0
  2 11  1  0
 11 12  2  0
 12 13  1  0
 13 14  1  0
 14 15  1  0
 15 16  1  0
 16 17  1  0
 17 18  1  0
 18 19  1  0
 13 20  2  0
 20 21  1  0
 10  5  1  0
 21 11  1  0
 19 14  1  0
  3 22  1  0
  4 23  1  0
  4 24  1  0
  6 25  1  0
  7 26  1  0
  8 27  1  0
  9 28  1  0
 10 29  1  0
 14 30  1  0
 15 31  1  0
 15 32  1  0
 16 33  1  0
 16 34  1  0
 17 35  1  0
 17 36  1  0
 18 37  1  0
 18 38  1  0
 19 39  1  0
 19 40  1  0
 21 41  1  0
M  END
>  <meeko>  (8) 
{"is_sidechain": false}

$$$$

     RDKit          3D

 41 43  0  0  0  0  0  0  0  0999 V2000
    9.0920    0.7160  -55.3670 O   0  0  0  0  0  0  0  0  0  0  0  0
   10.0990    0.6710  -56.0700 C   0  0  0  0  0  0  0  0  0  0  0  0
   10.9930   -0.3820  -56.0450 N   0  0  0  0  0  0  0  0  0  0  0  0
   10.7320   -1.5990  -55.3250 C   0  0  0  0  0  0  0  0  0  0  0  0
   11.0710   -2.8040  -56.1660 C   0  0  0  0  0  0  0  0  0  0  0  0
   11.8390   -2.6710  -57.3310 C   0  0  0  0  0  0  0  0  0  0  0  0
   12.1320   -3.7890  -58.1150 C   0  0  0  0  0  0  0  0  0  0  0  0
   11.6540   -5.0450  -57.7480 C   0  0  0  0  0  0  0  0  0  0  0  0
   10.8800   -5.1860  -56.5970 C   0  0  0  0  0  0  0  0  0  0  0  0
   10.5880   -4.0710  -55.8120 C   0  0  0  0  0  0  0  0  0  0  0  0
   10.4860    1.7200  -57.0390 C   0  0  0  0  0  0  0  0  0  0  0  0
   11.7110    2.2640  -57.1270 N   0  0  0  0  0  0  0  0  0  0  0  0
   11.5590    3.1460  -58.1220 N   0  0  0  0  0  0  0  0  0  0  0  0
   10.2890    3.1390  -58.6220 C   0  0  0  0  0  0  0  0  0  0  0  0
    9.7930    4.0090  -59.7390 C   0  0  0  0  0  0  0  0  0  0  0  0
    8.3950    4.5870  -59.4720 C   0  0  0  0  0  0  0  0  0  0  0  0
    7.2490    3.6430  -59.8230 C   0  0  0  0  0  0  0  0  0  0  0  0
    7.3850    3.0830  -61.2340 C   0  0  0  0  0  0  0  0  0  0  0  0
    8.7330    2.4020  -61.4450 C   0  0  0  0  0  0  0  0  0  0  0  0
    9.8980    3.3320  -61.1140 C   0  0  0  0  0  0  0  0  0  0  0  0
    9.5850    2.2450  -57.9570 N   0  0  0  0  0  0  0  0  0  0  0  0
   11.7150   -0.3650  -56.7570 H   0  0  0  0  0  0  0  0  0  0  0  0
   11.3429   -1.6146  -54.4103 H   0  0  0  0  0  0  0  0  0  0  0  0
    9.6620   -1.6359  -55.0726 H   0  0  0  0  0  0  0  0  0  0  0  0
   12.2130   -1.6805  -57.6294 H   0  0  0  0  0  0  0  0  0  0  0  0
   12.7414   -3.6776  -59.0240 H   0  0  0  0  0  0  0  0  0  0  0  0
   11.8870   -5.9248  -58.3658 H   0  0  0  0  0  0  0  0  0  0  0  0
   10.4996   -6.1769  -56.3080 H   0  0  0  0  0  0  0  0  0  0  0  0
    9.9733   -4.1870  -54.9072 H   0  0  0  0  0  0  0  0  0  0  0  0
   12.3550    3.7090  -58.3980 H   0  0  0  0  0  0  0  0  0  0  0  0
   10.4763    4.8705  -59.7702 H   0  0  0  0  0  0  0  0  0  0  0  0
    8.3227    4.8343  -58.4026 H   0  0  0  0  0  0  0  0  0  0  0  0
    8.2884    5.4680  -60.1220 H   0  0  0  0  0  0  0  0  0  0  0  0
    7.2450    2.8073  -59.1077 H   0  0  0  0  0  0  0  0  0  0  0  0
    6.3099    4.2135  -59.7720 H   0  0  0  0  0  0  0  0  0  0  0  0
    6.5843    2.3483  -61.4043 H   0  0  0  0  0  0  0  0  0  0  0  0
    7.3101    3.9205  -61.9432 H   0  0  0  0  0  0  0  0  0  0  0  0
    8.7895    1.5160  -60.7956 H   0  0  0  0  0  0  0  0  0  0  0  0
    8.8112    2.1214  -62.5057 H   0  0  0  0  0  0  0  0  0  0  0  0
   10.8269    2.7433  -61.1385 H   0  0  0  0  0  0  0  0  0  0  0  0
    9.8829    4.1364  -61.8641 H   0  0  0  0  0  0  0  0  0  0  0  0
  1  2  2  0
  2  3  1  0
  3  4  1  0
  4  5  1  0
  5  6  2  0
  6  7  1  0
  7  8  2  0
  8  9  1  0
  9 10  2  0
  2 11  1  0
 11 12  2  0
 12 13  1  0
 13 14  1  0
 14 15  1  0
 15 16  1  0
 16 17  1  0
 17 18  1  0
 18 19  1  0
 19 20  1  0
 14 21  2  0
 10  5  1  0
 21 11  1  0
 20 15  1  0
  3 22  1  0
  4 23  1  0
  4 24  1  0
  6 25  1  0
  7 26  1  0
  8 27  1  0
  9 28  1  0
 10 29  1  0
 13 30  1  0
 15 31  1  0
 16 32  1  0
 16 33  1  0
 17 34  1  0
 17 35  1  0
 18 36  1  0
 18 37  1  0
 19 38  1  0
 19 39  1  0
 20 40  1  0
 20 41  1  0
M  END
>  <meeko>  (9) 
{"is_sidechain": false}

$$$$

     RDKit          3D

 47 49  0  0  0  0  0  0  0  0999 V2000
    6.7540    1.2160  -56.4670 O   0  0  0  0  0  0  0  0  0  0  0  0
    7.6670    0.9180  -55.7030 C   0  0  0  0  0  0  0  0  0  0  0  0
    8.9390    1.4670  -55.8350 N   0  0  0  0  0  0  0  0  0  0  0  0
    9.2210    2.4780  -56.8550 C   0  0  0  0  0  0  0  0  0  0  0  0
    9.7890    3.7500  -56.2040 C   0  0  0  0  0  0  0  0  0  0  0  0
    9.4950    5.0670  -56.9200 C   0  0  0  0  0  0  0  0  0  0  0  0
   10.2370    5.2990  -58.2390 C   0  0  0  0  0  0  0  0  0  0  0  0
   11.1270    4.1440  -58.6910 C   0  0  0  0  0  0  0  0  0  0  0  0
   10.4140    2.8590  -59.1300 C   0  0  0  0  0  0  0  0  0  0  0  0
   10.0720    1.8880  -58.0020 C   0  0  0  0  0  0  0  0  0  0  0  0
    7.5380   -0.0080  -54.5980 C   0  0  0  0  0  0  0  0  0  0  0  0
    6.6430    0.0810  -53.6360 N   0  0  0  0  0  0  0  0  0  0  0  0
    6.8330   -0.9740  -52.7730 N   0  0  0  0  0  0  0  0  0  0  0  0
    7.8200   -1.7130  -53.2340 C   0  0  0  0  0  0  0  0  0  0  0  0
    8.3410   -2.9770  -52.6150 C   0  0  0  0  0  0  0  0  0  0  0  0
    7.3360   -4.1360  -52.6900 C   0  0  0  0  0  0  0  0  0  0  0  0
    6.2880   -4.1280  -51.5780 C   0  0  0  0  0  0  0  0  0  0  0  0
    6.9210   -3.9950  -50.1990 C   0  0  0  0  0  0  0  0  0  0  0  0
    7.8240   -2.7710  -50.1040 C   0  0  0  0  0  0  0  0  0  0  0  0
    8.8920   -2.7630  -51.1980 C   0  0  0  0  0  0  0  0  0  0  0  0
    8.2860   -1.1360  -54.3840 N   0  0  0  0  0  0  0  0  0  0  0  0
    9.4990    1.5010  -54.9940 H   0  0  0  0  0  0  0  0  0  0  0  0
    8.2859    2.7934  -57.3410 H   0  0  0  0  0  0  0  0  0  0  0  0
    9.3729    3.8208  -55.1882 H   0  0  0  0  0  0  0  0  0  0  0  0
   10.8823    3.6345  -56.2405 H   0  0  0  0  0  0  0  0  0  0  0  0
    8.4160    5.1006  -57.1314 H   0  0  0  0  0  0  0  0  0  0  0  0
    9.8479    5.8569  -56.2406 H   0  0  0  0  0  0  0  0  0  0  0  0
    9.4883    5.4803  -59.0243 H   0  0  0  0  0  0  0  0  0  0  0  0
   10.9071    6.1545  -58.0681 H   0  0  0  0  0  0  0  0  0  0  0  0
   11.7285    4.4989  -59.5408 H   0  0  0  0  0  0  0  0  0  0  0  0
   11.7109    3.8627  -57.8022 H   0  0  0  0  0  0  0  0  0  0  0  0
    9.4765    3.1437  -59.6300 H   0  0  0  0  0  0  0  0  0  0  0  0
   11.1184    2.3280  -59.7871 H   0  0  0  0  0  0  0  0  0  0  0  0
    9.5166    1.0442  -58.4373 H   0  0  0  0  0  0  0  0  0  0  0  0
   11.0320    1.5988  -57.5494 H   0  0  0  0  0  0  0  0  0  0  0  0
    9.1997   -3.2803  -53.2319 H   0  0  0  0  0  0  0  0  0  0  0  0
    6.8141   -4.0783  -53.6566 H   0  0  0  0  0  0  0  0  0  0  0  0
    7.9143   -5.0644  -52.5733 H   0  0  0  0  0  0  0  0  0  0  0  0
    5.6057   -3.2803  -51.7389 H   0  0  0  0  0  0  0  0  0  0  0  0
    5.7477   -5.0855  -51.6132 H   0  0  0  0  0  0  0  0  0  0  0  0
    6.1221   -3.9068  -49.4480 H   0  0  0  0  0  0  0  0  0  0  0  0
    7.5373   -4.8882  -50.0192 H   0  0  0  0  0  0  0  0  0  0  0  0
    7.2071   -1.8656  -50.2029 H   0  0  0  0  0  0  0  0  0  0  0  0
    8.3345   -2.7992  -49.1300 H   0  0  0  0  0  0  0  0  0  0  0  0
    9.4068   -1.7913  -51.1708 H   0  0  0  0  0  0  0  0  0  0  0  0
    9.5656   -3.6072  -50.9892 H   0  0  0  0  0  0  0  0  0  0  0  0
    9.0070   -1.4860  -54.9950 H   0  0  0  0  0  0  0  0  0  0  0  0
  1  2  2  0
  2  3  1  0
  3  4  1  0
  4  5  1  0
  5  6  1  0
  6  7  1  0
  7  8  1  0
  8  9  1  0
  9 10  1  0
  2 11  1  0
 11 12  2  0
 12 13  1  0
 13 14  2  0
 14 15  1  0
 15 16  1  0
 16 17  1  0
 17 18  1  0
 18 19  1  0
 19 20  1  0
 14 21  1  0
 10  4  1  0
 21 11  1  0
 20 15  1  0
  3 22  1  0
  4 23  1  0
  5 24  1  0
  5 25  1  0
  6 26  1  0
  6 27  1  0
  7 28  1  0
  7 29  1  0
  8 30  1  0
  8 31  1  0
  9 32  1  0
  9 33  1  0
 10 34  1  0
 10 35  1  0
 15 36  1  0
 16 37  1  0
 16 38  1  0
 17 39  1  0
 17 40  1  0
 18 41  1  0
 18 42  1  0
 19 43  1  0
 19 44  1  0
 20 45  1  0
 20 46  1  0
 21 47  1  0
M  END
>  <meeko>  (10) 
{"is_sidechain": false}

$$$$

     RDKit          3D

 47 49  0  0  0  0  0  0  0  0999 V2000
    7.8070    3.4920  -57.3720 O   0  0  0  0  0  0  0  0  0  0  0  0
    8.4100    2.4840  -57.0070 C   0  0  0  0  0  0  0  0  0  0  0  0
    9.7320    2.2620  -57.3720 N   0  0  0  0  0  0  0  0  0  0  0  0
   10.4680    3.2180  -58.2030 C   0  0  0  0  0  0  0  0  0  0  0  0
   11.9520    3.1760  -57.8160 C   0  0  0  0  0  0  0  0  0  0  0  0
   12.7260    4.4760  -58.0360 C   0  0  0  0  0  0  0  0  0  0  0  0
   12.6130    4.9790  -59.4730 C   0  0  0  0  0  0  0  0  0  0  0  0
   11.1980    5.2890  -59.9480 C   0  0  0  0  0  0  0  0  0  0  0  0
   10.4120    4.1460  -60.5810 C   0  0  0  0  0  0  0  0  0  0  0  0
   10.2010    2.9270  -59.6890 C   0  0  0  0  0  0  0  0  0  0  0  0
    7.8260    1.4520  -56.1760 C   0  0  0  0  0  0  0  0  0  0  0  0
    8.4620    0.7660  -55.2450 N   0  0  0  0  0  0  0  0  0  0  0  0
    7.5010   -0.0710  -54.7390 C   0  0  0  0  0  0  0  0  0  0  0  0
    7.7990   -1.0500  -53.6490 C   0  0  0  0  0  0  0  0  0  0  0  0
    9.3170   -1.2400  -53.4520 C   0  0  0  0  0  0  0  0  0  0  0  0
    9.6900   -2.5890  -52.8300 C   0  0  0  0  0  0  0  0  0  0  0  0
    8.5960   -3.1140  -51.9120 C   0  0  0  0  0  0  0  0  0  0  0  0
    7.2790   -3.3290  -52.6610 C   0  0  0  0  0  0  0  0  0  0  0  0
    7.0960   -2.3960  -53.8610 C   0  0  0  0  0  0  0  0  0  0  0  0
    6.2950    0.0630  -55.3070 N   0  0  0  0  0  0  0  0  0  0  0  0
    6.5230    1.0490  -56.1860 N   0  0  0  0  0  0  0  0  0  0  0  0
   10.2660    1.5520  -56.8890 H   0  0  0  0  0  0  0  0  0  0  0  0
   10.1229    4.2479  -58.0289 H   0  0  0  0  0  0  0  0  0  0  0  0
   12.0168    2.9194  -56.7483 H   0  0  0  0  0  0  0  0  0  0  0  0
   12.4165    2.4317  -58.4795 H   0  0  0  0  0  0  0  0  0  0  0  0
   12.3260    5.2452  -57.3590 H   0  0  0  0  0  0  0  0  0  0  0  0
   13.7880    4.2752  -57.8313 H   0  0  0  0  0  0  0  0  0  0  0  0
   13.2089    5.8997  -59.5581 H   0  0  0  0  0  0  0  0  0  0  0  0
   12.9737    4.1584  -60.1106 H   0  0  0  0  0  0  0  0  0  0  0  0
   10.6261    5.6422  -59.0773 H   0  0  0  0  0  0  0  0  0  0  0  0
   11.3235    6.0282  -60.7529 H   0  0  0  0  0  0  0  0  0  0  0  0
    9.4228    4.5321  -60.8683 H   0  0  0  0  0  0  0  0  0  0  0  0
   11.0143    3.7984  -61.4333 H   0  0  0  0  0  0  0  0  0  0  0  0
    9.1603    2.5881  -59.7986 H   0  0  0  0  0  0  0  0  0  0  0  0
   10.9187    2.1569  -60.0081 H   0  0  0  0  0  0  0  0  0  0  0  0
    7.3908   -0.6169  -52.7239 H   0  0  0  0  0  0  0  0  0  0  0  0
    9.8076   -1.1619  -54.4334 H   0  0  0  0  0  0  0  0  0  0  0  0
    9.6521   -0.4589  -52.7537 H   0  0  0  0  0  0  0  0  0  0  0  0
    9.8573   -3.3181  -53.6365 H   0  0  0  0  0  0  0  0  0  0  0  0
   10.5997   -2.4464  -52.2283 H   0  0  0  0  0  0  0  0  0  0  0  0
    8.9217   -4.0728  -51.4823 H   0  0  0  0  0  0  0  0  0  0  0  0
    8.4228   -2.3658  -51.1245 H   0  0  0  0  0  0  0  0  0  0  0  0
    7.2494   -4.3680  -53.0209 H   0  0  0  0  0  0  0  0  0  0  0  0
    6.4662   -3.1074  -51.9537 H   0  0  0  0  0  0  0  0  0  0  0  0
    7.5157   -2.8798  -54.7553 H   0  0  0  0  0  0  0  0  0  0  0  0
    6.0198   -2.2038  -53.9833 H   0  0  0  0  0  0  0  0  0  0  0  0
    5.7540    1.4090  -56.7380 H   0  0  0  0  0  0  0  0  0  0  0  0
  1  2  2  0
  2  3  1  0
  3  4  1  0
  4  5  1  0
  5  6  1  0
  6  7  1  0
  7  8  1  0
  8  9  1  0
  9 10  1  0
  2 11  1  0
 11 12  2  0
 12 13  1  0
 13 14  1  0
 14 15  1  0
 15 16  1  0
 16 17  1  0
 17 18  1  0
 18 19  1  0
 13 20  2  0
 20 21  1  0
 10  4  1  0
 21 11  1  0
 19 14  1  0
  3 22  1  0
  4 23  1  0
  5 24  1  0
  5 25  1  0
  6 26  1  0
  6 27  1  0
  7 28  1  0
  7 29  1  0
  8 30  1  0
  8 31  1  0
  9 32  1  0
  9 33  1  0
 10 34  1  0
 10 35  1  0
 14 36  1  0
 15 37  1  0
 15 38  1  0
 16 39  1  0
 16 40  1  0
 17 41  1  0
 17 42  1  0
 18 43  1  0
 18 44  1  0
 19 45  1  0
 19 46  1  0
 21 47  1  0
M  END
>  <meeko>  (11) 
{"is_sidechain": false}

$$$$

     RDKit          3D

 47 49  0  0  0  0  0  0  0  0999 V2000
    6.5840    0.9530  -56.4210 O   0  0  0  0  0  0  0  0  0  0  0  0
    7.5860    0.7750  -55.7320 C   0  0  0  0  0  0  0  0  0  0  0  0
    8.8120    1.3540  -56.0190 N   0  0  0  0  0  0  0  0  0  0  0  0
    8.9910    2.3590  -57.0570 C   0  0  0  0  0  0  0  0  0  0  0  0
   10.3470    2.1590  -57.7440 C   0  0  0  0  0  0  0  0  0  0  0  0
   11.4730    3.0590  -57.2360 C   0  0  0  0  0  0  0  0  0  0  0  0
   11.3030    4.5220  -57.6750 C   0  0  0  0  0  0  0  0  0  0  0  0
    9.9930    4.8600  -58.3790 C   0  0  0  0  0  0  0  0  0  0  0  0
    8.7610    4.9010  -57.4760 C   0  0  0  0  0  0  0  0  0  0  0  0
    8.7300    3.7540  -56.4700 C   0  0  0  0  0  0  0  0  0  0  0  0
    7.6100   -0.0570  -54.5080 C   0  0  0  0  0  0  0  0  0  0  0  0
    7.0470    0.3420  -53.3460 N   0  0  0  0  0  0  0  0  0  0  0  0
    7.3060   -0.7010  -52.5430 N   0  0  0  0  0  0  0  0  0  0  0  0
    7.9880   -1.6900  -53.1910 C   0  0  0  0  0  0  0  0  0  0  0  0
    8.4270   -2.9880  -52.5820 C   0  0  0  0  0  0  0  0  0  0  0  0
    7.3860   -4.1060  -52.7400 C   0  0  0  0  0  0  0  0  0  0  0  0
    6.2830   -4.0900  -51.6830 C   0  0  0  0  0  0  0  0  0  0  0  0
    6.8510   -4.0210  -50.2700 C   0  0  0  0  0  0  0  0  0  0  0  0
    7.7890   -2.8340  -50.0940 C   0  0  0  0  0  0  0  0  0  0  0  0
    8.9110   -2.8340  -51.1320 C   0  0  0  0  0  0  0  0  0  0  0  0
    8.1900   -1.3070  -54.4340 N   0  0  0  0  0  0  0  0  0  0  0  0
    9.5190    1.2280  -55.2990 H   0  0  0  0  0  0  0  0  0  0  0  0
    8.2525    2.2497  -57.8649 H   0  0  0  0  0  0  0  0  0  0  0  0
   10.6534    1.1132  -57.5942 H   0  0  0  0  0  0  0  0  0  0  0  0
   10.1962    2.4257  -58.8005 H   0  0  0  0  0  0  0  0  0  0  0  0
   11.4865    3.0202  -56.1368 H   0  0  0  0  0  0  0  0  0  0  0  0
   12.4154    2.6891  -57.6663 H   0  0  0  0  0  0  0  0  0  0  0  0
   11.3755    5.1535  -56.7773 H   0  0  0  0  0  0  0  0  0  0  0  0
   12.0943    4.7031  -58.4173 H   0  0  0  0  0  0  0  0  0  0  0  0
   10.1041    5.8487  -58.8482 H   0  0  0  0  0  0  0  0  0  0  0  0
    9.8159    4.0487  -59.1004 H   0  0  0  0  0  0  0  0  0  0  0  0
    8.7603    5.8528  -56.9246 H   0  0  0  0  0  0  0  0  0  0  0  0
    7.8741    4.8029  -58.1192 H   0  0  0  0  0  0  0  0  0  0  0  0
    9.4973    3.9506  -55.7068 H   0  0  0  0  0  0  0  0  0  0  0  0
    7.7060    3.7286  -56.0691 H   0  0  0  0  0  0  0  0  0  0  0  0
    6.9910   -0.6690  -51.5800 H   0  0  0  0  0  0  0  0  0  0  0  0
    9.3045   -3.3064  -53.1639 H   0  0  0  0  0  0  0  0  0  0  0  0
    6.9168   -4.0029  -53.7295 H   0  0  0  0  0  0  0  0  0  0  0  0
    7.9243   -5.0578  -52.6201 H   0  0  0  0  0  0  0  0  0  0  0  0
    5.6415   -3.2125  -51.8517 H   0  0  0  0  0  0  0  0  0  0  0  0
    5.7093   -5.0241  -51.7747 H   0  0  0  0  0  0  0  0  0  0  0  0
    6.0193   -3.9263  -49.5563 H   0  0  0  0  0  0  0  0  0  0  0  0
    7.4261   -4.9408  -50.0877 H   0  0  0  0  0  0  0  0  0  0  0  0
    7.2095   -1.9047  -50.1970 H   0  0  0  0  0  0  0  0  0  0  0  0
    8.2477   -2.9075  -49.0969 H   0  0  0  0  0  0  0  0  0  0  0  0
    9.4571   -1.8827  -51.0497 H   0  0  0  0  0  0  0  0  0  0  0  0
    9.5427   -3.7080  -50.9149 H   0  0  0  0  0  0  0  0  0  0  0  0
  1  2  2  0
  2  3  1  0
  3  4  1  0
  4  5  1  0
  5  6  1  0
  6  7  1  0
  7  8  1  0
  8  9  1  0
  9 10  1  0
  2 11  1  0
 11 12  2  0
 12 13  1  0
 13 14  1  0
 14 15  1  0
 15 16  1  0
 16 17  1  0
 17 18  1  0
 18 19  1  0
 19 20  1  0
 14 21  2  0
 10  4  1  0
 21 11  1  0
 20 15  1  0
  3 22  1  0
  4 23  1  0
  5 24  1  0
  5 25  1  0
  6 26  1  0
  6 27  1  0
  7 28  1  0
  7 29  1  0
  8 30  1  0
  8 31  1  0
  9 32  1  0
  9 33  1  0
 10 34  1  0
 10 35  1  0
 13 36  1  0
 15 37  1  0
 16 38  1  0
 16 39  1  0
 17 40  1  0
 17 41  1  0
 18 42  1  0
 18 43  1  0
 19 44  1  0
 19 45  1  0
 20 46  1  0
 20 47  1  0
M  END
>  <meeko>  (12) 
{"is_sidechain": false}

$$$$

     RDKit          3D

 49 53  0  0  0  0  0  0  0  0999 V2000
    6.2210    3.0300  -56.9160 O   0  0  0  0  0  0  0  0  0  0  0  0
    7.3070    2.4710  -57.0980 C   0  0  0  0  0  0  0  0  0  0  0  0
    7.7450    1.4640  -56.1520 C   0  0  0  0  0  0  0  0  0  0  0  0
    8.9310    1.3160  -55.5980 N   0  0  0  0  0  0  0  0  0  0  0  0
    8.8960    0.2040  -54.7890 N   0  0  0  0  0  0  0  0  0  0  0  0
    7.6990   -0.3350  -54.8860 C   0  0  0  0  0  0  0  0  0  0  0  0
    7.2090   -1.5700  -54.1960 C   0  0  0  0  0  0  0  0  0  0  0  0
    6.7370   -1.2840  -52.7570 C   0  0  0  0  0  0  0  0  0  0  0  0
    7.7620   -1.7070  -51.7090 C   0  0  0  0  0  0  0  0  0  0  0  0
    8.0950   -3.1970  -51.7990 C   0  0  0  0  0  0  0  0  0  0  0  0
    7.9980   -3.7640  -53.2170 C   0  0  0  0  0  0  0  0  0  0  0  0
    8.2570   -2.6970  -54.2730 C   0  0  0  0  0  0  0  0  0  0  0  0
    6.9500    0.4240  -55.7420 N   0  0  0  0  0  0  0  0  0  0  0  0
    8.0950    2.7900  -58.2140 N   0  0  0  0  0  0  0  0  0  0  0  0
    9.5720    2.6940  -58.2340 C   0  0  1  0  0  0  0  0  0  0  0  0
   10.0440    2.3330  -59.6520 C   0  0  0  0  0  0  0  0  0  0  0  0
    9.5550    3.3960  -60.6490 C   0  0  2  0  0  0  0  0  0  0  0  0
   10.1150    4.7730  -60.2450 C   0  0  0  0  0  0  0  0  0  0  0  0
    9.6550    5.1420  -58.8230 C   0  0  1  0  0  0  0  0  0  0  0  0
    8.1140    5.1750  -58.7810 C   0  0  0  0  0  0  0  0  0  0  0  0
    7.5660    3.7890  -59.1640 C   0  0  1  0  0  0  0  0  0  0  0  0
    8.0200    3.4320  -60.5900 C   0  0  0  0  0  0  0  0  0  0  0  0
   10.1500    4.0680  -57.8360 C   0  0  0  0  0  0  0  0  0  0  0  0
    6.3174   -1.9249  -54.7337 H   0  0  0  0  0  0  0  0  0  0  0  0
    6.5531   -0.2043  -52.6544 H   0  0  0  0  0  0  0  0  0  0  0  0
    5.8219   -1.8693  -52.5837 H   0  0  0  0  0  0  0  0  0  0  0  0
    8.6846   -1.1275  -51.8609 H   0  0  0  0  0  0  0  0  0  0  0  0
    7.3298   -1.5158  -50.7157 H   0  0  0  0  0  0  0  0  0  0  0  0
    9.1222   -3.3460  -51.4349 H   0  0  0  0  0  0  0  0  0  0  0  0
    7.3519   -3.7302  -51.1879 H   0  0  0  0  0  0  0  0  0  0  0  0
    8.7423   -4.5659  -53.3313 H   0  0  0  0  0  0  0  0  0  0  0  0
    6.9773   -4.1476  -53.3623 H   0  0  0  0  0  0  0  0  0  0  0  0
    9.2572   -2.2684  -54.1120 H   0  0  0  0  0  0  0  0  0  0  0  0
    8.1910   -3.1664  -55.2656 H   0  0  0  0  0  0  0  0  0  0  0  0
    5.9990    0.2710  -56.0430 H   0  0  0  0  0  0  0  0  0  0  0  0
    9.9126    1.9178  -57.5330 H   0  0  0  0  0  0  0  0  0  0  0  0
   11.1430    2.2917  -59.6718 H   0  0  0  0  0  0  0  0  0  0  0  0
    9.6316    1.3530  -59.9340 H   0  0  0  0  0  0  0  0  0  0  0  0
    9.8952    3.1539  -61.6667 H   0  0  0  0  0  0  0  0  0  0  0  0
   11.2141    4.7400  -60.2735 H   0  0  0  0  0  0  0  0  0  0  0  0
    9.7417    5.5311  -60.9492 H   0  0  0  0  0  0  0  0  0  0  0  0
   10.0626    6.1260  -58.5482 H   0  0  0  0  0  0  0  0  0  0  0  0
    7.7794    5.4349  -57.7659 H   0  0  0  0  0  0  0  0  0  0  0  0
    7.7416    5.9280  -59.4911 H   0  0  0  0  0  0  0  0  0  0  0  0
    6.4667    3.7976  -59.1263 H   0  0  0  0  0  0  0  0  0  0  0  0
    7.6199    2.4450  -60.8651 H   0  0  0  0  0  0  0  0  0  0  0  0
    7.6453    4.1905  -61.2931 H   0  0  0  0  0  0  0  0  0  0  0  0
   11.2488    4.0247  -57.8628 H   0  0  0  0  0  0  0  0  0  0  0  0
    9.8164    4.3242  -56.8196 H   0  0  0  0  0  0  0  0  0  0  0  0
  1  2  2  0
  2  3  1  0
  3  4  2  0
  4  5  1  0
  5  6  2  0
  6  7  1  0
  7  8  1  0
  8  9  1  0
  9 10  1  0
 10 11  1  0
 11 12  1  0
  6 13  1  0
  2 14  1  0
 14 15  1  0
 15 16  1  0
 16 17  1  0
 17 18  1  0
 18 19  1  0
 19 20  1  0
 20 21  1  0
 21 22  1  0
 19 23  1  0
 13  3  1  0
 21 14  1  0
 12  7  1  0
 23 15  1  0
 22 17  1  0
  7 24  1  0
  8 25  1  0
  8 26  1  0
  9 27  1  0
  9 28  1  0
 10 29  1  0
 10 30  1  0
 11 31  1  0
 11 32  1  0
 12 33  1  0
 12 34  1  0
 13 35  1  0
 15 36  1  1
 16 37  1  0
 16 38  1  0
 17 39  1  6
 18 40  1  0
 18 41  1  0
 19 42  1  1
 20 43  1  0
 20 44  1  0
 21 45  1  6
 22 46  1  0
 22 47  1  0
 23 48  1  0
 23 49  1  0
M  END
>  <meeko>  (13) 
{"is_sidechain": false}

$$$$

     RDKit          3D

 49 53  0  0  0  0  0  0  0  0999 V2000
    5.9360    2.9120  -58.0390 O   0  0  0  0  0  0  0  0  0  0  0  0
    7.0790    2.5640  -57.7260 C   0  0  0  0  0  0  0  0  0  0  0  0
    7.2600    1.6660  -56.6040 C   0  0  0  0  0  0  0  0  0  0  0  0
    8.3720    1.1460  -56.1210 N   0  0  0  0  0  0  0  0  0  0  0  0
    7.9390    0.3470  -55.0920 C   0  0  0  0  0  0  0  0  0  0  0  0
    8.8800   -0.4370  -54.2310 C   0  0  0  0  0  0  0  0  0  0  0  0
   10.0460   -0.9960  -55.0720 C   0  0  0  0  0  0  0  0  0  0  0  0
   10.6810   -2.2150  -54.4160 C   0  0  0  0  0  0  0  0  0  0  0  0
    9.6830   -3.3640  -54.2700 C   0  0  0  0  0  0  0  0  0  0  0  0
    8.2350   -2.9000  -54.1040 C   0  0  0  0  0  0  0  0  0  0  0  0
    8.1490   -1.5340  -53.4290 C   0  0  0  0  0  0  0  0  0  0  0  0
    6.6130    0.3320  -54.9170 N   0  0  0  0  0  0  0  0  0  0  0  0
    6.2070    1.1560  -55.8970 N   0  0  0  0  0  0  0  0  0  0  0  0
    8.1880    3.0100  -58.4640 N   0  0  0  0  0  0  0  0  0  0  0  0
    7.9330    3.8890  -59.6210 C   0  0  1  0  0  0  0  0  0  0  0  0
    8.0590    5.3550  -59.1660 C   0  0  0  0  0  0  0  0  0  0  0  0
    9.4730    5.5910  -58.6010 C   0  0  2  0  0  0  0  0  0  0  0  0
   10.5140    5.2920  -59.6950 C   0  0  0  0  0  0  0  0  0  0  0  0
   10.3850    3.8350  -60.1730 C   0  0  1  0  0  0  0  0  0  0  0  0
   10.5940    2.8850  -58.9830 C   0  0  0  0  0  0  0  0  0  0  0  0
    9.5460    3.1740  -57.8970 C   0  0  1  0  0  0  0  0  0  0  0  0
    9.6950    4.6310  -57.4150 C   0  0  0  0  0  0  0  0  0  0  0  0
    8.9680    3.6020  -60.7220 C   0  0  0  0  0  0  0  0  0  0  0  0
    9.3106    0.2464  -53.4843 H   0  0  0  0  0  0  0  0  0  0  0  0
    9.6650   -1.2827  -56.0633 H   0  0  0  0  0  0  0  0  0  0  0  0
   10.8141   -0.2130  -55.1558 H   0  0  0  0  0  0  0  0  0  0  0  0
   11.5255   -2.5530  -55.0344 H   0  0  0  0  0  0  0  0  0  0  0  0
   11.0194   -1.9254  -53.4102 H   0  0  0  0  0  0  0  0  0  0  0  0
    9.7451   -3.9949  -55.1689 H   0  0  0  0  0  0  0  0  0  0  0  0
    9.9532   -3.9116  -53.3551 H   0  0  0  0  0  0  0  0  0  0  0  0
    7.7660   -2.8362  -55.0969 H   0  0  0  0  0  0  0  0  0  0  0  0
    7.7144   -3.6291  -53.4657 H   0  0  0  0  0  0  0  0  0  0  0  0
    7.0898   -1.2540  -53.3310 H   0  0  0  0  0  0  0  0  0  0  0  0
    8.6364   -1.6133  -52.4461 H   0  0  0  0  0  0  0  0  0  0  0  0
    5.2190    1.3340  -56.0450 H   0  0  0  0  0  0  0  0  0  0  0  0
    6.9235    3.7046  -60.0170 H   0  0  0  0  0  0  0  0  0  0  0  0
    7.8896    6.0222  -60.0240 H   0  0  0  0  0  0  0  0  0  0  0  0
    7.3105    5.5659  -58.3880 H   0  0  0  0  0  0  0  0  0  0  0  0
    9.5779    6.6346  -58.2695 H   0  0  0  0  0  0  0  0  0  0  0  0
   10.3499    5.9689  -60.5464 H   0  0  0  0  0  0  0  0  0  0  0  0
   11.5215    5.4441  -59.2806 H   0  0  0  0  0  0  0  0  0  0  0  0
   11.1371    3.6451  -60.9529 H   0  0  0  0  0  0  0  0  0  0  0  0
   10.4897    1.8443  -59.3237 H   0  0  0  0  0  0  0  0  0  0  0  0
   11.6006    3.0393  -58.5671 H   0  0  0  0  0  0  0  0  0  0  0  0
    9.6953    2.4772  -57.0590 H   0  0  0  0  0  0  0  0  0  0  0  0
    8.9494    4.8363  -56.6328 H   0  0  0  0  0  0  0  0  0  0  0  0
   10.7056    4.7803  -57.0071 H   0  0  0  0  0  0  0  0  0  0  0  0
    8.7909    4.2740  -61.5747 H   0  0  0  0  0  0  0  0  0  0  0  0
    8.8712    2.5565  -61.0500 H   0  0  0  0  0  0  0  0  0  0  0  0
  1  2  2  0
  2  3  1  0
  3  4  2  0
  4  5  1  0
  5  6  1  0
  6  7  1  0
  7  8  1  0
  8  9  1  0
  9 10  1  0
 10 11  1  0
  5 12  2  0
 12 13  1  0
  2 14  1  0
 14 15  1  0
 15 16  1  0
 16 17  1  0
 17 18  1  0
 18 19  1  0
 19 20  1  0
 20 21  1  0
 21 22  1  0
 19 23  1  0
 13  3  1  0
 21 14  1  0
 11  6  1  0
 23 15  1  0
 22 17  1  0
  6 24  1  0
  7 25  1  0
  7 26  1  0
  8 27  1  0
  8 28  1  0
  9 29  1  0
  9 30  1  0
 10 31  1  0
 10 32  1  0
 11 33  1  0
 11 34  1  0
 13 35  1  0
 15 36  1  6
 16 37  1  0
 16 38  1  0
 17 39  1  1
 18 40  1  0
 18 41  1  0
 19 42  1  6
 20 43  1  0
 20 44  1  0
 21 45  1  1
 22 46  1  0
 22 47  1  0
 23 48  1  0
 23 49  1  0
M  END
>  <meeko>  (14) 
{"is_sidechain": false}

$$$$

     RDKit          3D

 49 53  0  0  0  0  0  0  0  0999 V2000
    7.8290    5.7550  -58.4650 O   0  0  0  0  0  0  0  0  0  0  0  0
    8.0860    4.5480  -58.4770 C   0  0  0  0  0  0  0  0  0  0  0  0
    7.0120    3.5480  -58.7140 C   0  0  0  0  0  0  0  0  0  0  0  0
    6.2590    2.9860  -57.7430 N   0  0  0  0  0  0  0  0  0  0  0  0
    5.4010    2.2360  -58.4460 N   0  0  0  0  0  0  0  0  0  0  0  0
    5.6260    2.3300  -59.7880 C   0  0  0  0  0  0  0  0  0  0  0  0
    4.8300    1.6080  -60.8270 C   0  0  0  0  0  0  0  0  0  0  0  0
    5.1150    2.1530  -62.2380 C   0  0  0  0  0  0  0  0  0  0  0  0
    3.9640    1.9270  -63.2230 C   0  0  0  0  0  0  0  0  0  0  0  0
    3.1670    0.6740  -62.8890 C   0  0  0  0  0  0  0  0  0  0  0  0
    2.5380    0.7520  -61.4970 C   0  0  0  0  0  0  0  0  0  0  0  0
    3.3300    1.6200  -60.5140 C   0  0  0  0  0  0  0  0  0  0  0  0
    6.6310    3.1530  -59.9860 N   0  0  0  0  0  0  0  0  0  0  0  0
    9.3980    4.0890  -58.2330 N   0  0  0  0  0  0  0  0  0  0  0  0
   10.4230    5.0950  -57.9070 C   0  0  1  0  0  0  0  0  0  0  0  0
   11.4690    4.4690  -56.9700 C   0  0  0  0  0  0  0  0  0  0  0  0
   12.1070    3.2470  -57.6500 C   0  0  2  0  0  0  0  0  0  0  0  0
   12.7770    3.6870  -58.9640 C   0  0  0  0  0  0  0  0  0  0  0  0
   11.7400    4.3280  -59.9040 C   0  0  1  0  0  0  0  0  0  0  0  0
   10.6260    3.3050  -60.2030 C   0  0  0  0  0  0  0  0  0  0  0  0
    9.9470    2.8800  -58.8840 C   0  0  1  0  0  0  0  0  0  0  0  0
   10.9910    2.2340  -57.9580 C   0  0  0  0  0  0  0  0  0  0  0  0
   11.1080    5.5500  -59.2080 C   0  0  0  0  0  0  0  0  0  0  0  0
    4.6950    1.6990  -57.9570 H   0  0  0  0  0  0  0  0  0  0  0  0
    5.1548    0.5573  -60.8054 H   0  0  0  0  0  0  0  0  0  0  0  0
    5.3018    3.2344  -62.1626 H   0  0  0  0  0  0  0  0  0  0  0  0
    5.9864    1.6058  -62.6268 H   0  0  0  0  0  0  0  0  0  0  0  0
    3.2907    2.7962  -63.1883 H   0  0  0  0  0  0  0  0  0  0  0  0
    4.3953    1.7984  -64.2267 H   0  0  0  0  0  0  0  0  0  0  0  0
    2.3672    0.5521  -63.6343 H   0  0  0  0  0  0  0  0  0  0  0  0
    3.8568   -0.1827  -62.9037 H   0  0  0  0  0  0  0  0  0  0  0  0
    1.5264    1.1728  -61.5955 H   0  0  0  0  0  0  0  0  0  0  0  0
    2.5282   -0.2698  -61.0897 H   0  0  0  0  0  0  0  0  0  0  0  0
    2.9615    2.6546  -60.5754 H   0  0  0  0  0  0  0  0  0  0  0  0
    3.1878    1.2096  -59.5034 H   0  0  0  0  0  0  0  0  0  0  0  0
    9.9564    5.9584  -57.4102 H   0  0  0  0  0  0  0  0  0  0  0  0
   12.2491    5.2111  -56.7448 H   0  0  0  0  0  0  0  0  0  0  0  0
   10.9799    4.1530  -56.0368 H   0  0  0  0  0  0  0  0  0  0  0  0
   12.8642    2.7935  -56.9934 H   0  0  0  0  0  0  0  0  0  0  0  0
   13.5666    4.4197  -58.7411 H   0  0  0  0  0  0  0  0  0  0  0  0
   13.2102    2.8046  -59.4577 H   0  0  0  0  0  0  0  0  0  0  0  0
   12.2333    4.6369  -60.8374 H   0  0  0  0  0  0  0  0  0  0  0  0
    9.8789    3.7613  -60.8691 H   0  0  0  0  0  0  0  0  0  0  0  0
   11.0626    2.4211  -60.6909 H   0  0  0  0  0  0  0  0  0  0  0  0
    9.1432    2.1566  -59.0857 H   0  0  0  0  0  0  0  0  0  0  0  0
   10.5069    1.9264  -57.0194 H   0  0  0  0  0  0  0  0  0  0  0  0
   11.4245    1.3538  -58.4553 H   0  0  0  0  0  0  0  0  0  0  0  0
   11.8916    6.2854  -58.9732 H   0  0  0  0  0  0  0  0  0  0  0  0
   10.3644    6.0108  -59.8749 H   0  0  0  0  0  0  0  0  0  0  0  0
  1  2  2  0
  2  3  1  0
  3  4  2  0
  4  5  1  0
  5  6  1  0
  6  7  1  0
  7  8  1  0
  8  9  1  0
  9 10  1  0
 10 11  1  0
 11 12  1  0
  6 13  2  0
  2 14  1  0
 14 15  1  0
 15 16  1  0
 16 17  1  0
 17 18  1  0
 18 19  1  0
 19 20  1  0
 20 21  1  0
 21 22  1  0
 19 23  1  0
 13  3  1  0
 21 14  1  0
 12  7  1  0
 23 15  1  0
 22 17  1  0
  5 24  1  0
  7 25  1  0
  8 26  1  0
  8 27  1  0
  9 28  1  0
  9 29  1  0
 10 30  1  0
 10 31  1  0
 11 32  1  0
 11 33  1  0
 12 34  1  0
 12 35  1  0
 15 36  1  1
 16 37  1  0
 16 38  1  0
 17 39  1  1
 18 40  1  0
 18 41  1  0
 19 42  1  6
 20 43  1  0
 20 44  1  0
 21 45  1  6
 22 46  1  0
 22 47  1  0
 23 48  1  0
 23 49  1  0
M  END
>  <meeko>  (15) 
{"is_sidechain": false}

$$$$

     RDKit          3D

 41 43  0  0  0  0  0  0  0  0999 V2000
    6.4750    0.4300  -55.7960 O   0  0  0  0  0  0  0  0  0  0  0  0
    7.6180    0.8660  -55.7280 C   0  0  0  0  0  0  0  0  0  0  0  0
    8.5770    0.5100  -54.8000 N   0  0  0  0  0  0  0  0  0  0  0  0
    8.4730   -0.4110  -53.7430 C   0  0  0  0  0  0  0  0  0  0  0  0
    9.4780   -1.3810  -53.6410 C   0  0  0  0  0  0  0  0  0  0  0  0
    9.4500   -2.3340  -52.6180 C   0  0  0  0  0  0  0  0  0  0  0  0
    8.4180   -2.3330  -51.6710 C   0  0  0  0  0  0  0  0  0  0  0  0
    8.3710   -3.3720  -50.5790 C   0  0  0  0  0  0  0  0  0  0  0  0
    9.6020   -3.6960  -50.0930 F   0  0  0  0  0  0  0  0  0  0  0  0
    7.8120   -4.5480  -50.9860 F   0  0  0  0  0  0  0  0  0  0  0  0
    7.6400   -2.9630  -49.5050 F   0  0  0  0  0  0  0  0  0  0  0  0
    7.4100   -1.3660  -51.7810 C   0  0  0  0  0  0  0  0  0  0  0  0
    7.4390   -0.4110  -52.8060 C   0  0  0  0  0  0  0  0  0  0  0  0
    8.1020    1.8530  -56.6670 C   0  0  0  0  0  0  0  0  0  0  0  0
    7.4600    2.2590  -57.7450 N   0  0  0  0  0  0  0  0  0  0  0  0
    8.2460    3.1970  -58.3720 N   0  0  0  0  0  0  0  0  0  0  0  0
    9.3500    3.3480  -57.6680 C   0  0  0  0  0  0  0  0  0  0  0  0
   10.4930    4.2640  -57.9710 C   0  0  0  0  0  0  0  0  0  0  0  0
   11.8410    3.6110  -57.6360 C   0  0  0  0  0  0  0  0  0  0  0  0
   13.0090    4.5440  -57.9550 C   0  0  0  0  0  0  0  0  0  0  0  0
   12.9670    5.0230  -59.4020 C   0  0  0  0  0  0  0  0  0  0  0  0
   11.6290    5.6730  -59.7420 C   0  0  0  0  0  0  0  0  0  0  0  0
   10.4560    4.7450  -59.4290 C   0  0  0  0  0  0  0  0  0  0  0  0
    9.2950    2.5140  -56.5830 N   0  0  0  0  0  0  0  0  0  0  0  0
    9.4670    0.9890  -54.9140 H   0  0  0  0  0  0  0  0  0  0  0  0
   10.2984   -1.3934  -54.3736 H   0  0  0  0  0  0  0  0  0  0  0  0
   10.2455   -3.0912  -52.5565 H   0  0  0  0  0  0  0  0  0  0  0  0
    6.5852   -1.3564  -51.0533 H   0  0  0  0  0  0  0  0  0  0  0  0
    6.6414    0.3436  -52.8724 H   0  0  0  0  0  0  0  0  0  0  0  0
   10.3832    5.1483  -57.3260 H   0  0  0  0  0  0  0  0  0  0  0  0
   11.8625    3.3647  -56.5641 H   0  0  0  0  0  0  0  0  0  0  0  0
   11.9468    2.7032  -58.2481 H   0  0  0  0  0  0  0  0  0  0  0  0
   12.9601    5.4176  -57.2884 H   0  0  0  0  0  0  0  0  0  0  0  0
   13.9452    3.9864  -57.8046 H   0  0  0  0  0  0  0  0  0  0  0  0
   13.7704    5.7581  -59.5578 H   0  0  0  0  0  0  0  0  0  0  0  0
   13.1003    4.1492  -60.0568 H   0  0  0  0  0  0  0  0  0  0  0  0
   11.5208    6.5958  -59.1532 H   0  0  0  0  0  0  0  0  0  0  0  0
   11.6168    5.8906  -60.8202 H   0  0  0  0  0  0  0  0  0  0  0  0
    9.5149    5.2873  -59.6028 H   0  0  0  0  0  0  0  0  0  0  0  0
   10.5274    3.8648  -60.0849 H   0  0  0  0  0  0  0  0  0  0  0  0
    9.9840    2.3940  -55.8540 H   0  0  0  0  0  0  0  0  0  0  0  0
  1  2  2  0
  2  3  1  0
  3  4  1  0
  4  5  1  0
  5  6  2  0
  6  7  1  0
  7  8  1  0
  8  9  1  0
  8 10  1  0
  8 11  1  0
  7 12  2  0
 12 13  1  0
  2 14  1  0
 14 15  2  0
 15 16  1  0
 16 17  2  0
 17 18  1  0
 18 19  1  0
 19 20  1  0
 20 21  1  0
 21 22  1  0
 22 23  1  0
 17 24  1  0
 13  4  2  0
 24 14  1  0
 23 18  1  0
  3 25  1  0
  5 26  1  0
  6 27  1  0
 12 28  1  0
 13 29  1  0
 18 30  1  0
 19 31  1  0
 19 32  1  0
 20 33  1  0
 20 34  1  0
 21 35  1  0
 21 36  1  0
 22 37  1  0
 22 38  1  0
 23 39  1  0
 23 40  1  0
 24 41  1  0
M  END
>  <meeko>  (16) 
{"is_sidechain": false}

$$$$

     RDKit          3D

 41 43  0  0  0  0  0  0  0  0999 V2000
    6.5010    0.6630  -55.8910 O   0  0  0  0  0  0  0  0  0  0  0  0
    7.6840    0.9840  -55.8780 C   0  0  0  0  0  0  0  0  0  0  0  0
    8.6450    0.5460  -54.9880 N   0  0  0  0  0  0  0  0  0  0  0  0
    8.5030   -0.3470  -53.9120 C   0  0  0  0  0  0  0  0  0  0  0  0
    9.4500   -1.3710  -53.8020 C   0  0  0  0  0  0  0  0  0  0  0  0
    9.3800   -2.3020  -52.7600 C   0  0  0  0  0  0  0  0  0  0  0  0
    8.3610   -2.2200  -51.8010 C   0  0  0  0  0  0  0  0  0  0  0  0
    8.2690   -3.2360  -50.6880 C   0  0  0  0  0  0  0  0  0  0  0  0
    9.4670   -3.4880  -50.0920 F   0  0  0  0  0  0  0  0  0  0  0  0
    7.4310   -2.8370  -49.6920 F   0  0  0  0  0  0  0  0  0  0  0  0
    7.8020   -4.4460  -51.1070 F   0  0  0  0  0  0  0  0  0  0  0  0
    7.4100   -1.1990  -51.9190 C   0  0  0  0  0  0  0  0  0  0  0  0
    7.4820   -0.2680  -52.9630 C   0  0  0  0  0  0  0  0  0  0  0  0
    8.2290    1.9050  -56.8470 C   0  0  0  0  0  0  0  0  0  0  0  0
    9.3970    2.5170  -56.7640 N   0  0  0  0  0  0  0  0  0  0  0  0
    9.4360    3.2650  -57.9160 C   0  0  0  0  0  0  0  0  0  0  0  0
   10.5920    4.1470  -58.2670 C   0  0  0  0  0  0  0  0  0  0  0  0
   10.3900    4.8410  -59.6190 C   0  0  0  0  0  0  0  0  0  0  0  0
   11.5050    5.8480  -59.9160 C   0  0  0  0  0  0  0  0  0  0  0  0
   12.8510    5.4720  -59.2940 C   0  0  0  0  0  0  0  0  0  0  0  0
   13.0030    3.9650  -59.1420 C   0  0  0  0  0  0  0  0  0  0  0  0
   11.9210    3.3670  -58.2380 C   0  0  0  0  0  0  0  0  0  0  0  0
    8.3560    3.1470  -58.6990 N   0  0  0  0  0  0  0  0  0  0  0  0
    7.6070    2.2790  -57.9980 N   0  0  0  0  0  0  0  0  0  0  0  0
    9.5690    0.9370  -55.1540 H   0  0  0  0  0  0  0  0  0  0  0  0
   10.2591   -1.4450  -54.5435 H   0  0  0  0  0  0  0  0  0  0  0  0
   10.1299   -3.1040  -52.6929 H   0  0  0  0  0  0  0  0  0  0  0  0
    6.5961   -1.1272  -51.1825 H   0  0  0  0  0  0  0  0  0  0  0  0
    6.7291    0.5307  -53.0357 H   0  0  0  0  0  0  0  0  0  0  0  0
   10.6437    4.9328  -57.4990 H   0  0  0  0  0  0  0  0  0  0  0  0
   10.3788    4.0787  -60.4119 H   0  0  0  0  0  0  0  0  0  0  0  0
    9.4368    5.3887  -59.5821 H   0  0  0  0  0  0  0  0  0  0  0  0
   11.6323    5.9144  -61.0066 H   0  0  0  0  0  0  0  0  0  0  0  0
   11.2006    6.8070  -59.4713 H   0  0  0  0  0  0  0  0  0  0  0  0
   13.6587    5.8479  -59.9392 H   0  0  0  0  0  0  0  0  0  0  0  0
   12.9024    5.9233  -58.2922 H   0  0  0  0  0  0  0  0  0  0  0  0
   12.9327    3.4990  -60.1359 H   0  0  0  0  0  0  0  0  0  0  0  0
   13.9805    3.7674  -58.6779 H   0  0  0  0  0  0  0  0  0  0  0  0
   11.7258    2.3351  -58.5652 H   0  0  0  0  0  0  0  0  0  0  0  0
   12.3002    3.4143  -57.2065 H   0  0  0  0  0  0  0  0  0  0  0  0
    6.7000    1.9840  -58.3470 H   0  0  0  0  0  0  0  0  0  0  0  0
  1  2  2  0
  2  3  1  0
  3  4  1  0
  4  5  1  0
  5  6  2  0
  6  7  1  0
  7  8  1  0
  8  9  1  0
  8 10  1  0
  8 11  1  0
  7 12  2  0
 12 13  1  0
  2 14  1  0
 14 15  2  0
 15 16  1  0
 16 17  1  0
 17 18  1  0
 18 19  1  0
 19 20  1  0
 20 21  1  0
 21 22  1  0
 16 23  2  0
 23 24  1  0
 13  4  2  0
 24 14  1  0
 22 17  1  0
  3 25  1  0
  5 26  1  0
  6 27  1  0
 12 28  1  0
 13 29  1  0
 17 30  1  0
 18 31  1  0
 18 32  1  0
 19 33  1  0
 19 34  1  0
 20 35  1  0
 20 36  1  0
 21 37  1  0
 21 38  1  0
 22 39  1  0
 22 40  1  0
 24 41  1  0
M  END
>  <meeko>  (17) 
{"is_sidechain": false}

$$$$

     RDKit          3D

 41 43  0  0  0  0  0  0  0  0999 V2000
    6.3360    0.8480  -56.0280 O   0  0  0  0  0  0  0  0  0  0  0  0
    7.5250    1.1530  -56.0600 C   0  0  0  0  0  0  0  0  0  0  0  0
    8.5000    0.7300  -55.1700 N   0  0  0  0  0  0  0  0  0  0  0  0
    8.3630   -0.1180  -54.0580 C   0  0  0  0  0  0  0  0  0  0  0  0
    9.3020   -1.1470  -53.9200 C   0  0  0  0  0  0  0  0  0  0  0  0
    9.2360   -2.0350  -52.8420 C   0  0  0  0  0  0  0  0  0  0  0  0
    8.2230   -1.9150  -51.8810 C   0  0  0  0  0  0  0  0  0  0  0  0
    8.1620   -2.8570  -50.7050 C   0  0  0  0  0  0  0  0  0  0  0  0
    7.7850   -2.2290  -49.5580 F   0  0  0  0  0  0  0  0  0  0  0  0
    9.3610   -3.4440  -50.4310 F   0  0  0  0  0  0  0  0  0  0  0  0
    7.2800   -3.8810  -50.8790 F   0  0  0  0  0  0  0  0  0  0  0  0
    7.2910   -0.8780  -52.0180 C   0  0  0  0  0  0  0  0  0  0  0  0
    7.3580    0.0100  -53.0980 C   0  0  0  0  0  0  0  0  0  0  0  0
    8.1030    2.0460  -57.0920 C   0  0  0  0  0  0  0  0  0  0  0  0
    7.4480    3.0600  -57.6840 N   0  0  0  0  0  0  0  0  0  0  0  0
    8.3750    3.5480  -58.5180 N   0  0  0  0  0  0  0  0  0  0  0  0
    9.5490    2.8550  -58.4330 C   0  0  0  0  0  0  0  0  0  0  0  0
   10.7690    3.1680  -59.2450 C   0  0  0  0  0  0  0  0  0  0  0  0
   10.5300    4.3240  -60.2360 C   0  0  0  0  0  0  0  0  0  0  0  0
   11.1290    5.6420  -59.7530 C   0  0  0  0  0  0  0  0  0  0  0  0
   12.6370    5.5360  -59.5200 C   0  0  0  0  0  0  0  0  0  0  0  0
   13.0940    4.1460  -59.0750 C   0  0  0  0  0  0  0  0  0  0  0  0
   11.9930    3.3940  -58.3380 C   0  0  0  0  0  0  0  0  0  0  0  0
    9.4110    1.8970  -57.5400 N   0  0  0  0  0  0  0  0  0  0  0  0
    9.4260    1.0980  -55.3730 H   0  0  0  0  0  0  0  0  0  0  0  0
   10.1008   -1.2582  -54.6681 H   0  0  0  0  0  0  0  0  0  0  0  0
    9.9855   -2.8346  -52.7474 H   0  0  0  0  0  0  0  0  0  0  0  0
    6.4960   -0.7600  -51.2669 H   0  0  0  0  0  0  0  0  0  0  0  0
    6.6134    0.8143  -53.1907 H   0  0  0  0  0  0  0  0  0  0  0  0
    8.1410    4.3430  -59.1030 H   0  0  0  0  0  0  0  0  0  0  0  0
   10.9918    2.2893  -59.8681 H   0  0  0  0  0  0  0  0  0  0  0  0
   10.9877    4.0614  -61.2012 H   0  0  0  0  0  0  0  0  0  0  0  0
    9.4430    4.4652  -60.3285 H   0  0  0  0  0  0  0  0  0  0  0  0
   10.9406    6.4165  -60.5111 H   0  0  0  0  0  0  0  0  0  0  0  0
   10.6548    5.8991  -58.7943 H   0  0  0  0  0  0  0  0  0  0  0  0
   13.1520    5.7868  -60.4591 H   0  0  0  0  0  0  0  0  0  0  0  0
   12.8863    6.2324  -58.7058 H   0  0  0  0  0  0  0  0  0  0  0  0
   13.3869    3.5669  -59.9631 H   0  0  0  0  0  0  0  0  0  0  0  0
   13.9417    4.2709  -58.3852 H   0  0  0  0  0  0  0  0  0  0  0  0
   12.3820    2.4185  -58.0107 H   0  0  0  0  0  0  0  0  0  0  0  0
   11.6788    3.9965  -57.4730 H   0  0  0  0  0  0  0  0  0  0  0  0
  1  2  2  0
  2  3  1  0
  3  4  1  0
  4  5  1  0
  5  6  2  0
  6  7  1  0
  7  8  1  0
  8  9  1  0
  8 10  1  0
  8 11  1  0
  7 12  2  0
 12 13  1  0
  2 14  1  0
 14 15  2  0
 15 16  1  0
 16 17  1  0
 17 18  1  0
 18 19  1  0
 19 20  1  0
 20 21  1  0
 21 22  1  0
 22 23  1  0
 17 24  2  0
 13  4  2  0
 24 14  1  0
 23 18  1  0
  3 25  1  0
  5 26  1  0
  6 27  1  0
 12 28  1  0
 13 29  1  0
 16 30  1  0
 18 31  1  0
 19 32  1  0
 19 33  1  0
 20 34  1  0
 20 35  1  0
 21 36  1  0
 21 37  1  0
 22 38  1  0
 22 39  1  0
 23 40  1  0
 23 41  1  0
M  END
>  <meeko>  (18) 
{"is_sidechain": false}

$$$$

     RDKit          3D

 38 40  0  0  0  0  0  0  0  0999 V2000
    9.1350    3.9270  -57.0890 O   0  0  0  0  0  0  0  0  0  0  0  0
    8.8060    3.6210  -58.2300 C   0  0  0  0  0  0  0  0  0  0  0  0
    9.6290    3.7290  -59.3470 N   0  0  0  0  0  0  0  0  0  0  0  0
   10.9200    4.2920  -59.4120 C   0  0  0  0  0  0  0  0  0  0  0  0
   12.0920    3.6040  -59.0920 C   0  0  0  0  0  0  0  0  0  0  0  0
   13.3340    4.2440  -59.1680 C   0  0  0  0  0  0  0  0  0  0  0  0
   13.4140    5.5780  -59.5600 C   0  0  0  0  0  0  0  0  0  0  0  0
   12.2530    6.2760  -59.8770 C   0  0  0  0  0  0  0  0  0  0  0  0
   11.0120    5.6370  -59.8010 C   0  0  0  0  0  0  0  0  0  0  0  0
    7.4920    3.0990  -58.5510 C   0  0  0  0  0  0  0  0  0  0  0  0
    6.4920    2.9960  -57.6990 N   0  0  0  0  0  0  0  0  0  0  0  0
    5.4140    2.4570  -58.3640 N   0  0  0  0  0  0  0  0  0  0  0  0
    5.7570    2.2720  -59.6200 C   0  0  0  0  0  0  0  0  0  0  0  0
    4.8940    1.7400  -60.7180 C   0  0  0  0  0  0  0  0  0  0  0  0
    3.4010    1.9910  -60.4340 C   0  0  0  0  0  0  0  0  0  0  0  0
    2.5410    2.0500  -61.6990 C   0  0  0  0  0  0  0  0  0  0  0  0
    3.1080    1.1830  -62.8140 C   0  0  0  0  0  0  0  0  0  0  0  0
    4.5140    1.6260  -63.2230 C   0  0  0  0  0  0  0  0  0  0  0  0
    5.3030    2.2890  -62.0890 C   0  0  0  0  0  0  0  0  0  0  0  0
    7.0600    2.6640  -59.7770 N   0  0  0  0  0  0  0  0  0  0  0  0
    9.3290    3.2360  -60.1780 H   0  0  0  0  0  0  0  0  0  0  0  0
   12.0386    2.5512  -58.7779 H   0  0  0  0  0  0  0  0  0  0  0  0
   14.2512    3.6911  -58.9170 H   0  0  0  0  0  0  0  0  0  0  0  0
   14.3920    6.0781  -59.6188 H   0  0  0  0  0  0  0  0  0  0  0  0
   12.3115    7.3297  -60.1872 H   0  0  0  0  0  0  0  0  0  0  0  0
   10.0971    6.1950  -60.0490 H   0  0  0  0  0  0  0  0  0  0  0  0
    5.0490    0.6514  -60.7483 H   0  0  0  0  0  0  0  0  0  0  0  0
    3.0263    1.1773  -59.7957 H   0  0  0  0  0  0  0  0  0  0  0  0
    3.3251    2.9733  -59.9447 H   0  0  0  0  0  0  0  0  0  0  0  0
    1.5274    1.6985  -61.4562 H   0  0  0  0  0  0  0  0  0  0  0  0
    2.5266    3.0917  -62.0521 H   0  0  0  0  0  0  0  0  0  0  0  0
    3.1508    0.1402  -62.4666 H   0  0  0  0  0  0  0  0  0  0  0  0
    2.4510    1.2827  -63.6906 H   0  0  0  0  0  0  0  0  0  0  0  0
    5.0719    0.7413  -63.5637 H   0  0  0  0  0  0  0  0  0  0  0  0
    4.3968    2.3783  -64.0169 H   0  0  0  0  0  0  0  0  0  0  0  0
    6.3757    2.1002  -62.2431 H   0  0  0  0  0  0  0  0  0  0  0  0
    5.0864    3.3673  -62.1052 H   0  0  0  0  0  0  0  0  0  0  0  0
    7.5830    2.6880  -60.6410 H   0  0  0  0  0  0  0  0  0  0  0  0
  1  2  2  0
  2  3  1  0
  3  4  1  0
  4  5  2  0
  5  6  1  0
  6  7  2  0
  7  8  1  0
  8  9  2  0
  2 10  1  0
 10 11  2  0
 11 12  1  0
 12 13  2  0
 13 14  1  0
 14 15  1  0
 15 16  1  0
 16 17  1  0
 17 18  1  0
 18 19  1  0
 13 20  1  0
  9  4  1  0
 20 10  1  0
 19 14  1  0
  3 21  1  0
  5 22  1  0
  6 23  1  0
  7 24  1  0
  8 25  1  0
  9 26  1  0
 14 27  1  0
 15 28  1  0
 15 29  1  0
 16 30  1  0
 16 31  1  0
 17 32  1  0
 17 33  1  0
 18 34  1  0
 18 35  1  0
 19 36  1  0
 19 37  1  0
 20 38  1  0
M  END
>  <meeko>  (19) 
{"is_sidechain": false}

$$$$

     RDKit          3D

 38 40  0  0  0  0  0  0  0  0999 V2000
    8.9390    4.2700  -57.0210 O   0  0  0  0  0  0  0  0  0  0  0  0
    8.7160    3.8180  -58.1390 C   0  0  0  0  0  0  0  0  0  0  0  0
    9.5770    3.8260  -59.2180 N   0  0  0  0  0  0  0  0  0  0  0  0
   10.8840    4.3400  -59.2940 C   0  0  0  0  0  0  0  0  0  0  0  0
   12.0220    3.6400  -58.8920 C   0  0  0  0  0  0  0  0  0  0  0  0
   13.2870    4.2260  -59.0010 C   0  0  0  0  0  0  0  0  0  0  0  0
   13.4240    5.5150  -59.5110 C   0  0  0  0  0  0  0  0  0  0  0  0
   12.2950    6.2210  -59.9150 C   0  0  0  0  0  0  0  0  0  0  0  0
   11.0300    5.6350  -59.8060 C   0  0  0  0  0  0  0  0  0  0  0  0
    7.4550    3.1950  -58.4630 C   0  0  0  0  0  0  0  0  0  0  0  0
    7.0850    2.7610  -59.6550 N   0  0  0  0  0  0  0  0  0  0  0  0
    5.8240    2.2650  -59.4250 C   0  0  0  0  0  0  0  0  0  0  0  0
    4.9900    1.6500  -60.5040 C   0  0  0  0  0  0  0  0  0  0  0  0
    5.4640    2.0960  -61.9010 C   0  0  0  0  0  0  0  0  0  0  0  0
    4.3660    2.0470  -62.9670 C   0  0  0  0  0  0  0  0  0  0  0  0
    3.3330    0.9700  -62.6720 C   0  0  0  0  0  0  0  0  0  0  0  0
    2.6330    1.2030  -61.3340 C   0  0  0  0  0  0  0  0  0  0  0  0
    3.4970    1.9440  -60.3110 C   0  0  0  0  0  0  0  0  0  0  0  0
    5.4010    2.3680  -58.1590 N   0  0  0  0  0  0  0  0  0  0  0  0
    6.4530    2.9620  -57.5690 N   0  0  0  0  0  0  0  0  0  0  0  0
    9.1930    3.3980  -60.0570 H   0  0  0  0  0  0  0  0  0  0  0  0
   11.9236    2.6219  -58.4872 H   0  0  0  0  0  0  0  0  0  0  0  0
   14.1786    3.6661  -58.6823 H   0  0  0  0  0  0  0  0  0  0  0  0
   14.4207    5.9730  -59.5940 H   0  0  0  0  0  0  0  0  0  0  0  0
   12.3975    7.2387  -60.3196 H   0  0  0  0  0  0  0  0  0  0  0  0
   10.1403    6.1973  -60.1258 H   0  0  0  0  0  0  0  0  0  0  0  0
    5.1223    0.5604  -60.4315 H   0  0  0  0  0  0  0  0  0  0  0  0
    5.8327    3.1299  -61.8292 H   0  0  0  0  0  0  0  0  0  0  0  0
    6.2488    1.3920  -62.2146 H   0  0  0  0  0  0  0  0  0  0  0  0
    3.8609    3.0236  -63.0017 H   0  0  0  0  0  0  0  0  0  0  0  0
    4.8390    1.8091  -63.9312 H   0  0  0  0  0  0  0  0  0  0  0  0
    2.5789    0.9716  -63.4729 H   0  0  0  0  0  0  0  0  0  0  0  0
    3.8543    0.0028  -62.6201 H   0  0  0  0  0  0  0  0  0  0  0  0
    1.7241    1.7954  -61.5156 H   0  0  0  0  0  0  0  0  0  0  0  0
    2.4095    0.2128  -60.9103 H   0  0  0  0  0  0  0  0  0  0  0  0
    3.3303    3.0257  -60.4215 H   0  0  0  0  0  0  0  0  0  0  0  0
    3.2084    1.5991  -59.3071 H   0  0  0  0  0  0  0  0  0  0  0  0
    6.4320    3.1800  -56.5790 H   0  0  0  0  0  0  0  0  0  0  0  0
  1  2  2  0
  2  3  1  0
  3  4  1  0
  4  5  2  0
  5  6  1  0
  6  7  2  0
  7  8  1  0
  8  9  2  0
  2 10  1  0
 10 11  2  0
 11 12  1  0
 12 13  1  0
 13 14  1  0
 14 15  1  0
 15 16  1  0
 16 17  1  0
 17 18  1  0
 12 19  2  0
 19 20  1  0
  9  4  1  0
 20 10  1  0
 18 13  1  0
  3 21  1  0
  5 22  1  0
  6 23  1  0
  7 24  1  0
  8 25  1  0
  9 26  1  0
 13 27  1  0
 14 28  1  0
 14 29  1  0
 15 30  1  0
 15 31  1  0
 16 32  1  0
 16 33  1  0
 17 34  1  0
 17 35  1  0
 18 36  1  0
 18 37  1  0
 20 38  1  0
M  END
>  <meeko>  (20) 
{"is_sidechain": false}

$$$$

     RDKit          3D

 38 40  0  0  0  0  0  0  0  0999 V2000
    5.5810   -0.7450  -54.0150 O   0  0  0  0  0  0  0  0  0  0  0  0
    6.7900   -0.6020  -54.1630 C   0  0  0  0  0  0  0  0  0  0  0  0
    7.7830   -1.2940  -53.4850 N   0  0  0  0  0  0  0  0  0  0  0  0
    7.6470   -2.2890  -52.5030 C   0  0  0  0  0  0  0  0  0  0  0  0
    7.3110   -3.6150  -52.7790 C   0  0  0  0  0  0  0  0  0  0  0  0
    7.1960   -4.5460  -51.7420 C   0  0  0  0  0  0  0  0  0  0  0  0
    7.4140   -4.1580  -50.4210 C   0  0  0  0  0  0  0  0  0  0  0  0
    7.7490   -2.8380  -50.1360 C   0  0  0  0  0  0  0  0  0  0  0  0
    7.8650   -1.9080  -51.1730 C   0  0  0  0  0  0  0  0  0  0  0  0
    7.3670    0.3700  -55.1240 C   0  0  0  0  0  0  0  0  0  0  0  0
    6.6200    0.9860  -56.0690 N   0  0  0  0  0  0  0  0  0  0  0  0
    7.5350    1.7510  -56.6870 N   0  0  0  0  0  0  0  0  0  0  0  0
    8.7770    1.6020  -56.1380 C   0  0  0  0  0  0  0  0  0  0  0  0
   10.0000    2.3230  -56.6110 C   0  0  0  0  0  0  0  0  0  0  0  0
   10.0890    3.7540  -56.0440 C   0  0  0  0  0  0  0  0  0  0  0  0
    9.6840    4.8140  -57.0640 C   0  0  0  0  0  0  0  0  0  0  0  0
   10.5500    4.7600  -58.3240 C   0  0  0  0  0  0  0  0  0  0  0  0
   11.0520    3.3570  -58.6650 C   0  0  0  0  0  0  0  0  0  0  0  0
   10.1120    2.2760  -58.1450 C   0  0  0  0  0  0  0  0  0  0  0  0
    8.6980    0.7370  -55.1520 N   0  0  0  0  0  0  0  0  0  0  0  0
    8.7240   -1.0220  -53.7580 H   0  0  0  0  0  0  0  0  0  0  0  0
    7.1356   -3.9297  -53.8183 H   0  0  0  0  0  0  0  0  0  0  0  0
    6.9323   -5.5894  -51.9697 H   0  0  0  0  0  0  0  0  0  0  0  0
    7.3216   -4.8924  -49.6073 H   0  0  0  0  0  0  0  0  0  0  0  0
    7.9224   -2.5265  -49.0954 H   0  0  0  0  0  0  0  0  0  0  0  0
    8.1303   -0.8658  -50.9421 H   0  0  0  0  0  0  0  0  0  0  0  0
    7.2510    2.3390  -57.4620 H   0  0  0  0  0  0  0  0  0  0  0  0
   10.8767    1.7922  -56.2114 H   0  0  0  0  0  0  0  0  0  0  0  0
    9.4219    3.8301  -55.1727 H   0  0  0  0  0  0  0  0  0  0  0  0
   11.1377    3.9393  -55.7686 H   0  0  0  0  0  0  0  0  0  0  0  0
    8.6339    4.6503  -57.3479 H   0  0  0  0  0  0  0  0  0  0  0  0
    9.8223    5.8016  -56.5997 H   0  0  0  0  0  0  0  0  0  0  0  0
    9.9543    5.1311  -59.1710 H   0  0  0  0  0  0  0  0  0  0  0  0
   11.4373    5.3808  -58.1310 H   0  0  0  0  0  0  0  0  0  0  0  0
   11.1316    3.2635  -59.7581 H   0  0  0  0  0  0  0  0  0  0  0  0
   12.0311    3.2184  -58.1832 H   0  0  0  0  0  0  0  0  0  0  0  0
    9.1141    2.4284  -58.5820 H   0  0  0  0  0  0  0  0  0  0  0  0
   10.5176    1.2951  -58.4336 H   0  0  0  0  0  0  0  0  0  0  0  0
  1  2  2  0
  2  3  1  0
  3  4  1  0
  4  5  2  0
  5  6  1  0
  6  7  2  0
  7  8  1  0
  8  9  2  0
  2 10  1  0
 10 11  2  0
 11 12  1  0
 12 13  1  0
 13 14  1  0
 14 15  1  0
 15 16  1  0
 16 17  1  0
 17 18  1  0
 18 19  1  0
 13 20  2  0
  9  4  1  0
 20 10  1  0
 19 14  1  0
  3 21  1  0
  5 22  1  0
  6 23  1  0
  7 24  1  0
  8 25  1  0
  9 26  1  0
 12 27  1  0
 14 28  1  0
 15 29  1  0
 15 30  1  0
 16 31  1  0
 16 32  1  0
 17 33  1  0
 17 34  1  0
 18 35  1  0
 18 36  1  0
 19 37  1  0
 19 38  1  0
M  END
>  <meeko>  (21) 
{"is_sidechain": false}

$$$$

     RDKit          3D

 46 50  0  0  0  0  0  0  0  0999 V2000
    9.8410    1.3310  -55.7620 O   0  0  0  0  0  0  0  0  0  0  0  0
    8.6240    1.2300  -55.8810 C   0  0  0  0  0  0  0  0  0  0  0  0
    7.8740    1.9450  -56.7870 N   0  0  0  0  0  0  0  0  0  0  0  0
    8.3820    2.9290  -57.7410 C   0  0  2  0  0  0  0  0  0  0  0  0
    7.2520    3.2660  -58.7500 C   0  0  0  0  0  0  0  0  0  0  0  0
    7.7280    4.2990  -59.7850 C   0  0  1  0  0  0  0  0  0  0  0  0
    8.1530    5.5830  -59.0570 C   0  0  0  0  0  0  0  0  0  0  0  0
    9.2910    5.2750  -58.0700 C   0  0  2  0  0  0  0  0  0  0  0  0
   10.4880    4.6960  -58.8420 C   0  0  0  0  0  0  0  0  0  0  0  0
   10.0730    3.4080  -59.5730 C   0  0  2  0  0  0  0  0  0  0  0  0
    8.9310    3.7270  -60.5520 C   0  0  0  0  0  0  0  0  0  0  0  0
    9.5870    2.3740  -58.5430 C   0  0  0  0  0  0  0  0  0  0  0  0
    8.8040    4.2420  -57.0390 C   0  0  0  0  0  0  0  0  0  0  0  0
    7.8440    0.3320  -55.0670 C   0  0  0  0  0  0  0  0  0  0  0  0
    6.5410    0.1580  -55.1450 N   0  0  0  0  0  0  0  0  0  0  0  0
    6.1920   -0.7790  -54.2000 N   0  0  0  0  0  0  0  0  0  0  0  0
    7.2800   -1.1650  -53.5570 C   0  0  0  0  0  0  0  0  0  0  0  0
    7.3580   -2.1470  -52.4730 C   0  0  0  0  0  0  0  0  0  0  0  0
    6.9620   -3.4710  -52.7200 C   0  0  0  0  0  0  0  0  0  0  0  0
    7.0200   -4.4400  -51.7150 C   0  0  0  0  0  0  0  0  0  0  0  0
    7.4770   -4.0980  -50.4460 C   0  0  0  0  0  0  0  0  0  0  0  0
    7.8740   -2.7900  -50.1820 C   0  0  0  0  0  0  0  0  0  0  0  0
    7.8160   -1.8190  -51.1870 C   0  0  0  0  0  0  0  0  0  0  0  0
    8.3420   -0.4770  -54.0840 N   0  0  0  0  0  0  0  0  0  0  0  0
    6.8750    1.7520  -56.7660 H   0  0  0  0  0  0  0  0  0  0  0  0
    6.9499    2.3462  -59.2723 H   0  0  0  0  0  0  0  0  0  0  0  0
    6.4022    3.6909  -58.1957 H   0  0  0  0  0  0  0  0  0  0  0  0
    6.9135    4.5249  -60.4889 H   0  0  0  0  0  0  0  0  0  0  0  0
    8.5000    6.3220  -59.7942 H   0  0  0  0  0  0  0  0  0  0  0  0
    7.2926    5.9855  -58.5023 H   0  0  0  0  0  0  0  0  0  0  0  0
    9.5939    6.1980  -57.5539 H   0  0  0  0  0  0  0  0  0  0  0  0
   10.8382    5.4350  -59.5777 H   0  0  0  0  0  0  0  0  0  0  0  0
   11.2952    4.4627  -58.1321 H   0  0  0  0  0  0  0  0  0  0  0  0
   10.9324    3.0019  -60.1267 H   0  0  0  0  0  0  0  0  0  0  0  0
    9.2783    4.4660  -61.2890 H   0  0  0  0  0  0  0  0  0  0  0  0
    8.6265    2.8034  -61.0661 H   0  0  0  0  0  0  0  0  0  0  0  0
    9.2807    1.4571  -59.0678 H   0  0  0  0  0  0  0  0  0  0  0  0
   10.4082    2.1557  -57.8444 H   0  0  0  0  0  0  0  0  0  0  0  0
    9.6173    4.0277  -56.3301 H   0  0  0  0  0  0  0  0  0  0  0  0
    7.9343    4.6549  -56.5068 H   0  0  0  0  0  0  0  0  0  0  0  0
    6.6003   -3.7500  -53.7207 H   0  0  0  0  0  0  0  0  0  0  0  0
    6.7047   -5.4723  -51.9268 H   0  0  0  0  0  0  0  0  0  0  0  0
    7.5245   -4.8592  -49.6534 H   0  0  0  0  0  0  0  0  0  0  0  0
    8.2348   -2.5190  -49.1788 H   0  0  0  0  0  0  0  0  0  0  0  0
    8.1322   -0.7885  -50.9677 H   0  0  0  0  0  0  0  0  0  0  0  0
    9.3140   -0.5360  -53.8210 H   0  0  0  0  0  0  0  0  0  0  0  0
  1  2  2  0
  2  3  1  0
  4  3  1  1
  4  5  1  0
  5  6  1  0
  6  7  1  0
  7  8  1  0
  8  9  1  0
  9 10  1  0
 10 11  1  0
 10 12  1  0
  8 13  1  0
  2 14  1  0
 14 15  2  0
 15 16  1  0
 16 17  2  0
 17 18  1  0
 18 19  2  0
 19 20  1  0
 20 21  2  0
 21 22  1  0
 22 23  2  0
 17 24  1  0
 12  4  1  0
 24 14  1  0
 13  4  1  0
 23 18  1  0
 11  6  1  0
  3 25  1  0
  5 26  1  0
  5 27  1  0
  6 28  1  6
  7 29  1  0
  7 30  1  0
  8 31  1  1
  9 32  1  0
  9 33  1  0
 10 34  1  6
 11 35  1  0
 11 36  1  0
 12 37  1  0
 12 38  1  0
 13 39  1  0
 13 40  1  0
 19 41  1  0
 20 42  1  0
 21 43  1  0
 22 44  1  0
 23 45  1  0
 24 46  1  0
M  END
>  <meeko>  (22) 
{"is_sidechain": false}

$$$$

     RDKit          3D

 46 50  0  0  0  0  0  0  0  0999 V2000
    9.7910    1.3040  -55.7550 O   0  0  0  0  0  0  0  0  0  0  0  0
    8.5680    1.2120  -55.7750 C   0  0  0  0  0  0  0  0  0  0  0  0
    7.7700    2.0110  -56.5860 N   0  0  0  0  0  0  0  0  0  0  0  0
    8.3010    2.9960  -57.5420 C   0  0  2  0  0  0  0  0  0  0  0  0
    8.7930    4.2870  -56.8410 C   0  0  0  0  0  0  0  0  0  0  0  0
    9.2850    5.3130  -57.8770 C   0  0  1  0  0  0  0  0  0  0  0  0
   10.4330    4.6960  -58.6940 C   0  0  0  0  0  0  0  0  0  0  0  0
    9.9430    3.4350  -59.4270 C   0  0  2  0  0  0  0  0  0  0  0  0
    8.7820    3.8110  -60.3610 C   0  0  0  0  0  0  0  0  0  0  0  0
    7.6300    4.4200  -59.5470 C   0  0  2  0  0  0  0  0  0  0  0  0
    8.1300    5.6780  -58.8200 C   0  0  0  0  0  0  0  0  0  0  0  0
    7.1500    3.3960  -58.5070 C   0  0  0  0  0  0  0  0  0  0  0  0
    9.4530    2.4050  -58.3930 C   0  0  0  0  0  0  0  0  0  0  0  0
    7.8250    0.2620  -54.9730 C   0  0  0  0  0  0  0  0  0  0  0  0
    8.3290   -0.5120  -54.0320 N   0  0  0  0  0  0  0  0  0  0  0  0
    7.2470   -1.2240  -53.5600 C   0  0  0  0  0  0  0  0  0  0  0  0
    7.3710   -2.2200  -52.5000 C   0  0  0  0  0  0  0  0  0  0  0  0
    6.9910   -3.5500  -52.7300 C   0  0  0  0  0  0  0  0  0  0  0  0
    7.1070   -4.5100  -51.7220 C   0  0  0  0  0  0  0  0  0  0  0  0
    7.6020   -4.1500  -50.4710 C   0  0  0  0  0  0  0  0  0  0  0  0
    7.9850   -2.8320  -50.2260 C   0  0  0  0  0  0  0  0  0  0  0  0
    7.8700   -1.8730  -51.2350 C   0  0  0  0  0  0  0  0  0  0  0  0
    6.0930   -0.9130  -54.1750 N   0  0  0  0  0  0  0  0  0  0  0  0
    6.4820    0.0420  -55.0290 N   0  0  0  0  0  0  0  0  0  0  0  0
    6.8670    1.6250  -56.8260 H   0  0  0  0  0  0  0  0  0  0  0  0
    7.9638    4.7240  -56.2652 H   0  0  0  0  0  0  0  0  0  0  0  0
    9.6278    4.0308  -56.1721 H   0  0  0  0  0  0  0  0  0  0  0  0
    9.6402    6.2179  -57.3622 H   0  0  0  0  0  0  0  0  0  0  0  0
   10.7898    5.4299  -59.4316 H   0  0  0  0  0  0  0  0  0  0  0  0
   11.2518    4.4209  -58.0130 H   0  0  0  0  0  0  0  0  0  0  0  0
   10.7662    3.0043  -60.0158 H   0  0  0  0  0  0  0  0  0  0  0  0
    9.1329    4.5450  -61.1014 H   0  0  0  0  0  0  0  0  0  0  0  0
    8.4234    2.9065  -60.8741 H   0  0  0  0  0  0  0  0  0  0  0  0
    6.8017    4.6851  -60.2205 H   0  0  0  0  0  0  0  0  0  0  0  0
    8.4818    6.4115  -59.5605 H   0  0  0  0  0  0  0  0  0  0  0  0
    7.3055    6.1083  -58.2326 H   0  0  0  0  0  0  0  0  0  0  0  0
    6.3281    3.8356  -57.9229 H   0  0  0  0  0  0  0  0  0  0  0  0
    6.8091    2.4941  -59.0366 H   0  0  0  0  0  0  0  0  0  0  0  0
    9.0919    1.5085  -58.9182 H   0  0  0  0  0  0  0  0  0  0  0  0
   10.2890    2.1438  -57.7275 H   0  0  0  0  0  0  0  0  0  0  0  0
    6.5972   -3.8406  -53.7151 H   0  0  0  0  0  0  0  0  0  0  0  0
    6.8074   -5.5504  -51.9163 H   0  0  0  0  0  0  0  0  0  0  0  0
    7.6908   -4.9054  -49.6763 H   0  0  0  0  0  0  0  0  0  0  0  0
    8.3775   -2.5475  -49.2386 H   0  0  0  0  0  0  0  0  0  0  0  0
    8.1738   -0.8347  -51.0360 H   0  0  0  0  0  0  0  0  0  0  0  0
    5.7900    0.5100  -55.6030 H   0  0  0  0  0  0  0  0  0  0  0  0
  1  2  2  0
  2  3  1  0
  4  3  1  1
  4  5  1  0
  5  6  1  0
  6  7  1  0
  7  8  1  0
  8  9  1  0
  9 10  1  0
 10 11  1  0
 10 12  1  0
  8 13  1  0
  2 14  1  0
 14 15  2  0
 15 16  1  0
 16 17  1  0
 17 18  2  0
 18 19  1  0
 19 20  2  0
 20 21  1  0
 21 22  2  0
 16 23  2  0
 23 24  1  0
 12  4  1  0
 24 14  1  0
 13  4  1  0
 22 17  1  0
 11  6  1  0
  3 25  1  0
  5 26  1  0
  5 27  1  0
  6 28  1  1
  7 29  1  0
  7 30  1  0
  8 31  1  6
  9 32  1  0
  9 33  1  0
 10 34  1  6
 11 35  1  0
 11 36  1  0
 12 37  1  0
 12 38  1  0
 13 39  1  0
 13 40  1  0
 18 41  1  0
 19 42  1  0
 20 43  1  0
 21 44  1  0
 22 45  1  0
 24 46  1  0
M  END
>  <meeko>  (23) 
{"is_sidechain": false}

$$$$

     RDKit          3D

 46 50  0  0  0  0  0  0  0  0999 V2000
    9.8580    1.4110  -55.6930 O   0  0  0  0  0  0  0  0  0  0  0  0
    8.6500    1.2370  -55.8190 C   0  0  0  0  0  0  0  0  0  0  0  0
    7.8650    1.9180  -56.7340 N   0  0  0  0  0  0  0  0  0  0  0  0
    8.3290    2.9320  -57.6770 C   0  0  2  0  0  0  0  0  0  0  0  0
    8.6600    4.2660  -56.9650 C   0  0  0  0  0  0  0  0  0  0  0  0
    9.0980    5.3310  -57.9860 C   0  0  1  0  0  0  0  0  0  0  0  0
   10.3390    4.8270  -58.7410 C   0  0  0  0  0  0  0  0  0  0  0  0
   10.0140    3.5190  -59.4820 C   0  0  2  0  0  0  0  0  0  0  0  0
    8.8690    3.7710  -60.4770 C   0  0  0  0  0  0  0  0  0  0  0  0
    7.6230    4.2670  -59.7270 C   0  0  2  0  0  0  0  0  0  0  0  0
    7.9580    5.5730  -58.9890 C   0  0  0  0  0  0  0  0  0  0  0  0
    7.1960    3.2040  -58.7020 C   0  0  0  0  0  0  0  0  0  0  0  0
    9.5760    2.4530  -58.4620 C   0  0  0  0  0  0  0  0  0  0  0  0
    7.8750    0.2710  -55.0060 C   0  0  0  0  0  0  0  0  0  0  0  0
    6.5530    0.0600  -55.1920 N   0  0  0  0  0  0  0  0  0  0  0  0
    6.2950   -0.8690  -54.2560 N   0  0  0  0  0  0  0  0  0  0  0  0
    7.4060   -1.2070  -53.5350 C   0  0  0  0  0  0  0  0  0  0  0  0
    7.4480   -2.1880  -52.4470 C   0  0  0  0  0  0  0  0  0  0  0  0
    7.1140   -3.5230  -52.7220 C   0  0  0  0  0  0  0  0  0  0  0  0
    7.1390   -4.4940  -51.7180 C   0  0  0  0  0  0  0  0  0  0  0  0
    7.5000   -4.1430  -50.4200 C   0  0  0  0  0  0  0  0  0  0  0  0
    7.8330   -2.8220  -50.1270 C   0  0  0  0  0  0  0  0  0  0  0  0
    7.8090   -1.8500  -51.1340 C   0  0  0  0  0  0  0  0  0  0  0  0
    8.4150   -0.4950  -53.9940 N   0  0  0  0  0  0  0  0  0  0  0  0
    6.8820    1.6600  -56.7140 H   0  0  0  0  0  0  0  0  0  0  0  0
    7.7664    4.6225  -56.4316 H   0  0  0  0  0  0  0  0  0  0  0  0
    9.4834    4.0947  -56.2560 H   0  0  0  0  0  0  0  0  0  0  0  0
    9.3362    6.2694  -57.4638 H   0  0  0  0  0  0  0  0  0  0  0  0
   10.6556    5.5883  -59.4692 H   0  0  0  0  0  0  0  0  0  0  0  0
   11.1473    4.6395  -58.0189 H   0  0  0  0  0  0  0  0  0  0  0  0
   10.9049    3.1686  -60.0238 H   0  0  0  0  0  0  0  0  0  0  0  0
    9.1816    4.5316  -61.2076 H   0  0  0  0  0  0  0  0  0  0  0  0
    8.6284    2.8320  -60.9971 H   0  0  0  0  0  0  0  0  0  0  0  0
    6.8071    4.4459  -60.4427 H   0  0  0  0  0  0  0  0  0  0  0  0
    8.2702    6.3344  -59.7189 H   0  0  0  0  0  0  0  0  0  0  0  0
    7.0666    5.9207  -58.4464 H   0  0  0  0  0  0  0  0  0  0  0  0
    6.3037    3.5594  -58.1658 H   0  0  0  0  0  0  0  0  0  0  0  0
    6.9768    2.2688  -59.2381 H   0  0  0  0  0  0  0  0  0  0  0  0
    9.3329    1.5214  -58.9940 H   0  0  0  0  0  0  0  0  0  0  0  0
   10.3985    2.2811  -57.7521 H   0  0  0  0  0  0  0  0  0  0  0  0
    5.3520   -1.2240  -54.1650 H   0  0  0  0  0  0  0  0  0  0  0  0
    6.8279   -3.8095  -53.7448 H   0  0  0  0  0  0  0  0  0  0  0  0
    6.8736   -5.5354  -51.9528 H   0  0  0  0  0  0  0  0  0  0  0  0
    7.5223   -4.9062  -49.6281 H   0  0  0  0  0  0  0  0  0  0  0  0
    8.1156   -2.5422  -49.1014 H   0  0  0  0  0  0  0  0  0  0  0  0
    8.0759   -0.8104  -50.8934 H   0  0  0  0  0  0  0  0  0  0  0  0
  1  2  2  0
  2  3  1  0
  4  3  1  1
  4  5  1  0
  5  6  1  0
  6  7  1  0
  7  8  1  0
  8  9  1  0
  9 10  1  0
 10 11  1  0
 10 12  1  0
  8 13  1  0
  2 14  1  0
 14 15  2  0
 15 16  1  0
 16 17  1  0
 17 18  1  0
 18 19  2  0
 19 20  1  0
 20 21  2  0
 21 22  1  0
 22 23  2  0
 17 24  2  0
 12  4  1  0
 24 14  1  0
 13  4  1  0
 23 18  1  0
 11  6  1  0
  3 25  1  0
  5 26  1  0
  5 27  1  0
  6 28  1  1
  7 29  1  0
  7 30  1  0
  8 31  1  6
  9 32  1  0
  9 33  1  0
 10 34  1  6
 11 35  1  0
 11 36  1  0
 12 37  1  0
 12 38  1  0
 13 39  1  0
 13 40  1  0
 16 41  1  0
 19 42  1  0
 20 43  1  0
 21 44  1  0
 22 45  1  0
 23 46  1  0
M  END
>  <meeko>  (24) 
{"is_sidechain": false}

$$$$

     RDKit          3D

 52 56  0  0  0  0  0  0  0  0999 V2000
    6.8930    1.5640  -56.0760 O   0  0  0  0  0  0  0  0  0  0  0  0
    8.0520    1.2030  -55.8950 C   0  0  0  0  0  0  0  0  0  0  0  0
    9.1420    1.7420  -56.5400 N   0  0  0  0  0  0  0  0  0  0  0  0
    9.1100    2.8150  -57.5320 C   0  0  2  0  0  0  0  0  0  0  0  0
    8.0470    2.5490  -58.6270 C   0  0  0  0  0  0  0  0  0  0  0  0
    8.0680    3.6670  -59.6840 C   0  0  1  0  0  0  0  0  0  0  0  0
    7.7810    5.0160  -59.0010 C   0  0  0  0  0  0  0  0  0  0  0  0
    8.8530    5.3080  -57.9360 C   0  0  2  0  0  0  0  0  0  0  0  0
   10.2350    5.3480  -58.6060 C   0  0  0  0  0  0  0  0  0  0  0  0
   10.5300    4.0010  -59.2820 C   0  0  2  0  0  0  0  0  0  0  0  0
    9.4550    3.7170  -60.3430 C   0  0  0  0  0  0  0  0  0  0  0  0
   10.4990    2.8870  -58.2230 C   0  0  0  0  0  0  0  0  0  0  0  0
    8.8320    4.1910  -56.8780 C   0  0  0  0  0  0  0  0  0  0  0  0
    8.3940    0.1540  -54.9640 C   0  0  0  0  0  0  0  0  0  0  0  0
    9.5050   -0.5560  -54.9830 N   0  0  0  0  0  0  0  0  0  0  0  0
    9.4500   -1.4480  -53.9370 N   0  0  0  0  0  0  0  0  0  0  0  0
    8.3100   -1.2660  -53.3020 C   0  0  0  0  0  0  0  0  0  0  0  0
    7.8010   -1.9990  -52.1030 C   0  0  0  0  0  0  0  0  0  0  0  0
    6.7230   -3.0170  -52.5060 C   0  0  0  0  0  0  0  0  0  0  0  0
    6.2250   -3.8140  -51.3010 C   0  0  0  0  0  0  0  0  0  0  0  0
    7.3740   -4.4900  -50.5600 C   0  0  0  0  0  0  0  0  0  0  0  0
    8.4510   -3.4870  -50.1580 C   0  0  0  0  0  0  0  0  0  0  0  0
    8.9550   -2.6880  -51.3590 C   0  0  0  0  0  0  0  0  0  0  0  0
    7.6160   -0.2630  -53.9210 N   0  0  0  0  0  0  0  0  0  0  0  0
   10.0390    1.3370  -56.2820 H   0  0  0  0  0  0  0  0  0  0  0  0
    8.2626    1.5866  -59.1142 H   0  0  0  0  0  0  0  0  0  0  0  0
    7.0526    2.5230  -58.1575 H   0  0  0  0  0  0  0  0  0  0  0  0
    7.3025    3.4682  -60.4486 H   0  0  0  0  0  0  0  0  0  0  0  0
    7.7911    5.8157  -59.7563 H   0  0  0  0  0  0  0  0  0  0  0  0
    6.7945    4.9716  -58.5163 H   0  0  0  0  0  0  0  0  0  0  0  0
    8.6469    6.2763  -57.4566 H   0  0  0  0  0  0  0  0  0  0  0  0
   10.2501    6.1463  -59.3626 H   0  0  0  0  0  0  0  0  0  0  0  0
   11.0014    5.5440  -57.8416 H   0  0  0  0  0  0  0  0  0  0  0  0
   11.5207    4.0361  -59.7587 H   0  0  0  0  0  0  0  0  0  0  0  0
    9.4703    4.5150  -61.1000 H   0  0  0  0  0  0  0  0  0  0  0  0
    9.6642    2.7477  -60.8191 H   0  0  0  0  0  0  0  0  0  0  0  0
   10.7096    1.9228  -58.7088 H   0  0  0  0  0  0  0  0  0  0  0  0
   11.2594    3.1078  -57.4595 H   0  0  0  0  0  0  0  0  0  0  0  0
    9.6047    4.3946  -56.1220 H   0  0  0  0  0  0  0  0  0  0  0  0
    7.8375    4.1660  -56.4086 H   0  0  0  0  0  0  0  0  0  0  0  0
    7.3419   -1.2688  -51.4204 H   0  0  0  0  0  0  0  0  0  0  0  0
    5.8743   -2.4798  -52.9544 H   0  0  0  0  0  0  0  0  0  0  0  0
    7.1660   -3.7212  -53.2256 H   0  0  0  0  0  0  0  0  0  0  0  0
    5.7079   -3.1313  -50.6107 H   0  0  0  0  0  0  0  0  0  0  0  0
    5.5430   -4.5966  -51.6647 H   0  0  0  0  0  0  0  0  0  0  0  0
    6.9794   -4.9724  -49.6536 H   0  0  0  0  0  0  0  0  0  0  0  0
    7.8287   -5.2313  -51.2336 H   0  0  0  0  0  0  0  0  0  0  0  0
    8.0311   -2.7906  -49.4173 H   0  0  0  0  0  0  0  0  0  0  0  0
    9.2999   -4.0455  -49.7367 H   0  0  0  0  0  0  0  0  0  0  0  0
    9.6612   -1.9216  -51.0072 H   0  0  0  0  0  0  0  0  0  0  0  0
    9.4462   -3.3844  -52.0545 H   0  0  0  0  0  0  0  0  0  0  0  0
    6.7110    0.1120  -53.6780 H   0  0  0  0  0  0  0  0  0  0  0  0
  1  2  2  0
  2  3  1  0
  4  3  1  1
  4  5  1  0
  5  6  1  0
  6  7  1  0
  7  8  1  0
  8  9  1  0
  9 10  1  0
 10 11  1  0
 10 12  1  0
  8 13  1  0
  2 14  1  0
 14 15  2  0
 15 16  1  0
 16 17  2  0
 17 18  1  0
 18 19  1  0
 19 20  1  0
 20 21  1  0
 21 22  1  0
 22 23  1  0
 17 24  1  0
 12  4  1  0
 24 14  1  0
 13  4  1  0
 23 18  1  0
 11  6  1  0
  3 25  1  0
  5 26  1  0
  5 27  1  0
  6 28  1  6
  7 29  1  0
  7 30  1  0
  8 31  1  1
  9 32  1  0
  9 33  1  0
 10 34  1  6
 11 35  1  0
 11 36  1  0
 12 37  1  0
 12 38  1  0
 13 39  1  0
 13 40  1  0
 18 41  1  0
 19 42  1  0
 19 43  1  0
 20 44  1  0
 20 45  1  0
 21 46  1  0
 21 47  1  0
 22 48  1  0
 22 49  1  0
 23 50  1  0
 23 51  1  0
 24 52  1  0
M  END
>  <meeko>  (25) 
{"is_sidechain": false}

$$$$

     RDKit          3D

 52 56  0  0  0  0  0  0  0  0999 V2000
    6.2450    2.2670  -56.5150 O   0  0  0  0  0  0  0  0  0  0  0  0
    7.2510    1.6100  -56.2720 C   0  0  0  0  0  0  0  0  0  0  0  0
    8.4900    1.9060  -56.8300 N   0  0  0  0  0  0  0  0  0  0  0  0
    8.7130    2.9820  -57.8080 C   0  0  2  0  0  0  0  0  0  0  0  0
   10.1660    2.8490  -58.3430 C   0  0  0  0  0  0  0  0  0  0  0  0
   10.4740    3.9400  -59.3820 C   0  0  1  0  0  0  0  0  0  0  0  0
    9.4900    3.8110  -60.5550 C   0  0  0  0  0  0  0  0  0  0  0  0
    8.0470    3.9680  -60.0490 C   0  0  2  0  0  0  0  0  0  0  0  0
    7.8910    5.3480  -59.3860 C   0  0  0  0  0  0  0  0  0  0  0  0
    8.8730    5.4850  -58.2100 C   0  0  2  0  0  0  0  0  0  0  0  0
   10.3100    5.3190  -58.7280 C   0  0  0  0  0  0  0  0  0  0  0  0
    8.5760    4.3890  -57.1720 C   0  0  0  0  0  0  0  0  0  0  0  0
    7.7480    2.8690  -59.0140 C   0  0  0  0  0  0  0  0  0  0  0  0
    7.2610    0.4550  -55.3970 C   0  0  0  0  0  0  0  0  0  0  0  0
    8.3350   -0.1740  -54.9620 N   0  0  0  0  0  0  0  0  0  0  0  0
    7.8300   -1.1840  -54.1850 C   0  0  0  0  0  0  0  0  0  0  0  0
    8.7030   -2.1650  -53.4660 C   0  0  0  0  0  0  0  0  0  0  0  0
   10.1120   -1.5790  -53.2380 C   0  0  0  0  0  0  0  0  0  0  0  0
   11.1480   -2.6740  -53.0280 C   0  0  0  0  0  0  0  0  0  0  0  0
   11.2690   -3.5840  -54.2520 C   0  0  0  0  0  0  0  0  0  0  0  0
    9.9730   -3.7000  -55.0570 C   0  0  0  0  0  0  0  0  0  0  0  0
    8.7380   -3.5340  -54.1770 C   0  0  0  0  0  0  0  0  0  0  0  0
    6.4920   -1.2170  -54.1150 N   0  0  0  0  0  0  0  0  0  0  0  0
    6.1610   -0.1920  -54.9150 N   0  0  0  0  0  0  0  0  0  0  0  0
    9.1360    1.1300  -56.8900 H   0  0  0  0  0  0  0  0  0  0  0  0
   10.8688    2.9446  -57.5022 H   0  0  0  0  0  0  0  0  0  0  0  0
   10.2727    1.8662  -58.8254 H   0  0  0  0  0  0  0  0  0  0  0  0
   11.5044    3.8259  -59.7499 H   0  0  0  0  0  0  0  0  0  0  0  0
    9.7032    4.5942  -61.2974 H   0  0  0  0  0  0  0  0  0  0  0  0
    9.6054    2.8191  -61.0163 H   0  0  0  0  0  0  0  0  0  0  0  0
    7.3464    3.8803  -60.8925 H   0  0  0  0  0  0  0  0  0  0  0  0
    8.0999    6.1333  -60.1274 H   0  0  0  0  0  0  0  0  0  0  0  0
    6.8626    5.4517  -59.0095 H   0  0  0  0  0  0  0  0  0  0  0  0
    8.7600    6.4755  -57.7450 H   0  0  0  0  0  0  0  0  0  0  0  0
   10.5228    6.1023  -59.4704 H   0  0  0  0  0  0  0  0  0  0  0  0
   11.0110    5.4054  -57.8847 H   0  0  0  0  0  0  0  0  0  0  0  0
    9.2873    4.4792  -56.3378 H   0  0  0  0  0  0  0  0  0  0  0  0
    7.5452    4.5148  -56.8092 H   0  0  0  0  0  0  0  0  0  0  0  0
    6.7122    2.9774  -58.6600 H   0  0  0  0  0  0  0  0  0  0  0  0
    7.8859    1.8864  -59.4888 H   0  0  0  0  0  0  0  0  0  0  0  0
    8.2624   -2.3496  -52.4752 H   0  0  0  0  0  0  0  0  0  0  0  0
   10.3968   -0.9822  -54.1171 H   0  0  0  0  0  0  0  0  0  0  0  0
   10.0825   -0.9556  -52.3322 H   0  0  0  0  0  0  0  0  0  0  0  0
   12.1249   -2.2073  -52.8333 H   0  0  0  0  0  0  0  0  0  0  0  0
   10.8268   -3.2895  -52.1748 H   0  0  0  0  0  0  0  0  0  0  0  0
   12.0526   -3.1801  -54.9100 H   0  0  0  0  0  0  0  0  0  0  0  0
   11.5121   -4.5915  -53.8833 H   0  0  0  0  0  0  0  0  0  0  0  0
    9.9648   -2.9191  -55.8317 H   0  0  0  0  0  0  0  0  0  0  0  0
    9.9393   -4.7042  -55.5046 H   0  0  0  0  0  0  0  0  0  0  0  0
    7.8406   -3.6286  -54.8060 H   0  0  0  0  0  0  0  0  0  0  0  0
    8.7706   -4.3140  -53.4021 H   0  0  0  0  0  0  0  0  0  0  0  0
    5.1830   -0.0010  -55.1010 H   0  0  0  0  0  0  0  0  0  0  0  0
  1  2  2  0
  2  3  1  0
  4  3  1  1
  4  5  1  0
  5  6  1  0
  6  7  1  0
  7  8  1  0
  8  9  1  0
  9 10  1  0
 10 11  1  0
 10 12  1  0
  8 13  1  0
  2 14  1  0
 14 15  2  0
 15 16  1  0
 16 17  1  0
 17 18  1  0
 18 19  1  0
 19 20  1  0
 20 21  1  0
 21 22  1  0
 16 23  2  0
 23 24  1  0
 12  4  1  0
 24 14  1  0
 13  4  1  0
 22 17  1  0
 11  6  1  0
  3 25  1  0
  5 26  1  0
  5 27  1  0
  6 28  1  6
  7 29  1  0
  7 30  1  0
  8 31  1  6
  9 32  1  0
  9 33  1  0
 10 34  1  1
 11 35  1  0
 11 36  1  0
 12 37  1  0
 12 38  1  0
 13 39  1  0
 13 40  1  0
 17 41  1  0
 18 42  1  0
 18 43  1  0
 19 44  1  0
 19 45  1  0
 20 46  1  0
 20 47  1  0
 21 48  1  0
 21 49  1  0
 22 50  1  0
 22 51  1  0
 24 52  1  0
M  END
>  <meeko>  (26) 
{"is_sidechain": false}

$$$$

     RDKit          3D

 52 56  0  0  0  0  0  0  0  0999 V2000
    6.0310    2.2610  -56.4800 O   0  0  0  0  0  0  0  0  0  0  0  0
    7.0570    1.6260  -56.2550 C   0  0  0  0  0  0  0  0  0  0  0  0
    8.2870    1.9290  -56.8120 N   0  0  0  0  0  0  0  0  0  0  0  0
    8.5660    3.0250  -57.7350 C   0  0  2  0  0  0  0  0  0  0  0  0
    8.5940    4.3920  -57.0080 C   0  0  0  0  0  0  0  0  0  0  0  0
    8.9400    5.5220  -57.9930 C   0  0  1  0  0  0  0  0  0  0  0  0
   10.3240    5.2580  -58.6050 C   0  0  0  0  0  0  0  0  0  0  0  0
   10.3190    3.9160  -59.3530 C   0  0  2  0  0  0  0  0  0  0  0  0
    9.2640    3.9580  -60.4700 C   0  0  0  0  0  0  0  0  0  0  0  0
    7.8730    4.2150  -59.8670 C   0  0  2  0  0  0  0  0  0  0  0  0
    7.8860    5.5560  -59.1140 C   0  0  0  0  0  0  0  0  0  0  0  0
    7.5280    3.0830  -58.8840 C   0  0  0  0  0  0  0  0  0  0  0  0
    9.9630    2.7910  -58.3670 C   0  0  0  0  0  0  0  0  0  0  0  0
    7.1090    0.4490  -55.3560 C   0  0  0  0  0  0  0  0  0  0  0  0
    5.9970   -0.1070  -54.8220 N   0  0  0  0  0  0  0  0  0  0  0  0
    6.5120   -1.1130  -54.1000 N   0  0  0  0  0  0  0  0  0  0  0  0
    7.8740   -1.1610  -54.1930 C   0  0  0  0  0  0  0  0  0  0  0  0
    8.7330   -2.1710  -53.4980 C   0  0  0  0  0  0  0  0  0  0  0  0
    8.7480   -3.5280  -54.2300 C   0  0  0  0  0  0  0  0  0  0  0  0
   10.0230   -3.7420  -55.0400 C   0  0  0  0  0  0  0  0  0  0  0  0
   11.2770   -3.6750  -54.1650 C   0  0  0  0  0  0  0  0  0  0  0  0
   11.1420   -2.7320  -52.9690 C   0  0  0  0  0  0  0  0  0  0  0  0
   10.1440   -1.6120  -53.2390 C   0  0  0  0  0  0  0  0  0  0  0  0
    8.2750   -0.1870  -54.9790 N   0  0  0  0  0  0  0  0  0  0  0  0
    9.0380    1.3060  -56.5250 H   0  0  0  0  0  0  0  0  0  0  0  0
    7.6055    4.5871  -56.5667 H   0  0  0  0  0  0  0  0  0  0  0  0
    9.3621    4.3597  -56.2213 H   0  0  0  0  0  0  0  0  0  0  0  0
    8.9496    6.4857  -57.4628 H   0  0  0  0  0  0  0  0  0  0  0  0
   10.5717    6.0665  -59.3085 H   0  0  0  0  0  0  0  0  0  0  0  0
   11.0739    5.2211  -57.8010 H   0  0  0  0  0  0  0  0  0  0  0  0
   11.3121    3.7323  -59.7888 H   0  0  0  0  0  0  0  0  0  0  0  0
    9.5109    4.7658  -61.1747 H   0  0  0  0  0  0  0  0  0  0  0  0
    9.2571    2.9930  -60.9980 H   0  0  0  0  0  0  0  0  0  0  0  0
    7.1220    4.2488  -60.6700 H   0  0  0  0  0  0  0  0  0  0  0  0
    8.1288    6.3661  -59.8174 H   0  0  0  0  0  0  0  0  0  0  0  0
    6.8943    5.7302  -58.6710 H   0  0  0  0  0  0  0  0  0  0  0  0
    6.5291    3.2637  -58.4603 H   0  0  0  0  0  0  0  0  0  0  0  0
    7.5435    2.1255  -59.4253 H   0  0  0  0  0  0  0  0  0  0  0  0
    9.9584    1.8308  -58.9037 H   0  0  0  0  0  0  0  0  0  0  0  0
   10.7134    2.7803  -57.5628 H   0  0  0  0  0  0  0  0  0  0  0  0
    5.8910   -1.7190  -53.5770 H   0  0  0  0  0  0  0  0  0  0  0  0
    8.2834   -2.3722  -52.5145 H   0  0  0  0  0  0  0  0  0  0  0  0
    8.6652   -4.3320  -53.4839 H   0  0  0  0  0  0  0  0  0  0  0  0
    7.9011   -3.5380  -54.9318 H   0  0  0  0  0  0  0  0  0  0  0  0
    9.9772   -4.7309  -55.5196 H   0  0  0  0  0  0  0  0  0  0  0  0
   10.0883   -2.9389  -55.7888 H   0  0  0  0  0  0  0  0  0  0  0  0
   11.4918   -4.6858  -53.7878 H   0  0  0  0  0  0  0  0  0  0  0  0
   12.0881   -3.2811  -54.7951 H   0  0  0  0  0  0  0  0  0  0  0  0
   10.8012   -3.3097  -52.0972 H   0  0  0  0  0  0  0  0  0  0  0  0
   12.1251   -2.2753  -52.7819 H   0  0  0  0  0  0  0  0  0  0  0  0
   10.1101   -0.9439  -52.3658 H   0  0  0  0  0  0  0  0  0  0  0  0
   10.4706   -1.0643  -54.1353 H   0  0  0  0  0  0  0  0  0  0  0  0
  1  2  2  0
  2  3  1  0
  4  3  1  1
  4  5  1  0
  5  6  1  0
  6  7  1  0
  7  8  1  0
  8  9  1  0
  9 10  1  0
 10 11  1  0
 10 12  1  0
  8 13  1  0
  2 14  1  0
 14 15  2  0
 15 16  1  0
 16 17  1  0
 17 18  1  0
 18 19  1  0
 19 20  1  0
 20 21  1  0
 21 22  1  0
 22 23  1  0
 17 24  2  0
 12  4  1  0
 24 14  1  0
 13  4  1  0
 23 18  1  0
 11  6  1  0
  3 25  1  0
  5 26  1  0
  5 27  1  0
  6 28  1  1
  7 29  1  0
  7 30  1  0
  8 31  1  6
  9 32  1  0
  9 33  1  0
 10 34  1  6
 11 35  1  0
 11 36  1  0
 12 37  1  0
 12 38  1  0
 13 39  1  0
 13 40  1  0
 16 41  1  0
 18 42  1  0
 19 43  1  0
 19 44  1  0
 20 45  1  0
 20 46  1  0
 21 47  1  0
 21 48  1  0
 22 49  1  0
 22 50  1  0
 23 51  1  0
 23 52  1  0
M  END
>  <meeko>  (27) 
{"is_sidechain": false}

$$$$

     RDKit          3D

 45 49  0  0  0  0  0  0  0  0999 V2000
    9.6230    1.1800  -55.7370 O   0  0  0  0  0  0  0  0  0  0  0  0
    8.3960    1.1610  -55.7840 C   0  0  0  0  0  0  0  0  0  0  0  0
    7.6750    1.9870  -56.6370 N   0  0  0  0  0  0  0  0  0  0  0  0
    8.2530    2.9600  -57.5670 C   0  0  2  0  0  0  0  0  0  0  0  0
    8.7640    4.2240  -56.8310 C   0  0  0  0  0  0  0  0  0  0  0  0
    9.3160    5.2500  -57.8380 C   0  0  1  0  0  0  0  0  0  0  0  0
   10.4670    4.6120  -58.6320 C   0  0  0  0  0  0  0  0  0  0  0  0
    9.9620    3.3760  -59.3980 C   0  0  2  0  0  0  0  0  0  0  0  0
    8.8400    3.8000  -60.3590 C   0  0  0  0  0  0  0  0  0  0  0  0
    7.6830    4.4310  -59.5690 C   0  0  2  0  0  0  0  0  0  0  0  0
    8.1990    5.6630  -58.8080 C   0  0  0  0  0  0  0  0  0  0  0  0
    7.1440    3.4050  -58.5600 C   0  0  0  0  0  0  0  0  0  0  0  0
    9.4110    2.3490  -58.3940 C   0  0  0  0  0  0  0  0  0  0  0  0
    7.5680    0.2880  -54.9690 C   0  0  0  0  0  0  0  0  0  0  0  0
    6.2550    0.1860  -54.9930 N   0  0  0  0  0  0  0  0  0  0  0  0
    5.9210   -0.7650  -54.0490 N   0  0  0  0  0  0  0  0  0  0  0  0
    7.0500   -1.1790  -53.5120 C   0  0  0  0  0  0  0  0  0  0  0  0
    7.2810   -2.1710  -52.4680 C   0  0  0  0  0  0  0  0  0  0  0  0
    6.9480   -3.5130  -52.7030 C   0  0  0  0  0  0  0  0  0  0  0  0
    7.1570   -4.4870  -51.7230 C   0  0  0  0  0  0  0  0  0  0  0  0
    7.7060   -4.1290  -50.4940 C   0  0  0  0  0  0  0  0  0  0  0  0
    8.0440   -2.8010  -50.2430 C   0  0  0  0  0  0  0  0  0  0  0  0
    7.8330   -1.8270  -51.2240 C   0  0  0  0  0  0  0  0  0  0  0  0
    8.1480   -0.5540  -54.0470 O   0  0  0  0  0  0  0  0  0  0  0  0
    6.6660    1.8990  -56.6050 H   0  0  0  0  0  0  0  0  0  0  0  0
    7.9327    4.6776  -56.2713 H   0  0  0  0  0  0  0  0  0  0  0  0
    9.5709    3.9323  -56.1427 H   0  0  0  0  0  0  0  0  0  0  0  0
    9.6832    6.1359  -57.2991 H   0  0  0  0  0  0  0  0  0  0  0  0
   10.8652    5.3459  -59.3482 H   0  0  0  0  0  0  0  0  0  0  0  0
   11.2579    4.3030  -57.9328 H   0  0  0  0  0  0  0  0  0  0  0  0
   10.7889    2.9287  -59.9691 H   0  0  0  0  0  0  0  0  0  0  0  0
    9.2336    4.5340  -61.0775 H   0  0  0  0  0  0  0  0  0  0  0  0
    8.4701    2.9141  -60.8960 H   0  0  0  0  0  0  0  0  0  0  0  0
    6.8823    4.7315  -60.2608 H   0  0  0  0  0  0  0  0  0  0  0  0
    8.5931    6.3966  -59.5266 H   0  0  0  0  0  0  0  0  0  0  0  0
    7.3709    6.1085  -58.2372 H   0  0  0  0  0  0  0  0  0  0  0  0
    6.3164    3.8581  -57.9945 H   0  0  0  0  0  0  0  0  0  0  0  0
    6.7959    2.5206  -59.1137 H   0  0  0  0  0  0  0  0  0  0  0  0
    9.0391    1.4711  -58.9426 H   0  0  0  0  0  0  0  0  0  0  0  0
   10.2194    2.0556  -57.7081 H   0  0  0  0  0  0  0  0  0  0  0  0
    6.5163   -3.8029  -53.6723 H   0  0  0  0  0  0  0  0  0  0  0  0
    6.8883   -5.5350  -51.9219 H   0  0  0  0  0  0  0  0  0  0  0  0
    7.8726   -4.8945  -49.7219 H   0  0  0  0  0  0  0  0  0  0  0  0
    8.4773   -2.5183  -49.2722 H   0  0  0  0  0  0  0  0  0  0  0  0
    8.1024   -0.7804  -51.0187 H   0  0  0  0  0  0  0  0  0  0  0  0
  1  2  2  0
  2  3  1  0
  4  3  1  1
  4  5  1  0
  5  6  1  0
  6  7  1  0
  7  8  1  0
  8  9  1  0
  9 10  1  0
 10 11  1  0
 10 12  1  0
  8 13  1  0
  2 14  1  0
 14 15  2  0
 15 16  1  0
 16 17  2  0
 17 18  1  0
 18 19  2  0
 19 20  1  0
 20 21  2  0
 21 22  1  0
 22 23  2  0
 17 24  1  0
 12  4  1  0
 24 14  1  0
 13  4  1  0
 23 18  1  0
 11  6  1  0
  3 25  1  0
  5 26  1  0
  5 27  1  0
  6 28  1  1
  7 29  1  0
  7 30  1  0
  8 31  1  6
  9 32  1  0
  9 33  1  0
 10 34  1  6
 11 35  1  0
 11 36  1  0
 12 37  1  0
 12 38  1  0
 13 39  1  0
 13 40  1  0
 19 41  1  0
 20 42  1  0
 21 43  1  0
 22 44  1  0
 23 45  1  0
M  END
>  <meeko>  (28) 
{"is_sidechain": false}

$$$$

     RDKit          3D

 46 50  0  0  0  0  0  0  0  0999 V2000
    9.9330    1.5460  -55.7420 O   0  0  0  0  0  0  0  0  0  0  0  0
    8.7360    1.3080  -55.8540 C   0  0  0  0  0  0  0  0  0  0  0  0
    7.9290    1.9270  -56.7950 N   0  0  0  0  0  0  0  0  0  0  0  0
    8.3830    2.9610  -57.7320 C   0  0  2  0  0  0  0  0  0  0  0  0
    9.6240    2.5040  -58.5420 C   0  0  0  0  0  0  0  0  0  0  0  0
   10.0410    3.5880  -59.5520 C   0  0  1  0  0  0  0  0  0  0  0  0
    8.8830    3.8470  -60.5290 C   0  0  0  0  0  0  0  0  0  0  0  0
    7.6420    4.3200  -59.7560 C   0  0  2  0  0  0  0  0  0  0  0  0
    7.9750    5.6170  -59.0030 C   0  0  0  0  0  0  0  0  0  0  0  0
    9.1270    5.3710  -58.0180 C   0  0  2  0  0  0  0  0  0  0  0  0
   10.3640    4.8880  -58.7940 C   0  0  0  0  0  0  0  0  0  0  0  0
    8.7090    4.2890  -57.0060 C   0  0  0  0  0  0  0  0  0  0  0  0
    7.2360    3.2380  -58.7420 C   0  0  0  0  0  0  0  0  0  0  0  0
    8.0510    0.3490  -54.9870 C   0  0  0  0  0  0  0  0  0  0  0  0
    8.5740   -0.5200  -54.0470 C   0  0  0  0  0  0  0  0  0  0  0  0
    7.4870   -1.1800  -53.5160 N   0  0  0  0  0  0  0  0  0  0  0  0
    7.4540   -2.1790  -52.5100 C   0  0  0  0  0  0  0  0  0  0  0  0
    7.8010   -1.8420  -51.1920 C   0  0  0  0  0  0  0  0  0  0  0  0
    7.7730   -2.8140  -50.1880 C   0  0  0  0  0  0  0  0  0  0  0  0
    7.4020   -4.1220  -50.4910 C   0  0  0  0  0  0  0  0  0  0  0  0
    7.0570   -4.4630  -51.7970 C   0  0  0  0  0  0  0  0  0  0  0  0
    7.0810   -3.4970  -52.8090 C   0  0  0  0  0  0  0  0  0  0  0  0
    6.3580   -0.7330  -54.1140 N   0  0  0  0  0  0  0  0  0  0  0  0
    6.6880    0.1970  -54.9990 N   0  0  0  0  0  0  0  0  0  0  0  0
    6.9340    1.7750  -56.7320 H   0  0  0  0  0  0  0  0  0  0  0  0
   10.4578    2.3148  -57.8499 H   0  0  0  0  0  0  0  0  0  0  0  0
    9.3701    1.5858  -59.0919 H   0  0  0  0  0  0  0  0  0  0  0  0
   10.9272    3.2519  -60.1103 H   0  0  0  0  0  0  0  0  0  0  0  0
    9.1808    4.6223  -61.2502 H   0  0  0  0  0  0  0  0  0  0  0  0
    8.6439    2.9151  -61.0622 H   0  0  0  0  0  0  0  0  0  0  0  0
    6.8156    4.5019  -60.4589 H   0  0  0  0  0  0  0  0  0  0  0  0
    8.2723    6.3915  -59.7253 H   0  0  0  0  0  0  0  0  0  0  0  0
    7.0871    5.9488  -58.4448 H   0  0  0  0  0  0  0  0  0  0  0  0
    9.3639    6.3041  -57.4859 H   0  0  0  0  0  0  0  0  0  0  0  0
   10.6669    5.6627  -59.5138 H   0  0  0  0  0  0  0  0  0  0  0  0
   11.1814    4.6958  -58.0834 H   0  0  0  0  0  0  0  0  0  0  0  0
    9.5323    4.1204  -56.2963 H   0  0  0  0  0  0  0  0  0  0  0  0
    7.8103    4.6311  -56.4718 H   0  0  0  0  0  0  0  0  0  0  0  0
    6.3463    3.5772  -58.1913 H   0  0  0  0  0  0  0  0  0  0  0  0
    7.0201    2.3088  -59.2896 H   0  0  0  0  0  0  0  0  0  0  0  0
    9.6324   -0.6556  -53.7799 H   0  0  0  0  0  0  0  0  0  0  0  0
    8.0956   -0.8105  -50.9489 H   0  0  0  0  0  0  0  0  0  0  0  0
    8.0445   -2.5455  -49.1564 H   0  0  0  0  0  0  0  0  0  0  0  0
    7.3814   -4.8854  -49.6993 H   0  0  0  0  0  0  0  0  0  0  0  0
    6.7643   -5.4966  -52.0337 H   0  0  0  0  0  0  0  0  0  0  0  0
    6.8074   -3.7715  -53.8385 H   0  0  0  0  0  0  0  0  0  0  0  0
  1  2  2  0
  2  3  1  0
  4  3  1  1
  4  5  1  0
  5  6  1  0
  6  7  1  0
  7  8  1  0
  8  9  1  0
  9 10  1  0
 10 11  1  0
 10 12  1  0
  8 13  1  0
  2 14  1  0
 14 15  2  0
 15 16  1  0
 16 17  1  0
 17 18  2  0
 18 19  1  0
 19 20  2  0
 20 21  1  0
 21 22  2  0
 16 23  1  0
 23 24  2  0
 12  4  1  0
 24 14  1  0
 13  4  1  0
 22 17  1  0
 11  6  1  0
  3 25  1  0
  5 26  1  0
  5 27  1  0
  6 28  1  6
  7 29  1  0
  7 30  1  0
  8 31  1  6
  9 32  1  0
  9 33  1  0
 10 34  1  1
 11 35  1  0
 11 36  1  0
 12 37  1  0
 12 38  1  0
 13 39  1  0
 13 40  1  0
 15 41  1  0
 18 42  1  0
 19 43  1  0
 20 44  1  0
 21 45  1  0
 22 46  1  0
M  END
>  <meeko>  (29) 
{"is_sidechain": false}

$$$$

     RDKit          3D

 45 49  0  0  0  0  0  0  0  0999 V2000
    9.7950    1.1540  -55.7960 O   0  0  0  0  0  0  0  0  0  0  0  0
    8.5700    1.1080  -55.8160 C   0  0  0  0  0  0  0  0  0  0  0  0
    7.7820    1.8890  -56.6440 N   0  0  0  0  0  0  0  0  0  0  0  0
    8.2690    2.8750  -57.6090 C   0  0  2  0  0  0  0  0  0  0  0  0
    8.7520    4.1700  -56.9090 C   0  0  0  0  0  0  0  0  0  0  0  0
    9.2120    5.2070  -57.9490 C   0  0  1  0  0  0  0  0  0  0  0  0
   10.3570    4.6130  -58.7850 C   0  0  0  0  0  0  0  0  0  0  0  0
    9.8790    3.3460  -59.5140 C   0  0  2  0  0  0  0  0  0  0  0  0
    8.6990    3.7030  -60.4310 C   0  0  0  0  0  0  0  0  0  0  0  0
    7.5470    4.2900  -59.5990 C   0  0  2  0  0  0  0  0  0  0  0  0
    8.0350    5.5540  -58.8750 C   0  0  0  0  0  0  0  0  0  0  0  0
    7.0990    3.2530  -58.5570 C   0  0  0  0  0  0  0  0  0  0  0  0
    9.4200    2.3070  -58.4750 C   0  0  0  0  0  0  0  0  0  0  0  0
    7.7880    0.2100  -54.9550 C   0  0  0  0  0  0  0  0  0  0  0  0
    6.4270    0.0820  -55.0310 N   0  0  0  0  0  0  0  0  0  0  0  0
    6.0770   -0.8050  -54.1120 N   0  0  0  0  0  0  0  0  0  0  0  0
    7.2290   -1.1870  -53.5120 N   0  0  0  0  0  0  0  0  0  0  0  0
    7.2730   -2.1360  -52.4630 C   0  0  0  0  0  0  0  0  0  0  0  0
    7.8150   -1.7840  -51.2180 C   0  0  0  0  0  0  0  0  0  0  0  0
    7.8570   -2.7250  -50.1860 C   0  0  0  0  0  0  0  0  0  0  0  0
    7.3590   -4.0110  -50.3920 C   0  0  0  0  0  0  0  0  0  0  0  0
    6.8180   -4.3640  -51.6280 C   0  0  0  0  0  0  0  0  0  0  0  0
    6.7740   -3.4310  -52.6660 C   0  0  0  0  0  0  0  0  0  0  0  0
    8.3390   -0.5770  -54.0050 N   0  0  0  0  0  0  0  0  0  0  0  0
    6.7810    1.7410  -56.5500 H   0  0  0  0  0  0  0  0  0  0  0  0
    7.9254    4.5920  -56.3186 H   0  0  0  0  0  0  0  0  0  0  0  0
    9.6003    3.9241  -56.2533 H   0  0  0  0  0  0  0  0  0  0  0  0
    9.5601    6.1160  -57.4366 H   0  0  0  0  0  0  0  0  0  0  0  0
   10.6892    5.3552  -59.5258 H   0  0  0  0  0  0  0  0  0  0  0  0
   11.1908    4.3505  -58.1173 H   0  0  0  0  0  0  0  0  0  0  0  0
   10.7014    2.9309  -60.1151 H   0  0  0  0  0  0  0  0  0  0  0  0
    9.0265    4.4447  -61.1744 H   0  0  0  0  0  0  0  0  0  0  0  0
    8.3495    2.7934  -60.9413 H   0  0  0  0  0  0  0  0  0  0  0  0
    6.7048    4.5439  -60.2595 H   0  0  0  0  0  0  0  0  0  0  0  0
    8.3623    6.2961  -59.6180 H   0  0  0  0  0  0  0  0  0  0  0  0
    7.2116    5.9669  -58.2738 H   0  0  0  0  0  0  0  0  0  0  0  0
    6.2754    3.6740  -57.9617 H   0  0  0  0  0  0  0  0  0  0  0  0
    6.7688    2.3461  -59.0848 H   0  0  0  0  0  0  0  0  0  0  0  0
    9.0686    1.4047  -58.9968 H   0  0  0  0  0  0  0  0  0  0  0  0
   10.2689    2.0611  -57.8200 H   0  0  0  0  0  0  0  0  0  0  0  0
    8.2062   -0.7690  -51.0545 H   0  0  0  0  0  0  0  0  0  0  0  0
    8.2835   -2.4510  -49.2098 H   0  0  0  0  0  0  0  0  0  0  0  0
    7.3929   -4.7493  -49.5772 H   0  0  0  0  0  0  0  0  0  0  0  0
    6.4252   -5.3793  -51.7855 H   0  0  0  0  0  0  0  0  0  0  0  0
    6.3488   -3.7111  -53.6411 H   0  0  0  0  0  0  0  0  0  0  0  0
  1  2  2  0
  2  3  1  0
  4  3  1  1
  4  5  1  0
  5  6  1  0
  6  7  1  0
  7  8  1  0
  8  9  1  0
  9 10  1  0
 10 11  1  0
 10 12  1  0
  8 13  1  0
  2 14  1  0
 14 15  1  0
 15 16  2  0
 16 17  1  0
 17 18  1  0
 18 19  2  0
 19 20  1  0
 20 21  2  0
 21 22  1  0
 22 23  2  0
 17 24  1  0
 12  4  1  0
 24 14  2  0
 13  4  1  0
 23 18  1  0
 11  6  1  0
  3 25  1  0
  5 26  1  0
  5 27  1  0
  6 28  1  1
  7 29  1  0
  7 30  1  0
  8 31  1  6
  9 32  1  0
  9 33  1  0
 10 34  1  6
 11 35  1  0
 11 36  1  0
 12 37  1  0
 12 38  1  0
 13 39  1  0
 13 40  1  0
 19 41  1  0
 20 42  1  0
 21 43  1  0
 22 44  1  0
 23 45  1  0
M  END
>  <meeko>  (30) 
{"is_sidechain": false}

$$$$

     RDKit          3D

 43 47  0  0  0  0  0  0  0  0999 V2000
   11.4560   -2.0610  -53.8310 O   0  0  0  0  0  0  0  0  0  0  0  0
   10.4110   -2.6970  -53.9140 C   0  0  0  0  0  0  0  0  0  0  0  0
   10.1710   -3.6730  -54.8560 N   0  0  0  0  0  0  0  0  0  0  0  0
   11.0990   -4.1120  -55.8970 C   0  0  2  0  0  0  0  0  0  0  0  0
   10.3460   -5.0760  -56.8530 C   0  0  0  0  0  0  0  0  0  0  0  0
   11.2720   -5.5750  -57.9740 C   0  0  1  0  0  0  0  0  0  0  0  0
   11.7840   -4.3690  -58.7780 C   0  0  0  0  0  0  0  0  0  0  0  0
   12.5560   -3.4130  -57.8550 C   0  0  2  0  0  0  0  0  0  0  0  0
   13.7440   -4.1610  -57.2270 C   0  0  0  0  0  0  0  0  0  0  0  0
   13.2410   -5.3700  -56.4190 C   0  0  2  0  0  0  0  0  0  0  0  0
   12.4660   -6.3150  -57.3500 C   0  0  0  0  0  0  0  0  0  0  0  0
   12.3050   -4.8770  -55.3010 C   0  0  0  0  0  0  0  0  0  0  0  0
   11.6200   -2.9190  -56.7370 C   0  0  0  0  0  0  0  0  0  0  0  0
    9.3050   -2.4820  -53.0140 C   0  0  0  0  0  0  0  0  0  0  0  0
    8.5040   -1.4330  -53.0190 N   0  0  0  0  0  0  0  0  0  0  0  0
    7.5810   -1.6060  -52.0100 N   0  0  0  0  0  0  0  0  0  0  0  0
    7.8410   -2.7520  -51.4220 C   0  0  0  0  0  0  0  0  0  0  0  0
    7.0490   -3.3310  -50.2270 C   0  0  0  0  0  0  0  0  0  0  0  0
    5.6020   -3.6980  -50.4290 C   0  0  0  0  0  0  0  0  0  0  0  0
    6.6290   -4.7780  -50.2490 C   0  0  0  0  0  0  0  0  0  0  0  0
    8.9200   -3.3330  -52.0160 N   0  0  0  0  0  0  0  0  0  0  0  0
    9.2550   -4.1130  -54.7970 H   0  0  0  0  0  0  0  0  0  0  0  0
    9.9797   -5.9393  -56.2781 H   0  0  0  0  0  0  0  0  0  0  0  0
    9.5057   -4.5319  -57.3088 H   0  0  0  0  0  0  0  0  0  0  0  0
   10.7210   -6.2566  -58.6387 H   0  0  0  0  0  0  0  0  0  0  0  0
   12.4514   -4.7213  -59.5783 H   0  0  0  0  0  0  0  0  0  0  0  0
   10.9270   -3.8359  -59.2154 H   0  0  0  0  0  0  0  0  0  0  0  0
   12.9241   -2.5550  -58.4367 H   0  0  0  0  0  0  0  0  0  0  0  0
   14.4162   -4.5107  -58.0244 H   0  0  0  0  0  0  0  0  0  0  0  0
   14.2840   -3.4783  -56.5544 H   0  0  0  0  0  0  0  0  0  0  0  0
   14.0958   -5.9042  -55.9786 H   0  0  0  0  0  0  0  0  0  0  0  0
   13.1342   -6.6678  -58.1494 H   0  0  0  0  0  0  0  0  0  0  0  0
   12.0958   -7.1720  -56.7682 H   0  0  0  0  0  0  0  0  0  0  0  0
   11.9375   -5.7422  -54.7296 H   0  0  0  0  0  0  0  0  0  0  0  0
   12.8661   -4.1968  -54.6434 H   0  0  0  0  0  0  0  0  0  0  0  0
   12.1718   -2.2289  -56.0818 H   0  0  0  0  0  0  0  0  0  0  0  0
   10.7617   -2.4045  -57.1938 H   0  0  0  0  0  0  0  0  0  0  0  0
    7.6054   -2.6962  -49.5217 H   0  0  0  0  0  0  0  0  0  0  0  0
    4.8684   -3.4991  -49.6339 H   0  0  0  0  0  0  0  0  0  0  0  0
    4.8410   -3.4684  -51.1893 H   0  0  0  0  0  0  0  0  0  0  0  0
    6.6476   -5.3699  -49.3220 H   0  0  0  0  0  0  0  0  0  0  0  0
    6.9314   -5.6664  -50.8229 H   0  0  0  0  0  0  0  0  0  0  0  0
    9.3570   -4.2140  -51.7850 H   0  0  0  0  0  0  0  0  0  0  0  0
  1  2  2  0
  2  3  1  0
  4  3  1  1
  4  5  1  0
  5  6  1  0
  6  7  1  0
  7  8  1  0
  8  9  1  0
  9 10  1  0
 10 11  1  0
 10 12  1  0
  8 13  1  0
  2 14  1  0
 14 15  2  0
 15 16  1  0
 16 17  2  0
 17 18  1  0
 18 19  1  0
 19 20  1  0
 17 21  1  0
 12  4  1  0
 21 14  1  0
 13  4  1  0
 20 18  1  0
 11  6  1  0
  3 22  1  0
  5 23  1  0
  5 24  1  0
  6 25  1  6
  7 26  1  0
  7 27  1  0
  8 28  1  6
  9 29  1  0
  9 30  1  0
 10 31  1  1
 11 32  1  0
 11 33  1  0
 12 34  1  0
 12 35  1  0
 13 36  1  0
 13 37  1  0
 18 38  1  0
 19 39  1  0
 19 40  1  0
 20 41  1  0
 20 42  1  0
 21 43  1  0
M  END
>  <meeko>  (31) 
{"is_sidechain": false}

$$$$

     RDKit          3D

 43 47  0  0  0  0  0  0  0  0999 V2000
    6.8300    2.3720  -57.6830 O   0  0  0  0  0  0  0  0  0  0  0  0
    6.5800    2.5430  -58.8710 C   0  0  0  0  0  0  0  0  0  0  0  0
    7.5120    3.0600  -59.7630 N   0  0  0  0  0  0  0  0  0  0  0  0
    8.8560    3.5160  -59.3750 C   0  0  2  0  0  0  0  0  0  0  0  0
    9.6410    2.4110  -58.6270 C   0  0  0  0  0  0  0  0  0  0  0  0
   11.0170    2.9360  -58.1780 C   0  0  1  0  0  0  0  0  0  0  0  0
   11.8130    3.3950  -59.4110 C   0  0  0  0  0  0  0  0  0  0  0  0
   11.0600    4.5210  -60.1390 C   0  0  2  0  0  0  0  0  0  0  0  0
   10.8650    5.7040  -59.1790 C   0  0  0  0  0  0  0  0  0  0  0  0
   10.0610    5.2530  -57.9510 C   0  0  2  0  0  0  0  0  0  0  0  0
   10.8210    4.1290  -57.2290 C   0  0  0  0  0  0  0  0  0  0  0  0
    8.6930    4.7240  -58.4100 C   0  0  0  0  0  0  0  0  0  0  0  0
    9.6850    4.0000  -60.5920 C   0  0  0  0  0  0  0  0  0  0  0  0
    5.2980    2.2390  -59.4710 C   0  0  0  0  0  0  0  0  0  0  0  0
    5.1090    1.5380  -60.5730 N   0  0  0  0  0  0  0  0  0  0  0  0
    3.7490    1.5350  -60.7220 C   0  0  0  0  0  0  0  0  0  0  0  0
    3.0410    0.8090  -61.8960 C   0  0  0  0  0  0  0  0  0  0  0  0
    3.7470    0.6920  -63.2230 C   0  0  0  0  0  0  0  0  0  0  0  0
    2.5700    1.6130  -63.0820 C   0  0  0  0  0  0  0  0  0  0  0  0
    3.0780    2.2030  -59.7800 N   0  0  0  0  0  0  0  0  0  0  0  0
    4.0820    2.6620  -59.0190 N   0  0  0  0  0  0  0  0  0  0  0  0
    7.1270    3.5130  -60.5820 H   0  0  0  0  0  0  0  0  0  0  0  0
    9.0679    2.0955  -57.7427 H   0  0  0  0  0  0  0  0  0  0  0  0
    9.7901    1.5589  -59.3065 H   0  0  0  0  0  0  0  0  0  0  0  0
   11.5659    2.1363  -57.6592 H   0  0  0  0  0  0  0  0  0  0  0  0
   12.7983    3.7645  -59.0907 H   0  0  0  0  0  0  0  0  0  0  0  0
   11.9364    2.5436  -60.0965 H   0  0  0  0  0  0  0  0  0  0  0  0
   11.6387    4.8486  -61.0152 H   0  0  0  0  0  0  0  0  0  0  0  0
   11.8479    6.0766  -58.8548 H   0  0  0  0  0  0  0  0  0  0  0  0
   10.3166    6.5045  -59.6971 H   0  0  0  0  0  0  0  0  0  0  0  0
    9.9218    6.1034  -57.2672 H   0  0  0  0  0  0  0  0  0  0  0  0
   11.8036    4.5027  -56.9053 H   0  0  0  0  0  0  0  0  0  0  0  0
   10.2399    3.8035  -56.3536 H   0  0  0  0  0  0  0  0  0  0  0  0
    8.1170    4.4049  -57.5289 H   0  0  0  0  0  0  0  0  0  0  0  0
    8.1677    5.5296  -58.9438 H   0  0  0  0  0  0  0  0  0  0  0  0
    9.1413    4.8098  -61.1005 H   0  0  0  0  0  0  0  0  0  0  0  0
    9.8354    3.1530  -61.2776 H   0  0  0  0  0  0  0  0  0  0  0  0
    2.5711    0.1005  -61.1980 H   0  0  0  0  0  0  0  0  0  0  0  0
    4.7581    1.1073  -63.3460 H   0  0  0  0  0  0  0  0  0  0  0  0
    4.0063   -0.1400  -63.8943 H   0  0  0  0  0  0  0  0  0  0  0  0
    2.7193    2.7026  -63.1016 H   0  0  0  0  0  0  0  0  0  0  0  0
    1.6111    1.7344  -63.6071 H   0  0  0  0  0  0  0  0  0  0  0  0
    3.8760    3.2630  -58.2290 H   0  0  0  0  0  0  0  0  0  0  0  0
  1  2  2  0
  2  3  1  0
  4  3  1  6
  4  5  1  0
  5  6  1  0
  6  7  1  0
  7  8  1  0
  8  9  1  0
  9 10  1  0
 10 11  1  0
 10 12  1  0
  8 13  1  0
  2 14  1  0
 14 15  2  0
 15 16  1  0
 16 17  1  0
 17 18  1  0
 18 19  1  0
 16 20  2  0
 20 21  1  0
 12  4  1  0
 21 14  1  0
 13  4  1  0
 19 17  1  0
 11  6  1  0
  3 22  1  0
  5 23  1  0
  5 24  1  0
  6 25  1  1
  7 26  1  0
  7 27  1  0
  8 28  1  6
  9 29  1  0
  9 30  1  0
 10 31  1  1
 11 32  1  0
 11 33  1  0
 12 34  1  0
 12 35  1  0
 13 36  1  0
 13 37  1  0
 17 38  1  0
 18 39  1  0
 18 40  1  0
 19 41  1  0
 19 42  1  0
 21 43  1  0
M  END
>  <meeko>  (32) 
{"is_sidechain": false}

$$$$

     RDKit          3D

 43 47  0  0  0  0  0  0  0  0999 V2000
   11.4890   -1.9830  -53.9640 O   0  0  0  0  0  0  0  0  0  0  0  0
   10.4470   -2.6310  -53.9780 C   0  0  0  0  0  0  0  0  0  0  0  0
   10.1930   -3.6630  -54.8650 N   0  0  0  0  0  0  0  0  0  0  0  0
   11.0970   -4.1420  -55.9060 C   0  0  2  0  0  0  0  0  0  0  0  0
   12.2770   -4.9500  -55.3120 C   0  0  0  0  0  0  0  0  0  0  0  0
   13.1860   -5.4840  -56.4340 C   0  0  1  0  0  0  0  0  0  0  0  0
   12.3690   -6.4050  -57.3540 C   0  0  0  0  0  0  0  0  0  0  0  0
   11.2010   -5.6240  -57.9760 C   0  0  2  0  0  0  0  0  0  0  0  0
   11.7530   -4.4440  -58.7890 C   0  0  0  0  0  0  0  0  0  0  0  0
   12.5660   -3.5110  -57.8780 C   0  0  2  0  0  0  0  0  0  0  0  0
   13.7300   -4.3010  -57.2520 C   0  0  0  0  0  0  0  0  0  0  0  0
   11.6580   -2.9760  -56.7580 C   0  0  0  0  0  0  0  0  0  0  0  0
   10.3030   -5.0830  -56.8510 C   0  0  0  0  0  0  0  0  0  0  0  0
    9.3230   -2.3920  -53.0420 C   0  0  0  0  0  0  0  0  0  0  0  0
    8.5510   -1.2810  -53.1050 N   0  0  0  0  0  0  0  0  0  0  0  0
    7.6910   -1.4930  -52.0940 N   0  0  0  0  0  0  0  0  0  0  0  0
    7.9390   -2.6710  -51.4600 C   0  0  0  0  0  0  0  0  0  0  0  0
    7.1710   -3.2660  -50.2530 C   0  0  0  0  0  0  0  0  0  0  0  0
    5.7140   -3.6220  -50.3840 C   0  0  0  0  0  0  0  0  0  0  0  0
    6.7430   -4.7110  -50.2660 C   0  0  0  0  0  0  0  0  0  0  0  0
    8.9600   -3.2630  -52.0330 N   0  0  0  0  0  0  0  0  0  0  0  0
    9.2830   -4.1010  -54.7460 H   0  0  0  0  0  0  0  0  0  0  0  0
   12.8651   -4.2976  -54.6498 H   0  0  0  0  0  0  0  0  0  0  0  0
   11.8740   -5.8025  -54.7455 H   0  0  0  0  0  0  0  0  0  0  0  0
   14.0232   -6.0473  -55.9961 H   0  0  0  0  0  0  0  0  0  0  0  0
   13.0181   -6.7888  -58.1548 H   0  0  0  0  0  0  0  0  0  0  0  0
   11.9696   -7.2430  -56.7639 H   0  0  0  0  0  0  0  0  0  0  0  0
   10.6204   -6.2874  -58.6339 H   0  0  0  0  0  0  0  0  0  0  0  0
   12.4019   -4.8262  -59.5907 H   0  0  0  0  0  0  0  0  0  0  0  0
   10.9135   -3.8817  -59.2238 H   0  0  0  0  0  0  0  0  0  0  0  0
   12.9615   -2.6708  -58.4676 H   0  0  0  0  0  0  0  0  0  0  0  0
   14.3832   -4.6811  -58.0513 H   0  0  0  0  0  0  0  0  0  0  0  0
   14.3004   -3.6356  -56.5873 H   0  0  0  0  0  0  0  0  0  0  0  0
   12.2402   -2.3033  -56.1111 H   0  0  0  0  0  0  0  0  0  0  0  0
   10.8166   -2.4330  -57.2131 H   0  0  0  0  0  0  0  0  0  0  0  0
    9.4672   -4.5233  -57.2962 H   0  0  0  0  0  0  0  0  0  0  0  0
    9.9287   -5.9340  -56.2630 H   0  0  0  0  0  0  0  0  0  0  0  0
    6.9730   -0.8080  -51.8920 H   0  0  0  0  0  0  0  0  0  0  0  0
    7.7599   -2.6342  -49.5718 H   0  0  0  0  0  0  0  0  0  0  0  0
    5.0232   -3.4259  -49.5507 H   0  0  0  0  0  0  0  0  0  0  0  0
    4.9167   -3.3808  -51.1024 H   0  0  0  0  0  0  0  0  0  0  0  0
    6.8054   -5.3113  -49.3464 H   0  0  0  0  0  0  0  0  0  0  0  0
    7.0106   -5.5960  -50.8620 H   0  0  0  0  0  0  0  0  0  0  0  0
  1  2  2  0
  2  3  1  0
  4  3  1  1
  4  5  1  0
  5  6  1  0
  6  7  1  0
  7  8  1  0
  8  9  1  0
  9 10  1  0
 10 11  1  0
 10 12  1  0
  8 13  1  0
  2 14  1  0
 14 15  2  0
 15 16  1  0
 16 17  1  0
 17 18  1  0
 18 19  1  0
 19 20  1  0
 17 21  2  0
 12  4  1  0
 21 14  1  0
 13  4  1  0
 20 18  1  0
 11  6  1  0
  3 22  1  0
  5 23  1  0
  5 24  1  0
  6 25  1  1
  7 26  1  0
  7 27  1  0
  8 28  1  6
  9 29  1  0
  9 30  1  0
 10 31  1  6
 11 32  1  0
 11 33  1  0
 12 34  1  0
 12 35  1  0
 13 36  1  0
 13 37  1  0
 16 38  1  0
 18 39  1  0
 19 40  1  0
 19 41  1  0
 20 42  1  0
 20 43  1  0
M  END
>  <meeko>  (33) 
{"is_sidechain": false}

$$$$

     RDKit          3D

 49 53  0  0  0  0  0  0  0  0999 V2000
    6.0770    2.2780  -56.6180 O   0  0  0  0  0  0  0  0  0  0  0  0
    7.0580    1.6260  -56.2760 C   0  0  0  0  0  0  0  0  0  0  0  0
    8.3310    1.8740  -56.7780 N   0  0  0  0  0  0  0  0  0  0  0  0
    8.6490    2.9720  -57.7020 C   0  0  2  0  0  0  0  0  0  0  0  0
    7.6850    3.0150  -58.9150 C   0  0  0  0  0  0  0  0  0  0  0  0
    8.0860    4.1390  -59.8870 C   0  0  1  0  0  0  0  0  0  0  0  0
    8.0490    5.4860  -59.1440 C   0  0  0  0  0  0  0  0  0  0  0  0
    9.0340    5.4670  -57.9620 C   0  0  2  0  0  0  0  0  0  0  0  0
   10.4520    5.2010  -58.4890 C   0  0  0  0  0  0  0  0  0  0  0  0
   10.4950    3.8520  -59.2240 C   0  0  2  0  0  0  0  0  0  0  0  0
    9.5100    3.8830  -60.4020 C   0  0  0  0  0  0  0  0  0  0  0  0
   10.0830    2.7350  -58.2520 C   0  0  0  0  0  0  0  0  0  0  0  0
    8.6340    4.3450  -56.9870 C   0  0  0  0  0  0  0  0  0  0  0  0
    7.0080    0.5400  -55.3190 C   0  0  0  0  0  0  0  0  0  0  0  0
    5.9190   -0.1190  -54.9800 N   0  0  0  0  0  0  0  0  0  0  0  0
    6.2630   -1.0730  -54.0490 N   0  0  0  0  0  0  0  0  0  0  0  0
    7.5620   -1.0060  -53.8560 C   0  0  0  0  0  0  0  0  0  0  0  0
    8.3780   -1.8710  -52.9550 C   0  0  0  0  0  0  0  0  0  0  0  0
    8.3800   -3.3480  -53.3790 C   0  0  0  0  0  0  0  0  0  0  0  0
    7.5600   -4.0730  -52.3200 C   0  0  0  0  0  0  0  0  0  0  0  0
    7.8790   -3.3030  -51.0500 C   0  0  0  0  0  0  0  0  0  0  0  0
    7.8680   -1.8490  -51.5030 C   0  0  0  0  0  0  0  0  0  0  0  0
    8.0660   -0.0030  -54.6380 N   0  0  0  0  0  0  0  0  0  0  0  0
    9.0930    1.5730  -56.1860 H   0  0  0  0  0  0  0  0  0  0  0  0
    7.7242    2.0503  -59.4421 H   0  0  0  0  0  0  0  0  0  0  0  0
    6.6654    3.2087  -58.5506 H   0  0  0  0  0  0  0  0  0  0  0  0
    7.3862    4.1625  -60.7353 H   0  0  0  0  0  0  0  0  0  0  0  0
    8.3296    6.2919  -59.8381 H   0  0  0  0  0  0  0  0  0  0  0  0
    7.0320    5.6576  -58.7615 H   0  0  0  0  0  0  0  0  0  0  0  0
    9.0087    6.4358  -57.4417 H   0  0  0  0  0  0  0  0  0  0  0  0
   10.7389    6.0039  -59.1841 H   0  0  0  0  0  0  0  0  0  0  0  0
   11.1529    5.1731  -57.6416 H   0  0  0  0  0  0  0  0  0  0  0  0
   11.5129    3.6661  -59.5972 H   0  0  0  0  0  0  0  0  0  0  0  0
    9.7967    4.6869  -61.0960 H   0  0  0  0  0  0  0  0  0  0  0  0
    9.5378    2.9144  -60.9225 H   0  0  0  0  0  0  0  0  0  0  0  0
   10.1101    1.7708  -58.7807 H   0  0  0  0  0  0  0  0  0  0  0  0
   10.7855    2.7320  -57.4056 H   0  0  0  0  0  0  0  0  0  0  0  0
    9.3456    4.3239  -56.1484 H   0  0  0  0  0  0  0  0  0  0  0  0
    7.6168    4.5417  -56.6175 H   0  0  0  0  0  0  0  0  0  0  0  0
    9.3904   -1.4472  -53.0284 H   0  0  0  0  0  0  0  0  0  0  0  0
    7.9178   -3.4646  -54.3704 H   0  0  0  0  0  0  0  0  0  0  0  0
    9.4007   -3.7512  -53.4535 H   0  0  0  0  0  0  0  0  0  0  0  0
    6.4857   -4.0253  -52.5514 H   0  0  0  0  0  0  0  0  0  0  0  0
    7.7983   -5.1444  -52.2473 H   0  0  0  0  0  0  0  0  0  0  0  0
    7.1139   -3.4806  -50.2799 H   0  0  0  0  0  0  0  0  0  0  0  0
    8.8350   -3.6029  -50.5961 H   0  0  0  0  0  0  0  0  0  0  0  0
    6.8479   -1.4397  -51.4593 H   0  0  0  0  0  0  0  0  0  0  0  0
    8.4940   -1.2144  -50.8585 H   0  0  0  0  0  0  0  0  0  0  0  0
    9.0360    0.2570  -54.7400 H   0  0  0  0  0  0  0  0  0  0  0  0
  1  2  2  0
  2  3  1  0
  4  3  1  1
  4  5  1  0
  5  6  1  0
  6  7  1  0
  7  8  1  0
  8  9  1  0
  9 10  1  0
 10 11  1  0
 10 12  1  0
  8 13  1  0
  2 14  1  0
 14 15  2  0
 15 16  1  0
 16 17  2  0
 17 18  1  0
 18 19  1  0
 19 20  1  0
 20 21  1  0
 21 22  1  0
 17 23  1  0
 12  4  1  0
 23 14  1  0
 13  4  1  0
 22 18  1  0
 11  6  1  0
  3 24  1  0
  5 25  1  0
  5 26  1  0
  6 27  1  6
  7 28  1  0
  7 29  1  0
  8 30  1  1
  9 31  1  0
  9 32  1  0
 10 33  1  6
 11 34  1  0
 11 35  1  0
 12 36  1  0
 12 37  1  0
 13 38  1  0
 13 39  1  0
 18 40  1  0
 19 41  1  0
 19 42  1  0
 20 43  1  0
 20 44  1  0
 21 45  1  0
 21 46  1  0
 22 47  1  0
 22 48  1  0
 23 49  1  0
M  END
>  <meeko>  (34) 
{"is_sidechain": false}

$$$$

     RDKit          3D

 49 53  0  0  0  0  0  0  0  0999 V2000
    6.3100    2.2200  -56.4650 O   0  0  0  0  0  0  0  0  0  0  0  0
    7.3370    1.5790  -56.2720 C   0  0  0  0  0  0  0  0  0  0  0  0
    8.5580    1.8770  -56.8330 N   0  0  0  0  0  0  0  0  0  0  0  0
    8.8420    2.9870  -57.7400 C   0  0  2  0  0  0  0  0  0  0  0  0
    7.8320    3.0380  -58.9140 C   0  0  0  0  0  0  0  0  0  0  0  0
    8.1820    4.1840  -59.8790 C   0  0  1  0  0  0  0  0  0  0  0  0
    8.1510    5.5180  -59.1130 C   0  0  0  0  0  0  0  0  0  0  0  0
    9.1750    5.4930  -57.9660 C   0  0  2  0  0  0  0  0  0  0  0  0
   10.5790    5.2600  -58.5450 C   0  0  0  0  0  0  0  0  0  0  0  0
   10.6180    3.9240  -59.3040 C   0  0  2  0  0  0  0  0  0  0  0  0
    9.5910    3.9590  -60.4470 C   0  0  0  0  0  0  0  0  0  0  0  0
   10.2600    2.7850  -58.3380 C   0  0  0  0  0  0  0  0  0  0  0  0
    8.8270    4.3470  -57.0000 C   0  0  0  0  0  0  0  0  0  0  0  0
    7.3790    0.4180  -55.4180 C   0  0  0  0  0  0  0  0  0  0  0  0
    8.4680   -0.1750  -54.9610 N   0  0  0  0  0  0  0  0  0  0  0  0
    7.9640   -1.2100  -54.2110 C   0  0  0  0  0  0  0  0  0  0  0  0
    8.8380   -2.1760  -53.4800 C   0  0  0  0  0  0  0  0  0  0  0  0
    8.8320   -3.5750  -54.1160 C   0  0  0  0  0  0  0  0  0  0  0  0
   10.1610   -3.6830  -54.8490 C   0  0  0  0  0  0  0  0  0  0  0  0
   11.1150   -2.9420  -53.9320 C   0  0  0  0  0  0  0  0  0  0  0  0
   10.3130   -1.7310  -53.4730 C   0  0  0  0  0  0  0  0  0  0  0  0
    6.6270   -1.2840  -54.1790 N   0  0  0  0  0  0  0  0  0  0  0  0
    6.2810   -0.2410  -54.9540 N   0  0  0  0  0  0  0  0  0  0  0  0
    9.3120    1.2460  -56.5710 H   0  0  0  0  0  0  0  0  0  0  0  0
    7.8633    2.0834  -59.4597 H   0  0  0  0  0  0  0  0  0  0  0  0
    6.8244    3.2110  -58.5081 H   0  0  0  0  0  0  0  0  0  0  0  0
    7.4523    4.2105  -60.7017 H   0  0  0  0  0  0  0  0  0  0  0  0
    8.3969    6.3391  -59.8024 H   0  0  0  0  0  0  0  0  0  0  0  0
    7.1451    5.6693  -58.6942 H   0  0  0  0  0  0  0  0  0  0  0  0
    9.1513    6.4516  -57.4270 H   0  0  0  0  0  0  0  0  0  0  0  0
   10.8291    6.0790  -59.2355 H   0  0  0  0  0  0  0  0  0  0  0  0
   11.3090    5.2302  -57.7227 H   0  0  0  0  0  0  0  0  0  0  0  0
   11.6248    3.7607  -59.7159 H   0  0  0  0  0  0  0  0  0  0  0  0
    9.8411    4.7786  -61.1367 H   0  0  0  0  0  0  0  0  0  0  0  0
    9.6152    2.9994  -60.9843 H   0  0  0  0  0  0  0  0  0  0  0  0
   10.2879    1.8296  -58.8825 H   0  0  0  0  0  0  0  0  0  0  0  0
   10.9899    2.7814  -57.5150 H   0  0  0  0  0  0  0  0  0  0  0  0
    9.5661    4.3236  -56.1856 H   0  0  0  0  0  0  0  0  0  0  0  0
    7.8191    4.5189  -56.5943 H   0  0  0  0  0  0  0  0  0  0  0  0
    8.4209   -2.2045  -52.4625 H   0  0  0  0  0  0  0  0  0  0  0  0
    8.7545   -4.3514  -53.3406 H   0  0  0  0  0  0  0  0  0  0  0  0
    7.9758   -3.7167  -54.7920 H   0  0  0  0  0  0  0  0  0  0  0  0
   10.4629   -4.7340  -54.9683 H   0  0  0  0  0  0  0  0  0  0  0  0
   10.1297   -3.2704  -55.8682 H   0  0  0  0  0  0  0  0  0  0  0  0
   11.4016   -3.5696  -53.0753 H   0  0  0  0  0  0  0  0  0  0  0  0
   12.0550   -2.6646  -54.4314 H   0  0  0  0  0  0  0  0  0  0  0  0
   10.6178   -1.4317  -52.4593 H   0  0  0  0  0  0  0  0  0  0  0  0
   10.4772   -0.8644  -54.1303 H   0  0  0  0  0  0  0  0  0  0  0  0
    5.3040   -0.0290  -55.1260 H   0  0  0  0  0  0  0  0  0  0  0  0
  1  2  2  0
  2  3  1  0
  4  3  1  1
  4  5  1  0
  5  6  1  0
  6  7  1  0
  7  8  1  0
  8  9  1  0
  9 10  1  0
 10 11  1  0
 10 12  1  0
  8 13  1  0
  2 14  1  0
 14 15  2  0
 15 16  1  0
 16 17  1  0
 17 18  1  0
 18 19  1  0
 19 20  1  0
 20 21  1  0
 16 22  2  0
 22 23  1  0
 12  4  1  0
 23 14  1  0
 13  4  1  0
 21 17  1  0
 11  6  1  0
  3 24  1  0
  5 25  1  0
  5 26  1  0
  6 27  1  6
  7 28  1  0
  7 29  1  0
  8 30  1  1
  9 31  1  0
  9 32  1  0
 10 33  1  6
 11 34  1  0
 11 35  1  0
 12 36  1  0
 12 37  1  0
 13 38  1  0
 13 39  1  0
 17 40  1  0
 18 41  1  0
 18 42  1  0
 19 43  1  0
 19 44  1  0
 20 45  1  0
 20 46  1  0
 21 47  1  0
 21 48  1  0
 23 49  1  0
M  END
>  <meeko>  (35) 
{"is_sidechain": false}

$$$$

     RDKit          3D

 49 53  0  0  0  0  0  0  0  0999 V2000
    6.0690    2.2290  -56.5990 O   0  0  0  0  0  0  0  0  0  0  0  0
    7.0710    1.6020  -56.2680 C   0  0  0  0  0  0  0  0  0  0  0  0
    8.3440    1.8830  -56.7350 N   0  0  0  0  0  0  0  0  0  0  0  0
    8.7000    2.9420  -57.6740 C   0  0  2  0  0  0  0  0  0  0  0  0
    7.8760    2.8460  -58.9830 C   0  0  0  0  0  0  0  0  0  0  0  0
    8.3060    3.9420  -59.9750 C   0  0  1  0  0  0  0  0  0  0  0  0
    8.0910    5.3210  -59.3290 C   0  0  0  0  0  0  0  0  0  0  0  0
    8.9330    5.4420  -58.0470 C   0  0  2  0  0  0  0  0  0  0  0  0
   10.4180    5.2580  -58.3970 C   0  0  0  0  0  0  0  0  0  0  0  0
   10.6400    3.8770  -59.0340 C   0  0  2  0  0  0  0  0  0  0  0  0
    9.7950    3.7650  -60.3130 C   0  0  0  0  0  0  0  0  0  0  0  0
   10.2000    2.7880  -58.0430 C   0  0  0  0  0  0  0  0  0  0  0  0
    8.5040    4.3470  -57.0550 C   0  0  0  0  0  0  0  0  0  0  0  0
    7.0480    0.4620  -55.3220 C   0  0  0  0  0  0  0  0  0  0  0  0
    5.9060   -0.1810  -54.9860 N   0  0  0  0  0  0  0  0  0  0  0  0
    6.3570   -1.1120  -54.1310 N   0  0  0  0  0  0  0  0  0  0  0  0
    7.7100   -1.0340  -53.9600 C   0  0  0  0  0  0  0  0  0  0  0  0
    8.4990   -1.9360  -53.0700 C   0  0  0  0  0  0  0  0  0  0  0  0
    7.9750   -1.9340  -51.6240 C   0  0  0  0  0  0  0  0  0  0  0  0
    7.9670   -3.3950  -51.1970 C   0  0  0  0  0  0  0  0  0  0  0  0
    7.6440   -4.1360  -52.4820 C   0  0  0  0  0  0  0  0  0  0  0  0
    8.4760   -3.4030  -53.5260 C   0  0  0  0  0  0  0  0  0  0  0  0
    8.1700   -0.0500  -54.7000 N   0  0  0  0  0  0  0  0  0  0  0  0
    9.0670    1.2720  -56.3640 H   0  0  0  0  0  0  0  0  0  0  0  0
    8.0389    1.8594  -59.4413 H   0  0  0  0  0  0  0  0  0  0  0  0
    6.8113    2.9826  -58.7429 H   0  0  0  0  0  0  0  0  0  0  0  0
    7.7074    3.8662  -60.8948 H   0  0  0  0  0  0  0  0  0  0  0  0
    8.3931    6.1059  -60.0380 H   0  0  0  0  0  0  0  0  0  0  0  0
    7.0274    5.4366  -59.0731 H   0  0  0  0  0  0  0  0  0  0  0  0
    8.7804    6.4327  -57.5939 H   0  0  0  0  0  0  0  0  0  0  0  0
   10.7247    6.0403  -59.1069 H   0  0  0  0  0  0  0  0  0  0  0  0
   11.0178    5.3327  -57.4780 H   0  0  0  0  0  0  0  0  0  0  0  0
   11.7044    3.7500  -59.2806 H   0  0  0  0  0  0  0  0  0  0  0  0
   10.1030    4.5467  -61.0230 H   0  0  0  0  0  0  0  0  0  0  0  0
    9.9484    2.7726  -60.7620 H   0  0  0  0  0  0  0  0  0  0  0  0
   10.3579    1.8004  -58.5009 H   0  0  0  0  0  0  0  0  0  0  0  0
   10.7979    2.8883  -57.1252 H   0  0  0  0  0  0  0  0  0  0  0  0
    9.1127    4.4278  -56.1423 H   0  0  0  0  0  0  0  0  0  0  0  0
    7.4389    4.4832  -56.8162 H   0  0  0  0  0  0  0  0  0  0  0  0
    5.7010   -1.7580  -53.7060 H   0  0  0  0  0  0  0  0  0  0  0  0
    9.5208   -1.5324  -53.1245 H   0  0  0  0  0  0  0  0  0  0  0  0
    8.6401   -1.3464  -50.9741 H   0  0  0  0  0  0  0  0  0  0  0  0
    6.9757   -1.4801  -51.5508 H   0  0  0  0  0  0  0  0  0  0  0  0
    8.9500   -3.6960  -50.8056 H   0  0  0  0  0  0  0  0  0  0  0  0
    7.2489   -3.6023  -50.3899 H   0  0  0  0  0  0  0  0  0  0  0  0
    7.9404   -5.1931  -52.4128 H   0  0  0  0  0  0  0  0  0  0  0  0
    6.5692   -4.1448  -52.7160 H   0  0  0  0  0  0  0  0  0  0  0  0
    9.4967   -3.8115  -53.5612 H   0  0  0  0  0  0  0  0  0  0  0  0
    8.0544   -3.5116  -54.5362 H   0  0  0  0  0  0  0  0  0  0  0  0
  1  2  2  0
  2  3  1  0
  4  3  1  1
  4  5  1  0
  5  6  1  0
  6  7  1  0
  7  8  1  0
  8  9  1  0
  9 10  1  0
 10 11  1  0
 10 12  1  0
  8 13  1  0
  2 14  1  0
 14 15  2  0
 15 16  1  0
 16 17  1  0
 17 18  1  0
 18 19  1  0
 19 20  1  0
 20 21  1  0
 21 22  1  0
 17 23  2  0
 12  4  1  0
 23 14  1  0
 13  4  1  0
 22 18  1  0
 11  6  1  0
  3 24  1  0
  5 25  1  0
  5 26  1  0
  6 27  1  6
  7 28  1  0
  7 29  1  0
  8 30  1  1
  9 31  1  0
  9 32  1  0
 10 33  1  6
 11 34  1  0
 11 35  1  0
 12 36  1  0
 12 37  1  0
 13 38  1  0
 13 39  1  0
 16 40  1  0
 18 41  1  0
 19 42  1  0
 19 43  1  0
 20 44  1  0
 20 45  1  0
 21 46  1  0
 21 47  1  0
 22 48  1  0
 22 49  1  0
M  END
>  <meeko>  (36) 
{"is_sidechain": false}

$$$$

     RDKit          3D

 39 42  0  0  0  0  0  0  0  0999 V2000
    2.7930    0.7660  -62.5740 C   0  0  0  0  0  0  0  0  0  0  0  0
    4.0620    1.4800  -62.3250 C   0  0  0  0  0  0  0  0  0  0  0  0
    4.8120    2.1170  -63.1990 N   0  0  0  0  0  0  0  0  0  0  0  0
    5.9000    2.6340  -62.5320 N   0  0  0  0  0  0  0  0  0  0  0  0
    5.7880    2.3000  -61.2610 C   0  0  0  0  0  0  0  0  0  0  0  0
    6.7200    2.6450  -60.2160 C   0  0  0  0  0  0  0  0  0  0  0  0
    6.4740    2.4540  -59.0290 O   0  0  0  0  0  0  0  0  0  0  0  0
    7.8900    3.1990  -60.6850 N   0  0  0  0  0  0  0  0  0  0  0  0
    9.0190    3.6470  -59.8700 C   0  0  2  0  0  0  0  0  0  0  0  0
   10.1530    4.1210  -60.8170 C   0  0  0  0  0  0  0  0  0  0  0  0
   11.3720    4.6060  -60.0170 C   0  0  1  0  0  0  0  0  0  0  0  0
   10.9500    5.7760  -59.1140 C   0  0  0  0  0  0  0  0  0  0  0  0
    9.8440    5.3210  -58.1490 C   0  0  2  0  0  0  0  0  0  0  0  0
   10.3690    4.1610  -57.2850 C   0  0  0  0  0  0  0  0  0  0  0  0
   10.7930    2.9850  -58.1810 C   0  0  2  0  0  0  0  0  0  0  0  0
   11.8940    3.4530  -59.1450 C   0  0  0  0  0  0  0  0  0  0  0  0
    9.5790    2.5010  -58.9910 C   0  0  0  0  0  0  0  0  0  0  0  0
    8.6280    4.8380  -58.9600 C   0  0  0  0  0  0  0  0  0  0  0  0
    4.6430    1.5720  -61.0920 N   0  0  0  0  0  0  0  0  0  0  0  0
    2.3257    0.5031  -61.6136 H   0  0  0  0  0  0  0  0  0  0  0  0
    2.1138    1.4144  -63.1469 H   0  0  0  0  0  0  0  0  0  0  0  0
    2.9946   -0.1511  -63.1469 H   0  0  0  0  0  0  0  0  0  0  0  0
    7.9470    3.2940  -61.6960 H   0  0  0  0  0  0  0  0  0  0  0  0
   10.4563    3.2834  -61.4623 H   0  0  0  0  0  0  0  0  0  0  0  0
    9.7763    4.9579  -61.4233 H   0  0  0  0  0  0  0  0  0  0  0  0
   12.1631    4.9369  -60.7060 H   0  0  0  0  0  0  0  0  0  0  0  0
   11.8192    6.1217  -58.5352 H   0  0  0  0  0  0  0  0  0  0  0  0
   10.5690    6.5966  -59.7397 H   0  0  0  0  0  0  0  0  0  0  0  0
    9.5490    6.1610  -57.5030 H   0  0  0  0  0  0  0  0  0  0  0  0
   11.2358    4.5051  -56.7017 H   0  0  0  0  0  0  0  0  0  0  0  0
    9.5702    3.8271  -56.6064 H   0  0  0  0  0  0  0  0  0  0  0  0
   11.1732    2.1623  -57.5576 H   0  0  0  0  0  0  0  0  0  0  0  0
   12.7630    3.7986  -58.5658 H   0  0  0  0  0  0  0  0  0  0  0  0
   12.1881    2.6141  -59.7929 H   0  0  0  0  0  0  0  0  0  0  0  0
    9.8856    1.6658  -59.6379 H   0  0  0  0  0  0  0  0  0  0  0  0
    8.7945    2.1732  -58.2931 H   0  0  0  0  0  0  0  0  0  0  0  0
    7.8350    4.5190  -58.2676 H   0  0  0  0  0  0  0  0  0  0  0  0
    8.2712    5.6650  -59.5914 H   0  0  0  0  0  0  0  0  0  0  0  0
    4.3130    1.1900  -60.2170 H   0  0  0  0  0  0  0  0  0  0  0  0
  1  2  1  0
  2  3  2  0
  3  4  1  0
  4  5  2  0
  5  6  1  0
  6  7  2  0
  6  8  1  0
  9  8  1  6
  9 10  1  0
 10 11  1  0
 11 12  1  0
 12 13  1  0
 13 14  1  0
 14 15  1  0
 15 16  1  0
 15 17  1  0
 13 18  1  0
  5 19  1  0
 19  2  1  0
 17  9  1  0
 18  9  1  0
 16 11  1  0
  1 20  1  0
  1 21  1  0
  1 22  1  0
  8 23  1  0
 10 24  1  0
 10 25  1  0
 11 26  1  6
 12 27  1  0
 12 28  1  0
 13 29  1  1
 14 30  1  0
 14 31  1  0
 15 32  1  1
 16 33  1  0
 16 34  1  0
 17 35  1  0
 17 36  1  0
 18 37  1  0
 18 38  1  0
 19 39  1  0
M  END
>  <meeko>  (37) 
{"is_sidechain": false}

$$$$

     RDKit          3D

 39 42  0  0  0  0  0  0  0  0999 V2000
    2.7810    0.7610  -62.5720 C   0  0  0  0  0  0  0  0  0  0  0  0
    4.0390    1.4470  -62.2120 C   0  0  0  0  0  0  0  0  0  0  0  0
    4.5880    1.5630  -61.0230 N   0  0  0  0  0  0  0  0  0  0  0  0
    5.7460    2.2970  -61.2650 C   0  0  0  0  0  0  0  0  0  0  0  0
    6.6820    2.6630  -60.1780 C   0  0  0  0  0  0  0  0  0  0  0  0
    6.4370    2.5200  -58.9840 O   0  0  0  0  0  0  0  0  0  0  0  0
    7.8690    3.1840  -60.6640 N   0  0  0  0  0  0  0  0  0  0  0  0
    8.9970    3.6400  -59.8580 C   0  0  2  0  0  0  0  0  0  0  0  0
    8.6080    4.8350  -58.9530 C   0  0  0  0  0  0  0  0  0  0  0  0
    9.8270    5.3270  -58.1520 C   0  0  1  0  0  0  0  0  0  0  0  0
   10.3640    4.1760  -57.2850 C   0  0  0  0  0  0  0  0  0  0  0  0
   10.7880    2.9960  -58.1780 C   0  0  2  0  0  0  0  0  0  0  0  0
   11.8810    3.4650  -59.1520 C   0  0  0  0  0  0  0  0  0  0  0  0
   11.3460    4.6110  -60.0260 C   0  0  2  0  0  0  0  0  0  0  0  0
   10.9250    5.7830  -59.1270 C   0  0  0  0  0  0  0  0  0  0  0  0
   10.1240    4.1150  -60.8150 C   0  0  0  0  0  0  0  0  0  0  0  0
    9.5700    2.5020  -58.9770 C   0  0  0  0  0  0  0  0  0  0  0  0
    5.9090    2.6260  -62.5590 N   0  0  0  0  0  0  0  0  0  0  0  0
    4.8270    2.0810  -63.1280 N   0  0  0  0  0  0  0  0  0  0  0  0
    2.2469    0.4698  -61.6555 H   0  0  0  0  0  0  0  0  0  0  0  0
    2.1497    1.4398  -63.1643 H   0  0  0  0  0  0  0  0  0  0  0  0
    3.0097   -0.1373  -63.1643 H   0  0  0  0  0  0  0  0  0  0  0  0
    7.9220    3.2390  -61.6780 H   0  0  0  0  0  0  0  0  0  0  0  0
    8.2322    5.6565  -59.5806 H   0  0  0  0  0  0  0  0  0  0  0  0
    7.8292    4.5077  -58.2485 H   0  0  0  0  0  0  0  0  0  0  0  0
    9.5311    6.1682  -57.5080 H   0  0  0  0  0  0  0  0  0  0  0  0
   11.2332    4.5282  -56.7101 H   0  0  0  0  0  0  0  0  0  0  0  0
    9.5722    3.8421  -56.5983 H   0  0  0  0  0  0  0  0  0  0  0  0
   11.1764    2.1780  -57.5535 H   0  0  0  0  0  0  0  0  0  0  0  0
   12.7519    3.8182  -58.5804 H   0  0  0  0  0  0  0  0  0  0  0  0
   12.1760    2.6245  -59.7974 H   0  0  0  0  0  0  0  0  0  0  0  0
   12.1302    4.9428  -60.7224 H   0  0  0  0  0  0  0  0  0  0  0  0
   11.7964    6.1358  -58.5558 H   0  0  0  0  0  0  0  0  0  0  0  0
   10.5362    6.5988  -59.7541 H   0  0  0  0  0  0  0  0  0  0  0  0
    9.7425    4.9357  -61.4402 H   0  0  0  0  0  0  0  0  0  0  0  0
   10.4332    3.2647  -61.4406 H   0  0  0  0  0  0  0  0  0  0  0  0
    9.8761    1.6650  -59.6218 H   0  0  0  0  0  0  0  0  0  0  0  0
    8.7924    2.1745  -58.2713 H   0  0  0  0  0  0  0  0  0  0  0  0
    4.6920    2.1790  -64.1280 H   0  0  0  0  0  0  0  0  0  0  0  0
  1  2  1  0
  2  3  2  0
  3  4  1  0
  4  5  1  0
  5  6  2  0
  5  7  1  0
  8  7  1  6
  8  9  1  0
  9 10  1  0
 10 11  1  0
 11 12  1  0
 12 13  1  0
 13 14  1  0
 14 15  1  0
 14 16  1  0
 12 17  1  0
  4 18  2  0
 18 19  1  0
 19  2  1  0
 16  8  1  0
 17  8  1  0
 15 10  1  0
  1 20  1  0
  1 21  1  0
  1 22  1  0
  7 23  1  0
  9 24  1  0
  9 25  1  0
 10 26  1  1
 11 27  1  0
 11 28  1  0
 12 29  1  1
 13 30  1  0
 13 31  1  0
 14 32  1  6
 15 33  1  0
 15 34  1  0
 16 35  1  0
 16 36  1  0
 17 37  1  0
 17 38  1  0
 19 39  1  0
M  END
>  <meeko>  (38) 
{"is_sidechain": false}

$$$$

     RDKit          3D

 39 42  0  0  0  0  0  0  0  0999 V2000
    2.8930    0.7720  -62.6020 C   0  0  0  0  0  0  0  0  0  0  0  0
    4.1360    1.4890  -62.2560 C   0  0  0  0  0  0  0  0  0  0  0  0
    4.8700    2.1390  -63.1680 N   0  0  0  0  0  0  0  0  0  0  0  0
    5.8720    2.6200  -62.4130 N   0  0  0  0  0  0  0  0  0  0  0  0
    5.7260    2.2620  -61.1080 C   0  0  0  0  0  0  0  0  0  0  0  0
    6.6400    2.6250  -60.0540 C   0  0  0  0  0  0  0  0  0  0  0  0
    6.3650    2.4890  -58.8660 O   0  0  0  0  0  0  0  0  0  0  0  0
    7.8310    3.1310  -60.5230 N   0  0  0  0  0  0  0  0  0  0  0  0
    8.9560    3.5860  -59.7080 C   0  0  2  0  0  0  0  0  0  0  0  0
    9.5250    2.4420  -58.8320 C   0  0  0  0  0  0  0  0  0  0  0  0
   10.7370    2.9330  -58.0210 C   0  0  1  0  0  0  0  0  0  0  0  0
   11.8340    3.4130  -58.9840 C   0  0  0  0  0  0  0  0  0  0  0  0
   11.3020    4.5640  -59.8540 C   0  0  2  0  0  0  0  0  0  0  0  0
   10.8710    5.7280  -58.9480 C   0  0  0  0  0  0  0  0  0  0  0  0
    9.7680    5.2620  -57.9840 C   0  0  2  0  0  0  0  0  0  0  0  0
   10.3030    4.1050  -57.1230 C   0  0  0  0  0  0  0  0  0  0  0  0
    8.5560    4.7710  -58.7950 C   0  0  0  0  0  0  0  0  0  0  0  0
   10.0870    4.0700  -60.6550 C   0  0  0  0  0  0  0  0  0  0  0  0
    4.6270    1.5390  -60.9750 N   0  0  0  0  0  0  0  0  0  0  0  0
    2.3737    0.4724  -61.6798 H   0  0  0  0  0  0  0  0  0  0  0  0
    2.2408    1.4326  -63.1920 H   0  0  0  0  0  0  0  0  0  0  0  0
    3.1383   -0.1234  -63.1920 H   0  0  0  0  0  0  0  0  0  0  0  0
    6.6130    3.1740  -62.8320 H   0  0  0  0  0  0  0  0  0  0  0  0
    7.9030    3.1790  -61.5370 H   0  0  0  0  0  0  0  0  0  0  0  0
    8.7440    2.0938  -58.1401 H   0  0  0  0  0  0  0  0  0  0  0  0
    9.8465    1.6194  -59.4877 H   0  0  0  0  0  0  0  0  0  0  0  0
   11.1242    2.1115  -57.4004 H   0  0  0  0  0  0  0  0  0  0  0  0
   12.6998    3.7648  -58.4039 H   0  0  0  0  0  0  0  0  0  0  0  0
   12.1352    2.5781  -59.6338 H   0  0  0  0  0  0  0  0  0  0  0  0
   12.0896    4.9034  -60.5428 H   0  0  0  0  0  0  0  0  0  0  0  0
   11.7375    6.0787  -58.3682 H   0  0  0  0  0  0  0  0  0  0  0  0
   10.4837    6.5472  -59.5716 H   0  0  0  0  0  0  0  0  0  0  0  0
    9.4656    6.0984  -57.3367 H   0  0  0  0  0  0  0  0  0  0  0  0
   11.1671    4.4554  -56.5395 H   0  0  0  0  0  0  0  0  0  0  0  0
    9.5069    3.7631  -56.4453 H   0  0  0  0  0  0  0  0  0  0  0  0
    7.7663    4.4437  -58.1028 H   0  0  0  0  0  0  0  0  0  0  0  0
    8.1919    5.5966  -59.4241 H   0  0  0  0  0  0  0  0  0  0  0  0
    9.7073    4.8938  -61.2773 H   0  0  0  0  0  0  0  0  0  0  0  0
   10.4024    3.2251  -61.2848 H   0  0  0  0  0  0  0  0  0  0  0  0
  1  2  1  0
  2  3  2  0
  3  4  1  0
  4  5  1  0
  5  6  1  0
  6  7  2  0
  6  8  1  0
  9  8  1  6
  9 10  1  0
 10 11  1  0
 11 12  1  0
 12 13  1  0
 13 14  1  0
 14 15  1  0
 15 16  1  0
 15 17  1  0
 13 18  1  0
  5 19  2  0
 19  2  1  0
 17  9  1  0
 18  9  1  0
 16 11  1  0
  1 20  1  0
  1 21  1  0
  1 22  1  0
  4 23  1  0
  8 24  1  0
 10 25  1  0
 10 26  1  0
 11 27  1  1
 12 28  1  0
 12 29  1  0
 13 30  1  6
 14 31  1  0
 14 32  1  0
 15 33  1  1
 16 34  1  0
 16 35  1  0
 17 36  1  0
 17 37  1  0
 18 38  1  0
 18 39  1  0
M  END
>  <meeko>  (39) 
{"is_sidechain": false}

$$$$

     RDKit          3D

 45 48  0  0  0  0  0  0  0  0999 V2000
    2.5310    2.6030  -63.2140 C   0  0  0  0  0  0  0  0  0  0  0  0
    2.8670    1.3510  -62.4050 C   0  0  0  0  0  0  0  0  0  0  0  0
    3.7340    0.3960  -63.2230 C   0  0  0  0  0  0  0  0  0  0  0  0
    3.5490    1.7180  -61.1280 C   0  0  0  0  0  0  0  0  0  0  0  0
    2.9920    2.0270  -59.9770 N   0  0  0  0  0  0  0  0  0  0  0  0
    3.9960    2.3280  -59.0850 N   0  0  0  0  0  0  0  0  0  0  0  0
    5.1540    2.1660  -59.6950 C   0  0  0  0  0  0  0  0  0  0  0  0
    6.4490    2.3870  -59.0860 C   0  0  0  0  0  0  0  0  0  0  0  0
    6.8310    1.8200  -58.0670 O   0  0  0  0  0  0  0  0  0  0  0  0
    7.2400    3.3070  -59.7670 N   0  0  0  0  0  0  0  0  0  0  0  0
    8.6220    3.6390  -59.3910 C   0  0  2  0  0  0  0  0  0  0  0  0
    9.3350    2.4590  -58.6830 C   0  0  0  0  0  0  0  0  0  0  0  0
   10.7570    2.8620  -58.2540 C   0  0  1  0  0  0  0  0  0  0  0  0
   11.5590    3.2850  -59.4970 C   0  0  0  0  0  0  0  0  0  0  0  0
   10.8810    4.4830  -60.1840 C   0  0  2  0  0  0  0  0  0  0  0  0
   10.7990    5.6550  -59.1950 C   0  0  0  0  0  0  0  0  0  0  0  0
    9.9900    5.2400  -57.9550 C   0  0  2  0  0  0  0  0  0  0  0  0
   10.6770    4.0450  -57.2760 C   0  0  0  0  0  0  0  0  0  0  0  0
    8.5750    4.8260  -58.3910 C   0  0  0  0  0  0  0  0  0  0  0  0
    9.4600    4.0800  -60.6170 C   0  0  0  0  0  0  0  0  0  0  0  0
    4.9090    1.7940  -60.9910 N   0  0  0  0  0  0  0  0  0  0  0  0
    2.3081    3.4337  -62.5283 H   0  0  0  0  0  0  0  0  0  0  0  0
    3.3890    2.8711  -63.8480 H   0  0  0  0  0  0  0  0  0  0  0  0
    1.6541    2.4055  -63.8480 H   0  0  0  0  0  0  0  0  0  0  0  0
    1.9262    0.8366  -62.1594 H   0  0  0  0  0  0  0  0  0  0  0  0
    4.3155   -0.2445  -62.5436 H   0  0  0  0  0  0  0  0  0  0  0  0
    3.0905   -0.2314  -63.8573 H   0  0  0  0  0  0  0  0  0  0  0  0
    4.4204    0.9761  -63.8573 H   0  0  0  0  0  0  0  0  0  0  0  0
    7.0200    3.4210  -60.7480 H   0  0  0  0  0  0  0  0  0  0  0  0
    8.7574    2.1698  -57.7926 H   0  0  0  0  0  0  0  0  0  0  0  0
    9.4029    1.6143  -59.3844 H   0  0  0  0  0  0  0  0  0  0  0  0
   11.2517    2.0104  -57.7641 H   0  0  0  0  0  0  0  0  0  0  0  0
   12.5774    3.5689  -59.1931 H   0  0  0  0  0  0  0  0  0  0  0  0
   11.5990    2.4420  -60.2025 H   0  0  0  0  0  0  0  0  0  0  0  0
   11.4650    4.7852  -61.0658 H   0  0  0  0  0  0  0  0  0  0  0  0
   11.8148    5.9440  -58.8874 H   0  0  0  0  0  0  0  0  0  0  0  0
   10.3012    6.5058  -59.6832 H   0  0  0  0  0  0  0  0  0  0  0  0
    9.9326    6.0836  -57.2514 H   0  0  0  0  0  0  0  0  0  0  0  0
   11.6931    4.3343  -56.9698 H   0  0  0  0  0  0  0  0  0  0  0  0
   10.0933    3.7458  -56.3930 H   0  0  0  0  0  0  0  0  0  0  0  0
    7.9994    4.5251  -57.5033 H   0  0  0  0  0  0  0  0  0  0  0  0
    8.0985    5.6832  -58.8891 H   0  0  0  0  0  0  0  0  0  0  0  0
    8.9713    4.9396  -61.0989 H   0  0  0  0  0  0  0  0  0  0  0  0
    9.5289    3.2380  -61.3214 H   0  0  0  0  0  0  0  0  0  0  0  0
    5.6000    1.6570  -61.7120 H   0  0  0  0  0  0  0  0  0  0  0  0
  1  2  1  0
  2  3  1  0
  2  4  1  0
  4  5  2  0
  5  6  1  0
  6  7  2  0
  7  8  1  0
  8  9  2  0
  8 10  1  0
 11 10  1  6
 11 12  1  0
 12 13  1  0
 13 14  1  0
 14 15  1  0
 15 16  1  0
 16 17  1  0
 17 18  1  0
 17 19  1  0
 15 20  1  0
  7 21  1  0
 21  4  1  0
 19 11  1  0
 20 11  1  0
 18 13  1  0
  1 22  1  0
  1 23  1  0
  1 24  1  0
  2 25  1  0
  3 26  1  0
  3 27  1  0
  3 28  1  0
 10 29  1  0
 12 30  1  0
 12 31  1  0
 13 32  1  1
 14 33  1  0
 14 34  1  0
 15 35  1  6
 16 36  1  0
 16 37  1  0
 17 38  1  1
 18 39  1  0
 18 40  1  0
 19 41  1  0
 19 42  1  0
 20 43  1  0
 20 44  1  0
 21 45  1  0
M  END
>  <meeko>  (40) 
{"is_sidechain": false}

$$$$

     RDKit          3D

 45 48  0  0  0  0  0  0  0  0999 V2000
    2.5310    2.6310  -63.2220 C   0  0  0  0  0  0  0  0  0  0  0  0
    2.8840    1.4010  -62.3850 C   0  0  0  0  0  0  0  0  0  0  0  0
    3.6840    0.3970  -63.2130 C   0  0  0  0  0  0  0  0  0  0  0  0
    3.6430    1.7970  -61.1620 C   0  0  0  0  0  0  0  0  0  0  0  0
    4.9460    1.8050  -60.9860 N   0  0  0  0  0  0  0  0  0  0  0  0
    5.1100    2.2520  -59.6900 C   0  0  0  0  0  0  0  0  0  0  0  0
    6.4260    2.4280  -59.0320 C   0  0  0  0  0  0  0  0  0  0  0  0
    6.7200    1.9130  -57.9570 O   0  0  0  0  0  0  0  0  0  0  0  0
    7.2830    3.2360  -59.7590 N   0  0  0  0  0  0  0  0  0  0  0  0
    8.6460    3.6010  -59.3820 C   0  0  2  0  0  0  0  0  0  0  0  0
    9.4830    4.0310  -60.6120 C   0  0  0  0  0  0  0  0  0  0  0  0
   10.8980    4.4590  -60.1800 C   0  0  1  0  0  0  0  0  0  0  0  0
   10.7960    5.6470  -59.2110 C   0  0  0  0  0  0  0  0  0  0  0  0
    9.9850    5.2430  -57.9690 C   0  0  2  0  0  0  0  0  0  0  0  0
   10.6820    4.0660  -57.2680 C   0  0  0  0  0  0  0  0  0  0  0  0
   10.7830    2.8690  -58.2250 C   0  0  2  0  0  0  0  0  0  0  0  0
   11.5880    3.2820  -59.4700 C   0  0  0  0  0  0  0  0  0  0  0  0
    9.3690    2.4400  -58.6560 C   0  0  0  0  0  0  0  0  0  0  0  0
    8.5770    4.8070  -58.4060 C   0  0  0  0  0  0  0  0  0  0  0  0
    3.9420    2.5200  -59.0610 N   0  0  0  0  0  0  0  0  0  0  0  0
    3.0430    2.2230  -60.0150 N   0  0  0  0  0  0  0  0  0  0  0  0
    2.2898    3.4716  -62.5548 H   0  0  0  0  0  0  0  0  0  0  0  0
    3.3879    2.9009  -63.8567 H   0  0  0  0  0  0  0  0  0  0  0  0
    1.6614    2.4054  -63.8567 H   0  0  0  0  0  0  0  0  0  0  0  0
    1.9472    0.9188  -62.0691 H   0  0  0  0  0  0  0  0  0  0  0  0
    4.2263   -0.2836  -62.5402 H   0  0  0  0  0  0  0  0  0  0  0  0
    2.9984   -0.1839  -63.8475 H   0  0  0  0  0  0  0  0  0  0  0  0
    4.4033    0.9355  -63.8475 H   0  0  0  0  0  0  0  0  0  0  0  0
    6.8880    3.5840  -60.6290 H   0  0  0  0  0  0  0  0  0  0  0  0
    9.5585    3.1856  -61.3117 H   0  0  0  0  0  0  0  0  0  0  0  0
    8.9870    4.8836  -61.0988 H   0  0  0  0  0  0  0  0  0  0  0  0
   11.4824    4.7531  -61.0643 H   0  0  0  0  0  0  0  0  0  0  0  0
   11.8064    5.9536  -58.9026 H   0  0  0  0  0  0  0  0  0  0  0  0
   10.2908    6.4833  -59.7163 H   0  0  0  0  0  0  0  0  0  0  0  0
    9.9143    6.0966  -57.2788 H   0  0  0  0  0  0  0  0  0  0  0  0
   11.6926    4.3723  -56.9601 H   0  0  0  0  0  0  0  0  0  0  0  0
   10.0952    3.7733  -56.3848 H   0  0  0  0  0  0  0  0  0  0  0  0
   11.2852    2.0319  -57.7179 H   0  0  0  0  0  0  0  0  0  0  0  0
   12.6005    3.5846  -59.1645 H   0  0  0  0  0  0  0  0  0  0  0  0
   11.6447    2.4282  -60.1612 H   0  0  0  0  0  0  0  0  0  0  0  0
    9.4439    1.5788  -59.3363 H   0  0  0  0  0  0  0  0  0  0  0  0
    8.7921    2.1674  -57.7600 H   0  0  0  0  0  0  0  0  0  0  0  0
    7.9978    4.5175  -57.5168 H   0  0  0  0  0  0  0  0  0  0  0  0
    8.0939    5.6492  -58.9230 H   0  0  0  0  0  0  0  0  0  0  0  0
    2.0550    2.3330  -59.8180 H   0  0  0  0  0  0  0  0  0  0  0  0
  1  2  1  0
  2  3  1  0
  2  4  1  0
  4  5  2  0
  5  6  1  0
  6  7  1  0
  7  8  2  0
  7  9  1  0
 10  9  1  6
 10 11  1  0
 11 12  1  0
 12 13  1  0
 13 14  1  0
 14 15  1  0
 15 16  1  0
 16 17  1  0
 16 18  1  0
 14 19  1  0
  6 20  2  0
 20 21  1  0
 21  4  1  0
 18 10  1  0
 19 10  1  0
 17 12  1  0
  1 22  1  0
  1 23  1  0
  1 24  1  0
  2 25  1  0
  3 26  1  0
  3 27  1  0
  3 28  1  0
  9 29  1  0
 11 30  1  0
 11 31  1  0
 12 32  1  6
 13 33  1  0
 13 34  1  0
 14 35  1  1
 15 36  1  0
 15 37  1  0
 16 38  1  1
 17 39  1  0
 17 40  1  0
 18 41  1  0
 18 42  1  0
 19 43  1  0
 19 44  1  0
 21 45  1  0
M  END
>  <meeko>  (41) 
{"is_sidechain": false}

$$$$

     RDKit          3D

 45 48  0  0  0  0  0  0  0  0999 V2000
    2.5310    2.6160  -63.2230 C   0  0  0  0  0  0  0  0  0  0  0  0
    3.7180    1.6840  -62.9740 C   0  0  0  0  0  0  0  0  0  0  0  0
    3.3180    0.2290  -63.2230 C   0  0  0  0  0  0  0  0  0  0  0  0
    4.2710    1.8660  -61.5990 C   0  0  0  0  0  0  0  0  0  0  0  0
    3.5360    1.6940  -60.4920 N   0  0  0  0  0  0  0  0  0  0  0  0
    4.4410    1.9350  -59.5310 N   0  0  0  0  0  0  0  0  0  0  0  0
    5.6530    2.2870  -60.0510 C   0  0  0  0  0  0  0  0  0  0  0  0
    6.8370    2.6250  -59.2880 C   0  0  0  0  0  0  0  0  0  0  0  0
    6.9820    2.3470  -58.1030 O   0  0  0  0  0  0  0  0  0  0  0  0
    7.8110    3.2910  -60.0240 N   0  0  0  0  0  0  0  0  0  0  0  0
    9.1290    3.6670  -59.4900 C   0  0  2  0  0  0  0  0  0  0  0  0
   10.0760    4.1760  -60.6050 C   0  0  0  0  0  0  0  0  0  0  0  0
   11.4220    4.6230  -60.0080 C   0  0  1  0  0  0  0  0  0  0  0  0
   11.1810    5.7630  -59.0060 C   0  0  0  0  0  0  0  0  0  0  0  0
   10.2600    5.2810  -57.8740 C   0  0  2  0  0  0  0  0  0  0  0  0
   10.9190    4.0980  -57.1500 C   0  0  0  0  0  0  0  0  0  0  0  0
   11.1570    2.9470  -58.1410 C   0  0  2  0  0  0  0  0  0  0  0  0
   12.0720    3.4350  -59.2770 C   0  0  0  0  0  0  0  0  0  0  0  0
    9.8090    2.4980  -58.7340 C   0  0  0  0  0  0  0  0  0  0  0  0
    8.9210    4.8240  -58.4730 C   0  0  0  0  0  0  0  0  0  0  0  0
    5.5740    2.2280  -61.3660 N   0  0  0  0  0  0  0  0  0  0  0  0
    2.1137    2.9437  -62.2594 H   0  0  0  0  0  0  0  0  0  0  0  0
    2.8675    3.4937  -63.7943 H   0  0  0  0  0  0  0  0  0  0  0  0
    1.7582    2.0809  -63.7943 H   0  0  0  0  0  0  0  0  0  0  0  0
    4.5150    1.9470  -63.6851 H   0  0  0  0  0  0  0  0  0  0  0  0
    3.1773   -0.2826  -62.2594 H   0  0  0  0  0  0  0  0  0  0  0  0
    2.3785    0.1996  -63.7943 H   0  0  0  0  0  0  0  0  0  0  0  0
    4.1105   -0.2765  -63.7943 H   0  0  0  0  0  0  0  0  0  0  0  0
    4.1780    1.8260  -58.5600 H   0  0  0  0  0  0  0  0  0  0  0  0
    7.7810    3.1370  -61.0240 H   0  0  0  0  0  0  0  0  0  0  0  0
   10.2521    3.3658  -61.3279 H   0  0  0  0  0  0  0  0  0  0  0  0
    9.6061    5.0357  -61.1051 H   0  0  0  0  0  0  0  0  0  0  0  0
   12.0854    4.9722  -60.8129 H   0  0  0  0  0  0  0  0  0  0  0  0
   12.1434    6.0841  -58.5810 H   0  0  0  0  0  0  0  0  0  0  0  0
   10.7033    6.6063  -59.5262 H   0  0  0  0  0  0  0  0  0  0  0  0
   10.0893    6.1015  -57.1615 H   0  0  0  0  0  0  0  0  0  0  0  0
   11.8818    4.4198  -56.7263 H   0  0  0  0  0  0  0  0  0  0  0  0
   10.2561    3.7513  -56.3436 H   0  0  0  0  0  0  0  0  0  0  0  0
   11.6316    2.1031  -57.6188 H   0  0  0  0  0  0  0  0  0  0  0  0
   13.0375    3.7516  -58.8556 H   0  0  0  0  0  0  0  0  0  0  0  0
   12.2263    2.6137  -59.9923 H   0  0  0  0  0  0  0  0  0  0  0  0
    9.9808    1.6666  -59.4334 H   0  0  0  0  0  0  0  0  0  0  0  0
    9.1507    2.1757  -57.9138 H   0  0  0  0  0  0  0  0  0  0  0  0
    8.2647    4.4757  -57.6618 H   0  0  0  0  0  0  0  0  0  0  0  0
    8.4654    5.6751  -59.0003 H   0  0  0  0  0  0  0  0  0  0  0  0
  1  2  1  0
  2  3  1  0
  2  4  1  0
  4  5  2  0
  5  6  1  0
  6  7  1  0
  7  8  1  0
  8  9  2  0
  8 10  1  0
 11 10  1  6
 11 12  1  0
 12 13  1  0
 13 14  1  0
 14 15  1  0
 15 16  1  0
 16 17  1  0
 17 18  1  0
 17 19  1  0
 15 20  1  0
  7 21  2  0
 21  4  1  0
 19 11  1  0
 20 11  1  0
 18 13  1  0
  1 22  1  0
  1 23  1  0
  1 24  1  0
  2 25  1  0
  3 26  1  0
  3 27  1  0
  3 28  1  0
  6 29  1  0
 10 30  1  0
 12 31  1  0
 12 32  1  0
 13 33  1  6
 14 34  1  0
 14 35  1  0
 15 36  1  1
 16 37  1  0
 16 38  1  0
 17 39  1  1
 18 40  1  0
 18 41  1  0
 19 42  1  0
 19 43  1  0
 20 44  1  0
 20 45  1  0
M  END
>  <meeko>  (42) 
{"is_sidechain": false}

$$$$

     RDKit          3D

 48 51  0  0  0  0  0  0  0  0999 V2000
    7.5180   -3.9880  -52.2750 C   0  0  0  0  0  0  0  0  0  0  0  0
    8.2290   -2.7970  -51.6270 C   0  0  0  0  0  0  0  0  0  0  0  0
    8.2830   -2.9920  -50.1100 C   0  0  0  0  0  0  0  0  0  0  0  0
    7.5170   -1.4890  -52.0150 C   0  0  0  0  0  0  0  0  0  0  0  0
    8.0870   -0.8660  -53.2400 C   0  0  0  0  0  0  0  0  0  0  0  0
    9.2350   -1.1400  -53.8180 N   0  0  0  0  0  0  0  0  0  0  0  0
    9.3450   -0.3500  -54.9410 N   0  0  0  0  0  0  0  0  0  0  0  0
    8.2780    0.4200  -55.0110 C   0  0  0  0  0  0  0  0  0  0  0  0
    8.0250    1.3920  -56.0560 C   0  0  0  0  0  0  0  0  0  0  0  0
    6.9030    1.7400  -56.4050 O   0  0  0  0  0  0  0  0  0  0  0  0
    9.1810    1.8980  -56.6430 N   0  0  0  0  0  0  0  0  0  0  0  0
    9.1820    2.8350  -57.7750 C   0  0  2  0  0  0  0  0  0  0  0  0
    8.2860    2.3350  -58.9350 C   0  0  0  0  0  0  0  0  0  0  0  0
    8.3590    3.3030  -60.1300 C   0  0  1  0  0  0  0  0  0  0  0  0
    7.8940    4.6990  -59.6810 C   0  0  0  0  0  0  0  0  0  0  0  0
    8.8030    5.2230  -58.5560 C   0  0  2  0  0  0  0  0  0  0  0  0
   10.2500    5.2960  -59.0650 C   0  0  0  0  0  0  0  0  0  0  0  0
   10.7220    3.9020  -59.5040 C   0  0  2  0  0  0  0  0  0  0  0  0
    9.8100    3.3870  -60.6290 C   0  0  0  0  0  0  0  0  0  0  0  0
   10.6380    2.9420  -58.3070 C   0  0  0  0  0  0  0  0  0  0  0  0
    8.7320    4.2590  -57.3580 C   0  0  0  0  0  0  0  0  0  0  0  0
    7.4580    0.1160  -53.9560 N   0  0  0  0  0  0  0  0  0  0  0  0
    7.1227   -4.6501  -51.4906 H   0  0  0  0  0  0  0  0  0  0  0  0
    6.6890   -3.6244  -52.9000 H   0  0  0  0  0  0  0  0  0  0  0  0
    8.2314   -4.5452  -52.9000 H   0  0  0  0  0  0  0  0  0  0  0  0
    9.2641   -2.7327  -51.9936 H   0  0  0  0  0  0  0  0  0  0  0  0
    8.0216   -2.0480  -49.6094 H   0  0  0  0  0  0  0  0  0  0  0  0
    7.5675   -3.7738  -49.8151 H   0  0  0  0  0  0  0  0  0  0  0  0
    9.2987   -3.2944  -49.8151 H   0  0  0  0  0  0  0  0  0  0  0  0
    6.4536   -1.7068  -52.1933 H   0  0  0  0  0  0  0  0  0  0  0  0
    7.6536   -0.7782  -51.1867 H   0  0  0  0  0  0  0  0  0  0  0  0
    9.9950    1.3020  -56.5740 H   0  0  0  0  0  0  0  0  0  0  0  0
    8.6291    1.3398  -59.2541 H   0  0  0  0  0  0  0  0  0  0  0  0
    7.2452    2.2830  -58.5830 H   0  0  0  0  0  0  0  0  0  0  0  0
    7.7105    2.9394  -60.9407 H   0  0  0  0  0  0  0  0  0  0  0  0
    7.9385    5.3896  -60.5360 H   0  0  0  0  0  0  0  0  0  0  0  0
    6.8616    4.6315  -59.3074 H   0  0  0  0  0  0  0  0  0  0  0  0
    8.4704    6.2247  -58.2460 H   0  0  0  0  0  0  0  0  0  0  0  0
   10.3009    5.9845  -59.9214 H   0  0  0  0  0  0  0  0  0  0  0  0
   10.9001    5.6596  -58.2556 H   0  0  0  0  0  0  0  0  0  0  0  0
   11.7594    3.9586  -59.8655 H   0  0  0  0  0  0  0  0  0  0  0  0
    9.8619    4.0762  -61.4847 H   0  0  0  0  0  0  0  0  0  0  0  0
   10.1453    2.3856  -60.9367 H   0  0  0  0  0  0  0  0  0  0  0  0
   10.9793    1.9448  -58.6219 H   0  0  0  0  0  0  0  0  0  0  0  0
   11.2760    3.3331  -57.5008 H   0  0  0  0  0  0  0  0  0  0  0  0
    9.3919    4.6269  -56.5585 H   0  0  0  0  0  0  0  0  0  0  0  0
    7.6922    4.2120  -57.0022 H   0  0  0  0  0  0  0  0  0  0  0  0
    6.5420    0.5010  -53.7840 H   0  0  0  0  0  0  0  0  0  0  0  0
  1  2  1  0
  2  3  1  0
  2  4  1  0
  4  5  1  0
  5  6  2  0
  6  7  1  0
  7  8  2  0
  8  9  1  0
  9 10  2  0
  9 11  1  0
 12 11  1  1
 12 13  1  0
 13 14  1  0
 14 15  1  0
 15 16  1  0
 16 17  1  0
 17 18  1  0
 18 19  1  0
 18 20  1  0
 16 21  1  0
  8 22  1  0
 22  5  1  0
 20 12  1  0
 21 12  1  0
 19 14  1  0
  1 23  1  0
  1 24  1  0
  1 25  1  0
  2 26  1  0
  3 27  1  0
  3 28  1  0
  3 29  1  0
  4 30  1  0
  4 31  1  0
 11 32  1  0
 13 33  1  0
 13 34  1  0
 14 35  1  6
 15 36  1  0
 15 37  1  0
 16 38  1  1
 17 39  1  0
 17 40  1  0
 18 41  1  6
 19 42  1  0
 19 43  1  0
 20 44  1  0
 20 45  1  0
 21 46  1  0
 21 47  1  0
 22 48  1  0
M  END
>  <meeko>  (43) 
{"is_sidechain": false}

$$$$

     RDKit          3D

 48 51  0  0  0  0  0  0  0  0999 V2000
    7.7720   -5.0760  -50.5030 C   0  0  0  0  0  0  0  0  0  0  0  0
    6.8440   -3.9420  -50.0650 C   0  0  0  0  0  0  0  0  0  0  0  0
    5.5320   -3.9880  -50.8500 C   0  0  0  0  0  0  0  0  0  0  0  0
    7.5240   -2.5630  -50.1280 C   0  0  0  0  0  0  0  0  0  0  0  0
    8.1500   -2.2450  -51.4410 C   0  0  0  0  0  0  0  0  0  0  0  0
    9.2320   -2.7750  -51.9690 N   0  0  0  0  0  0  0  0  0  0  0  0
    9.3550   -2.1240  -53.1930 C   0  0  0  0  0  0  0  0  0  0  0  0
   10.4680   -2.4160  -54.1240 C   0  0  0  0  0  0  0  0  0  0  0  0
   11.4970   -1.7500  -54.1940 O   0  0  0  0  0  0  0  0  0  0  0  0
   10.2150   -3.5280  -54.9080 N   0  0  0  0  0  0  0  0  0  0  0  0
   11.1070   -4.0840  -55.9210 C   0  0  2  0  0  0  0  0  0  0  0  0
   12.2740   -4.8760  -55.2810 C   0  0  0  0  0  0  0  0  0  0  0  0
   13.1700   -5.4940  -56.3690 C   0  0  1  0  0  0  0  0  0  0  0  0
   12.3350   -6.4530  -57.2320 C   0  0  0  0  0  0  0  0  0  0  0  0
   11.1800   -5.6890  -57.8970 C   0  0  2  0  0  0  0  0  0  0  0  0
   11.7510   -4.5710  -58.7820 C   0  0  0  0  0  0  0  0  0  0  0  0
   12.5840   -3.6000  -57.9290 C   0  0  2  0  0  0  0  0  0  0  0  0
   13.7330   -4.3710  -57.2590 C   0  0  0  0  0  0  0  0  0  0  0  0
   11.6870   -2.9820  -56.8410 C   0  0  0  0  0  0  0  0  0  0  0  0
   10.2930   -5.0650  -56.8070 C   0  0  0  0  0  0  0  0  0  0  0  0
    8.3800   -1.2270  -53.4210 N   0  0  0  0  0  0  0  0  0  0  0  0
    7.6370   -1.3270  -52.3120 N   0  0  0  0  0  0  0  0  0  0  0  0
    8.1826   -5.5777  -49.6144 H   0  0  0  0  0  0  0  0  0  0  0  0
    7.2054   -5.8018  -51.1048 H   0  0  0  0  0  0  0  0  0  0  0  0
    8.5955   -4.6641  -51.1048 H   0  0  0  0  0  0  0  0  0  0  0  0
    6.6028   -4.0994  -49.0034 H   0  0  0  0  0  0  0  0  0  0  0  0
    4.6856   -4.0177  -50.1481 H   0  0  0  0  0  0  0  0  0  0  0  0
    5.4520   -3.0921  -51.4832 H   0  0  0  0  0  0  0  0  0  0  0  0
    5.5149   -4.8873  -51.4832 H   0  0  0  0  0  0  0  0  0  0  0  0
    6.7658   -1.7955  -49.9135 H   0  0  0  0  0  0  0  0  0  0  0  0
    8.3380   -2.5804  -49.3883 H   0  0  0  0  0  0  0  0  0  0  0  0
    9.3180   -3.9740  -54.7310 H   0  0  0  0  0  0  0  0  0  0  0  0
   12.8756   -4.1953  -54.6608 H   0  0  0  0  0  0  0  0  0  0  0  0
   11.8569   -5.6850  -54.6633 H   0  0  0  0  0  0  0  0  0  0  0  0
   13.9969   -6.0457  -55.8981 H   0  0  0  0  0  0  0  0  0  0  0  0
   12.9753   -6.8948  -58.0097 H   0  0  0  0  0  0  0  0  0  0  0  0
   11.9224   -7.2479  -56.5933 H   0  0  0  0  0  0  0  0  0  0  0  0
   10.5856   -6.3808  -58.5119 H   0  0  0  0  0  0  0  0  0  0  0  0
   12.3905   -5.0130  -59.5603 H   0  0  0  0  0  0  0  0  0  0  0  0
   10.9212   -4.0208  -59.2496 H   0  0  0  0  0  0  0  0  0  0  0  0
   12.9940   -2.8043  -58.5683 H   0  0  0  0  0  0  0  0  0  0  0  0
   14.3771   -4.8104  -58.0349 H   0  0  0  0  0  0  0  0  0  0  0  0
   14.3165   -3.6770  -56.6361 H   0  0  0  0  0  0  0  0  0  0  0  0
   12.2826   -2.2826  -56.2359 H   0  0  0  0  0  0  0  0  0  0  0  0
   10.8547   -2.4519  -57.3270 H   0  0  0  0  0  0  0  0  0  0  0  0
    9.4674   -4.5174  -57.2850 H   0  0  0  0  0  0  0  0  0  0  0  0
    9.9024   -5.8715  -56.1690 H   0  0  0  0  0  0  0  0  0  0  0  0
    6.8120   -0.7480  -52.2160 H   0  0  0  0  0  0  0  0  0  0  0  0
  1  2  1  0
  2  3  1  0
  2  4  1  0
  4  5  1  0
  5  6  2  0
  6  7  1  0
  7  8  1  0
  8  9  2  0
  8 10  1  0
 11 10  1  1
 11 12  1  0
 12 13  1  0
 13 14  1  0
 14 15  1  0
 15 16  1  0
 16 17  1  0
 17 18  1  0
 17 19  1  0
 15 20  1  0
  7 21  2  0
 21 22  1  0
 22  5  1  0
 19 11  1  0
 20 11  1  0
 18 13  1  0
  1 23  1  0
  1 24  1  0
  1 25  1  0
  2 26  1  0
  3 27  1  0
  3 28  1  0
  3 29  1  0
  4 30  1  0
  4 31  1  0
 10 32  1  0
 12 33  1  0
 12 34  1  0
 13 35  1  1
 14 36  1  0
 14 37  1  0
 15 38  1  6
 16 39  1  0
 16 40  1  0
 17 41  1  6
 18 42  1  0
 18 43  1  0
 19 44  1  0
 19 45  1  0
 20 46  1  0
 20 47  1  0
 22 48  1  0
M  END
>  <meeko>  (44) 
{"is_sidechain": false}

$$$$

     RDKit          3D

 48 51  0  0  0  0  0  0  0  0999 V2000
    8.4400   -3.0120  -50.2480 C   0  0  0  0  0  0  0  0  0  0  0  0
    8.3100   -2.8270  -51.7610 C   0  0  0  0  0  0  0  0  0  0  0  0
    7.5480   -4.0120  -52.3630 C   0  0  0  0  0  0  0  0  0  0  0  0
    7.6240   -1.4850  -52.0710 C   0  0  0  0  0  0  0  0  0  0  0  0
    8.1150   -0.8480  -53.3220 C   0  0  0  0  0  0  0  0  0  0  0  0
    9.2920   -1.1590  -53.8810 N   0  0  0  0  0  0  0  0  0  0  0  0
    9.2990   -0.3530  -54.9560 N   0  0  0  0  0  0  0  0  0  0  0  0
    8.1670    0.4000  -55.0200 C   0  0  0  0  0  0  0  0  0  0  0  0
    7.8810    1.3610  -56.0560 C   0  0  0  0  0  0  0  0  0  0  0  0
    6.7380    1.6800  -56.3630 O   0  0  0  0  0  0  0  0  0  0  0  0
    9.0150    1.8660  -56.6500 N   0  0  0  0  0  0  0  0  0  0  0  0
    9.0580    2.8520  -57.7290 C   0  0  2  0  0  0  0  0  0  0  0  0
    8.7460    4.2780  -57.2110 C   0  0  0  0  0  0  0  0  0  0  0  0
    8.8450    5.3030  -58.3560 C   0  0  1  0  0  0  0  0  0  0  0  0
   10.2690    5.2840  -58.9340 C   0  0  0  0  0  0  0  0  0  0  0  0
   10.5980    3.8840  -59.4740 C   0  0  2  0  0  0  0  0  0  0  0  0
    9.5920    3.5150  -60.5760 C   0  0  0  0  0  0  0  0  0  0  0  0
    8.1640    3.5230  -60.0080 C   0  0  2  0  0  0  0  0  0  0  0  0
    7.8440    4.9240  -59.4600 C   0  0  0  0  0  0  0  0  0  0  0  0
    8.0660    2.4980  -58.8640 C   0  0  0  0  0  0  0  0  0  0  0  0
   10.4890    2.8630  -58.3300 C   0  0  0  0  0  0  0  0  0  0  0  0
    7.3890    0.1050  -53.9930 N   0  0  0  0  0  0  0  0  0  0  0  0
    7.8814   -2.2171  -49.7321 H   0  0  0  0  0  0  0  0  0  0  0  0
    8.0312   -3.9923  -49.9620 H   0  0  0  0  0  0  0  0  0  0  0  0
    9.5009   -2.9596  -49.9620 H   0  0  0  0  0  0  0  0  0  0  0  0
    9.3091   -2.8011  -52.2204 H   0  0  0  0  0  0  0  0  0  0  0  0
    7.1452   -4.6384  -51.5534 H   0  0  0  0  0  0  0  0  0  0  0  0
    6.7204   -3.6385  -52.9839 H   0  0  0  0  0  0  0  0  0  0  0  0
    8.2313   -4.6100  -52.9839 H   0  0  0  0  0  0  0  0  0  0  0  0
    6.5426   -1.6604  -52.1698 H   0  0  0  0  0  0  0  0  0  0  0  0
    7.8591   -0.8002  -51.2429 H   0  0  0  0  0  0  0  0  0  0  0  0
   10.0860   -0.3570  -55.5970 H   0  0  0  0  0  0  0  0  0  0  0  0
    9.8890    1.4980  -56.2810 H   0  0  0  0  0  0  0  0  0  0  0  0
    7.7277    4.2971  -56.7954 H   0  0  0  0  0  0  0  0  0  0  0  0
    9.4785    4.5417  -56.4339 H   0  0  0  0  0  0  0  0  0  0  0  0
    8.6152    6.3088  -57.9746 H   0  0  0  0  0  0  0  0  0  0  0  0
   10.3399    6.0159  -59.7521 H   0  0  0  0  0  0  0  0  0  0  0  0
   10.9847    5.5420  -58.1395 H   0  0  0  0  0  0  0  0  0  0  0  0
   11.6182    3.8763  -59.8853 H   0  0  0  0  0  0  0  0  0  0  0  0
    9.6628    4.2471  -61.3939 H   0  0  0  0  0  0  0  0  0  0  0  0
    9.8243    2.5088  -60.9549 H   0  0  0  0  0  0  0  0  0  0  0  0
    7.4488    3.2622  -60.8021 H   0  0  0  0  0  0  0  0  0  0  0  0
    7.9091    5.6575  -60.2771 H   0  0  0  0  0  0  0  0  0  0  0  0
    6.8281    4.9213  -59.0383 H   0  0  0  0  0  0  0  0  0  0  0  0
    7.0417    2.5007  -58.4629 H   0  0  0  0  0  0  0  0  0  0  0  0
    8.3178    1.5021  -59.2574 H   0  0  0  0  0  0  0  0  0  0  0  0
   10.7237    1.8610  -58.7185 H   0  0  0  0  0  0  0  0  0  0  0  0
   11.1992    3.1457  -57.5390 H   0  0  0  0  0  0  0  0  0  0  0  0
  1  2  1  0
  2  3  1  0
  2  4  1  0
  4  5  1  0
  5  6  2  0
  6  7  1  0
  7  8  1  0
  8  9  1  0
  9 10  2  0
  9 11  1  0
 12 11  1  1
 12 13  1  0
 13 14  1  0
 14 15  1  0
 15 16  1  0
 16 17  1  0
 17 18  1  0
 18 19  1  0
 18 20  1  0
 16 21  1  0
  8 22  2  0
 22  5  1  0
 20 12  1  0
 21 12  1  0
 19 14  1  0
  1 23  1  0
  1 24  1  0
  1 25  1  0
  2 26  1  0
  3 27  1  0
  3 28  1  0
  3 29  1  0
  4 30  1  0
  4 31  1  0
  7 32  1  0
 11 33  1  0
 13 34  1  0
 13 35  1  0
 14 36  1  1
 15 37  1  0
 15 38  1  0
 16 39  1  6
 17 40  1  0
 17 41  1  0
 18 42  1  6
 19 43  1  0
 19 44  1  0
 20 45  1  0
 20 46  1  0
 21 47  1  0
 21 48  1  0
M  END
>  <meeko>  (45) 
{"is_sidechain": false}

$$$$

     RDKit          3D

 45 48  0  0  0  0  0  0  0  0999 V2000
    5.2190   -4.3510  -50.4300 C   0  0  0  0  0  0  0  0  0  0  0  0
    6.7380   -4.3900  -50.3540 C   0  0  0  0  0  0  0  0  0  0  0  0
    7.3210   -2.9970  -50.1210 C   0  0  0  0  0  0  0  0  0  0  0  0
    7.9980   -2.4850  -51.3400 C   0  0  0  0  0  0  0  0  0  0  0  0
    7.7020   -1.4010  -52.0230 N   0  0  0  0  0  0  0  0  0  0  0  0
    8.5610   -1.3270  -53.0960 N   0  0  0  0  0  0  0  0  0  0  0  0
    9.3900   -2.3490  -53.0340 C   0  0  0  0  0  0  0  0  0  0  0  0
   10.4450   -2.6220  -53.9890 C   0  0  0  0  0  0  0  0  0  0  0  0
   11.5210   -2.0340  -54.0020 O   0  0  0  0  0  0  0  0  0  0  0  0
   10.1310   -3.6240  -54.9000 N   0  0  0  0  0  0  0  0  0  0  0  0
   11.0650   -4.1320  -55.9150 C   0  0  2  0  0  0  0  0  0  0  0  0
   11.6340   -3.0000  -56.8080 C   0  0  0  0  0  0  0  0  0  0  0  0
   12.5620   -3.5770  -57.8920 C   0  0  1  0  0  0  0  0  0  0  0  0
   13.7170   -4.3370  -57.2180 C   0  0  0  0  0  0  0  0  0  0  0  0
   13.1640   -5.4890  -56.3620 C   0  0  2  0  0  0  0  0  0  0  0  0
   12.3630   -6.4470  -57.2570 C   0  0  0  0  0  0  0  0  0  0  0  0
   11.2020   -5.6930  -57.9260 C   0  0  2  0  0  0  0  0  0  0  0  0
   11.7650   -4.5460  -58.7800 C   0  0  0  0  0  0  0  0  0  0  0  0
   10.2870   -5.1100  -56.8380 C   0  0  0  0  0  0  0  0  0  0  0  0
   12.2380   -4.9150  -55.2740 C   0  0  0  0  0  0  0  0  0  0  0  0
    9.0560   -3.1080  -51.9410 N   0  0  0  0  0  0  0  0  0  0  0  0
    4.8011   -4.3403  -49.4125 H   0  0  0  0  0  0  0  0  0  0  0  0
    4.9019   -3.4444  -50.9662 H   0  0  0  0  0  0  0  0  0  0  0  0
    4.8558   -5.2401  -50.9662 H   0  0  0  0  0  0  0  0  0  0  0  0
    7.0380   -5.0468  -49.5242 H   0  0  0  0  0  0  0  0  0  0  0  0
    7.1227   -4.7703  -51.3118 H   0  0  0  0  0  0  0  0  0  0  0  0
    6.5074   -2.3092  -49.8472 H   0  0  0  0  0  0  0  0  0  0  0  0
    8.0639   -3.0621  -49.3124 H   0  0  0  0  0  0  0  0  0  0  0  0
    9.4300   -4.2830  -54.5910 H   0  0  0  0  0  0  0  0  0  0  0  0
   10.8012   -2.4681  -57.2913 H   0  0  0  0  0  0  0  0  0  0  0  0
   12.2132   -2.3093  -56.1775 H   0  0  0  0  0  0  0  0  0  0  0  0
   12.9659   -2.7598  -58.5076 H   0  0  0  0  0  0  0  0  0  0  0  0
   14.3836   -4.7461  -57.9915 H   0  0  0  0  0  0  0  0  0  0  0  0
   14.2749   -3.6438  -56.5712 H   0  0  0  0  0  0  0  0  0  0  0  0
   13.9962   -6.0323  -55.8905 H   0  0  0  0  0  0  0  0  0  0  0  0
   13.0246   -6.8598  -58.0328 H   0  0  0  0  0  0  0  0  0  0  0  0
   11.9569   -7.2628  -56.6409 H   0  0  0  0  0  0  0  0  0  0  0  0
   10.6307   -6.3832  -58.5642 H   0  0  0  0  0  0  0  0  0  0  0  0
   12.4271   -4.9591  -59.5552 H   0  0  0  0  0  0  0  0  0  0  0  0
   10.9330   -4.0037  -59.2529 H   0  0  0  0  0  0  0  0  0  0  0  0
    9.4588   -4.5682  -57.3180 H   0  0  0  0  0  0  0  0  0  0  0  0
    9.9040   -5.9384  -56.2240 H   0  0  0  0  0  0  0  0  0  0  0  0
   11.8342   -5.7410  -54.6701 H   0  0  0  0  0  0  0  0  0  0  0  0
   12.8183   -4.2287  -54.6398 H   0  0  0  0  0  0  0  0  0  0  0  0
    9.4750   -3.9850  -51.6740 H   0  0  0  0  0  0  0  0  0  0  0  0
  1  2  1  0
  2  3  1  0
  3  4  1  0
  4  5  2  0
  5  6  1  0
  6  7  2  0
  7  8  1  0
  8  9  2  0
  8 10  1  0
 11 10  1  1
 11 12  1  0
 12 13  1  0
 13 14  1  0
 14 15  1  0
 15 16  1  0
 16 17  1  0
 17 18  1  0
 17 19  1  0
 15 20  1  0
  7 21  1  0
 21  4  1  0
 19 11  1  0
 20 11  1  0
 18 13  1  0
  1 22  1  0
  1 23  1  0
  1 24  1  0
  2 25  1  0
  2 26  1  0
  3 27  1  0
  3 28  1  0
 10 29  1  0
 12 30  1  0
 12 31  1  0
 13 32  1  6
 14 33  1  0
 14 34  1  0
 15 35  1  1
 16 36  1  0
 16 37  1  0
 17 38  1  6
 18 39  1  0
 18 40  1  0
 19 41  1  0
 19 42  1  0
 20 43  1  0
 20 44  1  0
 21 45  1  0
M  END
>  <meeko>  (46) 
{"is_sidechain": false}

$$$$

     RDKit          3D

 45 48  0  0  0  0  0  0  0  0999 V2000
    5.3670   -4.2960  -50.4650 C   0  0  0  0  0  0  0  0  0  0  0  0
    6.8640   -4.2950  -50.2000 C   0  0  0  0  0  0  0  0  0  0  0  0
    7.4100   -2.8730  -50.0810 C   0  0  0  0  0  0  0  0  0  0  0  0
    8.1010   -2.4550  -51.3290 C   0  0  0  0  0  0  0  0  0  0  0  0
    9.1560   -3.0040  -51.8900 N   0  0  0  0  0  0  0  0  0  0  0  0
    9.3730   -2.2230  -53.0220 C   0  0  0  0  0  0  0  0  0  0  0  0
   10.4820   -2.4970  -53.9620 C   0  0  0  0  0  0  0  0  0  0  0  0
   11.5320   -1.8620  -53.9870 O   0  0  0  0  0  0  0  0  0  0  0  0
   10.2000   -3.5540  -54.8090 N   0  0  0  0  0  0  0  0  0  0  0  0
   11.0810   -4.0780  -55.8510 C   0  0  2  0  0  0  0  0  0  0  0  0
   11.6240   -2.9480  -56.7610 C   0  0  0  0  0  0  0  0  0  0  0  0
   12.5080   -3.5310  -57.8780 C   0  0  1  0  0  0  0  0  0  0  0  0
   13.6830   -4.2970  -57.2460 C   0  0  0  0  0  0  0  0  0  0  0  0
   13.1570   -5.4440  -56.3670 C   0  0  2  0  0  0  0  0  0  0  0  0
   12.3190   -6.4000  -57.2310 C   0  0  0  0  0  0  0  0  0  0  0  0
   11.1380   -5.6430  -57.8590 C   0  0  2  0  0  0  0  0  0  0  0  0
   11.6740   -4.4990  -58.7320 C   0  0  0  0  0  0  0  0  0  0  0  0
   10.2650   -5.0550  -56.7380 C   0  0  0  0  0  0  0  0  0  0  0  0
   12.2730   -4.8630  -55.2490 C   0  0  0  0  0  0  0  0  0  0  0  0
    8.4830   -1.2240  -53.1570 N   0  0  0  0  0  0  0  0  0  0  0  0
    7.7000   -1.3920  -52.0850 N   0  0  0  0  0  0  0  0  0  0  0  0
    4.8252   -4.2964  -49.5077 H   0  0  0  0  0  0  0  0  0  0  0  0
    5.0957   -3.3980  -51.0395 H   0  0  0  0  0  0  0  0  0  0  0  0
    5.0969   -5.1943  -51.0395 H   0  0  0  0  0  0  0  0  0  0  0  0
    7.0613   -4.8335  -49.2613 H   0  0  0  0  0  0  0  0  0  0  0  0
    7.3649   -4.7876  -51.0464 H   0  0  0  0  0  0  0  0  0  0  0  0
    6.5755   -2.1837  -49.8851 H   0  0  0  0  0  0  0  0  0  0  0  0
    8.1369   -2.8475  -49.2558 H   0  0  0  0  0  0  0  0  0  0  0  0
    9.2870   -3.9800  -54.6640 H   0  0  0  0  0  0  0  0  0  0  0  0
   10.7779   -2.4097  -57.2131 H   0  0  0  0  0  0  0  0  0  0  0  0
   12.2293   -2.2611  -56.1513 H   0  0  0  0  0  0  0  0  0  0  0  0
   12.8922   -2.7165  -58.5097 H   0  0  0  0  0  0  0  0  0  0  0  0
   14.3174   -4.7116  -58.0433 H   0  0  0  0  0  0  0  0  0  0  0  0
   14.2684   -3.6056  -56.6220 H   0  0  0  0  0  0  0  0  0  0  0  0
   14.0031   -5.9896  -55.9238 H   0  0  0  0  0  0  0  0  0  0  0  0
   12.9502   -6.8172  -58.0295 H   0  0  0  0  0  0  0  0  0  0  0  0
   11.9317   -7.2124  -56.5985 H   0  0  0  0  0  0  0  0  0  0  0  0
   10.5419   -6.3314  -58.4761 H   0  0  0  0  0  0  0  0  0  0  0  0
   12.3049   -4.9156  -59.5310 H   0  0  0  0  0  0  0  0  0  0  0  0
   10.8262   -3.9532  -59.1716 H   0  0  0  0  0  0  0  0  0  0  0  0
    9.4202   -4.5124  -57.1873 H   0  0  0  0  0  0  0  0  0  0  0  0
    9.9021   -5.8802  -56.1076 H   0  0  0  0  0  0  0  0  0  0  0  0
   11.8880   -5.6853  -54.6280 H   0  0  0  0  0  0  0  0  0  0  0  0
   12.8780   -4.1769  -54.6381 H   0  0  0  0  0  0  0  0  0  0  0  0
    6.9240   -0.7570  -51.9350 H   0  0  0  0  0  0  0  0  0  0  0  0
  1  2  1  0
  2  3  1  0
  3  4  1  0
  4  5  2  0
  5  6  1  0
  6  7  1  0
  7  8  2  0
  7  9  1  0
 10  9  1  1
 10 11  1  0
 11 12  1  0
 12 13  1  0
 13 14  1  0
 14 15  1  0
 15 16  1  0
 16 17  1  0
 16 18  1  0
 14 19  1  0
  6 20  2  0
 20 21  1  0
 21  4  1  0
 18 10  1  0
 19 10  1  0
 17 12  1  0
  1 22  1  0
  1 23  1  0
  1 24  1  0
  2 25  1  0
  2 26  1  0
  3 27  1  0
  3 28  1  0
  9 29  1  0
 11 30  1  0
 11 31  1  0
 12 32  1  6
 13 33  1  0
 13 34  1  0
 14 35  1  1
 15 36  1  0
 15 37  1  0
 16 38  1  6
 17 39  1  0
 17 40  1  0
 18 41  1  0
 18 42  1  0
 19 43  1  0
 19 44  1  0
 21 45  1  0
M  END
>  <meeko>  (47) 
{"is_sidechain": false}

$$$$

     RDKit          3D

 45 48  0  0  0  0  0  0  0  0999 V2000
    5.1780   -4.3940  -50.3020 C   0  0  0  0  0  0  0  0  0  0  0  0
    6.6970   -4.3630  -50.3690 C   0  0  0  0  0  0  0  0  0  0  0  0
    7.2360   -2.9440  -50.1910 C   0  0  0  0  0  0  0  0  0  0  0  0
    7.9650   -2.4710  -51.3960 C   0  0  0  0  0  0  0  0  0  0  0  0
    7.6460   -1.3450  -52.0460 N   0  0  0  0  0  0  0  0  0  0  0  0
    8.5370   -1.3590  -53.0510 N   0  0  0  0  0  0  0  0  0  0  0  0
    9.3830   -2.4270  -52.9640 C   0  0  0  0  0  0  0  0  0  0  0  0
   10.4660   -2.7270  -53.8790 C   0  0  0  0  0  0  0  0  0  0  0  0
   11.5250   -2.1090  -53.9010 O   0  0  0  0  0  0  0  0  0  0  0  0
   10.1960   -3.7790  -54.7470 N   0  0  0  0  0  0  0  0  0  0  0  0
   11.1100   -4.2170  -55.8130 C   0  0  2  0  0  0  0  0  0  0  0  0
   12.3680   -4.9270  -55.2520 C   0  0  0  0  0  0  0  0  0  0  0  0
   13.2690   -5.4200  -56.3990 C   0  0  1  0  0  0  0  0  0  0  0  0
   12.4880   -6.4210  -57.2630 C   0  0  0  0  0  0  0  0  0  0  0  0
   11.2420   -5.7430  -57.8510 C   0  0  2  0  0  0  0  0  0  0  0  0
   11.6720   -4.5460  -58.7140 C   0  0  0  0  0  0  0  0  0  0  0  0
   12.4490   -3.5340  -57.8580 C   0  0  2  0  0  0  0  0  0  0  0  0
   13.6900   -4.2200  -57.2630 C   0  0  0  0  0  0  0  0  0  0  0  0
   11.5480   -3.0360  -56.7150 C   0  0  0  0  0  0  0  0  0  0  0  0
   10.3520   -5.2430  -56.7030 C   0  0  0  0  0  0  0  0  0  0  0  0
    9.0210   -3.1610  -51.9290 N   0  0  0  0  0  0  0  0  0  0  0  0
    4.8575   -4.4005  -49.2498 H   0  0  0  0  0  0  0  0  0  0  0  0
    4.7706   -3.5040  -50.8039 H   0  0  0  0  0  0  0  0  0  0  0  0
    4.8072   -5.2999  -50.8039 H   0  0  0  0  0  0  0  0  0  0  0  0
    7.1032   -5.0024  -49.5714 H   0  0  0  0  0  0  0  0  0  0  0  0
    7.0066   -4.7284  -51.3593 H   0  0  0  0  0  0  0  0  0  0  0  0
    6.3924   -2.2653  -49.9970 H   0  0  0  0  0  0  0  0  0  0  0  0
    7.9421   -2.9518  -49.3476 H   0  0  0  0  0  0  0  0  0  0  0  0
    8.5030   -0.6350  -53.7580 H   0  0  0  0  0  0  0  0  0  0  0  0
    9.2160   -3.9610  -54.9180 H   0  0  0  0  0  0  0  0  0  0  0  0
   12.9332   -4.2203  -54.6265 H   0  0  0  0  0  0  0  0  0  0  0  0
   12.0491   -5.7935  -54.6542 H   0  0  0  0  0  0  0  0  0  0  0  0
   14.1630   -5.9094  -55.9851 H   0  0  0  0  0  0  0  0  0  0  0  0
   13.1311   -6.7755  -58.0820 H   0  0  0  0  0  0  0  0  0  0  0  0
   12.1770   -7.2722  -56.6395 H   0  0  0  0  0  0  0  0  0  0  0  0
   10.6858   -6.4632  -58.4690 H   0  0  0  0  0  0  0  0  0  0  0  0
   12.3150   -4.8998  -59.5334 H   0  0  0  0  0  0  0  0  0  0  0  0
   10.7767   -4.0580  -59.1268 H   0  0  0  0  0  0  0  0  0  0  0  0
   12.7589   -2.6829  -58.4822 H   0  0  0  0  0  0  0  0  0  0  0  0
   14.3387   -4.5698  -58.0796 H   0  0  0  0  0  0  0  0  0  0  0  0
   14.2333   -3.4983  -56.6354 H   0  0  0  0  0  0  0  0  0  0  0  0
   12.1032   -2.3048  -56.1092 H   0  0  0  0  0  0  0  0  0  0  0  0
   10.6514   -2.5684  -57.1478 H   0  0  0  0  0  0  0  0  0  0  0  0
    9.4580   -4.7609  -57.1253 H   0  0  0  0  0  0  0  0  0  0  0  0
   10.0689   -6.1041  -56.0798 H   0  0  0  0  0  0  0  0  0  0  0  0
  1  2  1  0
  2  3  1  0
  3  4  1  0
  4  5  2  0
  5  6  1  0
  6  7  1  0
  7  8  1  0
  8  9  2  0
  8 10  1  0
 11 10  1  1
 11 12  1  0
 12 13  1  0
 13 14  1  0
 14 15  1  0
 15 16  1  0
 16 17  1  0
 17 18  1  0
 17 19  1  0
 15 20  1  0
  7 21  2  0
 21  4  1  0
 19 11  1  0
 20 11  1  0
 18 13  1  0
  1 22  1  0
  1 23  1  0
  1 24  1  0
  2 25  1  0
  2 26  1  0
  3 27  1  0
  3 28  1  0
  6 29  1  0
 10 30  1  0
 12 31  1  0
 12 32  1  0
 13 33  1  1
 14 34  1  0
 14 35  1  0
 15 36  1  6
 16 37  1  0
 16 38  1  0
 17 39  1  6
 18 40  1  0
 18 41  1  0
 19 42  1  0
 19 43  1  0
 20 44  1  0
 20 45  1  0
M  END
>  <meeko>  (48) 
{"is_sidechain": false}

$$$$

     RDKit          3D

 32 34  0  0  0  0  0  0  0  0999 V2000
   11.1660   -1.3370  -56.1460 O   0  0  0  0  0  0  0  0  0  0  0  0
   11.2170   -2.4180  -55.5500 C   0  0  0  0  0  0  0  0  0  0  0  0
   10.8140   -2.5300  -54.1550 C   0  0  0  0  0  0  0  0  0  0  0  0
   11.5370   -2.3320  -53.0690 N   0  0  0  0  0  0  0  0  0  0  0  0
   10.7100   -2.5820  -51.9930 N   0  0  0  0  0  0  0  0  0  0  0  0
    9.5410   -2.9300  -52.4890 C   0  0  0  0  0  0  0  0  0  0  0  0
    8.3070   -3.3050  -51.8110 C   0  0  0  0  0  0  0  0  0  0  0  0
    8.0680   -2.8530  -50.5030 C   0  0  0  0  0  0  0  0  0  0  0  0
    6.8930   -3.1980  -49.8290 C   0  0  0  0  0  0  0  0  0  0  0  0
    5.9410   -4.0000  -50.4560 C   0  0  0  0  0  0  0  0  0  0  0  0
    6.1620   -4.4580  -51.7530 C   0  0  0  0  0  0  0  0  0  0  0  0
    7.3370   -4.1130  -52.4270 C   0  0  0  0  0  0  0  0  0  0  0  0
    9.5300   -2.9220  -53.8590 O   0  0  0  0  0  0  0  0  0  0  0  0
   11.6610   -3.5570  -56.2370 N   0  0  0  0  0  0  0  0  0  0  0  0
   11.9030   -3.4770  -57.6780 C   0  0  0  0  0  0  0  0  0  0  0  0
   11.5700   -4.8080  -58.3580 C   0  0  0  0  0  0  0  0  0  0  0  0
   12.3060   -5.9270  -57.8440 O   0  0  0  0  0  0  0  0  0  0  0  0
   12.8250   -5.7310  -56.5230 C   0  0  0  0  0  0  0  0  0  0  0  0
   11.9240   -4.8690  -55.6310 C   0  0  0  0  0  0  0  0  0  0  0  0
    8.8150   -2.2194  -50.0025 H   0  0  0  0  0  0  0  0  0  0  0  0
    6.7198   -2.8368  -48.8045 H   0  0  0  0  0  0  0  0  0  0  0  0
    5.0155   -4.2712  -49.9269 H   0  0  0  0  0  0  0  0  0  0  0  0
    5.4110   -5.0918  -52.2472 H   0  0  0  0  0  0  0  0  0  0  0  0
    7.5039   -4.4783  -53.4511 H   0  0  0  0  0  0  0  0  0  0  0  0
   11.2717   -2.6847  -58.1066 H   0  0  0  0  0  0  0  0  0  0  0  0
   12.9663   -3.2507  -57.8458 H   0  0  0  0  0  0  0  0  0  0  0  0
   10.4970   -5.0074  -58.2207 H   0  0  0  0  0  0  0  0  0  0  0  0
   11.8497   -4.7028  -59.4166 H   0  0  0  0  0  0  0  0  0  0  0  0
   12.9458   -6.7154  -56.0473 H   0  0  0  0  0  0  0  0  0  0  0  0
   13.7808   -5.1968  -56.6280 H   0  0  0  0  0  0  0  0  0  0  0  0
   10.9675   -5.3906  -55.4793 H   0  0  0  0  0  0  0  0  0  0  0  0
   12.4398   -4.7087  -54.6727 H   0  0  0  0  0  0  0  0  0  0  0  0
  1  2  2  0
  2  3  1  0
  3  4  2  0
  4  5  1  0
  5  6  2  0
  6  7  1  0
  7  8  2  0
  8  9  1  0
  9 10  2  0
 10 11  1  0
 11 12  2  0
  6 13  1  0
  2 14  1  0
 14 15  1  0
 15 16  1  0
 16 17  1  0
 17 18  1  0
 18 19  1  0
 13  3  1  0
 19 14  1  0
 12  7  1  0
  8 20  1  0
  9 21  1  0
 10 22  1  0
 11 23  1  0
 12 24  1  0
 15 25  1  0
 15 26  1  0
 16 27  1  0
 16 28  1  0
 18 29  1  0
 18 30  1  0
 19 31  1  0
 19 32  1  0
M  END
>  <meeko>  (49) 
{"is_sidechain": false}

$$$$

     RDKit          3D

 33 34  0  0  0  0  0  0  0  0999 V2000
    5.9670   -4.1080  -50.4850 C   0  0  0  0  0  0  0  0  0  0  0  0
    7.0180   -3.0110  -50.4350 C   0  0  0  0  0  0  0  0  0  0  0  0
    7.6760   -2.7890  -51.7260 N   0  0  0  0  0  0  0  0  0  0  0  0
    6.8050   -2.6220  -52.8930 C   0  0  0  0  0  0  0  0  0  0  0  0
    6.3990   -1.1770  -53.1470 C   0  0  0  0  0  0  0  0  0  0  0  0
    9.0820   -2.9730  -51.7730 C   0  0  0  0  0  0  0  0  0  0  0  0
    9.6670   -3.3530  -50.7540 O   0  0  0  0  0  0  0  0  0  0  0  0
    9.8190   -2.7220  -53.0070 C   0  0  0  0  0  0  0  0  0  0  0  0
   10.1910   -1.5330  -53.4450 N   0  0  0  0  0  0  0  0  0  0  0  0
   10.8320   -1.7380  -54.6510 N   0  0  0  0  0  0  0  0  0  0  0  0
   10.7900   -3.0330  -54.8820 C   0  0  0  0  0  0  0  0  0  0  0  0
   11.3100   -3.8020  -56.0060 C   0  0  0  0  0  0  0  0  0  0  0  0
   11.5620   -3.1600  -57.2280 C   0  0  0  0  0  0  0  0  0  0  0  0
   12.0630   -3.8720  -58.3210 C   0  0  0  0  0  0  0  0  0  0  0  0
   12.3180   -5.2360  -58.2060 C   0  0  0  0  0  0  0  0  0  0  0  0
   12.0720   -5.8910  -57.0010 C   0  0  0  0  0  0  0  0  0  0  0  0
   11.5710   -5.1780  -55.9070 C   0  0  0  0  0  0  0  0  0  0  0  0
   10.1580   -3.7240  -53.8820 O   0  0  0  0  0  0  0  0  0  0  0  0
    5.6899   -4.3973  -49.4605 H   0  0  0  0  0  0  0  0  0  0  0  0
    5.0767   -3.7390  -51.0153 H   0  0  0  0  0  0  0  0  0  0  0  0
    6.3738   -4.9816  -51.0153 H   0  0  0  0  0  0  0  0  0  0  0  0
    6.5326   -2.0744  -50.1233 H   0  0  0  0  0  0  0  0  0  0  0  0
    7.7923   -3.3294  -49.7215 H   0  0  0  0  0  0  0  0  0  0  0  0
    7.3370   -2.9952  -53.7805 H   0  0  0  0  0  0  0  0  0  0  0  0
    5.8825   -3.1861  -52.6911 H   0  0  0  0  0  0  0  0  0  0  0  0
    6.2544   -0.6624  -52.1856 H   0  0  0  0  0  0  0  0  0  0  0  0
    7.1893   -0.6693  -53.7195 H   0  0  0  0  0  0  0  0  0  0  0  0
    5.4599   -1.1552  -53.7195 H   0  0  0  0  0  0  0  0  0  0  0  0
   11.3627   -2.0827  -57.3268 H   0  0  0  0  0  0  0  0  0  0  0  0
   12.2560   -3.3548  -59.2725 H   0  0  0  0  0  0  0  0  0  0  0  0
   12.7135   -5.7963  -59.0661 H   0  0  0  0  0  0  0  0  0  0  0  0
   12.2718   -6.9689  -56.9101 H   0  0  0  0  0  0  0  0  0  0  0  0
   11.3793   -5.7011  -54.9585 H   0  0  0  0  0  0  0  0  0  0  0  0
  1  2  1  0
  2  3  1  0
  3  4  1  0
  4  5  1  0
  3  6  1  0
  6  7  2  0
  6  8  1  0
  8  9  2  0
  9 10  1  0
 10 11  2  0
 11 12  1  0
 12 13  2  0
 13 14  1  0
 14 15  2  0
 15 16  1  0
 16 17  2  0
 11 18  1  0
 18  8  1  0
 17 12  1  0
  1 19  1  0
  1 20  1  0
  1 21  1  0
  2 22  1  0
  2 23  1  0
  4 24  1  0
  4 25  1  0
  5 26  1  0
  5 27  1  0
  5 28  1  0
 13 29  1  0
 14 30  1  0
 15 31  1  0
 16 32  1  0
 17 33  1  0
M  END
>  <meeko>  (50) 
{"is_sidechain": false}

$$$$

     RDKit          3D

 34 36  0  0  0  0  0  0  0  0999 V2000
   11.2230   -2.0410  -52.7160 O   0  0  0  0  0  0  0  0  0  0  0  0
   10.3610   -2.1570  -53.5860 C   0  0  0  0  0  0  0  0  0  0  0  0
   10.3890   -3.2030  -54.4960 N   0  0  0  0  0  0  0  0  0  0  0  0
   11.5090   -4.1070  -54.5910 C   0  0  0  0  0  0  0  0  0  0  0  0
   11.7580   -4.4860  -56.0280 C   0  0  0  0  0  0  0  0  0  0  0  0
   12.0520   -5.8120  -56.3800 C   0  0  0  0  0  0  0  0  0  0  0  0
   12.2550   -6.1590  -57.7160 C   0  0  0  0  0  0  0  0  0  0  0  0
   12.1590   -5.1900  -58.7130 C   0  0  0  0  0  0  0  0  0  0  0  0
   11.8590   -3.8720  -58.3760 C   0  0  0  0  0  0  0  0  0  0  0  0
   11.6570   -3.5210  -57.0400 C   0  0  0  0  0  0  0  0  0  0  0  0
    9.2510   -1.2380  -53.7650 C   0  0  0  0  0  0  0  0  0  0  0  0
    8.2760   -0.9960  -52.9130 N   0  0  0  0  0  0  0  0  0  0  0  0
    7.4600   -0.0570  -53.5120 N   0  0  0  0  0  0  0  0  0  0  0  0
    7.9930    0.2130  -54.6870 C   0  0  0  0  0  0  0  0  0  0  0  0
    7.5470    1.1310  -55.7290 C   0  0  0  0  0  0  0  0  0  0  0  0
    6.1770    1.2310  -56.0220 C   0  0  0  0  0  0  0  0  0  0  0  0
    5.7200    2.1020  -57.0140 C   0  0  0  0  0  0  0  0  0  0  0  0
    6.6260    2.8840  -57.7270 C   0  0  0  0  0  0  0  0  0  0  0  0
    7.9880    2.7960  -57.4490 C   0  0  0  0  0  0  0  0  0  0  0  0
    8.4460    1.9250  -56.4560 C   0  0  0  0  0  0  0  0  0  0  0  0
    9.1390   -0.5040  -54.9230 O   0  0  0  0  0  0  0  0  0  0  0  0
    9.7310   -3.1770  -55.2650 H   0  0  0  0  0  0  0  0  0  0  0  0
   12.4060   -3.6166  -54.1849 H   0  0  0  0  0  0  0  0  0  0  0  0
   11.2826   -5.0171  -54.0161 H   0  0  0  0  0  0  0  0  0  0  0  0
   12.1229   -6.5825  -55.5981 H   0  0  0  0  0  0  0  0  0  0  0  0
   12.4913   -7.1996  -57.9830 H   0  0  0  0  0  0  0  0  0  0  0  0
   12.3200   -5.4658  -59.7656 H   0  0  0  0  0  0  0  0  0  0  0  0
   11.7812   -3.1074  -59.1630 H   0  0  0  0  0  0  0  0  0  0  0  0
   11.4168   -2.4797  -56.7794 H   0  0  0  0  0  0  0  0  0  0  0  0
    5.4555    0.6163  -55.4638 H   0  0  0  0  0  0  0  0  0  0  0  0
    4.6440    2.1704  -57.2323 H   0  0  0  0  0  0  0  0  0  0  0  0
    6.2664    3.5698  -58.5082 H   0  0  0  0  0  0  0  0  0  0  0  0
    8.7043    3.4127  -58.0116 H   0  0  0  0  0  0  0  0  0  0  0  0
    9.5232    1.8617  -56.2425 H   0  0  0  0  0  0  0  0  0  0  0  0
  1  2  2  0
  2  3  1  0
  3  4  1  0
  4  5  1  0
  5  6  2  0
  6  7  1  0
  7  8  2  0
  8  9  1  0
  9 10  2  0
  2 11  1  0
 11 12  2  0
 12 13  1  0
 13 14  2  0
 14 15  1  0
 15 16  2  0
 16 17  1  0
 17 18  2  0
 18 19  1  0
 19 20  2  0
 14 21  1  0
 10  5  1  0
 21 11  1  0
 20 15  1  0
  3 22  1  0
  4 23  1  0
  4 24  1  0
  6 25  1  0
  7 26  1  0
  8 27  1  0
  9 28  1  0
 10 29  1  0
 16 30  1  0
 17 31  1  0
 18 32  1  0
 19 33  1  0
 20 34  1  0
M  END
>  <meeko>  (51) 
{"is_sidechain": false}

$$$$

     RDKit          3D

 37 39  0  0  0  0  0  0  0  0999 V2000
    8.1320   -0.0600  -53.4670 O   0  0  0  0  0  0  0  0  0  0  0  0
    8.7750   -1.1060  -53.5310 C   0  0  0  0  0  0  0  0  0  0  0  0
    8.5980   -2.1220  -52.5980 N   0  0  0  0  0  0  0  0  0  0  0  0
    7.5530   -2.0730  -51.5830 C   0  0  0  0  0  0  0  0  0  0  0  0
    6.3580   -2.9550  -51.9750 C   0  0  0  0  0  0  0  0  0  0  0  0
    6.6740   -4.4460  -51.8760 C   0  0  0  0  0  0  0  0  0  0  0  0
    7.2000   -4.8170  -50.4930 C   0  0  0  0  0  0  0  0  0  0  0  0
    8.4060   -3.9700  -50.1010 C   0  0  0  0  0  0  0  0  0  0  0  0
    8.1090   -2.4740  -50.2110 C   0  0  0  0  0  0  0  0  0  0  0  0
    9.7570   -1.4050  -54.5580 C   0  0  0  0  0  0  0  0  0  0  0  0
   10.4850   -0.5430  -55.2360 N   0  0  0  0  0  0  0  0  0  0  0  0
   11.2640   -1.2880  -56.1000 N   0  0  0  0  0  0  0  0  0  0  0  0
   10.9590   -2.5530  -55.8920 C   0  0  0  0  0  0  0  0  0  0  0  0
   11.4760   -3.7580  -56.5280 C   0  0  0  0  0  0  0  0  0  0  0  0
   11.8900   -4.8730  -55.7830 C   0  0  0  0  0  0  0  0  0  0  0  0
   12.3820   -6.0150  -56.4200 C   0  0  0  0  0  0  0  0  0  0  0  0
   12.4660   -6.0580  -57.8110 C   0  0  0  0  0  0  0  0  0  0  0  0
   12.0590   -4.9600  -58.5640 C   0  0  0  0  0  0  0  0  0  0  0  0
   11.5680   -3.8180  -57.9270 C   0  0  0  0  0  0  0  0  0  0  0  0
   10.0000   -2.7100  -54.9220 O   0  0  0  0  0  0  0  0  0  0  0  0
    9.0640   -3.0020  -52.7820 H   0  0  0  0  0  0  0  0  0  0  0  0
    7.1932   -1.0357  -51.5150 H   0  0  0  0  0  0  0  0  0  0  0  0
    5.5165   -2.7275  -51.3041 H   0  0  0  0  0  0  0  0  0  0  0  0
    6.1100   -2.7349  -53.0238 H   0  0  0  0  0  0  0  0  0  0  0  0
    5.7566   -5.0195  -52.0749 H   0  0  0  0  0  0  0  0  0  0  0  0
    7.4529   -4.6829  -52.6157 H   0  0  0  0  0  0  0  0  0  0  0  0
    6.4001   -4.6615  -49.7541 H   0  0  0  0  0  0  0  0  0  0  0  0
    7.5151   -5.8706  -50.5178 H   0  0  0  0  0  0  0  0  0  0  0  0
    8.6820   -4.2028  -49.0619 H   0  0  0  0  0  0  0  0  0  0  0  0
    9.2291   -4.2069  -50.7912 H   0  0  0  0  0  0  0  0  0  0  0  0
    7.3703   -2.2057  -49.4413 H   0  0  0  0  0  0  0  0  0  0  0  0
    9.0598   -1.9386  -50.0718 H   0  0  0  0  0  0  0  0  0  0  0  0
   11.8264   -4.8475  -54.6851 H   0  0  0  0  0  0  0  0  0  0  0  0
   12.7035   -6.8813  -55.8233 H   0  0  0  0  0  0  0  0  0  0  0  0
   12.8530   -6.9574  -58.3124 H   0  0  0  0  0  0  0  0  0  0  0  0
   12.1242   -4.9918  -59.6616 H   0  0  0  0  0  0  0  0  0  0  0  0
   11.2494   -2.9547  -58.5296 H   0  0  0  0  0  0  0  0  0  0  0  0
  1  2  2  0
  2  3  1  0
  3  4  1  0
  4  5  1  0
  5  6  1  0
  6  7  1  0
  7  8  1  0
  8  9  1  0
  2 10  1  0
 10 11  2  0
 11 12  1  0
 12 13  2  0
 13 14  1  0
 14 15  2  0
 15 16  1  0
 16 17  2  0
 17 18  1  0
 18 19  2  0
 13 20  1  0
  9  4  1  0
 20 10  1  0
 19 14  1  0
  3 21  1  0
  4 22  1  0
  5 23  1  0
  5 24  1  0
  6 25  1  0
  6 26  1  0
  7 27  1  0
  7 28  1  0
  8 29  1  0
  8 30  1  0
  9 31  1  0
  9 32  1  0
 15 33  1  0
 16 34  1  0
 17 35  1  0
 18 36  1  0
 19 37  1  0
M  END
>  <meeko>  (52) 
{"is_sidechain": false}

$$$$

     RDKit          3D

 27 28  0  0  0  0  0  0  0  0999 V2000
    6.2290   -0.4680  -53.1330 C   0  0  0  0  0  0  0  0  0  0  0  0
    7.3830   -1.3510  -53.1490 N   0  0  0  0  0  0  0  0  0  0  0  0
    7.1210   -2.7590  -52.8880 C   0  0  0  0  0  0  0  0  0  0  0  0
    8.6280   -0.8410  -53.5710 C   0  0  0  0  0  0  0  0  0  0  0  0
    8.7550    0.3730  -53.7650 O   0  0  0  0  0  0  0  0  0  0  0  0
    9.7500   -1.7490  -53.7840 C   0  0  0  0  0  0  0  0  0  0  0  0
   10.6860   -2.1270  -52.9330 N   0  0  0  0  0  0  0  0  0  0  0  0
   11.5040   -3.0090  -53.6090 N   0  0  0  0  0  0  0  0  0  0  0  0
   11.0110   -3.1210  -54.8270 C   0  0  0  0  0  0  0  0  0  0  0  0
   11.4730   -3.9180  -55.9560 C   0  0  0  0  0  0  0  0  0  0  0  0
   11.9180   -5.2400  -55.7970 C   0  0  0  0  0  0  0  0  0  0  0  0
   12.3540   -5.9830  -56.8970 C   0  0  0  0  0  0  0  0  0  0  0  0
   12.3520   -5.4150  -58.1700 C   0  0  0  0  0  0  0  0  0  0  0  0
   11.9140   -4.1050  -58.3440 C   0  0  0  0  0  0  0  0  0  0  0  0
   11.4770   -3.3610  -57.2440 C   0  0  0  0  0  0  0  0  0  0  0  0
    9.8940   -2.3510  -55.0120 O   0  0  0  0  0  0  0  0  0  0  0  0
    5.9469   -0.2521  -52.0919 H   0  0  0  0  0  0  0  0  0  0  0  0
    6.4791    0.4716  -53.6475 H   0  0  0  0  0  0  0  0  0  0  0  0
    5.3875   -0.9550  -53.6475 H   0  0  0  0  0  0  0  0  0  0  0  0
    7.0890   -2.9308  -51.8020 H   0  0  0  0  0  0  0  0  0  0  0  0
    6.1550   -3.0407  -53.3324 H   0  0  0  0  0  0  0  0  0  0  0  0
    7.9210   -3.3693  -53.3324 H   0  0  0  0  0  0  0  0  0  0  0  0
   11.9235   -5.6957  -54.7958 H   0  0  0  0  0  0  0  0  0  0  0  0
   12.6995   -7.0181  -56.7582 H   0  0  0  0  0  0  0  0  0  0  0  0
   12.6958   -6.0007  -59.0353 H   0  0  0  0  0  0  0  0  0  0  0  0
   11.9118   -3.6550  -59.3477 H   0  0  0  0  0  0  0  0  0  0  0  0
   11.1322   -2.3267  -57.3899 H   0  0  0  0  0  0  0  0  0  0  0  0
  1  2  1  0
  2  3  1  0
  2  4  1  0
  4  5  2  0
  4  6  1  0
  6  7  2  0
  7  8  1  0
  8  9  2  0
  9 10  1  0
 10 11  2  0
 11 12  1  0
 12 13  2  0
 13 14  1  0
 14 15  2  0
  9 16  1  0
 16  6  1  0
 15 10  1  0
  1 17  1  0
  1 18  1  0
  1 19  1  0
  3 20  1  0
  3 21  1  0
  3 22  1  0
 11 23  1  0
 12 24  1  0
 13 25  1  0
 14 26  1  0
 15 27  1  0
M  END
>  <meeko>  (53) 
{"is_sidechain": false}

$$$$

     RDKit          3D

 31 33  0  0  0  0  0  0  0  0999 V2000
    7.1150   -1.5070  -53.9430 O   0  0  0  0  0  0  0  0  0  0  0  0
    8.1910   -1.9470  -53.5250 C   0  0  0  0  0  0  0  0  0  0  0  0
    9.3610   -2.0520  -54.3830 C   0  0  0  0  0  0  0  0  0  0  0  0
   10.2550   -1.1250  -54.6750 N   0  0  0  0  0  0  0  0  0  0  0  0
   11.1620   -1.7080  -55.5340 N   0  0  0  0  0  0  0  0  0  0  0  0
   10.7630   -2.9510  -55.7170 C   0  0  0  0  0  0  0  0  0  0  0  0
   11.3430   -4.0130  -56.5270 C   0  0  0  0  0  0  0  0  0  0  0  0
   11.7060   -5.2520  -55.9760 C   0  0  0  0  0  0  0  0  0  0  0  0
   12.2620   -6.2550  -56.7750 C   0  0  0  0  0  0  0  0  0  0  0  0
   12.4610   -6.0330  -58.1360 C   0  0  0  0  0  0  0  0  0  0  0  0
   12.1070   -4.8090  -58.6990 C   0  0  0  0  0  0  0  0  0  0  0  0
   11.5510   -3.8060  -57.9000 C   0  0  0  0  0  0  0  0  0  0  0  0
    9.6220   -3.2430  -55.0170 O   0  0  0  0  0  0  0  0  0  0  0  0
    8.2880   -2.3470  -52.1940 N   0  0  0  0  0  0  0  0  0  0  0  0
    7.1660   -2.1970  -51.2840 C   0  0  0  0  0  0  0  0  0  0  0  0
    7.7660   -2.4180  -49.9030 C   0  0  0  0  0  0  0  0  0  0  0  0
    8.8830   -3.4160  -50.1780 C   0  0  0  0  0  0  0  0  0  0  0  0
    9.4290   -2.9610  -51.5270 C   0  0  0  0  0  0  0  0  0  0  0  0
   11.5510   -5.4357  -54.9026 H   0  0  0  0  0  0  0  0  0  0  0  0
   12.5427   -7.2205  -56.3289 H   0  0  0  0  0  0  0  0  0  0  0  0
   12.8970   -6.8231  -58.7650 H   0  0  0  0  0  0  0  0  0  0  0  0
   12.2651   -4.6317  -59.7730 H   0  0  0  0  0  0  0  0  0  0  0  0
   11.2730   -2.8427  -58.3524 H   0  0  0  0  0  0  0  0  0  0  0  0
    6.7327   -1.1891  -51.3633 H   0  0  0  0  0  0  0  0  0  0  0  0
    6.3506   -2.9016  -51.5043 H   0  0  0  0  0  0  0  0  0  0  0  0
    8.1652   -1.4801  -49.4894 H   0  0  0  0  0  0  0  0  0  0  0  0
    7.0353   -2.7744  -49.1620 H   0  0  0  0  0  0  0  0  0  0  0  0
    9.6591   -3.3643  -49.4001 H   0  0  0  0  0  0  0  0  0  0  0  0
    8.5384   -4.4606  -50.1811 H   0  0  0  0  0  0  0  0  0  0  0  0
   10.2399   -2.2301  -51.3918 H   0  0  0  0  0  0  0  0  0  0  0  0
    9.8554   -3.7923  -52.1076 H   0  0  0  0  0  0  0  0  0  0  0  0
  1  2  2  0
  2  3  1  0
  3  4  2  0
  4  5  1  0
  5  6  2  0
  6  7  1  0
  7  8  2  0
  8  9  1  0
  9 10  2  0
 10 11  1  0
 11 12  2  0
  6 13  1  0
  2 14  1  0
 14 15  1  0
 15 16  1  0
 16 17  1  0
 17 18  1  0
 13  3  1  0
 18 14  1  0
 12  7  1  0
  8 19  1  0
  9 20  1  0
 10 21  1  0
 11 22  1  0
 12 23  1  0
 15 24  1  0
 15 25  1  0
 16 26  1  0
 16 27  1  0
 17 28  1  0
 17 29  1  0
 18 30  1  0
 18 31  1  0
M  END
>  <meeko>  (54) 
{"is_sidechain": false}

$$$$

     RDKit          3D

 31 33  0  0  0  0  0  0  0  0999 V2000
    8.6600    4.1550  -56.9060 O   0  0  0  0  0  0  0  0  0  0  0  0
    8.4330    3.7000  -58.0250 C   0  0  0  0  0  0  0  0  0  0  0  0
    9.3280    3.7100  -59.0880 N   0  0  0  0  0  0  0  0  0  0  0  0
   10.6380    4.2220  -59.1240 C   0  0  0  0  0  0  0  0  0  0  0  0
   11.7380    3.6040  -58.5260 C   0  0  0  0  0  0  0  0  0  0  0  0
   13.0100    4.1840  -58.6110 C   0  0  0  0  0  0  0  0  0  0  0  0
   13.1900    5.3850  -59.2930 C   0  0  0  0  0  0  0  0  0  0  0  0
   12.1000    6.0080  -59.8930 C   0  0  0  0  0  0  0  0  0  0  0  0
   10.8310    5.4300  -59.8090 C   0  0  0  0  0  0  0  0  0  0  0  0
    7.1680    3.0810  -58.3760 C   0  0  0  0  0  0  0  0  0  0  0  0
    6.2390    2.6750  -57.5300 N   0  0  0  0  0  0  0  0  0  0  0  0
    5.2190    2.1570  -58.3030 N   0  0  0  0  0  0  0  0  0  0  0  0
    5.5960    2.2820  -59.5620 C   0  0  0  0  0  0  0  0  0  0  0  0
    4.9070    1.9020  -60.7880 C   0  0  0  0  0  0  0  0  0  0  0  0
    3.7120    1.1660  -60.7700 C   0  0  0  0  0  0  0  0  0  0  0  0
    3.0720    0.8130  -61.9620 C   0  0  0  0  0  0  0  0  0  0  0  0
    3.6180    1.1920  -63.1860 C   0  0  0  0  0  0  0  0  0  0  0  0
    4.8030    1.9230  -63.2230 C   0  0  0  0  0  0  0  0  0  0  0  0
    5.4430    2.2750  -62.0300 C   0  0  0  0  0  0  0  0  0  0  0  0
    6.8310    2.8650  -59.6860 O   0  0  0  0  0  0  0  0  0  0  0  0
    8.9800    3.2910  -59.9460 H   0  0  0  0  0  0  0  0  0  0  0  0
   11.6048    2.6557  -57.9848 H   0  0  0  0  0  0  0  0  0  0  0  0
   13.8705    3.6889  -58.1372 H   0  0  0  0  0  0  0  0  0  0  0  0
   14.1898    5.8392  -59.3570 H   0  0  0  0  0  0  0  0  0  0  0  0
   12.2376    6.9560  -60.4337 H   0  0  0  0  0  0  0  0  0  0  0  0
    9.9738    5.9281  -60.2855 H   0  0  0  0  0  0  0  0  0  0  0  0
    3.2740    0.8635  -59.8074 H   0  0  0  0  0  0  0  0  0  0  0  0
    2.1363    0.2354  -61.9330 H   0  0  0  0  0  0  0  0  0  0  0  0
    3.1135    0.9141  -64.1232 H   0  0  0  0  0  0  0  0  0  0  0  0
    5.2350    2.2231  -64.1891 H   0  0  0  0  0  0  0  0  0  0  0  0
    6.3789    2.8519  -62.0660 H   0  0  0  0  0  0  0  0  0  0  0  0
  1  2  2  0
  2  3  1  0
  3  4  1  0
  4  5  2  0
  5  6  1  0
  6  7  2  0
  7  8  1  0
  8  9  2  0
  2 10  1  0
 10 11  2  0
 11 12  1  0
 12 13  2  0
 13 14  1  0
 14 15  2  0
 15 16  1  0
 16 17  2  0
 17 18  1  0
 18 19  2  0
 13 20  1  0
  9  4  1  0
 20 10  1  0
 19 14  1  0
  3 21  1  0
  5 22  1  0
  6 23  1  0
  7 24  1  0
  8 25  1  0
  9 26  1  0
 15 27  1  0
 16 28  1  0
 17 29  1  0
 18 30  1  0
 19 31  1  0
M  END
>  <meeko>  (55) 
{"is_sidechain": false}

$$$$

     RDKit          3D

 37 39  0  0  0  0  0  0  0  0999 V2000
    8.1750    5.5050  -59.4470 O   0  0  0  0  0  0  0  0  0  0  0  0
    8.6950    4.4500  -59.0640 C   0  0  0  0  0  0  0  0  0  0  0  0
    7.8630    3.3130  -58.6860 C   0  0  0  0  0  0  0  0  0  0  0  0
    7.4180    2.3210  -59.4350 N   0  0  0  0  0  0  0  0  0  0  0  0
    6.6370    1.5240  -58.6240 N   0  0  0  0  0  0  0  0  0  0  0  0
    6.6360    2.0950  -57.4370 C   0  0  0  0  0  0  0  0  0  0  0  0
    5.9620    1.6760  -56.1850 C   0  0  0  0  0  0  0  0  0  0  0  0
    6.7350    0.6240  -55.4250 C   0  0  0  0  0  0  0  0  0  0  0  0
    6.0620   -0.4060  -54.7510 C   0  0  0  0  0  0  0  0  0  0  0  0
    6.7750   -1.3670  -54.0360 C   0  0  0  0  0  0  0  0  0  0  0  0
    8.1670   -1.3070  -53.9800 C   0  0  0  0  0  0  0  0  0  0  0  0
    8.8460   -0.2830  -54.6370 C   0  0  0  0  0  0  0  0  0  0  0  0
    8.1340    0.6800  -55.3540 C   0  0  0  0  0  0  0  0  0  0  0  0
    7.3970    3.2300  -57.3930 O   0  0  0  0  0  0  0  0  0  0  0  0
   10.1120    4.3610  -59.0050 N   0  0  0  0  0  0  0  0  0  0  0  0
   10.8480    5.3310  -59.8190 C   0  0  0  0  0  0  0  0  0  0  0  0
   12.2630    5.5900  -59.3170 C   0  0  0  0  0  0  0  0  0  0  0  0
   13.0240    4.2860  -59.1280 C   0  0  0  0  0  0  0  0  0  0  0  0
   12.2580    3.3860  -58.1710 C   0  0  0  0  0  0  0  0  0  0  0  0
   10.8270    3.1350  -58.6410 C   0  0  0  0  0  0  0  0  0  0  0  0
    5.8416    2.5582  -55.5390 H   0  0  0  0  0  0  0  0  0  0  0  0
    4.9926    1.2368  -56.4630 H   0  0  0  0  0  0  0  0  0  0  0  0
    4.9637   -0.4556  -54.7870 H   0  0  0  0  0  0  0  0  0  0  0  0
    6.2387   -2.1739  -53.5152 H   0  0  0  0  0  0  0  0  0  0  0  0
    8.7286   -2.0675  -53.4176 H   0  0  0  0  0  0  0  0  0  0  0  0
    9.9439   -0.2334  -54.5906 H   0  0  0  0  0  0  0  0  0  0  0  0
    8.6747    1.4889  -55.8672 H   0  0  0  0  0  0  0  0  0  0  0  0
   10.9075    4.9486  -60.8487 H   0  0  0  0  0  0  0  0  0  0  0  0
   10.3026    6.2845  -59.7613 H   0  0  0  0  0  0  0  0  0  0  0  0
   12.7957    6.2139  -60.0498 H   0  0  0  0  0  0  0  0  0  0  0  0
   12.2010    6.1025  -58.3457 H   0  0  0  0  0  0  0  0  0  0  0  0
   13.1324    3.7807  -60.0990 H   0  0  0  0  0  0  0  0  0  0  0  0
   14.0199    4.4996  -58.7125 H   0  0  0  0  0  0  0  0  0  0  0  0
   12.7811    2.4213  -58.0957 H   0  0  0  0  0  0  0  0  0  0  0  0
   12.2107    3.8911  -57.1950 H   0  0  0  0  0  0  0  0  0  0  0  0
   10.8593    2.4756  -59.5208 H   0  0  0  0  0  0  0  0  0  0  0  0
   10.2837    2.6790  -57.8003 H   0  0  0  0  0  0  0  0  0  0  0  0
  1  2  2  0
  2  3  1  0
  3  4  2  0
  4  5  1  0
  5  6  2  0
  6  7  1  0
  7  8  1  0
  8  9  2  0
  9 10  1  0
 10 11  2  0
 11 12  1  0
 12 13  2  0
  6 14  1  0
  2 15  1  0
 15 16  1  0
 16 17  1  0
 17 18  1  0
 18 19  1  0
 19 20  1  0
 14  3  1  0
 20 15  1  0
 13  8  1  0
  7 21  1  0
  7 22  1  0
  9 23  1  0
 10 24  1  0
 11 25  1  0
 12 26  1  0
 13 27  1  0
 16 28  1  0
 16 29  1  0
 17 30  1  0
 17 31  1  0
 18 32  1  0
 18 33  1  0
 19 34  1  0
 19 35  1  0
 20 36  1  0
 20 37  1  0
M  END
>  <meeko>  (56) 
{"is_sidechain": false}

$$$$

     RDKit          3D

 27 28  0  0  0  0  0  0  0  0999 V2000
   13.0320    7.6130  -60.5690 C   0  0  0  0  0  0  0  0  0  0  0  0
   12.8300    6.3430  -59.8530 C   0  0  0  0  0  0  0  0  0  0  0  0
   13.7070    5.4350  -59.4830 N   0  0  0  0  0  0  0  0  0  0  0  0
   12.9890    4.4390  -58.8540 N   0  0  0  0  0  0  0  0  0  0  0  0
   11.7230    4.8130  -58.8670 C   0  0  0  0  0  0  0  0  0  0  0  0
   10.5570    4.1070  -58.3500 C   0  0  0  0  0  0  0  0  0  0  0  0
   10.4200    3.9030  -57.1380 O   0  0  0  0  0  0  0  0  0  0  0  0
    9.5620    3.6580  -59.2420 N   0  0  0  0  0  0  0  0  0  0  0  0
    9.7070    3.6500  -60.7010 C   0  0  0  0  0  0  0  0  0  0  0  0
    8.7310    2.6930  -61.3800 C   0  0  0  0  0  0  0  0  0  0  0  0
    7.2810    2.9820  -61.0010 C   0  0  0  0  0  0  0  0  0  0  0  0
    7.1260    3.4650  -59.5590 C   0  0  0  0  0  0  0  0  0  0  0  0
    8.3260    3.1050  -58.6910 C   0  0  0  0  0  0  0  0  0  0  0  0
   11.5490    6.0230  -59.5010 O   0  0  0  0  0  0  0  0  0  0  0  0
   13.1616    8.4276  -59.8413 H   0  0  0  0  0  0  0  0  0  0  0  0
   13.9297    7.5392  -61.2004 H   0  0  0  0  0  0  0  0  0  0  0  0
   12.1557    7.8213  -61.2004 H   0  0  0  0  0  0  0  0  0  0  0  0
    9.5248    4.6667  -61.0792 H   0  0  0  0  0  0  0  0  0  0  0  0
   10.7264    3.3086  -60.9337 H   0  0  0  0  0  0  0  0  0  0  0  0
    8.8385    2.7922  -62.4702 H   0  0  0  0  0  0  0  0  0  0  0  0
    8.9704    1.6730  -61.0448 H   0  0  0  0  0  0  0  0  0  0  0  0
    6.8906    3.7589  -61.6749 H   0  0  0  0  0  0  0  0  0  0  0  0
    6.7221    2.0392  -61.0943 H   0  0  0  0  0  0  0  0  0  0  0  0
    7.0096    4.5588  -59.5639 H   0  0  0  0  0  0  0  0  0  0  0  0
    6.2432    2.9663  -59.1324 H   0  0  0  0  0  0  0  0  0  0  0  0
    8.1715    3.5094  -57.6797 H   0  0  0  0  0  0  0  0  0  0  0  0
    8.4178    2.0093  -58.6608 H   0  0  0  0  0  0  0  0  0  0  0  0
  1  2  1  0
  2  3  2  0
  3  4  1  0
  4  5  2  0
  5  6  1  0
  6  7  2  0
  6  8  1  0
  8  9  1  0
  9 10  1  0
 10 11  1  0
 11 12  1  0
 12 13  1  0
  5 14  1  0
 14  2  1  0
 13  8  1  0
  1 15  1  0
  1 16  1  0
  1 17  1  0
  9 18  1  0
  9 19  1  0
 10 20  1  0
 10 21  1  0
 11 22  1  0
 11 23  1  0
 12 24  1  0
 12 25  1  0
 13 26  1  0
 13 27  1  0
M  END
>  <meeko>  (57) 
{"is_sidechain": false}

$$$$

     RDKit          3D

 28 30  0  0  0  0  0  0  0  0999 V2000
    6.5520   -2.4220  -53.8290 O   0  0  0  0  0  0  0  0  0  0  0  0
    7.7000   -2.4180  -53.3770 C   0  0  0  0  0  0  0  0  0  0  0  0
    8.8860   -2.3910  -54.2170 C   0  0  0  0  0  0  0  0  0  0  0  0
    9.6580   -1.3420  -54.4360 N   0  0  0  0  0  0  0  0  0  0  0  0
   10.6670   -1.7640  -55.2780 N   0  0  0  0  0  0  0  0  0  0  0  0
   10.4540   -3.0430  -55.5090 C   0  0  0  0  0  0  0  0  0  0  0  0
   11.2080   -3.9870  -56.3250 C   0  0  0  0  0  0  0  0  0  0  0  0
   11.3910   -3.7280  -57.6920 C   0  0  0  0  0  0  0  0  0  0  0  0
   12.1100   -4.6140  -58.4990 C   0  0  0  0  0  0  0  0  0  0  0  0
   12.6540   -5.7720  -57.9490 C   0  0  0  0  0  0  0  0  0  0  0  0
   12.4830   -6.0430  -56.5930 C   0  0  0  0  0  0  0  0  0  0  0  0
   11.7650   -5.1570  -55.7860 C   0  0  0  0  0  0  0  0  0  0  0  0
    9.3370   -3.5140  -54.8690 O   0  0  0  0  0  0  0  0  0  0  0  0
    7.8910   -2.4290  -52.0020 N   0  0  0  0  0  0  0  0  0  0  0  0
    6.8720   -2.7960  -51.0220 C   0  0  0  0  0  0  0  0  0  0  0  0
    8.0200   -2.9420  -50.0200 C   0  0  0  0  0  0  0  0  0  0  0  0
    8.9830   -2.9810  -51.2120 C   0  0  0  0  0  0  0  0  0  0  0  0
   10.9631   -2.8161  -58.1340 H   0  0  0  0  0  0  0  0  0  0  0  0
   12.2462   -4.3967  -59.5687 H   0  0  0  0  0  0  0  0  0  0  0  0
   13.2176   -6.4714  -58.5839 H   0  0  0  0  0  0  0  0  0  0  0  0
   12.9141   -6.9563  -56.1571 H   0  0  0  0  0  0  0  0  0  0  0  0
   11.6348   -5.3788  -54.7165 H   0  0  0  0  0  0  0  0  0  0  0  0
    6.1502   -2.0004  -50.7854 H   0  0  0  0  0  0  0  0  0  0  0  0
    6.1462   -3.6023  -51.2042 H   0  0  0  0  0  0  0  0  0  0  0  0
    8.1553   -2.0792  -49.3512 H   0  0  0  0  0  0  0  0  0  0  0  0
    8.0188   -3.7336  -49.2562 H   0  0  0  0  0  0  0  0  0  0  0  0
    9.8619   -2.3264  -51.1176 H   0  0  0  0  0  0  0  0  0  0  0  0
    9.5142   -3.8981  -51.5066 H   0  0  0  0  0  0  0  0  0  0  0  0
  1  2  2  0
  2  3  1  0
  3  4  2  0
  4  5  1  0
  5  6  2  0
  6  7  1  0
  7  8  2  0
  8  9  1  0
  9 10  2  0
 10 11  1  0
 11 12  2  0
  6 13  1  0
  2 14  1  0
 14 15  1  0
 15 16  1  0
 16 17  1  0
 13  3  1  0
 17 14  1  0
 12  7  1  0
  8 18  1  0
  9 19  1  0
 10 20  1  0
 11 21  1  0
 12 22  1  0
 15 23  1  0
 15 24  1  0
 16 25  1  0
 16 26  1  0
 17 27  1  0
 17 28  1  0
M  END
>  <meeko>  (58) 
{"is_sidechain": false}

$$$$

     RDKit          3D

 24 25  0  0  0  0  0  0  0  0999 V2000
    7.4730   -3.0550  -50.0680 C   0  0  0  0  0  0  0  0  0  0  0  0
    8.5330   -2.9230  -51.0310 N   0  0  0  0  0  0  0  0  0  0  0  0
    8.3020   -3.0240  -52.3940 C   0  0  0  0  0  0  0  0  0  0  0  0
    7.1670   -3.1460  -52.8520 O   0  0  0  0  0  0  0  0  0  0  0  0
    9.5050   -2.9840  -53.2000 C   0  0  0  0  0  0  0  0  0  0  0  0
   10.5880   -2.2710  -52.9530 N   0  0  0  0  0  0  0  0  0  0  0  0
   11.4720   -2.5490  -53.9760 N   0  0  0  0  0  0  0  0  0  0  0  0
   10.8690   -3.4100  -54.7740 C   0  0  0  0  0  0  0  0  0  0  0  0
   11.3390   -4.0390  -56.0030 C   0  0  0  0  0  0  0  0  0  0  0  0
   11.4820   -3.3170  -57.1980 C   0  0  0  0  0  0  0  0  0  0  0  0
   11.9340   -3.9440  -58.3610 C   0  0  0  0  0  0  0  0  0  0  0  0
   12.2500   -5.3010  -58.3450 C   0  0  0  0  0  0  0  0  0  0  0  0
   12.1150   -6.0320  -57.1680 C   0  0  0  0  0  0  0  0  0  0  0  0
   11.6620   -5.4040  -56.0040 C   0  0  0  0  0  0  0  0  0  0  0  0
    9.6100   -3.7350  -54.3400 O   0  0  0  0  0  0  0  0  0  0  0  0
    7.8919   -3.0028  -49.0522 H   0  0  0  0  0  0  0  0  0  0  0  0
    6.7472   -2.2403  -50.2076 H   0  0  0  0  0  0  0  0  0  0  0  0
    6.9692   -4.0228  -50.2076 H   0  0  0  0  0  0  0  0  0  0  0  0
    9.4980   -2.9280  -50.7190 H   0  0  0  0  0  0  0  0  0  0  0  0
   11.2353   -2.2452  -57.2187 H   0  0  0  0  0  0  0  0  0  0  0  0
   12.0407   -3.3660  -59.2908 H   0  0  0  0  0  0  0  0  0  0  0  0
   12.6058   -5.7942  -59.2616 H   0  0  0  0  0  0  0  0  0  0  0  0
   12.3646   -7.1032  -57.1538 H   0  0  0  0  0  0  0  0  0  0  0  0
   11.5576   -5.9876  -55.0774 H   0  0  0  0  0  0  0  0  0  0  0  0
  1  2  1  0
  2  3  1  0
  3  4  2  0
  3  5  1  0
  5  6  2  0
  6  7  1  0
  7  8  2  0
  8  9  1  0
  9 10  2  0
 10 11  1  0
 11 12  2  0
 12 13  1  0
 13 14  2  0
  8 15  1  0
 15  5  1  0
 14  9  1  0
  1 16  1  0
  1 17  1  0
  1 18  1  0
  2 19  1  0
 10 20  1  0
 11 21  1  0
 12 22  1  0
 13 23  1  0
 14 24  1  0
M  END
>  <meeko>  (59) 
{"is_sidechain": false}

$$$$

     RDKit          3D

 34 36  0  0  0  0  0  0  0  0999 V2000
    6.2760    1.3100  -58.5860 O   0  0  0  0  0  0  0  0  0  0  0  0
    6.4720    2.0780  -59.5350 C   0  0  0  0  0  0  0  0  0  0  0  0
    7.5520    3.0640  -59.5120 C   0  0  0  0  0  0  0  0  0  0  0  0
    7.4050    4.3600  -59.3330 N   0  0  0  0  0  0  0  0  0  0  0  0
    8.6100    5.0300  -59.3470 N   0  0  0  0  0  0  0  0  0  0  0  0
    9.6460    4.2260  -59.5100 C   0  0  0  0  0  0  0  0  0  0  0  0
   11.0500    4.6770  -59.5550 C   0  0  0  0  0  0  0  0  0  0  0  0
   12.0660    3.7650  -59.2150 C   0  0  0  0  0  0  0  0  0  0  0  0
   13.4140    4.1360  -59.2380 C   0  0  0  0  0  0  0  0  0  0  0  0
   13.7730    5.4280  -59.6030 C   0  0  0  0  0  0  0  0  0  0  0  0
   12.7860    6.3500  -59.9440 C   0  0  0  0  0  0  0  0  0  0  0  0
   11.4370    5.9770  -59.9210 C   0  0  0  0  0  0  0  0  0  0  0  0
    9.1880    2.5720  -59.6730 S   0  0  0  0  0  0  0  0  0  0  0  0
    5.6260    2.0040  -60.6600 N   0  0  0  0  0  0  0  0  0  0  0  0
    5.8950    2.6640  -61.9420 C   0  0  0  0  0  0  0  0  0  0  0  0
    5.1780    1.9870  -63.1070 C   0  0  0  0  0  0  0  0  0  0  0  0
    3.6710    1.8980  -62.8820 C   0  0  0  0  0  0  0  0  0  0  0  0
    3.2950    1.7090  -61.4130 C   0  0  0  0  0  0  0  0  0  0  0  0
    4.4460    1.1440  -60.5890 C   0  0  0  0  0  0  0  0  0  0  0  0
   11.7944    2.7392  -58.9252 H   0  0  0  0  0  0  0  0  0  0  0  0
   14.1903    3.4052  -58.9672 H   0  0  0  0  0  0  0  0  0  0  0  0
   14.8329    5.7216  -59.6226 H   0  0  0  0  0  0  0  0  0  0  0  0
   13.0674    7.3736  -60.2320 H   0  0  0  0  0  0  0  0  0  0  0  0
   10.6673    6.7139  -60.1940 H   0  0  0  0  0  0  0  0  0  0  0  0
    5.5576    3.7091  -61.8789 H   0  0  0  0  0  0  0  0  0  0  0  0
    6.9767    2.6003  -62.1314 H   0  0  0  0  0  0  0  0  0  0  0  0
    5.3660    2.5658  -64.0233 H   0  0  0  0  0  0  0  0  0  0  0  0
    5.5679    0.9621  -63.1943 H   0  0  0  0  0  0  0  0  0  0  0  0
    3.2072    2.8268  -63.2455 H   0  0  0  0  0  0  0  0  0  0  0  0
    3.3089    1.0155  -63.4297 H   0  0  0  0  0  0  0  0  0  0  0  0
    3.0051    2.6838  -60.9939 H   0  0  0  0  0  0  0  0  0  0  0  0
    2.4643    0.9893  -61.3683 H   0  0  0  0  0  0  0  0  0  0  0  0
    4.1272    1.0599  -59.5396 H   0  0  0  0  0  0  0  0  0  0  0  0
    4.7118    0.1576  -60.9968 H   0  0  0  0  0  0  0  0  0  0  0  0
  1  2  2  0
  2  3  1  0
  3  4  2  0
  4  5  1  0
  5  6  2  0
  6  7  1  0
  7  8  2  0
  8  9  1  0
  9 10  2  0
 10 11  1  0
 11 12  2  0
  6 13  1  0
  2 14  1  0
 14 15  1  0
 15 16  1  0
 16 17  1  0
 17 18  1  0
 18 19  1  0
 13  3  1  0
 19 14  1  0
 12  7  1  0
  8 20  1  0
  9 21  1  0
 10 22  1  0
 11 23  1  0
 12 24  1  0
 15 25  1  0
 15 26  1  0
 16 27  1  0
 16 28  1  0
 17 29  1  0
 17 30  1  0
 18 31  1  0
 18 32  1  0
 19 33  1  0
 19 34  1  0
M  END
>  <meeko>  (60) 
{"is_sidechain": false}

$$$$

     RDKit          3D

 34 36  0  0  0  0  0  0  0  0999 V2000
   11.4950   -1.2420  -56.5590 O   0  0  0  0  0  0  0  0  0  0  0  0
   11.4500   -2.2850  -55.8980 C   0  0  0  0  0  0  0  0  0  0  0  0
   11.0110   -2.2710  -54.5080 C   0  0  0  0  0  0  0  0  0  0  0  0
   11.6570   -1.8420  -53.4400 N   0  0  0  0  0  0  0  0  0  0  0  0
   10.8290   -2.0670  -52.3600 N   0  0  0  0  0  0  0  0  0  0  0  0
    9.7370   -2.6310  -52.8350 C   0  0  0  0  0  0  0  0  0  0  0  0
    8.5370   -3.0840  -52.1410 C   0  0  0  0  0  0  0  0  0  0  0  0
    7.4870   -3.6600  -52.8740 C   0  0  0  0  0  0  0  0  0  0  0  0
    6.3240   -4.1030  -52.2350 C   0  0  0  0  0  0  0  0  0  0  0  0
    6.2030   -3.9750  -50.8540 C   0  0  0  0  0  0  0  0  0  0  0  0
    4.7750   -4.5200  -50.0650 Cl  0  0  0  0  0  0  0  0  0  0  0  0
    7.2330   -3.4070  -50.1080 C   0  0  0  0  0  0  0  0  0  0  0  0
    8.3950   -2.9640  -50.7490 C   0  0  0  0  0  0  0  0  0  0  0  0
    9.7800   -2.7960  -54.1930 O   0  0  0  0  0  0  0  0  0  0  0  0
   11.8190   -3.5030  -56.5010 N   0  0  0  0  0  0  0  0  0  0  0  0
   12.0920   -3.5190  -57.9380 C   0  0  0  0  0  0  0  0  0  0  0  0
   11.6280   -4.8250  -58.5740 C   0  0  0  0  0  0  0  0  0  0  0  0
   12.2830   -6.0500  -57.9340 C   0  0  0  0  0  0  0  0  0  0  0  0
   12.8510   -5.7680  -56.5460 C   0  0  0  0  0  0  0  0  0  0  0  0
   12.0070   -4.7610  -55.7710 C   0  0  0  0  0  0  0  0  0  0  0  0
    7.5801   -3.7643  -53.9651 H   0  0  0  0  0  0  0  0  0  0  0  0
    5.5082   -4.5508  -52.8215 H   0  0  0  0  0  0  0  0  0  0  0  0
    7.1330   -3.3069  -49.0171 H   0  0  0  0  0  0  0  0  0  0  0  0
    9.2064   -2.5167  -50.1561 H   0  0  0  0  0  0  0  0  0  0  0  0
   11.5617   -2.6805  -58.4131 H   0  0  0  0  0  0  0  0  0  0  0  0
   13.1779   -3.4261  -58.0869 H   0  0  0  0  0  0  0  0  0  0  0  0
   10.5372   -4.9065  -58.4579 H   0  0  0  0  0  0  0  0  0  0  0  0
   11.9200   -4.8040  -59.6343 H   0  0  0  0  0  0  0  0  0  0  0  0
   11.5286   -6.8459  -57.8485 H   0  0  0  0  0  0  0  0  0  0  0  0
   13.1235   -6.3470  -58.5784 H   0  0  0  0  0  0  0  0  0  0  0  0
   12.8866   -6.7104  -55.9798 H   0  0  0  0  0  0  0  0  0  0  0  0
   13.8558   -5.3389  -56.6734 H   0  0  0  0  0  0  0  0  0  0  0  0
   11.0201   -5.2054  -55.5748 H   0  0  0  0  0  0  0  0  0  0  0  0
   12.5398   -4.5281  -54.8372 H   0  0  0  0  0  0  0  0  0  0  0  0
  1  2  2  0
  2  3  1  0
  3  4  2  0
  4  5  1  0
  5  6  2  0
  6  7  1  0
  7  8  1  0
  8  9  2  0
  9 10  1  0
 10 11  1  0
 10 12  2  0
 12 13  1  0
  6 14  1  0
  2 15  1  0
 15 16  1  0
 16 17  1  0
 17 18  1  0
 18 19  1  0
 19 20  1  0
 14  3  1  0
 20 15  1  0
 13  7  2  0
  8 21  1  0
  9 22  1  0
 12 23  1  0
 13 24  1  0
 16 25  1  0
 16 26  1  0
 17 27  1  0
 17 28  1  0
 18 29  1  0
 18 30  1  0
 19 31  1  0
 19 32  1  0
 20 33  1  0
 20 34  1  0
M  END
>  <meeko>  (61) 
{"is_sidechain": false}

$$$$

     RDKit          3D

 34 36  0  0  0  0  0  0  0  0999 V2000
   11.1980   -1.1760  -56.0660 O   0  0  0  0  0  0  0  0  0  0  0  0
   11.1450   -2.3030  -55.5630 C   0  0  0  0  0  0  0  0  0  0  0  0
   10.7810   -2.4820  -54.1630 C   0  0  0  0  0  0  0  0  0  0  0  0
   11.5260   -2.3160  -53.0860 N   0  0  0  0  0  0  0  0  0  0  0  0
   10.7190   -2.5860  -52.0010 N   0  0  0  0  0  0  0  0  0  0  0  0
    9.5290   -2.8860  -52.4820 C   0  0  0  0  0  0  0  0  0  0  0  0
    8.3000   -3.2460  -51.7880 C   0  0  0  0  0  0  0  0  0  0  0  0
    7.9830   -2.7230  -50.5220 C   0  0  0  0  0  0  0  0  0  0  0  0
    6.7960   -3.0840  -49.8780 C   0  0  0  0  0  0  0  0  0  0  0  0
    5.9210   -3.9680  -50.4970 C   0  0  0  0  0  0  0  0  0  0  0  0
    4.7850   -4.3140  -49.8790 F   0  0  0  0  0  0  0  0  0  0  0  0
    6.2100   -4.5000  -51.7470 C   0  0  0  0  0  0  0  0  0  0  0  0
    7.3960   -4.1390  -52.3910 C   0  0  0  0  0  0  0  0  0  0  0  0
    9.4900   -2.8390  -53.8500 O   0  0  0  0  0  0  0  0  0  0  0  0
   11.4530   -3.4290  -56.3530 N   0  0  0  0  0  0  0  0  0  0  0  0
   11.9770   -3.2150  -57.7010 C   0  0  0  0  0  0  0  0  0  0  0  0
   13.0040   -4.2800  -58.0690 C   0  0  0  0  0  0  0  0  0  0  0  0
   12.4350   -5.6960  -57.9810 C   0  0  0  0  0  0  0  0  0  0  0  0
   11.1790   -5.7820  -57.1160 C   0  0  0  0  0  0  0  0  0  0  0  0
   11.2240   -4.8150  -55.9370 C   0  0  0  0  0  0  0  0  0  0  0  0
    8.6762   -2.0225  -50.0333 H   0  0  0  0  0  0  0  0  0  0  0  0
    6.5562   -2.6707  -48.8872 H   0  0  0  0  0  0  0  0  0  0  0  0
    5.5102   -5.2004  -52.2264 H   0  0  0  0  0  0  0  0  0  0  0  0
    7.6256   -4.5582  -53.3817 H   0  0  0  0  0  0  0  0  0  0  0  0
   11.1453   -3.2551  -58.4198 H   0  0  0  0  0  0  0  0  0  0  0  0
   12.4689   -2.2316  -57.7314 H   0  0  0  0  0  0  0  0  0  0  0  0
   13.3452   -4.1002  -59.0992 H   0  0  0  0  0  0  0  0  0  0  0  0
   13.8335   -4.2075  -57.3501 H   0  0  0  0  0  0  0  0  0  0  0  0
   12.1852   -6.0371  -58.9965 H   0  0  0  0  0  0  0  0  0  0  0  0
   13.2017   -6.3300  -57.5117 H   0  0  0  0  0  0  0  0  0  0  0  0
   10.3037   -5.5423  -57.7376 H   0  0  0  0  0  0  0  0  0  0  0  0
   11.1160   -6.8035  -56.7127 H   0  0  0  0  0  0  0  0  0  0  0  0
   10.2648   -4.8680  -55.4012 H   0  0  0  0  0  0  0  0  0  0  0  0
   12.0652   -5.1129  -55.2939 H   0  0  0  0  0  0  0  0  0  0  0  0
  1  2  2  0
  2  3  1  0
  3  4  2  0
  4  5  1  0
  5  6  2  0
  6  7  1  0
  7  8  1  0
  8  9  2  0
  9 10  1  0
 10 11  1  0
 10 12  2  0
 12 13  1  0
  6 14  1  0
  2 15  1  0
 15 16  1  0
 16 17  1  0
 17 18  1  0
 18 19  1  0
 19 20  1  0
 14  3  1  0
 20 15  1  0
 13  7  2  0
  8 21  1  0
  9 22  1  0
 12 23  1  0
 13 24  1  0
 16 25  1  0
 16 26  1  0
 17 27  1  0
 17 28  1  0
 18 29  1  0
 18 30  1  0
 19 31  1  0
 19 32  1  0
 20 33  1  0
 20 34  1  0
M  END
>  <meeko>  (62) 
{"is_sidechain": false}

$$$$

     RDKit          3D

 34 36  0  0  0  0  0  0  0  0999 V2000
    7.2460    2.5280  -62.9260 O   0  0  0  0  0  0  0  0  0  0  0  0
    6.7060    2.6420  -61.8200 C   0  0  0  0  0  0  0  0  0  0  0  0
    7.4440    3.1660  -60.6800 C   0  0  0  0  0  0  0  0  0  0  0  0
    6.9860    3.5230  -59.4940 N   0  0  0  0  0  0  0  0  0  0  0  0
    8.0680    3.9940  -58.7790 N   0  0  0  0  0  0  0  0  0  0  0  0
    9.1100    3.9180  -59.5800 C   0  0  0  0  0  0  0  0  0  0  0  0
   10.5010    4.2880  -59.3470 C   0  0  0  0  0  0  0  0  0  0  0  0
   11.3190    3.4540  -58.5670 C   0  0  0  0  0  0  0  0  0  0  0  0
   12.6560    3.7810  -58.3260 C   0  0  0  0  0  0  0  0  0  0  0  0
   13.1930    4.9480  -58.8650 C   0  0  0  0  0  0  0  0  0  0  0  0
   12.3910    5.7820  -59.6400 C   0  0  0  0  0  0  0  0  0  0  0  0
   13.0550    7.2250  -60.3050 Cl  0  0  0  0  0  0  0  0  0  0  0  0
   11.0540    5.4610  -59.8840 C   0  0  0  0  0  0  0  0  0  0  0  0
    8.7920    3.4010  -60.8070 O   0  0  0  0  0  0  0  0  0  0  0  0
    5.3430    2.2840  -61.6680 N   0  0  0  0  0  0  0  0  0  0  0  0
    4.8170    1.7290  -60.4170 C   0  0  0  0  0  0  0  0  0  0  0  0
    3.3120    1.9430  -60.2870 C   0  0  0  0  0  0  0  0  0  0  0  0
    2.5700    1.4240  -61.5130 C   0  0  0  0  0  0  0  0  0  0  0  0
    3.1390    2.0530  -62.7800 C   0  0  0  0  0  0  0  0  0  0  0  0
    4.6470    1.8480  -62.8780 C   0  0  0  0  0  0  0  0  0  0  0  0
   10.9012    2.5304  -58.1399 H   0  0  0  0  0  0  0  0  0  0  0  0
   13.2833    3.1182  -57.7118 H   0  0  0  0  0  0  0  0  0  0  0  0
   14.2452    5.2094  -58.6794 H   0  0  0  0  0  0  0  0  0  0  0  0
   10.4327    6.1291  -60.4986 H   0  0  0  0  0  0  0  0  0  0  0  0
    5.0260    0.6493  -60.3915 H   0  0  0  0  0  0  0  0  0  0  0  0
    5.3082    2.2484  -59.5810 H   0  0  0  0  0  0  0  0  0  0  0  0
    2.9499    1.4086  -59.3963 H   0  0  0  0  0  0  0  0  0  0  0  0
    3.1217    3.0227  -60.1977 H   0  0  0  0  0  0  0  0  0  0  0  0
    2.6809    0.3310  -61.5688 H   0  0  0  0  0  0  0  0  0  0  0  0
    1.5062    1.6903  -61.4273 H   0  0  0  0  0  0  0  0  0  0  0  0
    2.6581    1.5915  -63.6551 H   0  0  0  0  0  0  0  0  0  0  0  0
    2.9394    3.1343  -62.7478 H   0  0  0  0  0  0  0  0  0  0  0  0
    4.8496    0.7787  -63.0375 H   0  0  0  0  0  0  0  0  0  0  0  0
    5.0167    2.4548  -63.7177 H   0  0  0  0  0  0  0  0  0  0  0  0
  1  2  2  0
  2  3  1  0
  3  4  2  0
  4  5  1  0
  5  6  2  0
  6  7  1  0
  7  8  2  0
  8  9  1  0
  9 10  2  0
 10 11  1  0
 11 12  1  0
 11 13  2  0
  6 14  1  0
  2 15  1  0
 15 16  1  0
 16 17  1  0
 17 18  1  0
 18 19  1  0
 19 20  1  0
 14  3  1  0
 20 15  1  0
 13  7  1  0
  8 21  1  0
  9 22  1  0
 10 23  1  0
 13 24  1  0
 16 25  1  0
 16 26  1  0
 17 27  1  0
 17 28  1  0
 18 29  1  0
 18 30  1  0
 19 31  1  0
 19 32  1  0
 20 33  1  0
 20 34  1  0
M  END
>  <meeko>  (63) 
{"is_sidechain": false}

$$$$

     RDKit          3D

 34 36  0  0  0  0  0  0  0  0999 V2000
    7.5360   -3.1390  -52.0730 O   0  0  0  0  0  0  0  0  0  0  0  0
    8.1920   -2.4450  -52.8570 C   0  0  0  0  0  0  0  0  0  0  0  0
    9.4790   -2.9010  -53.3590 C   0  0  0  0  0  0  0  0  0  0  0  0
   10.6620   -2.8460  -52.7760 N   0  0  0  0  0  0  0  0  0  0  0  0
   11.5720   -3.3590  -53.6760 N   0  0  0  0  0  0  0  0  0  0  0  0
   10.8920   -3.6710  -54.7610 C   0  0  0  0  0  0  0  0  0  0  0  0
   11.3490   -4.2410  -56.0220 C   0  0  0  0  0  0  0  0  0  0  0  0
   11.5390   -3.4030  -57.1350 C   0  0  0  0  0  0  0  0  0  0  0  0
   11.9770   -3.9200  -58.3590 C   0  0  0  0  0  0  0  0  0  0  0  0
   12.2310   -5.2830  -58.4830 C   0  0  0  0  0  0  0  0  0  0  0  0
   12.0430   -6.1150  -57.3850 C   0  0  0  0  0  0  0  0  0  0  0  0
   12.2880   -7.4260  -57.5060 F   0  0  0  0  0  0  0  0  0  0  0  0
   11.6070   -5.6110  -56.1640 C   0  0  0  0  0  0  0  0  0  0  0  0
    9.5560   -3.4050  -54.6370 O   0  0  0  0  0  0  0  0  0  0  0  0
    7.6640   -1.2110  -53.2790 N   0  0  0  0  0  0  0  0  0  0  0  0
    8.4100   -0.1230  -53.9080 C   0  0  0  0  0  0  0  0  0  0  0  0
    7.6920    0.3610  -55.1660 C   0  0  0  0  0  0  0  0  0  0  0  0
    6.1760    0.4970  -54.9740 C   0  0  0  0  0  0  0  0  0  0  0  0
    5.7620    0.3910  -53.5100 C   0  0  0  0  0  0  0  0  0  0  0  0
    6.2930   -0.8970  -52.8800 C   0  0  0  0  0  0  0  0  0  0  0  0
   11.3403   -2.3251  -57.0420 H   0  0  0  0  0  0  0  0  0  0  0  0
   12.1202   -3.2515  -59.2207 H   0  0  0  0  0  0  0  0  0  0  0  0
   12.5773   -5.6981  -59.4410 H   0  0  0  0  0  0  0  0  0  0  0  0
   11.4646   -6.2885  -55.3092 H   0  0  0  0  0  0  0  0  0  0  0  0
    8.4991    0.7125  -53.1981 H   0  0  0  0  0  0  0  0  0  0  0  0
    9.4081   -0.4913  -54.1877 H   0  0  0  0  0  0  0  0  0  0  0  0
    8.0996    1.3434  -55.4466 H   0  0  0  0  0  0  0  0  0  0  0  0
    7.8588   -0.3913  -55.9510 H   0  0  0  0  0  0  0  0  0  0  0  0
    5.8577    1.4763  -55.3608 H   0  0  0  0  0  0  0  0  0  0  0  0
    5.6943   -0.3284  -55.5187 H   0  0  0  0  0  0  0  0  0  0  0  0
    6.1656    1.2534  -52.9591 H   0  0  0  0  0  0  0  0  0  0  0  0
    4.6633    0.3786  -53.4575 H   0  0  0  0  0  0  0  0  0  0  0  0
    6.2635   -0.7889  -51.7857 H   0  0  0  0  0  0  0  0  0  0  0  0
    5.6537   -1.7203  -53.2314 H   0  0  0  0  0  0  0  0  0  0  0  0
  1  2  2  0
  2  3  1  0
  3  4  2  0
  4  5  1  0
  5  6  2  0
  6  7  1  0
  7  8  2  0
  8  9  1  0
  9 10  2  0
 10 11  1  0
 11 12  1  0
 11 13  2  0
  6 14  1  0
  2 15  1  0
 15 16  1  0
 16 17  1  0
 17 18  1  0
 18 19  1  0
 19 20  1  0
 14  3  1  0
 20 15  1  0
 13  7  1  0
  8 21  1  0
  9 22  1  0
 10 23  1  0
 13 24  1  0
 16 25  1  0
 16 26  1  0
 17 27  1  0
 17 28  1  0
 18 29  1  0
 18 30  1  0
 19 31  1  0
 19 32  1  0
 20 33  1  0
 20 34  1  0
M  END
>  <meeko>  (64) 
{"is_sidechain": false}

$$$$

     RDKit          3D

 40 42  0  0  0  0  0  0  0  0999 V2000
   11.3160   -1.3030  -56.2960 O   0  0  0  0  0  0  0  0  0  0  0  0
   11.2780   -2.3880  -55.7050 C   0  0  0  0  0  0  0  0  0  0  0  0
   10.7920   -2.4800  -54.3330 C   0  0  0  0  0  0  0  0  0  0  0  0
   11.4790   -2.4310  -53.2070 N   0  0  0  0  0  0  0  0  0  0  0  0
   10.5730   -2.5880  -52.1780 N   0  0  0  0  0  0  0  0  0  0  0  0
    9.3940   -2.7360  -52.7440 C   0  0  0  0  0  0  0  0  0  0  0  0
    8.0650   -2.9490  -52.1090 C   0  0  0  0  0  0  0  0  0  0  0  0
    7.5550   -4.3780  -52.3240 C   0  0  0  0  0  0  0  0  0  0  0  0
    6.1320   -4.5580  -51.7910 C   0  0  0  0  0  0  0  0  0  0  0  0
    5.8030   -3.6560  -50.6000 C   0  0  0  0  0  0  0  0  0  0  0  0
    7.0430   -3.3210  -49.7830 C   0  0  0  0  0  0  0  0  0  0  0  0
    8.0940   -2.5810  -50.6150 C   0  0  0  0  0  0  0  0  0  0  0  0
    9.4490   -2.6820  -54.1100 O   0  0  0  0  0  0  0  0  0  0  0  0
   11.7020   -3.5540  -56.3730 N   0  0  0  0  0  0  0  0  0  0  0  0
   12.0240   -3.4670  -57.7960 C   0  0  0  0  0  0  0  0  0  0  0  0
   11.6230   -4.7400  -58.5320 C   0  0  0  0  0  0  0  0  0  0  0  0
   12.2920   -5.9860  -57.9510 C   0  0  0  0  0  0  0  0  0  0  0  0
   12.8040   -5.7800  -56.5280 C   0  0  0  0  0  0  0  0  0  0  0  0
   11.9030   -4.8500  -55.7200 C   0  0  0  0  0  0  0  0  0  0  0  0
    7.3534   -2.2728  -52.6053 H   0  0  0  0  0  0  0  0  0  0  0  0
    7.5629   -4.6009  -53.4011 H   0  0  0  0  0  0  0  0  0  0  0  0
    8.2161   -5.0641  -51.7742 H   0  0  0  0  0  0  0  0  0  0  0  0
    5.4256   -4.3320  -52.6034 H   0  0  0  0  0  0  0  0  0  0  0  0
    6.0492   -5.5972  -51.4399 H   0  0  0  0  0  0  0  0  0  0  0  0
    5.3598   -2.7211  -50.9735 H   0  0  0  0  0  0  0  0  0  0  0  0
    5.1000   -4.1949  -49.9478 H   0  0  0  0  0  0  0  0  0  0  0  0
    6.7488   -2.6850  -48.9351 H   0  0  0  0  0  0  0  0  0  0  0  0
    7.4872   -4.2656  -49.4358 H   0  0  0  0  0  0  0  0  0  0  0  0
    7.9157   -1.4998  -50.5193 H   0  0  0  0  0  0  0  0  0  0  0  0
    9.0802   -2.8772  -50.2280 H   0  0  0  0  0  0  0  0  0  0  0  0
   11.4845   -2.6144  -58.2342 H   0  0  0  0  0  0  0  0  0  0  0  0
   13.1110   -3.3334  -57.8991 H   0  0  0  0  0  0  0  0  0  0  0  0
   10.5318   -4.8598  -58.4614 H   0  0  0  0  0  0  0  0  0  0  0  0
   11.9514   -4.6401  -59.5771 H   0  0  0  0  0  0  0  0  0  0  0  0
   11.5592   -6.8064  -57.9444 H   0  0  0  0  0  0  0  0  0  0  0  0
   13.1620   -6.2171  -58.5832 H   0  0  0  0  0  0  0  0  0  0  0  0
   12.8493   -6.7562  -56.0230 H   0  0  0  0  0  0  0  0  0  0  0  0
   13.7990   -5.3153  -56.5911 H   0  0  0  0  0  0  0  0  0  0  0  0
   10.9240   -5.3341  -55.5887 H   0  0  0  0  0  0  0  0  0  0  0  0
   12.3960   -4.6640  -54.7544 H   0  0  0  0  0  0  0  0  0  0  0  0
  1  2  2  0
  2  3  1  0
  3  4  2  0
  4  5  1  0
  5  6  2  0
  6  7  1  0
  7  8  1  0
  8  9  1  0
  9 10  1  0
 10 11  1  0
 11 12  1  0
  6 13  1  0
  2 14  1  0
 14 15  1  0
 15 16  1  0
 16 17  1  0
 17 18  1  0
 18 19  1  0
 13  3  1  0
 19 14  1  0
 12  7  1  0
  7 20  1  0
  8 21  1  0
  8 22  1  0
  9 23  1  0
  9 24  1  0
 10 25  1  0
 10 26  1  0
 11 27  1  0
 11 28  1  0
 12 29  1  0
 12 30  1  0
 15 31  1  0
 15 32  1  0
 16 33  1  0
 16 34  1  0
 17 35  1  0
 17 36  1  0
 18 37  1  0
 18 38  1  0
 19 39  1  0
 19 40  1  0
M  END
>  <meeko>  (65) 
{"is_sidechain": false}

$$$$

     RDKit          3D

 40 43  0  0  0  0  0  0  0  0999 V2000
   11.5950   -2.2460  -53.6750 O   0  0  0  0  0  0  0  0  0  0  0  0
   10.5270   -2.8420  -53.7340 C   0  0  0  0  0  0  0  0  0  0  0  0
   10.1980   -3.7680  -54.7040 N   0  0  0  0  0  0  0  0  0  0  0  0
   11.1030   -4.2050  -55.7730 C   0  0  2  0  0  0  0  0  0  0  0  0
   10.3300   -5.1890  -56.6920 C   0  0  0  0  0  0  0  0  0  0  0  0
   11.2240   -5.6950  -57.8360 C   0  0  1  0  0  0  0  0  0  0  0  0
   11.6960   -4.4970  -58.6730 C   0  0  0  0  0  0  0  0  0  0  0  0
   12.4860   -3.5190  -57.7900 C   0  0  2  0  0  0  0  0  0  0  0  0
   13.7020   -4.2450  -57.1900 C   0  0  0  0  0  0  0  0  0  0  0  0
   13.2400   -5.4470  -56.3490 C   0  0  2  0  0  0  0  0  0  0  0  0
   12.4450   -6.4140  -57.2410 C   0  0  0  0  0  0  0  0  0  0  0  0
   12.3370   -4.9500  -55.2060 C   0  0  0  0  0  0  0  0  0  0  0  0
   11.5810   -3.0200  -56.6490 C   0  0  0  0  0  0  0  0  0  0  0  0
    9.4960   -2.6100  -52.6830 C   0  0  0  0  0  0  0  0  0  0  0  0
    9.6490   -3.2490  -51.4460 C   0  0  0  0  0  0  0  0  0  0  0  0
    8.7050   -3.0580  -50.4370 C   0  0  0  0  0  0  0  0  0  0  0  0
    7.6100   -2.2220  -50.6560 C   0  0  0  0  0  0  0  0  0  0  0  0
    7.4620   -1.5700  -51.8790 C   0  0  0  0  0  0  0  0  0  0  0  0
    8.4040   -1.7580  -52.8930 C   0  0  0  0  0  0  0  0  0  0  0  0
    9.4080   -4.3680  -54.5080 H   0  0  0  0  0  0  0  0  0  0  0  0
    9.9907   -6.0478  -56.0942 H   0  0  0  0  0  0  0  0  0  0  0  0
    9.4708   -4.6584  -57.1281 H   0  0  0  0  0  0  0  0  0  0  0  0
   10.6588   -6.3916  -58.4727 H   0  0  0  0  0  0  0  0  0  0  0  0
   12.3415   -4.8542  -59.4890 H   0  0  0  0  0  0  0  0  0  0  0  0
   10.8194   -3.9799  -59.0905 H   0  0  0  0  0  0  0  0  0  0  0  0
   12.8249   -2.6655  -58.3955 H   0  0  0  0  0  0  0  0  0  0  0  0
   14.3520   -4.5990  -58.0038 H   0  0  0  0  0  0  0  0  0  0  0  0
   14.2552   -3.5465  -56.5450 H   0  0  0  0  0  0  0  0  0  0  0  0
   14.1154   -5.9649  -55.9301 H   0  0  0  0  0  0  0  0  0  0  0  0
   13.0906   -6.7717  -58.0566 H   0  0  0  0  0  0  0  0  0  0  0  0
   12.1031   -7.2663  -56.6354 H   0  0  0  0  0  0  0  0  0  0  0  0
   11.9981   -5.8115  -54.6120 H   0  0  0  0  0  0  0  0  0  0  0  0
   12.9119   -4.2563  -54.5750 H   0  0  0  0  0  0  0  0  0  0  0  0
   12.1451   -2.3127  -56.0234 H   0  0  0  0  0  0  0  0  0  0  0  0
   10.7012   -2.5247  -57.0855 H   0  0  0  0  0  0  0  0  0  0  0  0
   10.5157   -3.9030  -51.2698 H   0  0  0  0  0  0  0  0  0  0  0  0
    8.8240   -3.5665  -49.4689 H   0  0  0  0  0  0  0  0  0  0  0  0
    6.8622   -2.0771  -49.8624 H   0  0  0  0  0  0  0  0  0  0  0  0
    6.6012   -0.9058  -52.0460 H   0  0  0  0  0  0  0  0  0  0  0  0
    8.2886   -1.2377  -53.8553 H   0  0  0  0  0  0  0  0  0  0  0  0
  1  2  2  0
  2  3  1  0
  4  3  1  1
  4  5  1  0
  5  6  1  0
  6  7  1  0
  7  8  1  0
  8  9  1  0
  9 10  1  0
 10 11  1  0
 10 12  1  0
  8 13  1  0
  2 14  1  0
 14 15  2  0
 15 16  1  0
 16 17  2  0
 17 18  1  0
 18 19  2  0
 12  4  1  0
 19 14  1  0
 13  4  1  0
 11  6  1  0
  3 20  1  0
  5 21  1  0
  5 22  1  0
  6 23  1  6
  7 24  1  0
  7 25  1  0
  8 26  1  6
  9 27  1  0
  9 28  1  0
 10 29  1  1
 11 30  1  0
 11 31  1  0
 12 32  1  0
 12 33  1  0
 13 34  1  0
 13 35  1  0
 15 36  1  0
 16 37  1  0
 17 38  1  0
 18 39  1  0
 19 40  1  0
M  END
>  <meeko>  (66) 
{"is_sidechain": false}

$$$$

     RDKit          3D

 37 40  0  0  0  0  0  0  0  0999 V2000
    5.6330    2.5200  -59.0490 O   0  0  0  0  0  0  0  0  0  0  0  0
    5.9340    2.3920  -60.2310 C   0  0  0  0  0  0  0  0  0  0  0  0
    7.1610    2.7540  -60.7490 N   0  0  0  0  0  0  0  0  0  0  0  0
    8.2720    3.3330  -59.9930 C   0  0  2  0  0  0  0  0  0  0  0  0
    9.4900    3.4780  -60.9460 C   0  0  0  0  0  0  0  0  0  0  0  0
   10.6960    4.0830  -60.2120 C   0  0  1  0  0  0  0  0  0  0  0  0
   10.3140    5.4700  -59.6730 C   0  0  0  0  0  0  0  0  0  0  0  0
    9.1250    5.3470  -58.7060 C   0  0  2  0  0  0  0  0  0  0  0  0
    9.5150    4.4240  -57.5380 C   0  0  0  0  0  0  0  0  0  0  0  0
    9.8990    3.0330  -58.0680 C   0  0  2  0  0  0  0  0  0  0  0  0
   11.0830    3.1690  -59.0390 C   0  0  0  0  0  0  0  0  0  0  0  0
    8.6970    2.4250  -58.8130 C   0  0  0  0  0  0  0  0  0  0  0  0
    7.9230    4.7410  -59.4500 C   0  0  0  0  0  0  0  0  0  0  0  0
    5.0290    1.8420  -61.2220 C   0  0  0  0  0  0  0  0  0  0  0  0
    4.0320    0.8910  -61.1150 C   0  0  0  0  0  0  0  0  0  0  0  0
    3.4680    0.7440  -62.4040 C   0  0  0  0  0  0  0  0  0  0  0  0
    4.1520    1.6100  -63.2230 C   0  0  0  0  0  0  0  0  0  0  0  0
    5.1000    2.2840  -62.5210 O   0  0  0  0  0  0  0  0  0  0  0  0
    7.2760    2.5930  -61.7430 H   0  0  0  0  0  0  0  0  0  0  0  0
    9.7649    2.4852  -61.3316 H   0  0  0  0  0  0  0  0  0  0  0  0
    9.2103    4.1489  -61.7716 H   0  0  0  0  0  0  0  0  0  0  0  0
   11.5461    4.1764  -60.9038 H   0  0  0  0  0  0  0  0  0  0  0  0
   11.1734    5.9038  -59.1408 H   0  0  0  0  0  0  0  0  0  0  0  0
   10.0307    6.1197  -60.5142 H   0  0  0  0  0  0  0  0  0  0  0  0
    8.8579    6.3421  -58.3208 H   0  0  0  0  0  0  0  0  0  0  0  0
   10.3718    4.8581  -57.0019 H   0  0  0  0  0  0  0  0  0  0  0  0
    8.6575    4.3249  -56.8562 H   0  0  0  0  0  0  0  0  0  0  0  0
   10.1827    2.3813  -57.2284 H   0  0  0  0  0  0  0  0  0  0  0  0
   11.9427    3.6026  -58.5072 H   0  0  0  0  0  0  0  0  0  0  0  0
   11.3485    2.1747  -59.4274 H   0  0  0  0  0  0  0  0  0  0  0  0
    8.9757    1.4342  -59.2012 H   0  0  0  0  0  0  0  0  0  0  0  0
    7.8536    2.3354  -58.1125 H   0  0  0  0  0  0  0  0  0  0  0  0
    7.0721    4.6608  -58.7575 H   0  0  0  0  0  0  0  0  0  0  0  0
    7.6640    5.3937  -60.2967 H   0  0  0  0  0  0  0  0  0  0  0  0
    3.7344    0.3522  -60.2033 H   0  0  0  0  0  0  0  0  0  0  0  0
    2.6468    0.0715  -62.6928 H   0  0  0  0  0  0  0  0  0  0  0  0
    3.9587    1.7395  -64.2981 H   0  0  0  0  0  0  0  0  0  0  0  0
  1  2  2  0
  2  3  1  0
  4  3  1  6
  4  5  1  0
  5  6  1  0
  6  7  1  0
  7  8  1  0
  8  9  1  0
  9 10  1  0
 10 11  1  0
 10 12  1  0
  8 13  1  0
  2 14  1  0
 14 15  2  0
 15 16  1  0
 16 17  2  0
 17 18  1  0
 12  4  1  0
 18 14  1  0
 13  4  1  0
 11  6  1  0
  3 19  1  0
  5 20  1  0
  5 21  1  0
  6 22  1  6
  7 23  1  0
  7 24  1  0
  8 25  1  1
  9 26  1  0
  9 27  1  0
 10 28  1  1
 11 29  1  0
 11 30  1  0
 12 31  1  0
 12 32  1  0
 13 33  1  0
 13 34  1  0
 15 35  1  0
 16 36  1  0
 17 37  1  0
M  END
>  <meeko>  (67) 
{"is_sidechain": false}

$$$$

     RDKit          3D

 37 40  0  0  0  0  0  0  0  0999 V2000
   11.5250   -1.9430  -54.0130 O   0  0  0  0  0  0  0  0  0  0  0  0
   10.4430   -2.5180  -54.0690 C   0  0  0  0  0  0  0  0  0  0  0  0
   10.1640   -3.5360  -54.9550 N   0  0  0  0  0  0  0  0  0  0  0  0
   11.0890   -4.0830  -55.9490 C   0  0  2  0  0  0  0  0  0  0  0  0
   11.6710   -2.9740  -56.8600 C   0  0  0  0  0  0  0  0  0  0  0  0
   12.5990   -3.5820  -57.9260 C   0  0  1  0  0  0  0  0  0  0  0  0
   13.7470   -4.3340  -57.2300 C   0  0  0  0  0  0  0  0  0  0  0  0
   13.1820   -5.4620  -56.3500 C   0  0  2  0  0  0  0  0  0  0  0  0
   12.3790   -6.4370  -57.2270 C   0  0  0  0  0  0  0  0  0  0  0  0
   11.2270   -5.6910  -57.9190 C   0  0  2  0  0  0  0  0  0  0  0  0
   11.8000   -4.5660  -58.7950 C   0  0  0  0  0  0  0  0  0  0  0  0
   10.3090   -5.0780  -56.8490 C   0  0  0  0  0  0  0  0  0  0  0  0
   12.2540   -4.8560  -55.2820 C   0  0  0  0  0  0  0  0  0  0  0  0
    9.3310   -2.1860  -53.2000 C   0  0  0  0  0  0  0  0  0  0  0  0
    8.2090   -1.4100  -53.4170 C   0  0  0  0  0  0  0  0  0  0  0  0
    7.4600   -1.4340  -52.2160 C   0  0  0  0  0  0  0  0  0  0  0  0
    8.1640   -2.2210  -51.3320 C   0  0  0  0  0  0  0  0  0  0  0  0
    7.7230   -2.5990  -49.7160 Cl  0  0  0  0  0  0  0  0  0  0  0  0
    9.3030   -2.6820  -51.9210 O   0  0  0  0  0  0  0  0  0  0  0  0
    9.2290   -3.9260  -54.8950 H   0  0  0  0  0  0  0  0  0  0  0  0
   10.8453   -2.4450  -57.3584 H   0  0  0  0  0  0  0  0  0  0  0  0
   12.2518   -2.2744  -56.2409 H   0  0  0  0  0  0  0  0  0  0  0  0
   13.0103   -2.7815  -58.5584 H   0  0  0  0  0  0  0  0  0  0  0  0
   14.4137   -4.7654  -57.9912 H   0  0  0  0  0  0  0  0  0  0  0  0
   14.3077   -3.6300  -56.5975 H   0  0  0  0  0  0  0  0  0  0  0  0
   14.0080   -5.9993  -55.8611 H   0  0  0  0  0  0  0  0  0  0  0  0
   13.0418   -6.8722  -57.9894 H   0  0  0  0  0  0  0  0  0  0  0  0
   11.9648   -7.2359  -56.5944 H   0  0  0  0  0  0  0  0  0  0  0  0
   10.6562   -6.3925  -58.5451 H   0  0  0  0  0  0  0  0  0  0  0  0
   12.4627   -4.9997  -59.5583 H   0  0  0  0  0  0  0  0  0  0  0  0
   10.9727   -4.0294  -59.2824 H   0  0  0  0  0  0  0  0  0  0  0  0
    9.4852   -4.5441  -57.3452 H   0  0  0  0  0  0  0  0  0  0  0  0
    9.9181   -5.8890  -56.2170 H   0  0  0  0  0  0  0  0  0  0  0  0
   11.8424   -5.6643  -54.6597 H   0  0  0  0  0  0  0  0  0  0  0  0
   12.8348   -4.1573  -54.6619 H   0  0  0  0  0  0  0  0  0  0  0  0
    7.9482   -0.8769  -54.3432 H   0  0  0  0  0  0  0  0  0  0  0  0
    6.5038   -0.9243  -52.0262 H   0  0  0  0  0  0  0  0  0  0  0  0
  1  2  2  0
  2  3  1  0
  4  3  1  1
  4  5  1  0
  5  6  1  0
  6  7  1  0
  7  8  1  0
  8  9  1  0
  9 10  1  0
 10 11  1  0
 10 12  1  0
  8 13  1  0
  2 14  1  0
 14 15  2  0
 15 16  1  0
 16 17  2  0
 17 18  1  0
 17 19  1  0
 12  4  1  0
 19 14  1  0
 13  4  1  0
 11  6  1  0
  3 20  1  0
  5 21  1  0
  5 22  1  0
  6 23  1  6
  7 24  1  0
  7 25  1  0
  8 26  1  1
  9 27  1  0
  9 28  1  0
 10 29  1  6
 11 30  1  0
 11 31  1  0
 12 32  1  0
 12 33  1  0
 13 34  1  0
 13 35  1  0
 15 36  1  0
 16 37  1  0
M  END
>  <meeko>  (68) 
{"is_sidechain": false}

$$$$

     RDKit          3D

 37 40  0  0  0  0  0  0  0  0999 V2000
    5.9710    2.4130  -58.9190 O   0  0  0  0  0  0  0  0  0  0  0  0
    6.1770    2.3680  -60.1280 C   0  0  0  0  0  0  0  0  0  0  0  0
    7.3760    2.7870  -60.6820 N   0  0  0  0  0  0  0  0  0  0  0  0
    8.4910    3.3690  -59.9280 C   0  0  2  0  0  0  0  0  0  0  0  0
    9.0990    2.3620  -58.9180 C   0  0  0  0  0  0  0  0  0  0  0  0
   10.2980    2.9880  -58.1840 C   0  0  1  0  0  0  0  0  0  0  0  0
   11.3790    3.3670  -59.2070 C   0  0  0  0  0  0  0  0  0  0  0  0
   10.8130    4.3810  -60.2140 C   0  0  2  0  0  0  0  0  0  0  0  0
   10.3530    5.6410  -59.4650 C   0  0  0  0  0  0  0  0  0  0  0  0
    9.2650    5.2750  -58.4410 C   0  0  2  0  0  0  0  0  0  0  0  0
    9.8340    4.2520  -57.4410 C   0  0  0  0  0  0  0  0  0  0  0  0
    8.0640    4.6530  -59.1750 C   0  0  0  0  0  0  0  0  0  0  0  0
    9.6080    3.7550  -60.9350 C   0  0  0  0  0  0  0  0  0  0  0  0
    5.1940    1.8970  -61.1010 C   0  0  0  0  0  0  0  0  0  0  0  0
    4.0370    1.1560  -60.9210 C   0  0  0  0  0  0  0  0  0  0  0  0
    3.3500    0.9000  -62.1450 C   0  0  0  0  0  0  0  0  0  0  0  0
    3.9940    1.4600  -63.2230 C   0  0  0  0  0  0  0  0  0  0  0  0
    5.4130    2.2920  -62.7600 S   0  0  0  0  0  0  0  0  0  0  0  0
    7.3940    2.9090  -61.6840 H   0  0  0  0  0  0  0  0  0  0  0  0
    8.3316    2.0803  -58.1820 H   0  0  0  0  0  0  0  0  0  0  0  0
    9.4440    1.4735  -59.4672 H   0  0  0  0  0  0  0  0  0  0  0  0
   10.7095    2.2656  -57.4637 H   0  0  0  0  0  0  0  0  0  0  0  0
   12.2369    3.8134  -58.6828 H   0  0  0  0  0  0  0  0  0  0  0  0
   11.7015    2.4634  -59.7450 H   0  0  0  0  0  0  0  0  0  0  0  0
   11.5895    4.6489  -60.9457 H   0  0  0  0  0  0  0  0  0  0  0  0
   11.2111    6.0874  -58.9412 H   0  0  0  0  0  0  0  0  0  0  0  0
    9.9419    6.3613  -60.1876 H   0  0  0  0  0  0  0  0  0  0  0  0
    8.9423    6.1793  -57.9042 H   0  0  0  0  0  0  0  0  0  0  0  0
   10.6893    4.6975  -56.9119 H   0  0  0  0  0  0  0  0  0  0  0  0
    9.0492    3.9782  -56.7204 H   0  0  0  0  0  0  0  0  0  0  0  0
    7.2839    4.3997  -58.4420 H   0  0  0  0  0  0  0  0  0  0  0  0
    7.6787    5.3805  -59.9046 H   0  0  0  0  0  0  0  0  0  0  0  0
    9.2052    4.4804  -61.6572 H   0  0  0  0  0  0  0  0  0  0  0  0
    9.9446    2.8427  -61.4491 H   0  0  0  0  0  0  0  0  0  0  0  0
    3.6860    0.8031  -59.9400 H   0  0  0  0  0  0  0  0  0  0  0  0
    2.4162    0.3232  -62.2176 H   0  0  0  0  0  0  0  0  0  0  0  0
    3.6379    1.3817  -64.2608 H   0  0  0  0  0  0  0  0  0  0  0  0
  1  2  2  0
  2  3  1  0
  4  3  1  6
  4  5  1  0
  5  6  1  0
  6  7  1  0
  7  8  1  0
  8  9  1  0
  9 10  1  0
 10 11  1  0
 10 12  1  0
  8 13  1  0
  2 14  1  0
 14 15  2  0
 15 16  1  0
 16 17  2  0
 17 18  1  0
 12  4  1  0
 18 14  1  0
 13  4  1  0
 11  6  1  0
  3 19  1  0
  5 20  1  0
  5 21  1  0
  6 22  1  1
  7 23  1  0
  7 24  1  0
  8 25  1  6
  9 26  1  0
  9 27  1  0
 10 28  1  1
 11 29  1  0
 11 30  1  0
 12 31  1  0
 12 32  1  0
 13 33  1  0
 13 34  1  0
 15 35  1  0
 16 36  1  0
 17 37  1  0
M  END
>  <meeko>  (69) 
{"is_sidechain": false}

$$$$

     RDKit          3D

 37 40  0  0  0  0  0  0  0  0999 V2000
    6.5530    2.7640  -58.8950 O   0  0  0  0  0  0  0  0  0  0  0  0
    6.8430    2.7350  -60.0880 C   0  0  0  0  0  0  0  0  0  0  0  0
    8.1040    3.0790  -60.5460 N   0  0  0  0  0  0  0  0  0  0  0  0
    9.2010    3.5580  -59.6970 C   0  0  2  0  0  0  0  0  0  0  0  0
   10.3660    4.0130  -60.6210 C   0  0  0  0  0  0  0  0  0  0  0  0
   11.5540    4.5350  -59.7970 C   0  0  1  0  0  0  0  0  0  0  0  0
   11.0910    5.7280  -58.9460 C   0  0  0  0  0  0  0  0  0  0  0  0
    9.9590    5.2910  -58.0040 C   0  0  2  0  0  0  0  0  0  0  0  0
   10.4650    4.1640  -57.0890 C   0  0  0  0  0  0  0  0  0  0  0  0
   10.9310    2.9650  -57.9330 C   0  0  2  0  0  0  0  0  0  0  0  0
   12.0580    3.4150  -58.8750 C   0  0  0  0  0  0  0  0  0  0  0  0
    9.7480    2.4430  -58.7690 C   0  0  0  0  0  0  0  0  0  0  0  0
    8.7730    4.7730  -58.8390 C   0  0  0  0  0  0  0  0  0  0  0  0
    5.9000    2.3580  -61.1370 C   0  0  0  0  0  0  0  0  0  0  0  0
    5.9050    2.6400  -62.4970 C   0  0  0  0  0  0  0  0  0  0  0  0
    4.7830    2.0760  -63.1790 C   0  0  0  0  0  0  0  0  0  0  0  0
    3.9790    1.3840  -62.3140 C   0  0  0  0  0  0  0  0  0  0  0  0
    2.5310    0.5500  -62.7110 Cl  0  0  0  0  0  0  0  0  0  0  0  0
    4.5360    1.3910  -60.7210 S   0  0  0  0  0  0  0  0  0  0  0  0
    8.2080    3.2200  -61.5390 H   0  0  0  0  0  0  0  0  0  0  0  0
   10.6980    3.1579  -61.2282 H   0  0  0  0  0  0  0  0  0  0  0  0
   10.0032    4.8271  -61.2656 H   0  0  0  0  0  0  0  0  0  0  0  0
   12.3649    4.8531  -60.4688 H   0  0  0  0  0  0  0  0  0  0  0  0
   11.9372    6.1014  -58.3505 H   0  0  0  0  0  0  0  0  0  0  0  0
   10.7226    6.5244  -59.6093 H   0  0  0  0  0  0  0  0  0  0  0  0
    9.6362    6.1470  -57.3931 H   0  0  0  0  0  0  0  0  0  0  0  0
   11.3081    4.5348  -56.4876 H   0  0  0  0  0  0  0  0  0  0  0  0
    9.6463    3.8422  -56.4286 H   0  0  0  0  0  0  0  0  0  0  0  0
   11.2985    2.1667  -57.2715 H   0  0  0  0  0  0  0  0  0  0  0  0
   12.9046    3.7867  -58.2791 H   0  0  0  0  0  0  0  0  0  0  0  0
   12.3806    2.5601  -59.4874 H   0  0  0  0  0  0  0  0  0  0  0  0
   10.0856    1.5951  -59.3830 H   0  0  0  0  0  0  0  0  0  0  0  0
    8.9458    2.1239  -58.0874 H   0  0  0  0  0  0  0  0  0  0  0  0
    7.9599    4.4699  -58.1630 H   0  0  0  0  0  0  0  0  0  0  0  0
    8.4318    5.5770  -59.5077 H   0  0  0  0  0  0  0  0  0  0  0  0
    6.6869    3.2325  -62.9946 H   0  0  0  0  0  0  0  0  0  0  0  0
    4.5909    2.1837  -64.2567 H   0  0  0  0  0  0  0  0  0  0  0  0
  1  2  2  0
  2  3  1  0
  4  3  1  6
  4  5  1  0
  5  6  1  0
  6  7  1  0
  7  8  1  0
  8  9  1  0
  9 10  1  0
 10 11  1  0
 10 12  1  0
  8 13  1  0
  2 14  1  0
 14 15  2  0
 15 16  1  0
 16 17  2  0
 17 18  1  0
 17 19  1  0
 12  4  1  0
 19 14  1  0
 13  4  1  0
 11  6  1  0
  3 20  1  0
  5 21  1  0
  5 22  1  0
  6 23  1  6
  7 24  1  0
  7 25  1  0
  8 26  1  1
  9 27  1  0
  9 28  1  0
 10 29  1  1
 11 30  1  0
 11 31  1  0
 12 32  1  0
 12 33  1  0
 13 34  1  0
 13 35  1  0
 15 36  1  0
 16 37  1  0
M  END
>  <meeko>  (70) 
{"is_sidechain": false}

$$$$

     RDKit          3D

 33 35  0  0  0  0  0  0  0  0999 V2000
    6.6260    0.4310  -55.6990 C   0  0  0  0  0  0  0  0  0  0  0  0
    6.8120    1.7300  -56.4380 C   0  0  0  0  0  0  0  0  0  0  0  0
    5.9060    2.5500  -56.5330 O   0  0  0  0  0  0  0  0  0  0  0  0
    8.0630    1.8740  -56.9950 N   0  0  0  0  0  0  0  0  0  0  0  0
    8.4930    3.0190  -57.8050 C   0  0  2  0  0  0  0  0  0  0  0  0
    9.9130    2.7210  -58.3610 C   0  0  0  0  0  0  0  0  0  0  0  0
   10.4230    3.8850  -59.2250 C   0  0  1  0  0  0  0  0  0  0  0  0
    9.4570    4.1000  -60.4010 C   0  0  0  0  0  0  0  0  0  0  0  0
    8.0510    4.4250  -59.8720 C   0  0  2  0  0  0  0  0  0  0  0  0
    8.1140    5.6970  -59.0100 C   0  0  0  0  0  0  0  0  0  0  0  0
    9.0790    5.4900  -57.8300 C   0  0  2  0  0  0  0  0  0  0  0  0
   10.4780    5.1600  -58.3700 C   0  0  0  0  0  0  0  0  0  0  0  0
    8.5770    4.3190  -56.9660 C   0  0  0  0  0  0  0  0  0  0  0  0
    7.5490    3.2520  -59.0100 C   0  0  0  0  0  0  0  0  0  0  0  0
    6.6528    0.6185  -54.6154 H   0  0  0  0  0  0  0  0  0  0  0  0
    5.6556   -0.0098  -55.9709 H   0  0  0  0  0  0  0  0  0  0  0  0
    7.4337   -0.2644  -55.9709 H   0  0  0  0  0  0  0  0  0  0  0  0
    8.6900    1.0810  -56.9430 H   0  0  0  0  0  0  0  0  0  0  0  0
   10.6041    2.5687  -57.5189 H   0  0  0  0  0  0  0  0  0  0  0  0
    9.8614    1.8175  -58.9863 H   0  0  0  0  0  0  0  0  0  0  0  0
   11.4275    3.6542  -59.6093 H   0  0  0  0  0  0  0  0  0  0  0  0
    9.8160    4.9358  -61.0195 H   0  0  0  0  0  0  0  0  0  0  0  0
    9.4128    3.1818  -61.0052 H   0  0  0  0  0  0  0  0  0  0  0  0
    7.3652    4.5841  -60.7172 H   0  0  0  0  0  0  0  0  0  0  0  0
    8.4679    6.5367  -59.6262 H   0  0  0  0  0  0  0  0  0  0  0  0
    7.1096    5.9164  -58.6188 H   0  0  0  0  0  0  0  0  0  0  0  0
    9.1251    6.4061  -57.2228 H   0  0  0  0  0  0  0  0  0  0  0  0
   10.8374    5.9970  -58.9866 H   0  0  0  0  0  0  0  0  0  0  0  0
   11.1630    4.9989  -57.5245 H   0  0  0  0  0  0  0  0  0  0  0  0
    9.2724    4.1640  -56.1279 H   0  0  0  0  0  0  0  0  0  0  0  0
    7.5732    4.5623  -56.5876 H   0  0  0  0  0  0  0  0  0  0  0  0
    6.5392    3.4819  -58.6392 H   0  0  0  0  0  0  0  0  0  0  0  0
    7.5293    2.3413  -59.6267 H   0  0  0  0  0  0  0  0  0  0  0  0
  1  2  1  0
  2  3  2  0
  2  4  1  0
  5  4  1  1
  5  6  1  0
  6  7  1  0
  7  8  1  0
  8  9  1  0
  9 10  1  0
 10 11  1  0
 11 12  1  0
 11 13  1  0
  9 14  1  0
 13  5  1  0
 14  5  1  0
 12  7  1  0
  1 15  1  0
  1 16  1  0
  1 17  1  0
  4 18  1  0
  6 19  1  0
  6 20  1  0
  7 21  1  6
  8 22  1  0
  8 23  1  0
  9 24  1  6
 10 25  1  0
 10 26  1  0
 11 27  1  1
 12 28  1  0
 12 29  1  0
 13 30  1  0
 13 31  1  0
 14 32  1  0
 14 33  1  0
M  END
>  <meeko>  (71) 
{"is_sidechain": false}

$$$$

     RDKit          3D

 37 40  0  0  0  0  0  0  0  0999 V2000
    6.2960    2.4810  -57.8590 O   0  0  0  0  0  0  0  0  0  0  0  0
    6.1980    2.6080  -59.0740 C   0  0  0  0  0  0  0  0  0  0  0  0
    7.2080    3.1020  -59.8730 N   0  0  0  0  0  0  0  0  0  0  0  0
    8.5240    3.5410  -59.4130 C   0  0  2  0  0  0  0  0  0  0  0  0
    8.4280    4.7950  -58.5090 C   0  0  0  0  0  0  0  0  0  0  0  0
    9.8300    5.2650  -58.0820 C   0  0  1  0  0  0  0  0  0  0  0  0
   10.5340    4.1300  -57.3190 C   0  0  0  0  0  0  0  0  0  0  0  0
   10.6690    2.8910  -58.2200 C   0  0  2  0  0  0  0  0  0  0  0  0
   11.4830    3.2600  -59.4700 C   0  0  0  0  0  0  0  0  0  0  0  0
   10.7800    4.3880  -60.2410 C   0  0  2  0  0  0  0  0  0  0  0  0
   10.6490    5.6200  -59.3330 C   0  0  0  0  0  0  0  0  0  0  0  0
    9.3780    3.9160  -60.6560 C   0  0  0  0  0  0  0  0  0  0  0  0
    9.2680    2.4180  -58.6480 C   0  0  0  0  0  0  0  0  0  0  0  0
    5.0000    2.2530  -59.8100 C   0  0  0  0  0  0  0  0  0  0  0  0
    3.6630    2.3500  -59.4700 C   0  0  0  0  0  0  0  0  0  0  0  0
    2.9260    1.8540  -60.5730 C   0  0  0  0  0  0  0  0  0  0  0  0
    3.8530    1.4840  -61.5180 C   0  0  0  0  0  0  0  0  0  0  0  0
    3.4490    0.7430  -63.2230 Br  0  0  0  0  0  0  0  0  0  0  0  0
    5.1140    1.7200  -61.0680 O   0  0  0  0  0  0  0  0  0  0  0  0
    6.9950    3.1560  -60.8630 H   0  0  0  0  0  0  0  0  0  0  0  0
    7.9295    5.6033  -59.0641 H   0  0  0  0  0  0  0  0  0  0  0  0
    7.8508    4.5389  -57.6083 H   0  0  0  0  0  0  0  0  0  0  0  0
    9.7432    6.1494  -57.4337 H   0  0  0  0  0  0  0  0  0  0  0  0
   11.5349    4.4657  -57.0099 H   0  0  0  0  0  0  0  0  0  0  0  0
    9.9368    3.8674  -56.4333 H   0  0  0  0  0  0  0  0  0  0  0  0
   11.1788    2.0867  -57.6693 H   0  0  0  0  0  0  0  0  0  0  0  0
   12.4852    3.5963  -59.1659 H   0  0  0  0  0  0  0  0  0  0  0  0
   11.5671    2.3765  -60.1198 H   0  0  0  0  0  0  0  0  0  0  0  0
   11.3667    4.6478  -61.1345 H   0  0  0  0  0  0  0  0  0  0  0  0
   11.6510    5.9570  -59.0291 H   0  0  0  0  0  0  0  0  0  0  0  0
   10.1373    6.4226  -59.8843 H   0  0  0  0  0  0  0  0  0  0  0  0
    8.8751    4.7244  -61.2070 H   0  0  0  0  0  0  0  0  0  0  0  0
    9.4830    3.0234  -61.2903 H   0  0  0  0  0  0  0  0  0  0  0  0
    9.3672    1.5393  -59.3022 H   0  0  0  0  0  0  0  0  0  0  0  0
    8.6907    2.1590  -57.7482 H   0  0  0  0  0  0  0  0  0  0  0  0
    3.2518    2.7372  -58.5261 H   0  0  0  0  0  0  0  0  0  0  0  0
    1.8317    1.7798  -60.6566 H   0  0  0  0  0  0  0  0  0  0  0  0
  1  2  2  0
  2  3  1  0
  4  3  1  6
  4  5  1  0
  5  6  1  0
  6  7  1  0
  7  8  1  0
  8  9  1  0
  9 10  1  0
 10 11  1  0
 10 12  1  0
  8 13  1  0
  2 14  1  0
 14 15  2  0
 15 16  1  0
 16 17  2  0
 17 18  1  0
 17 19  1  0
 12  4  1  0
 19 14  1  0
 13  4  1  0
 11  6  1  0
  3 20  1  0
  5 21  1  0
  5 22  1  0
  6 23  1  1
  7 24  1  0
  7 25  1  0
  8 26  1  1
  9 27  1  0
  9 28  1  0
 10 29  1  6
 11 30  1  0
 11 31  1  0
 12 32  1  0
 12 33  1  0
 13 34  1  0
 13 35  1  0
 15 36  1  0
 16 37  1  0
M  END
>  <meeko>  (72) 
{"is_sidechain": false}

$$$$

     RDKit          3D

 40 43  0  0  0  0  0  0  0  0999 V2000
    7.7740   -2.5980  -50.0030 C   0  0  0  0  0  0  0  0  0  0  0  0
    8.0580   -2.1820  -51.3910 C   0  0  0  0  0  0  0  0  0  0  0  0
    7.3980   -1.3800  -52.2940 C   0  0  0  0  0  0  0  0  0  0  0  0
    8.1860   -1.3720  -53.4690 C   0  0  0  0  0  0  0  0  0  0  0  0
    9.2850   -2.1710  -53.2180 C   0  0  0  0  0  0  0  0  0  0  0  0
   10.4170   -2.5240  -54.0540 C   0  0  0  0  0  0  0  0  0  0  0  0
   11.5170   -1.9930  -53.9520 O   0  0  0  0  0  0  0  0  0  0  0  0
   10.1320   -3.5150  -54.9710 N   0  0  0  0  0  0  0  0  0  0  0  0
   11.0680   -4.0780  -55.9440 C   0  0  2  0  0  0  0  0  0  0  0  0
   12.2130   -4.8580  -55.2520 C   0  0  0  0  0  0  0  0  0  0  0  0
   13.1530   -5.4810  -56.2990 C   0  0  1  0  0  0  0  0  0  0  0  0
   12.3560   -6.4530  -57.1830 C   0  0  0  0  0  0  0  0  0  0  0  0
   11.2230   -5.7010  -57.8990 C   0  0  2  0  0  0  0  0  0  0  0  0
   11.8230   -4.5880  -58.7730 C   0  0  0  0  0  0  0  0  0  0  0  0
   12.6170   -3.6060  -57.8980 C   0  0  2  0  0  0  0  0  0  0  0  0
   13.7440   -4.3650  -57.1770 C   0  0  0  0  0  0  0  0  0  0  0  0
   11.6760   -2.9810  -56.8530 C   0  0  0  0  0  0  0  0  0  0  0  0
   10.2930   -5.0720  -56.8500 C   0  0  0  0  0  0  0  0  0  0  0  0
    9.2060   -2.6680  -51.9420 O   0  0  0  0  0  0  0  0  0  0  0  0
    8.2531   -1.8962  -49.3045 H   0  0  0  0  0  0  0  0  0  0  0  0
    6.6869   -2.5975  -49.8352 H   0  0  0  0  0  0  0  0  0  0  0  0
    8.1704   -3.6103  -49.8352 H   0  0  0  0  0  0  0  0  0  0  0  0
    6.4471   -0.8506  -52.1340 H   0  0  0  0  0  0  0  0  0  0  0  0
    7.9661   -0.8334  -54.4026 H   0  0  0  0  0  0  0  0  0  0  0  0
    9.1810   -3.8650  -54.9460 H   0  0  0  0  0  0  0  0  0  0  0  0
   12.7870   -4.1686  -54.6154 H   0  0  0  0  0  0  0  0  0  0  0  0
   11.7764   -5.6634  -54.6431 H   0  0  0  0  0  0  0  0  0  0  0  0
   13.9646   -6.0233  -55.7918 H   0  0  0  0  0  0  0  0  0  0  0  0
   13.0274   -6.8992  -57.9314 H   0  0  0  0  0  0  0  0  0  0  0  0
   11.9235   -7.2438  -56.5525 H   0  0  0  0  0  0  0  0  0  0  0  0
   10.6553   -6.4012  -58.5294 H   0  0  0  0  0  0  0  0  0  0  0  0
   12.4942   -5.0341  -59.5216 H   0  0  0  0  0  0  0  0  0  0  0  0
   11.0097   -4.0465  -59.2782 H   0  0  0  0  0  0  0  0  0  0  0  0
   13.0482   -2.8142  -58.5282 H   0  0  0  0  0  0  0  0  0  0  0  0
   14.4192   -4.8086  -57.9235 H   0  0  0  0  0  0  0  0  0  0  0  0
   14.3004   -3.6622  -56.5394 H   0  0  0  0  0  0  0  0  0  0  0  0
   12.2438   -2.2713  -56.2333 H   0  0  0  0  0  0  0  0  0  0  0  0
   10.8602   -2.4603  -57.3758 H   0  0  0  0  0  0  0  0  0  0  0  0
    9.4830   -4.5337  -57.3640 H   0  0  0  0  0  0  0  0  0  0  0  0
    9.8829   -5.8744  -56.2192 H   0  0  0  0  0  0  0  0  0  0  0  0
  1  2  1  0
  2  3  2  0
  3  4  1  0
  4  5  2  0
  5  6  1  0
  6  7  2  0
  6  8  1  0
  9  8  1  1
  9 10  1  0
 10 11  1  0
 11 12  1  0
 12 13  1  0
 13 14  1  0
 14 15  1  0
 15 16  1  0
 15 17  1  0
 13 18  1  0
  5 19  1  0
 19  2  1  0
 17  9  1  0
 18  9  1  0
 16 11  1  0
  1 20  1  0
  1 21  1  0
  1 22  1  0
  3 23  1  0
  4 24  1  0
  8 25  1  0
 10 26  1  0
 10 27  1  0
 11 28  1  1
 12 29  1  0
 12 30  1  0
 13 31  1  6
 14 32  1  0
 14 33  1  0
 15 34  1  6
 16 35  1  0
 16 36  1  0
 17 37  1  0
 17 38  1  0
 18 39  1  0
 18 40  1  0
M  END
>  <meeko>  (73) 
{"is_sidechain": false}

$$$$

     RDKit          3D

 37 40  0  0  0  0  0  0  0  0999 V2000
    6.1670    2.5920  -59.1700 O   0  0  0  0  0  0  0  0  0  0  0  0
    6.4410    2.5990  -60.3660 C   0  0  0  0  0  0  0  0  0  0  0  0
    7.6700    3.0270  -60.8390 N   0  0  0  0  0  0  0  0  0  0  0  0
    8.7700    3.5130  -59.9990 C   0  0  2  0  0  0  0  0  0  0  0  0
    9.2890    2.4150  -59.0370 C   0  0  0  0  0  0  0  0  0  0  0  0
   10.4780    2.9370  -58.2090 C   0  0  1  0  0  0  0  0  0  0  0  0
   11.6190    3.3390  -59.1560 C   0  0  0  0  0  0  0  0  0  0  0  0
   11.1410    4.4440  -60.1120 C   0  0  2  0  0  0  0  0  0  0  0  0
   10.6980    5.6670  -59.2950 C   0  0  0  0  0  0  0  0  0  0  0  0
    9.5520    5.2780  -58.3490 C   0  0  2  0  0  0  0  0  0  0  0  0
   10.0310    4.1660  -57.4010 C   0  0  0  0  0  0  0  0  0  0  0  0
    8.3610    4.7600  -59.1770 C   0  0  0  0  0  0  0  0  0  0  0  0
    9.9480    3.9220  -60.9270 C   0  0  0  0  0  0  0  0  0  0  0  0
    5.5080    2.1620  -61.3940 C   0  0  0  0  0  0  0  0  0  0  0  0
    5.4680    2.3070  -62.7730 C   0  0  0  0  0  0  0  0  0  0  0  0
    4.2940    1.6530  -63.2230 C   0  0  0  0  0  0  0  0  0  0  0  0
    3.6870    1.1470  -62.1000 C   0  0  0  0  0  0  0  0  0  0  0  0
    2.5400    0.4530  -62.0990 F   0  0  0  0  0  0  0  0  0  0  0  0
    4.4080    1.4470  -60.9930 O   0  0  0  0  0  0  0  0  0  0  0  0
    7.8290    3.0060  -61.8350 H   0  0  0  0  0  0  0  0  0  0  0  0
    8.4775    2.1176  -58.3565 H   0  0  0  0  0  0  0  0  0  0  0  0
    9.6229    1.5518  -59.6315 H   0  0  0  0  0  0  0  0  0  0  0  0
   10.8269    2.1500  -57.5242 H   0  0  0  0  0  0  0  0  0  0  0  0
   12.4694    3.7105  -58.5654 H   0  0  0  0  0  0  0  0  0  0  0  0
   11.9287    2.4616  -59.7427 H   0  0  0  0  0  0  0  0  0  0  0  0
   11.9600    4.7289  -60.7888 H   0  0  0  0  0  0  0  0  0  0  0  0
   11.5484    6.0381  -58.7041 H   0  0  0  0  0  0  0  0  0  0  0  0
   10.3497    6.4533  -59.9809 H   0  0  0  0  0  0  0  0  0  0  0  0
    9.2422    6.1565  -57.7639 H   0  0  0  0  0  0  0  0  0  0  0  0
   10.8777    4.5365  -56.8045 H   0  0  0  0  0  0  0  0  0  0  0  0
    9.2024    3.8778  -56.7374 H   0  0  0  0  0  0  0  0  0  0  0  0
    7.5382    4.4915  -58.4981 H   0  0  0  0  0  0  0  0  0  0  0  0
    8.0397    5.5517  -59.8698 H   0  0  0  0  0  0  0  0  0  0  0  0
    9.6076    4.7127  -61.6118 H   0  0  0  0  0  0  0  0  0  0  0  0
   10.2723    3.0346  -61.4904 H   0  0  0  0  0  0  0  0  0  0  0  0
    6.2067    2.8300  -63.3981 H   0  0  0  0  0  0  0  0  0  0  0  0
    3.9407    1.5680  -64.2612 H   0  0  0  0  0  0  0  0  0  0  0  0
  1  2  2  0
  2  3  1  0
  4  3  1  6
  4  5  1  0
  5  6  1  0
  6  7  1  0
  7  8  1  0
  8  9  1  0
  9 10  1  0
 10 11  1  0
 10 12  1  0
  8 13  1  0
  2 14  1  0
 14 15  2  0
 15 16  1  0
 16 17  2  0
 17 18  1  0
 17 19  1  0
 12  4  1  0
 19 14  1  0
 13  4  1  0
 11  6  1  0
  3 20  1  0
  5 21  1  0
  5 22  1  0
  6 23  1  1
  7 24  1  0
  7 25  1  0
  8 26  1  6
  9 27  1  0
  9 28  1  0
 10 29  1  1
 11 30  1  0
 11 31  1  0
 12 32  1  0
 12 33  1  0
 13 34  1  0
 13 35  1  0
 15 36  1  0
 16 37  1  0
M  END
>  <meeko>  (74) 
{"is_sidechain": false}

$$$$

     RDKit          3D

 39 42  0  0  0  0  0  0  0  0999 V2000
    7.7720   -2.7280  -50.0560 C   0  0  0  0  0  0  0  0  0  0  0  0
    8.1170   -2.2370  -51.4030 C   0  0  0  0  0  0  0  0  0  0  0  0
    7.5060   -1.3330  -52.1410 N   0  0  0  0  0  0  0  0  0  0  0  0
    8.2630   -1.2850  -53.2850 C   0  0  0  0  0  0  0  0  0  0  0  0
    9.3200   -2.1670  -53.2080 C   0  0  0  0  0  0  0  0  0  0  0  0
   10.4080   -2.5290  -54.0890 C   0  0  0  0  0  0  0  0  0  0  0  0
   11.5010   -1.9710  -54.0620 O   0  0  0  0  0  0  0  0  0  0  0  0
   10.1280   -3.5580  -54.9740 N   0  0  0  0  0  0  0  0  0  0  0  0
   11.0700   -4.0980  -55.9610 C   0  0  2  0  0  0  0  0  0  0  0  0
   11.6740   -2.9820  -56.8520 C   0  0  0  0  0  0  0  0  0  0  0  0
   12.6150   -3.5840  -57.9100 C   0  0  1  0  0  0  0  0  0  0  0  0
   13.7450   -4.3530  -57.2050 C   0  0  0  0  0  0  0  0  0  0  0  0
   13.1590   -5.4890  -56.3490 C   0  0  2  0  0  0  0  0  0  0  0  0
   12.3640   -6.4450  -57.2520 C   0  0  0  0  0  0  0  0  0  0  0  0
   11.2290   -5.6830  -57.9510 C   0  0  2  0  0  0  0  0  0  0  0  0
   11.8230   -4.5520  -58.8030 C   0  0  0  0  0  0  0  0  0  0  0  0
   10.2980   -5.0770  -56.8880 C   0  0  0  0  0  0  0  0  0  0  0  0
   12.2190   -4.8910  -55.2880 C   0  0  0  0  0  0  0  0  0  0  0  0
    9.2240   -2.7860  -51.9830 O   0  0  0  0  0  0  0  0  0  0  0  0
    8.2309   -2.0750  -49.2990 H   0  0  0  0  0  0  0  0  0  0  0  0
    6.6790   -2.7213  -49.9321 H   0  0  0  0  0  0  0  0  0  0  0  0
    8.1488   -3.7540  -49.9321 H   0  0  0  0  0  0  0  0  0  0  0  0
    8.0549   -0.6322  -54.1455 H   0  0  0  0  0  0  0  0  0  0  0  0
    9.2100   -3.9760  -54.9450 H   0  0  0  0  0  0  0  0  0  0  0  0
   10.8595   -2.4425  -57.3576 H   0  0  0  0  0  0  0  0  0  0  0  0
   12.2495   -2.2930  -56.2163 H   0  0  0  0  0  0  0  0  0  0  0  0
   13.0425   -2.7790  -58.5258 H   0  0  0  0  0  0  0  0  0  0  0  0
   14.4214   -4.7789  -57.9606 H   0  0  0  0  0  0  0  0  0  0  0  0
   14.2988   -3.6610  -56.5536 H   0  0  0  0  0  0  0  0  0  0  0  0
   13.9730   -6.0390  -55.8541 H   0  0  0  0  0  0  0  0  0  0  0  0
   13.0360   -6.8738  -58.0100 H   0  0  0  0  0  0  0  0  0  0  0  0
   11.9343   -7.2496  -56.6372 H   0  0  0  0  0  0  0  0  0  0  0  0
   10.6631   -6.3727  -58.5944 H   0  0  0  0  0  0  0  0  0  0  0  0
   12.4947   -4.9809  -59.5612 H   0  0  0  0  0  0  0  0  0  0  0  0
   11.0069   -4.0037  -59.2962 H   0  0  0  0  0  0  0  0  0  0  0  0
    9.4862   -4.5309  -57.3907 H   0  0  0  0  0  0  0  0  0  0  0  0
    9.8918   -5.8935  -56.2729 H   0  0  0  0  0  0  0  0  0  0  0  0
   11.7911   -5.7049  -54.6843 H   0  0  0  0  0  0  0  0  0  0  0  0
   12.7958   -4.2058  -54.6493 H   0  0  0  0  0  0  0  0  0  0  0  0
  1  2  1  0
  2  3  2  0
  3  4  1  0
  4  5  2  0
  5  6  1  0
  6  7  2  0
  6  8  1  0
  9  8  1  1
  9 10  1  0
 10 11  1  0
 11 12  1  0
 12 13  1  0
 13 14  1  0
 14 15  1  0
 15 16  1  0
 15 17  1  0
 13 18  1  0
  5 19  1  0
 19  2  1  0
 17  9  1  0
 18  9  1  0
 16 11  1  0
  1 20  1  0
  1 21  1  0
  1 22  1  0
  4 23  1  0
  8 24  1  0
 10 25  1  0
 10 26  1  0
 11 27  1  6
 12 28  1  0
 12 29  1  0
 13 30  1  1
 14 31  1  0
 14 32  1  0
 15 33  1  6
 16 34  1  0
 16 35  1  0
 17 36  1  0
 17 37  1  0
 18 38  1  0
 18 39  1  0
M  END
>  <meeko>  (75) 
{"is_sidechain": false}

$$$$

     RDKit          3D

 39 42  0  0  0  0  0  0  0  0999 V2000
    2.7210    0.7640  -62.2400 C   0  0  0  0  0  0  0  0  0  0  0  0
    3.9980    1.4940  -62.2040 C   0  0  0  0  0  0  0  0  0  0  0  0
    4.7810    2.1310  -63.1370 C   0  0  0  0  0  0  0  0  0  0  0  0
    5.8980    2.6570  -62.5360 N   0  0  0  0  0  0  0  0  0  0  0  0
    5.7540    2.3210  -61.2610 C   0  0  0  0  0  0  0  0  0  0  0  0
    6.6870    2.6470  -60.1880 C   0  0  0  0  0  0  0  0  0  0  0  0
    6.4620    2.4600  -58.9950 O   0  0  0  0  0  0  0  0  0  0  0  0
    7.8700    3.1970  -60.6560 N   0  0  0  0  0  0  0  0  0  0  0  0
    9.0010    3.6270  -59.8340 C   0  0  2  0  0  0  0  0  0  0  0  0
   10.1220    4.1440  -60.7750 C   0  0  0  0  0  0  0  0  0  0  0  0
   11.3450    4.6140  -59.9710 C   0  0  1  0  0  0  0  0  0  0  0  0
   10.9200    5.7500  -59.0260 C   0  0  0  0  0  0  0  0  0  0  0  0
    9.8290    5.2520  -58.0670 C   0  0  2  0  0  0  0  0  0  0  0  0
   10.3720    4.0690  -57.2470 C   0  0  0  0  0  0  0  0  0  0  0  0
   10.8000    2.9270  -58.1860 C   0  0  2  0  0  0  0  0  0  0  0  0
   11.8860    3.4380  -59.1440 C   0  0  0  0  0  0  0  0  0  0  0  0
    9.5810    2.4580  -59.0010 C   0  0  0  0  0  0  0  0  0  0  0  0
    8.6090    4.7850  -58.8810 C   0  0  0  0  0  0  0  0  0  0  0  0
    4.6140    1.6090  -60.9890 O   0  0  0  0  0  0  0  0  0  0  0  0
    2.3807    0.5695  -61.2122 H   0  0  0  0  0  0  0  0  0  0  0  0
    1.9680    1.3681  -62.7674 H   0  0  0  0  0  0  0  0  0  0  0  0
    2.8595   -0.1914  -62.7674 H   0  0  0  0  0  0  0  0  0  0  0  0
    4.5469    2.2082  -64.2090 H   0  0  0  0  0  0  0  0  0  0  0  0
    7.9270    3.2970  -61.6660 H   0  0  0  0  0  0  0  0  0  0  0  0
   10.4269    3.3316  -61.4511 H   0  0  0  0  0  0  0  0  0  0  0  0
    9.7313    4.9975  -61.3485 H   0  0  0  0  0  0  0  0  0  0  0  0
   12.1269    4.9752  -60.6553 H   0  0  0  0  0  0  0  0  0  0  0  0
   11.7912    6.0857  -58.4444 H   0  0  0  0  0  0  0  0  0  0  0  0
   10.5248    6.5868  -59.6207 H   0  0  0  0  0  0  0  0  0  0  0  0
    9.5337    6.0676  -57.3906 H   0  0  0  0  0  0  0  0  0  0  0  0
   11.2404    4.4017  -56.6594 H   0  0  0  0  0  0  0  0  0  0  0  0
    9.5820    3.7047  -56.5738 H   0  0  0  0  0  0  0  0  0  0  0  0
   11.1951    2.0881  -57.5943 H   0  0  0  0  0  0  0  0  0  0  0  0
   12.7575    3.7723  -58.5619 H   0  0  0  0  0  0  0  0  0  0  0  0
   12.1810    2.6243  -59.8229 H   0  0  0  0  0  0  0  0  0  0  0  0
    9.8891    1.6486  -59.6792 H   0  0  0  0  0  0  0  0  0  0  0  0
    8.8070    2.0984  -58.3070 H   0  0  0  0  0  0  0  0  0  0  0  0
    7.8260    4.4366  -58.1914 H   0  0  0  0  0  0  0  0  0  0  0  0
    8.2386    5.6290  -59.4814 H   0  0  0  0  0  0  0  0  0  0  0  0
  1  2  1  0
  2  3  2  0
  3  4  1  0
  4  5  2  0
  5  6  1  0
  6  7  2  0
  6  8  1  0
  9  8  1  6
  9 10  1  0
 10 11  1  0
 11 12  1  0
 12 13  1  0
 13 14  1  0
 14 15  1  0
 15 16  1  0
 15 17  1  0
 13 18  1  0
  5 19  1  0
 19  2  1  0
 17  9  1  0
 18  9  1  0
 16 11  1  0
  1 20  1  0
  1 21  1  0
  1 22  1  0
  3 23  1  0
  8 24  1  0
 10 25  1  0
 10 26  1  0
 11 27  1  6
 12 28  1  0
 12 29  1  0
 13 30  1  1
 14 31  1  0
 14 32  1  0
 15 33  1  1
 16 34  1  0
 16 35  1  0
 17 36  1  0
 17 37  1  0
 18 38  1  0
 18 39  1  0
M  END
>  <meeko>  (76) 
{"is_sidechain": false}

$$$$

     RDKit          3D

 40 43  0  0  0  0  0  0  0  0999 V2000
    2.7300    0.7710  -62.8220 C   0  0  0  0  0  0  0  0  0  0  0  0
    3.9960    1.4480  -62.4250 C   0  0  0  0  0  0  0  0  0  0  0  0
    4.8890    2.1320  -63.2210 C   0  0  0  0  0  0  0  0  0  0  0  0
    5.9890    2.6440  -62.4770 C   0  0  0  0  0  0  0  0  0  0  0  0
    5.9110    2.3390  -61.1300 C   0  0  0  0  0  0  0  0  0  0  0  0
    6.8720    2.7120  -60.0960 C   0  0  0  0  0  0  0  0  0  0  0  0
    6.6180    2.6100  -58.8990 O   0  0  0  0  0  0  0  0  0  0  0  0
    8.0840    3.1860  -60.5560 N   0  0  0  0  0  0  0  0  0  0  0  0
    9.2050    3.6220  -59.7220 C   0  0  2  0  0  0  0  0  0  0  0  0
   10.3510    4.1010  -60.6560 C   0  0  0  0  0  0  0  0  0  0  0  0
   11.5660    4.5750  -59.8410 C   0  0  1  0  0  0  0  0  0  0  0  0
   11.1400    5.7390  -58.9330 C   0  0  0  0  0  0  0  0  0  0  0  0
   10.0240    5.2800  -57.9820 C   0  0  2  0  0  0  0  0  0  0  0  0
   10.5370    4.1110  -57.1230 C   0  0  0  0  0  0  0  0  0  0  0  0
   10.9650    2.9400  -58.0250 C   0  0  2  0  0  0  0  0  0  0  0  0
   12.0770    3.4130  -58.9760 C   0  0  0  0  0  0  0  0  0  0  0  0
    9.7560    2.4670  -58.8510 C   0  0  0  0  0  0  0  0  0  0  0  0
    8.8130    4.8080  -58.8070 C   0  0  0  0  0  0  0  0  0  0  0  0
    4.4960    1.4320  -60.7890 S   0  0  0  0  0  0  0  0  0  0  0  0
    2.1746    0.4740  -61.9201 H   0  0  0  0  0  0  0  0  0  0  0  0
    2.1167    1.4615  -63.4195 H   0  0  0  0  0  0  0  0  0  0  0  0
    2.9638   -0.1225  -63.4195 H   0  0  0  0  0  0  0  0  0  0  0  0
    4.7659    2.2667  -64.3058 H   0  0  0  0  0  0  0  0  0  0  0  0
    6.8122    3.2200  -62.9247 H   0  0  0  0  0  0  0  0  0  0  0  0
    8.1900    3.2300  -61.5620 H   0  0  0  0  0  0  0  0  0  0  0  0
   10.6569    3.2680  -61.3060 H   0  0  0  0  0  0  0  0  0  0  0  0
    9.9825    4.9448  -61.2578 H   0  0  0  0  0  0  0  0  0  0  0  0
   12.3648    4.9089  -60.5196 H   0  0  0  0  0  0  0  0  0  0  0  0
   12.0051    6.0771  -58.3437 H   0  0  0  0  0  0  0  0  0  0  0  0
   10.7676    6.5659  -59.5555 H   0  0  0  0  0  0  0  0  0  0  0  0
    9.7265    6.1161  -57.3321 H   0  0  0  0  0  0  0  0  0  0  0  0
   11.3998    4.4471  -56.5292 H   0  0  0  0  0  0  0  0  0  0  0  0
    9.7308    3.7745  -56.4545 H   0  0  0  0  0  0  0  0  0  0  0  0
   11.3362    2.1107  -57.4050 H   0  0  0  0  0  0  0  0  0  0  0  0
   12.9422    3.7503  -58.3863 H   0  0  0  0  0  0  0  0  0  0  0  0
   12.3742    2.5790  -59.6288 H   0  0  0  0  0  0  0  0  0  0  0  0
   10.0666    1.6382  -59.5042 H   0  0  0  0  0  0  0  0  0  0  0  0
    8.9652    2.1337  -58.1628 H   0  0  0  0  0  0  0  0  0  0  0  0
    8.0127    4.4880  -58.1235 H   0  0  0  0  0  0  0  0  0  0  0  0
    8.4662    5.6412  -59.4359 H   0  0  0  0  0  0  0  0  0  0  0  0
  1  2  1  0
  2  3  2  0
  3  4  1  0
  4  5  2  0
  5  6  1  0
  6  7  2  0
  6  8  1  0
  9  8  1  6
  9 10  1  0
 10 11  1  0
 11 12  1  0
 12 13  1  0
 13 14  1  0
 14 15  1  0
 15 16  1  0
 15 17  1  0
 13 18  1  0
  5 19  1  0
 19  2  1  0
 17  9  1  0
 18  9  1  0
 16 11  1  0
  1 20  1  0
  1 21  1  0
  1 22  1  0
  3 23  1  0
  4 24  1  0
  8 25  1  0
 10 26  1  0
 10 27  1  0
 11 28  1  6
 12 29  1  0
 12 30  1  0
 13 31  1  1
 14 32  1  0
 14 33  1  0
 15 34  1  1
 16 35  1  0
 16 36  1  0
 17 37  1  0
 17 38  1  0
 18 39  1  0
 18 40  1  0
M  END
>  <meeko>  (77) 
{"is_sidechain": false}

$$$$

     RDKit          3D

 27 29  0  0  0  0  0  0  0  0999 V2000
   10.6480    2.0570  -57.1520 O   0  0  0  0  0  0  0  0  0  0  0  0
   10.2650    3.0100  -58.1330 C   0  0  2  0  0  0  0  0  0  0  0  0
    9.6900    4.2650  -57.4520 C   0  0  0  0  0  0  0  0  0  0  0  0
    9.2620    5.2890  -58.5160 C   0  0  1  0  0  0  0  0  0  0  0  0
   10.4870    5.6740  -59.3660 C   0  0  0  0  0  0  0  0  0  0  0  0
   11.0660    4.4270  -60.0570 C   0  0  2  0  0  0  0  0  0  0  0  0
    9.9870    3.8000  -60.9570 C   0  0  0  0  0  0  0  0  0  0  0  0
    8.7600    3.4040  -60.1160 C   0  0  2  0  0  0  0  0  0  0  0  0
    8.1940    4.6580  -59.4260 C   0  0  0  0  0  0  0  0  0  0  0  0
    9.1920    2.3900  -59.0430 C   0  0  0  0  0  0  0  0  0  0  0  0
   11.4850    3.4060  -58.9860 C   0  0  0  0  0  0  0  0  0  0  0  0
   10.4970    1.1700  -57.5210 H   0  0  0  0  0  0  0  0  0  0  0  0
    8.8168    3.9829  -56.8454 H   0  0  0  0  0  0  0  0  0  0  0  0
   10.4614    4.7129  -56.8083 H   0  0  0  0  0  0  0  0  0  0  0  0
    8.8506    6.1842  -58.0268 H   0  0  0  0  0  0  0  0  0  0  0  0
   10.1842    6.4053  -60.1299 H   0  0  0  0  0  0  0  0  0  0  0  0
   11.2553    6.1116  -58.7116 H   0  0  0  0  0  0  0  0  0  0  0  0
   11.9384    4.7098  -60.6644 H   0  0  0  0  0  0  0  0  0  0  0  0
    9.6832    4.5292  -61.7225 H   0  0  0  0  0  0  0  0  0  0  0  0
   10.3984    2.9006  -61.4385 H   0  0  0  0  0  0  0  0  0  0  0  0
    7.9918    2.9575  -60.7645 H   0  0  0  0  0  0  0  0  0  0  0  0
    7.8903    5.3881  -60.1907 H   0  0  0  0  0  0  0  0  0  0  0  0
    7.3249    4.3714  -58.8156 H   0  0  0  0  0  0  0  0  0  0  0  0
    8.3189    2.1079  -58.4363 H   0  0  0  0  0  0  0  0  0  0  0  0
    9.6084    1.4991  -59.5359 H   0  0  0  0  0  0  0  0  0  0  0  0
   11.8935    2.5100  -59.4763 H   0  0  0  0  0  0  0  0  0  0  0  0
   12.2502    3.8561  -58.3364 H   0  0  0  0  0  0  0  0  0  0  0  0
  2  1  1  1
  2  3  1  0
  3  4  1  0
  4  5  1  0
  5  6  1  0
  6  7  1  0
  7  8  1  0
  8  9  1  0
  8 10  1  0
  6 11  1  0
 10  2  1  0
 11  2  1  0
  9  4  1  0
  1 12  1  0
  3 13  1  0
  3 14  1  0
  4 15  1  1
  5 16  1  0
  5 17  1  0
  6 18  1  6
  7 19  1  0
  7 20  1  0
  8 21  1  6
  9 22  1  0
  9 23  1  0
 10 24  1  0
 10 25  1  0
 11 26  1  0
 11 27  1  0
M  END
>  <meeko>  (78) 
{"is_sidechain": false}

$$$$

     RDKit          3D

 36 39  0  0  0  0  0  0  0  0999 V2000
    5.8650    2.5350  -59.0680 O   0  0  0  0  0  0  0  0  0  0  0  0
    6.1240    2.4680  -60.2650 C   0  0  0  0  0  0  0  0  0  0  0  0
    7.3330    2.9060  -60.7940 N   0  0  0  0  0  0  0  0  0  0  0  0
    8.4420    3.4300  -59.9810 C   0  0  2  0  0  0  0  0  0  0  0  0
    8.0690    4.7530  -59.2660 C   0  0  0  0  0  0  0  0  0  0  0  0
    9.2710    5.2990  -58.4740 C   0  0  1  0  0  0  0  0  0  0  0  0
    9.7110    4.2520  -57.4360 C   0  0  0  0  0  0  0  0  0  0  0  0
   10.1210    2.9480  -58.1410 C   0  0  2  0  0  0  0  0  0  0  0  0
   11.2780    3.2380  -59.1100 C   0  0  0  0  0  0  0  0  0  0  0  0
   10.8400    4.2770  -60.1530 C   0  0  2  0  0  0  0  0  0  0  0  0
   10.4330    5.5760  -59.4400 C   0  0  0  0  0  0  0  0  0  0  0  0
    9.6330    3.7320  -60.9330 C   0  0  0  0  0  0  0  0  0  0  0  0
    8.9200    2.3980  -58.9310 C   0  0  0  0  0  0  0  0  0  0  0  0
    5.2150    1.9200  -61.2510 C   0  0  0  0  0  0  0  0  0  0  0  0
    4.2970    0.9960  -61.0260 N   0  0  0  0  0  0  0  0  0  0  0  0
    3.7080    0.8290  -62.2460 C   0  0  0  0  0  0  0  0  0  0  0  0
    4.1980    1.5970  -63.2230 N   0  0  0  0  0  0  0  0  0  0  0  0
    5.1290    2.3000  -62.5590 N   0  0  0  0  0  0  0  0  0  0  0  0
    7.6070    2.4780  -61.6690 H   0  0  0  0  0  0  0  0  0  0  0  0
    7.7635    5.4962  -60.0173 H   0  0  0  0  0  0  0  0  0  0  0  0
    7.2430    4.5571  -58.5664 H   0  0  0  0  0  0  0  0  0  0  0  0
    8.9859    6.2306  -57.9633 H   0  0  0  0  0  0  0  0  0  0  0  0
   10.5672    4.6422  -56.8662 H   0  0  0  0  0  0  0  0  0  0  0  0
    8.8717    4.0448  -56.7559 H   0  0  0  0  0  0  0  0  0  0  0  0
   10.4416    2.2074  -57.3936 H   0  0  0  0  0  0  0  0  0  0  0  0
   12.1374    3.6284  -58.5452 H   0  0  0  0  0  0  0  0  0  0  0  0
   11.5616    2.3074  -59.6235 H   0  0  0  0  0  0  0  0  0  0  0  0
   11.6717    4.4789  -60.8440 H   0  0  0  0  0  0  0  0  0  0  0  0
   11.2921    5.9667  -58.8749 H   0  0  0  0  0  0  0  0  0  0  0  0
   10.1136    6.3158  -60.1887 H   0  0  0  0  0  0  0  0  0  0  0  0
    9.3183    4.4794  -61.6763 H   0  0  0  0  0  0  0  0  0  0  0  0
    9.9306    2.7960  -61.4282 H   0  0  0  0  0  0  0  0  0  0  0  0
    9.2179    1.4716  -59.4438 H   0  0  0  0  0  0  0  0  0  0  0  0
    8.0962    2.1962  -58.2305 H   0  0  0  0  0  0  0  0  0  0  0  0
    2.8891    0.1137  -62.4126 H   0  0  0  0  0  0  0  0  0  0  0  0
    5.6490    3.0240  -63.0430 H   0  0  0  0  0  0  0  0  0  0  0  0
  1  2  2  0
  2  3  1  0
  4  3  1  6
  4  5  1  0
  5  6  1  0
  6  7  1  0
  7  8  1  0
  8  9  1  0
  9 10  1  0
 10 11  1  0
 10 12  1  0
  8 13  1  0
  2 14  1  0
 14 15  2  0
 15 16  1  0
 16 17  2  0
 17 18  1  0
 12  4  1  0
 18 14  1  0
 13  4  1  0
 11  6  1  0
  3 19  1  0
  5 20  1  0
  5 21  1  0
  6 22  1  1
  7 23  1  0
  7 24  1  0
  8 25  1  1
  9 26  1  0
  9 27  1  0
 10 28  1  6
 11 29  1  0
 11 30  1  0
 12 31  1  0
 12 32  1  0
 13 33  1  0
 13 34  1  0
 16 35  1  0
 18 36  1  0
M  END
>  <meeko>  (79) 
{"is_sidechain": false}

$$$$

     RDKit          3D

 36 39  0  0  0  0  0  0  0  0999 V2000
    5.9490    2.3660  -59.1040 O   0  0  0  0  0  0  0  0  0  0  0  0
    6.1920    2.3510  -60.3050 C   0  0  0  0  0  0  0  0  0  0  0  0
    7.4120    2.7720  -60.8270 N   0  0  0  0  0  0  0  0  0  0  0  0
    8.4980    3.3390  -60.0140 C   0  0  2  0  0  0  0  0  0  0  0  0
    9.6760    3.6890  -60.9650 C   0  0  0  0  0  0  0  0  0  0  0  0
   10.8540    4.2980  -60.1890 C   0  0  1  0  0  0  0  0  0  0  0  0
   10.3810    5.5760  -59.4770 C   0  0  0  0  0  0  0  0  0  0  0  0
    9.2350    5.2440  -58.5080 C   0  0  2  0  0  0  0  0  0  0  0  0
    9.7290    4.2220  -57.4700 C   0  0  0  0  0  0  0  0  0  0  0  0
   10.2040    2.9390  -58.1740 C   0  0  2  0  0  0  0  0  0  0  0  0
   11.3440    3.2850  -59.1430 C   0  0  0  0  0  0  0  0  0  0  0  0
    9.0310    2.3300  -58.9630 C   0  0  0  0  0  0  0  0  0  0  0  0
    8.0600    4.6400  -59.2980 C   0  0  0  0  0  0  0  0  0  0  0  0
    5.2490    1.9050  -61.3110 C   0  0  0  0  0  0  0  0  0  0  0  0
    4.3240    0.9840  -61.1240 N   0  0  0  0  0  0  0  0  0  0  0  0
    3.6250    0.8270  -62.3000 N   0  0  0  0  0  0  0  0  0  0  0  0
    4.1570    1.6310  -63.1880 C   0  0  0  0  0  0  0  0  0  0  0  0
    5.1750    2.3270  -62.6140 N   0  0  0  0  0  0  0  0  0  0  0  0
    7.3870    3.0790  -61.7890 H   0  0  0  0  0  0  0  0  0  0  0  0
   10.0144    2.7720  -61.4697 H   0  0  0  0  0  0  0  0  0  0  0  0
    9.3232    4.4281  -61.6994 H   0  0  0  0  0  0  0  0  0  0  0  0
   11.6731    4.5414  -60.8817 H   0  0  0  0  0  0  0  0  0  0  0  0
   11.2198    6.0110  -58.9138 H   0  0  0  0  0  0  0  0  0  0  0  0
   10.0224    6.2959  -60.2274 H   0  0  0  0  0  0  0  0  0  0  0  0
    8.9043    6.1603  -57.9971 H   0  0  0  0  0  0  0  0  0  0  0  0
   10.5651    4.6559  -56.9019 H   0  0  0  0  0  0  0  0  0  0  0  0
    8.9020    3.9731  -56.7887 H   0  0  0  0  0  0  0  0  0  0  0  0
   10.5619    2.2159  -57.4264 H   0  0  0  0  0  0  0  0  0  0  0  0
   12.1823    3.7201  -58.5790 H   0  0  0  0  0  0  0  0  0  0  0  0
   11.6745    2.3688  -59.6542 H   0  0  0  0  0  0  0  0  0  0  0  0
    9.3746    1.4202  -59.4770 H   0  0  0  0  0  0  0  0  0  0  0  0
    8.2196    2.0869  -58.2612 H   0  0  0  0  0  0  0  0  0  0  0  0
    7.2371    4.4118  -58.6046 H   0  0  0  0  0  0  0  0  0  0  0  0
    7.7291    5.3673  -60.0540 H   0  0  0  0  0  0  0  0  0  0  0  0
    3.8311    1.7278  -64.2341 H   0  0  0  0  0  0  0  0  0  0  0  0
    5.7940    2.9840  -63.0650 H   0  0  0  0  0  0  0  0  0  0  0  0
  1  2  2  0
  2  3  1  0
  4  3  1  6
  4  5  1  0
  5  6  1  0
  6  7  1  0
  7  8  1  0
  8  9  1  0
  9 10  1  0
 10 11  1  0
 10 12  1  0
  8 13  1  0
  2 14  1  0
 14 15  2  0
 15 16  1  0
 16 17  2  0
 17 18  1  0
 12  4  1  0
 18 14  1  0
 13  4  1  0
 11  6  1  0
  3 19  1  0
  5 20  1  0
  5 21  1  0
  6 22  1  6
  7 23  1  0
  7 24  1  0
  8 25  1  1
  9 26  1  0
  9 27  1  0
 10 28  1  1
 11 29  1  0
 11 30  1  0
 12 31  1  0
 12 32  1  0
 13 33  1  0
 13 34  1  0
 17 35  1  0
 18 36  1  0
M  END
>  <meeko>  (80) 
{"is_sidechain": false}

$$$$

     RDKit          3D

 36 39  0  0  0  0  0  0  0  0999 V2000
    5.8560    2.3580  -59.0860 O   0  0  0  0  0  0  0  0  0  0  0  0
    6.1280    2.3800  -60.2830 C   0  0  0  0  0  0  0  0  0  0  0  0
    7.3250    2.8520  -60.7940 N   0  0  0  0  0  0  0  0  0  0  0  0
    8.4350    3.3910  -60.0140 C   0  0  2  0  0  0  0  0  0  0  0  0
    8.9760    2.3560  -58.9980 C   0  0  0  0  0  0  0  0  0  0  0  0
   10.1760    2.9320  -58.2250 C   0  0  1  0  0  0  0  0  0  0  0  0
   11.2960    3.2840  -59.2160 C   0  0  0  0  0  0  0  0  0  0  0  0
   10.7950    4.3270  -60.2270 C   0  0  2  0  0  0  0  0  0  0  0  0
   10.3580    5.5940  -59.4770 C   0  0  0  0  0  0  0  0  0  0  0  0
    9.2310    5.2560  -58.4870 C   0  0  2  0  0  0  0  0  0  0  0  0
    9.7370    4.2060  -57.4830 C   0  0  0  0  0  0  0  0  0  0  0  0
    8.0310    4.6820  -59.2590 C   0  0  0  0  0  0  0  0  0  0  0  0
    9.5900    3.7510  -60.9880 C   0  0  0  0  0  0  0  0  0  0  0  0
    5.2150    1.9030  -61.3470 C   0  0  0  0  0  0  0  0  0  0  0  0
    4.1970    0.9890  -61.0910 N   0  0  0  0  0  0  0  0  0  0  0  0
    3.6310    0.8290  -62.2630 C   0  0  0  0  0  0  0  0  0  0  0  0
    4.2650    1.6000  -63.1840 N   0  0  0  0  0  0  0  0  0  0  0  0
    5.2720    2.2910  -62.6350 N   0  0  0  0  0  0  0  0  0  0  0  0
    7.4000    2.8050  -61.8080 H   0  0  0  0  0  0  0  0  0  0  0  0
    8.1782    2.0969  -58.2864 H   0  0  0  0  0  0  0  0  0  0  0  0
    9.3037    1.4597  -59.5451 H   0  0  0  0  0  0  0  0  0  0  0  0
   10.5417    2.1886  -57.5014 H   0  0  0  0  0  0  0  0  0  0  0  0
   12.1546    3.6945  -58.6644 H   0  0  0  0  0  0  0  0  0  0  0  0
   11.5993    2.3748  -59.7557 H   0  0  0  0  0  0  0  0  0  0  0  0
   11.6006    4.5750  -60.9337 H   0  0  0  0  0  0  0  0  0  0  0  0
   11.2163    6.0053  -58.9255 H   0  0  0  0  0  0  0  0  0  0  0  0
    9.9914    6.3351  -60.2026 H   0  0  0  0  0  0  0  0  0  0  0  0
    8.9245    6.1659  -57.9502 H   0  0  0  0  0  0  0  0  0  0  0  0
   10.5932    4.6167  -56.9278 H   0  0  0  0  0  0  0  0  0  0  0  0
    8.9242    3.9541  -56.7859 H   0  0  0  0  0  0  0  0  0  0  0  0
    7.2233    4.4482  -58.5498 H   0  0  0  0  0  0  0  0  0  0  0  0
    7.6904    5.4290  -59.9911 H   0  0  0  0  0  0  0  0  0  0  0  0
    9.2308    4.4983  -61.7109 H   0  0  0  0  0  0  0  0  0  0  0  0
    9.9090    2.8347  -61.5062 H   0  0  0  0  0  0  0  0  0  0  0  0
    2.7738    0.1710  -62.4687 H   0  0  0  0  0  0  0  0  0  0  0  0
    4.0750    1.7020  -64.1740 H   0  0  0  0  0  0  0  0  0  0  0  0
  1  2  2  0
  2  3  1  0
  4  3  1  6
  4  5  1  0
  5  6  1  0
  6  7  1  0
  7  8  1  0
  8  9  1  0
  9 10  1  0
 10 11  1  0
 10 12  1  0
  8 13  1  0
  2 14  1  0
 14 15  1  0
 15 16  2  0
 16 17  1  0
 17 18  1  0
 12  4  1  0
 18 14  2  0
 13  4  1  0
 11  6  1  0
  3 19  1  0
  5 20  1  0
  5 21  1  0
  6 22  1  1
  7 23  1  0
  7 24  1  0
  8 25  1  6
  9 26  1  0
  9 27  1  0
 10 28  1  1
 11 29  1  0
 11 30  1  0
 12 31  1  0
 12 32  1  0
 13 33  1  0
 13 34  1  0
 16 35  1  0
 17 36  1  0
M  END
>  <meeko>  (81) 
{"is_sidechain": false}

$$$$

     RDKit          3D

 34 37  0  0  0  0  0  0  0  0999 V2000
    5.6840    2.4830  -58.9850 O   0  0  0  0  0  0  0  0  0  0  0  0
    5.9130    2.3960  -60.1960 C   0  0  0  0  0  0  0  0  0  0  0  0
    7.1440    2.8100  -60.7170 N   0  0  0  0  0  0  0  0  0  0  0  0
    8.2640    3.3700  -59.9720 C   0  0  2  0  0  0  0  0  0  0  0  0
    7.9250    4.7630  -59.3880 C   0  0  0  0  0  0  0  0  0  0  0  0
    9.1420    5.3520  -58.6520 C   0  0  1  0  0  0  0  0  0  0  0  0
    9.5540    4.4020  -57.5150 C   0  0  0  0  0  0  0  0  0  0  0  0
    9.9300    3.0240  -58.0870 C   0  0  2  0  0  0  0  0  0  0  0  0
   11.0930    3.1850  -59.0760 C   0  0  0  0  0  0  0  0  0  0  0  0
   10.6820    4.1270  -60.2190 C   0  0  2  0  0  0  0  0  0  0  0  0
   10.3100    5.5000  -59.6390 C   0  0  0  0  0  0  0  0  0  0  0  0
    9.4620    3.5380  -60.9440 C   0  0  0  0  0  0  0  0  0  0  0  0
    8.7130    2.4330  -58.8220 C   0  0  0  0  0  0  0  0  0  0  0  0
    5.0660    1.8910  -61.2950 C   0  0  0  0  0  0  0  0  0  0  0  0
    5.1010    2.3310  -62.5800 N   0  0  0  0  0  0  0  0  0  0  0  0
    4.1650    1.5920  -63.2220 N   0  0  0  0  0  0  0  0  0  0  0  0
    3.5870    0.7370  -62.3530 N   0  0  0  0  0  0  0  0  0  0  0  0
    4.1350    0.9020  -61.1290 N   0  0  0  0  0  0  0  0  0  0  0  0
    7.2110    2.6860  -61.7290 H   0  0  0  0  0  0  0  0  0  0  0  0
    7.6363    5.4380  -60.2071 H   0  0  0  0  0  0  0  0  0  0  0  0
    7.0957    4.6560  -58.6733 H   0  0  0  0  0  0  0  0  0  0  0  0
    8.8831    6.3371  -58.2366 H   0  0  0  0  0  0  0  0  0  0  0  0
   10.4200    4.8241  -56.9841 H   0  0  0  0  0  0  0  0  0  0  0  0
    8.7094    4.2849  -56.8200 H   0  0  0  0  0  0  0  0  0  0  0  0
   10.2320    2.3522  -57.2700 H   0  0  0  0  0  0  0  0  0  0  0  0
   11.9626    3.6068  -58.5507 H   0  0  0  0  0  0  0  0  0  0  0  0
   11.3519    2.2008  -59.4935 H   0  0  0  0  0  0  0  0  0  0  0  0
   11.5180    4.2384  -60.9251 H   0  0  0  0  0  0  0  0  0  0  0  0
   11.1797    5.9219  -59.1141 H   0  0  0  0  0  0  0  0  0  0  0  0
   10.0091    6.1696  -60.4582 H   0  0  0  0  0  0  0  0  0  0  0  0
    9.1695    4.2128  -61.7620 H   0  0  0  0  0  0  0  0  0  0  0  0
    9.7338    2.5480  -61.3391 H   0  0  0  0  0  0  0  0  0  0  0  0
    8.9839    1.4520  -59.2395 H   0  0  0  0  0  0  0  0  0  0  0  0
    7.8840    2.3258  -58.1070 H   0  0  0  0  0  0  0  0  0  0  0  0
  1  2  2  0
  2  3  1  0
  4  3  1  6
  4  5  1  0
  5  6  1  0
  6  7  1  0
  7  8  1  0
  8  9  1  0
  9 10  1  0
 10 11  1  0
 10 12  1  0
  8 13  1  0
  2 14  1  0
 14 15  1  0
 15 16  2  0
 16 17  1  0
 17 18  1  0
 12  4  1  0
 18 14  2  0
 13  4  1  0
 11  6  1  0
  3 19  1  0
  5 20  1  0
  5 21  1  0
  6 22  1  1
  7 23  1  0
  7 24  1  0
  8 25  1  1
  9 26  1  0
  9 27  1  0
 10 28  1  6
 11 29  1  0
 11 30  1  0
 12 31  1  0
 12 32  1  0
 13 33  1  0
 13 34  1  0
M  CHG  1  17  -1
M  END
>  <meeko>  (82) 
{"is_sidechain": false}

$$$$

     RDKit          3D

 35 38  0  0  0  0  0  0  0  0999 V2000
    5.8830    2.4660  -59.0870 O   0  0  0  0  0  0  0  0  0  0  0  0
    6.1670    2.4520  -60.2820 C   0  0  0  0  0  0  0  0  0  0  0  0
    7.3810    2.8930  -60.7830 N   0  0  0  0  0  0  0  0  0  0  0  0
    8.4870    3.4310  -59.9910 C   0  0  2  0  0  0  0  0  0  0  0  0
    8.0790    4.7260  -59.2450 C   0  0  0  0  0  0  0  0  0  0  0  0
    9.2740    5.2970  -58.4600 C   0  0  1  0  0  0  0  0  0  0  0  0
    9.7640    4.2490  -57.4480 C   0  0  0  0  0  0  0  0  0  0  0  0
   10.2070    2.9720  -58.1820 C   0  0  2  0  0  0  0  0  0  0  0  0
   11.3390    3.3150  -59.1610 C   0  0  0  0  0  0  0  0  0  0  0  0
   10.8520    4.3570  -60.1810 C   0  0  2  0  0  0  0  0  0  0  0  0
   10.4120    5.6290  -59.4390 C   0  0  0  0  0  0  0  0  0  0  0  0
    9.6530    3.7840  -60.9530 C   0  0  0  0  0  0  0  0  0  0  0  0
    9.0120    2.3980  -58.9660 C   0  0  0  0  0  0  0  0  0  0  0  0
    5.2390    1.9600  -61.3170 C   0  0  0  0  0  0  0  0  0  0  0  0
    4.2350    1.0370  -61.0850 N   0  0  0  0  0  0  0  0  0  0  0  0
    3.6910    0.9140  -62.2660 C   0  0  0  0  0  0  0  0  0  0  0  0
    4.2680    1.6810  -63.2230 O   0  0  0  0  0  0  0  0  0  0  0  0
    5.3020    2.3820  -62.5980 N   0  0  0  0  0  0  0  0  0  0  0  0
    7.4890    2.8270  -61.7910 H   0  0  0  0  0  0  0  0  0  0  0  0
    7.7370    5.4726  -59.9769 H   0  0  0  0  0  0  0  0  0  0  0  0
    7.2703    4.4888  -58.5380 H   0  0  0  0  0  0  0  0  0  0  0  0
    8.9658    6.2090  -57.9278 H   0  0  0  0  0  0  0  0  0  0  0  0
   10.6151    4.6581  -56.8838 H   0  0  0  0  0  0  0  0  0  0  0  0
    8.9425    4.0018  -56.7594 H   0  0  0  0  0  0  0  0  0  0  0  0
   10.5630    2.2298  -57.4524 H   0  0  0  0  0  0  0  0  0  0  0  0
   12.1933    3.7240  -58.6017 H   0  0  0  0  0  0  0  0  0  0  0  0
   11.6453    2.4027  -59.6939 H   0  0  0  0  0  0  0  0  0  0  0  0
   11.6660    4.5991  -60.8802 H   0  0  0  0  0  0  0  0  0  0  0  0
   11.2660    6.0389  -58.8799 H   0  0  0  0  0  0  0  0  0  0  0  0
   10.0560    6.3697  -60.1701 H   0  0  0  0  0  0  0  0  0  0  0  0
    9.3044    4.5309  -61.6814 H   0  0  0  0  0  0  0  0  0  0  0  0
    9.9739    2.8651  -61.4655 H   0  0  0  0  0  0  0  0  0  0  0  0
    9.3315    1.4902  -59.4988 H   0  0  0  0  0  0  0  0  0  0  0  0
    8.2049    2.1591  -58.2578 H   0  0  0  0  0  0  0  0  0  0  0  0
    2.8397    0.2468  -62.4663 H   0  0  0  0  0  0  0  0  0  0  0  0
  1  2  2  0
  2  3  1  0
  4  3  1  6
  4  5  1  0
  5  6  1  0
  6  7  1  0
  7  8  1  0
  8  9  1  0
  9 10  1  0
 10 11  1  0
 10 12  1  0
  8 13  1  0
  2 14  1  0
 14 15  1  0
 15 16  2  0
 16 17  1  0
 17 18  1  0
 12  4  1  0
 18 14  2  0
 13  4  1  0
 11  6  1  0
  3 19  1  0
  5 20  1  0
  5 21  1  0
  6 22  1  1
  7 23  1  0
  7 24  1  0
  8 25  1  1
  9 26  1  0
  9 27  1  0
 10 28  1  6
 11 29  1  0
 11 30  1  0
 12 31  1  0
 12 32  1  0
 13 33  1  0
 13 34  1  0
 16 35  1  0
M  END
>  <meeko>  (83) 
{"is_sidechain": false}

$$$$

     RDKit          3D

 37 40  0  0  0  0  0  0  0  0999 V2000
    5.8950    2.4680  -59.1420 O   0  0  0  0  0  0  0  0  0  0  0  0
    6.1910    2.4190  -60.3320 C   0  0  0  0  0  0  0  0  0  0  0  0
    7.4280    2.8110  -60.8160 N   0  0  0  0  0  0  0  0  0  0  0  0
    8.5030    3.3830  -59.9980 C   0  0  2  0  0  0  0  0  0  0  0  0
    8.0820    4.7290  -59.3600 C   0  0  0  0  0  0  0  0  0  0  0  0
    9.2460    5.3350  -58.5560 C   0  0  1  0  0  0  0  0  0  0  0  0
    9.6680    4.3480  -57.4540 C   0  0  0  0  0  0  0  0  0  0  0  0
   10.1260    3.0190  -58.0790 C   0  0  2  0  0  0  0  0  0  0  0  0
   11.3120    3.2830  -59.0210 C   0  0  0  0  0  0  0  0  0  0  0  0
   10.8920    4.2600  -60.1300 C   0  0  2  0  0  0  0  0  0  0  0  0
   10.4370    5.5840  -59.4950 C   0  0  0  0  0  0  0  0  0  0  0  0
    9.7230    3.6520  -60.9210 C   0  0  0  0  0  0  0  0  0  0  0  0
    8.9630    2.4100  -58.8830 C   0  0  0  0  0  0  0  0  0  0  0  0
    5.2460    1.9490  -61.3610 C   0  0  0  0  0  0  0  0  0  0  0  0
    5.1670    2.3200  -62.6950 C   0  0  0  0  0  0  0  0  0  0  0  0
    4.1340    1.5910  -63.2230 N   0  0  0  0  0  0  0  0  0  0  0  0
    3.6220    0.8150  -62.2260 C   0  0  0  0  0  0  0  0  0  0  0  0
    4.2650    1.0030  -61.1000 N   0  0  0  0  0  0  0  0  0  0  0  0
    7.5180    2.8920  -61.8170 H   0  0  0  0  0  0  0  0  0  0  0  0
    7.7885    5.4299  -60.1554 H   0  0  0  0  0  0  0  0  0  0  0  0
    7.2365    4.5498  -58.6796 H   0  0  0  0  0  0  0  0  0  0  0  0
    8.9274    6.2851  -58.1023 H   0  0  0  0  0  0  0  0  0  0  0  0
   10.4966    4.7820  -56.8751 H   0  0  0  0  0  0  0  0  0  0  0  0
    8.8087    4.1574  -56.7942 H   0  0  0  0  0  0  0  0  0  0  0  0
   10.4329    2.3219  -57.2853 H   0  0  0  0  0  0  0  0  0  0  0  0
   12.1435    3.7182  -58.4473 H   0  0  0  0  0  0  0  0  0  0  0  0
   11.6309    2.3338  -59.4764 H   0  0  0  0  0  0  0  0  0  0  0  0
   11.7422    4.4448  -60.8031 H   0  0  0  0  0  0  0  0  0  0  0  0
   11.2691    6.0175  -58.9208 H   0  0  0  0  0  0  0  0  0  0  0  0
   10.1304    6.2792  -60.2904 H   0  0  0  0  0  0  0  0  0  0  0  0
    9.4248    4.3515  -61.7159 H   0  0  0  0  0  0  0  0  0  0  0  0
   10.0529    2.6951  -61.3517 H   0  0  0  0  0  0  0  0  0  0  0  0
    9.2949    1.4664  -59.3407 H   0  0  0  0  0  0  0  0  0  0  0  0
    8.1189    2.2261  -58.2021 H   0  0  0  0  0  0  0  0  0  0  0  0
    5.8021    3.0485  -63.2203 H   0  0  0  0  0  0  0  0  0  0  0  0
    3.8080    1.6120  -64.1800 H   0  0  0  0  0  0  0  0  0  0  0  0
    2.7780    0.1207  -62.3507 H   0  0  0  0  0  0  0  0  0  0  0  0
  1  2  2  0
  2  3  1  0
  4  3  1  6
  4  5  1  0
  5  6  1  0
  6  7  1  0
  7  8  1  0
  8  9  1  0
  9 10  1  0
 10 11  1  0
 10 12  1  0
  8 13  1  0
  2 14  1  0
 14 15  2  0
 15 16  1  0
 16 17  1  0
 17 18  2  0
 12  4  1  0
 18 14  1  0
 13  4  1  0
 11  6  1  0
  3 19  1  0
  5 20  1  0
  5 21  1  0
  6 22  1  1
  7 23  1  0
  7 24  1  0
  8 25  1  1
  9 26  1  0
  9 27  1  0
 10 28  1  6
 11 29  1  0
 11 30  1  0
 12 31  1  0
 12 32  1  0
 13 33  1  0
 13 34  1  0
 15 35  1  0
 16 36  1  0
 17 37  1  0
M  END
>  <meeko>  (84) 
{"is_sidechain": false}

$$$$

     RDKit          3D

 37 40  0  0  0  0  0  0  0  0999 V2000
    5.9300    2.4000  -59.0910 O   0  0  0  0  0  0  0  0  0  0  0  0
    6.1800    2.3690  -60.2890 C   0  0  0  0  0  0  0  0  0  0  0  0
    7.3870    2.7770  -60.8250 N   0  0  0  0  0  0  0  0  0  0  0  0
    8.4900    3.3400  -60.0350 C   0  0  2  0  0  0  0  0  0  0  0  0
    9.0330    2.3350  -58.9870 C   0  0  0  0  0  0  0  0  0  0  0  0
   10.2210    2.9400  -58.2180 C   0  0  1  0  0  0  0  0  0  0  0  0
   11.3480    3.2740  -59.2060 C   0  0  0  0  0  0  0  0  0  0  0  0
   10.8480    4.2850  -60.2490 C   0  0  2  0  0  0  0  0  0  0  0  0
   10.3940    5.5700  -59.5370 C   0  0  0  0  0  0  0  0  0  0  0  0
    9.2610    5.2500  -58.5490 C   0  0  2  0  0  0  0  0  0  0  0  0
    9.7630    4.2280  -57.5140 C   0  0  0  0  0  0  0  0  0  0  0  0
    8.0700    4.6480  -59.3170 C   0  0  0  0  0  0  0  0  0  0  0  0
    9.6540    3.6800  -61.0060 C   0  0  0  0  0  0  0  0  0  0  0  0
    5.2210    1.9270  -61.2700 C   0  0  0  0  0  0  0  0  0  0  0  0
    4.2180    0.9860  -61.1310 C   0  0  0  0  0  0  0  0  0  0  0  0
    3.5140    0.8280  -62.2980 N   0  0  0  0  0  0  0  0  0  0  0  0
    4.0930    1.6310  -63.1590 C   0  0  0  0  0  0  0  0  0  0  0  0
    5.1320    2.3090  -62.5890 N   0  0  0  0  0  0  0  0  0  0  0  0
    7.3670    3.0460  -61.7970 H   0  0  0  0  0  0  0  0  0  0  0  0
    8.2314    2.0864  -58.2759 H   0  0  0  0  0  0  0  0  0  0  0  0
    9.3742    1.4290  -59.5093 H   0  0  0  0  0  0  0  0  0  0  0  0
   10.5866    2.2191  -57.4719 H   0  0  0  0  0  0  0  0  0  0  0  0
   12.1976    3.7064  -58.6572 H   0  0  0  0  0  0  0  0  0  0  0  0
   11.6650    2.3533  -59.7177 H   0  0  0  0  0  0  0  0  0  0  0  0
   11.6586    4.5194  -60.9547 H   0  0  0  0  0  0  0  0  0  0  0  0
   11.2440    6.0028  -58.9891 H   0  0  0  0  0  0  0  0  0  0  0  0
   10.0287    6.2884  -60.2857 H   0  0  0  0  0  0  0  0  0  0  0  0
    8.9455    6.1719  -58.0385 H   0  0  0  0  0  0  0  0  0  0  0  0
   10.6091    4.6590  -56.9587 H   0  0  0  0  0  0  0  0  0  0  0  0
    8.9431    3.9863  -56.8216 H   0  0  0  0  0  0  0  0  0  0  0  0
    7.2576    4.4271  -58.6091 H   0  0  0  0  0  0  0  0  0  0  0  0
    7.7305    5.3735  -60.0709 H   0  0  0  0  0  0  0  0  0  0  0  0
    9.2983    4.4044  -61.7535 H   0  0  0  0  0  0  0  0  0  0  0  0
    9.9843    2.7512  -61.4941 H   0  0  0  0  0  0  0  0  0  0  0  0
    4.0106    0.4339  -60.2025 H   0  0  0  0  0  0  0  0  0  0  0  0
    3.7808    1.7438  -64.2077 H   0  0  0  0  0  0  0  0  0  0  0  0
    5.7560    2.9410  -63.0690 H   0  0  0  0  0  0  0  0  0  0  0  0
  1  2  2  0
  2  3  1  0
  4  3  1  6
  4  5  1  0
  5  6  1  0
  6  7  1  0
  7  8  1  0
  8  9  1  0
  9 10  1  0
 10 11  1  0
 10 12  1  0
  8 13  1  0
  2 14  1  0
 14 15  2  0
 15 16  1  0
 16 17  2  0
 17 18  1  0
 12  4  1  0
 18 14  1  0
 13  4  1  0
 11  6  1  0
  3 19  1  0
  5 20  1  0
  5 21  1  0
  6 22  1  1
  7 23  1  0
  7 24  1  0
  8 25  1  6
  9 26  1  0
  9 27  1  0
 10 28  1  1
 11 29  1  0
 11 30  1  0
 12 31  1  0
 12 32  1  0
 13 33  1  0
 13 34  1  0
 15 35  1  0
 17 36  1  0
 18 37  1  0
M  END
>  <meeko>  (85) 
{"is_sidechain": false}

$$$$

     RDKit          3D

 38 41  0  0  0  0  0  0  0  0999 V2000
    5.9170    2.4410  -59.0190 O   0  0  0  0  0  0  0  0  0  0  0  0
    6.1500    2.4040  -60.2220 C   0  0  0  0  0  0  0  0  0  0  0  0
    7.3490    2.8240  -60.7780 N   0  0  0  0  0  0  0  0  0  0  0  0
    8.4680    3.3790  -59.9940 C   0  0  2  0  0  0  0  0  0  0  0  0
    8.9800    2.3810  -58.9240 C   0  0  0  0  0  0  0  0  0  0  0  0
   10.1810    2.9720  -58.1630 C   0  0  1  0  0  0  0  0  0  0  0  0
   11.3210    3.2560  -59.1530 C   0  0  0  0  0  0  0  0  0  0  0  0
   10.8500    4.2570  -60.2190 C   0  0  2  0  0  0  0  0  0  0  0  0
   10.4270    5.5670  -59.5350 C   0  0  0  0  0  0  0  0  0  0  0  0
    9.2830    5.2970  -58.5460 C   0  0  2  0  0  0  0  0  0  0  0  0
    9.7550    4.2860  -57.4870 C   0  0  0  0  0  0  0  0  0  0  0  0
    8.0800    4.7120  -59.3070 C   0  0  0  0  0  0  0  0  0  0  0  0
    9.6450    3.6670  -60.9670 C   0  0  0  0  0  0  0  0  0  0  0  0
    5.2450    1.9480  -61.2460 C   0  0  0  0  0  0  0  0  0  0  0  0
    4.2990    0.9630  -61.0810 C   0  0  0  0  0  0  0  0  0  0  0  0
    3.6590    0.8060  -62.2920 N   0  0  0  0  0  0  0  0  0  0  0  0
    4.1840    1.6240  -63.2060 C   0  0  0  0  0  0  0  0  0  0  0  0
    5.1440    2.3210  -62.5900 N   0  0  0  0  0  0  0  0  0  0  0  0
    7.3570    3.0770  -61.7560 H   0  0  0  0  0  0  0  0  0  0  0  0
    8.1697    2.1678  -58.2113 H   0  0  0  0  0  0  0  0  0  0  0  0
    9.2985    1.4553  -59.4257 H   0  0  0  0  0  0  0  0  0  0  0  0
   10.5245    2.2572  -57.4007 H   0  0  0  0  0  0  0  0  0  0  0  0
   12.1792    3.6784  -58.6098 H   0  0  0  0  0  0  0  0  0  0  0  0
   11.6173    2.3170  -59.6435 H   0  0  0  0  0  0  0  0  0  0  0  0
   11.6679    4.4562  -60.9271 H   0  0  0  0  0  0  0  0  0  0  0  0
   11.2859    5.9886  -58.9923 H   0  0  0  0  0  0  0  0  0  0  0  0
   10.0831    6.2792  -60.2996 H   0  0  0  0  0  0  0  0  0  0  0  0
    8.9887    6.2365  -58.0554 H   0  0  0  0  0  0  0  0  0  0  0  0
   10.6105    4.7067  -56.9382 H   0  0  0  0  0  0  0  0  0  0  0  0
    8.9280    4.0811  -56.7913 H   0  0  0  0  0  0  0  0  0  0  0  0
    7.2584    4.5285  -58.5990 H   0  0  0  0  0  0  0  0  0  0  0  0
    7.7635    5.4302  -60.0777 H   0  0  0  0  0  0  0  0  0  0  0  0
    9.3114    4.3834  -61.7321 H   0  0  0  0  0  0  0  0  0  0  0  0
    9.9530    2.7192  -61.4325 H   0  0  0  0  0  0  0  0  0  0  0  0
    4.0919    0.4050  -60.1559 H   0  0  0  0  0  0  0  0  0  0  0  0
    2.9040    0.1450  -62.4740 H   0  0  0  0  0  0  0  0  0  0  0  0
    3.8850    1.7084  -64.2612 H   0  0  0  0  0  0  0  0  0  0  0  0
    5.7650    2.9750  -63.0590 H   0  0  0  0  0  0  0  0  0  0  0  0
  1  2  2  0
  2  3  1  0
  4  3  1  6
  4  5  1  0
  5  6  1  0
  6  7  1  0
  7  8  1  0
  8  9  1  0
  9 10  1  0
 10 11  1  0
 10 12  1  0
  8 13  1  0
  2 14  1  0
 14 15  2  0
 15 16  1  0
 16 17  1  0
 17 18  2  0
 12  4  1  0
 18 14  1  0
 13  4  1  0
 11  6  1  0
  3 19  1  0
  5 20  1  0
  5 21  1  0
  6 22  1  1
  7 23  1  0
  7 24  1  0
  8 25  1  6
  9 26  1  0
  9 27  1  0
 10 28  1  1
 11 29  1  0
 11 30  1  0
 12 31  1  0
 12 32  1  0
 13 33  1  0
 13 34  1  0
 15 35  1  0
 16 36  1  0
 17 37  1  0
 18 38  1  0
M  CHG  1  18   1
M  END
>  <meeko>  (86) 
{"is_sidechain": false}

$$$$

     RDKit          3D

 37 40  0  0  0  0  0  0  0  0999 V2000
    5.9590    2.3730  -59.0950 O   0  0  0  0  0  0  0  0  0  0  0  0
    6.2020    2.3790  -60.2980 C   0  0  0  0  0  0  0  0  0  0  0  0
    7.4120    2.8180  -60.8170 N   0  0  0  0  0  0  0  0  0  0  0  0
    8.5050    3.3820  -60.0180 C   0  0  2  0  0  0  0  0  0  0  0  0
    8.0750    4.6830  -59.2970 C   0  0  0  0  0  0  0  0  0  0  0  0
    9.2560    5.2850  -58.5160 C   0  0  1  0  0  0  0  0  0  0  0  0
    9.7540    4.2610  -57.4820 C   0  0  0  0  0  0  0  0  0  0  0  0
   10.2220    2.9770  -58.1910 C   0  0  2  0  0  0  0  0  0  0  0  0
   11.3560    3.3220  -59.1680 C   0  0  0  0  0  0  0  0  0  0  0  0
   10.8600    4.3380  -60.2080 C   0  0  2  0  0  0  0  0  0  0  0  0
   10.3960    5.6150  -59.4920 C   0  0  0  0  0  0  0  0  0  0  0  0
    9.6760    3.7320  -60.9780 C   0  0  0  0  0  0  0  0  0  0  0  0
    9.0420    2.3720  -58.9720 C   0  0  0  0  0  0  0  0  0  0  0  0
    5.2230    1.9380  -61.3180 C   0  0  0  0  0  0  0  0  0  0  0  0
    4.0890    1.0870  -61.1510 C   0  0  0  0  0  0  0  0  0  0  0  0
    3.5080    0.9930  -62.3910 C   0  0  0  0  0  0  0  0  0  0  0  0
    4.2720    1.7590  -63.2170 N   0  0  0  0  0  0  0  0  0  0  0  0
    5.3110    2.3360  -62.6020 N   0  0  0  0  0  0  0  0  0  0  0  0
    7.4400    2.9900  -61.8120 H   0  0  0  0  0  0  0  0  0  0  0  0
    7.7263    5.4117  -60.0436 H   0  0  0  0  0  0  0  0  0  0  0  0
    7.2663    4.4459  -58.5900 H   0  0  0  0  0  0  0  0  0  0  0  0
    8.9313    6.2025  -58.0034 H   0  0  0  0  0  0  0  0  0  0  0  0
   10.5945    4.6924  -56.9186 H   0  0  0  0  0  0  0  0  0  0  0  0
    8.9308    4.0133  -56.7957 H   0  0  0  0  0  0  0  0  0  0  0  0
   10.5841    2.2522  -57.4470 H   0  0  0  0  0  0  0  0  0  0  0  0
   12.1995    3.7541  -58.6096 H   0  0  0  0  0  0  0  0  0  0  0  0
   11.6809    2.4061  -59.6832 H   0  0  0  0  0  0  0  0  0  0  0  0
   11.6746    4.5816  -60.9059 H   0  0  0  0  0  0  0  0  0  0  0  0
   11.2398    6.0469  -58.9340 H   0  0  0  0  0  0  0  0  0  0  0  0
   10.0344    6.3370  -60.2390 H   0  0  0  0  0  0  0  0  0  0  0  0
    9.3234    4.4586  -61.7249 H   0  0  0  0  0  0  0  0  0  0  0  0
   10.0144    2.8072  -61.4682 H   0  0  0  0  0  0  0  0  0  0  0  0
    9.3794    1.4614  -59.4887 H   0  0  0  0  0  0  0  0  0  0  0  0
    8.2348    2.1311  -58.2646 H   0  0  0  0  0  0  0  0  0  0  0  0
    3.7509    0.6062  -60.2212 H   0  0  0  0  0  0  0  0  0  0  0  0
    2.6104    0.4175  -62.6614 H   0  0  0  0  0  0  0  0  0  0  0  0
    4.1450    1.9370  -64.2070 H   0  0  0  0  0  0  0  0  0  0  0  0
  1  2  2  0
  2  3  1  0
  4  3  1  6
  4  5  1  0
  5  6  1  0
  6  7  1  0
  7  8  1  0
  8  9  1  0
  9 10  1  0
 10 11  1  0
 10 12  1  0
  8 13  1  0
  2 14  1  0
 14 15  1  0
 15 16  2  0
 16 17  1  0
 17 18  1  0
 12  4  1  0
 18 14  2  0
 13  4  1  0
 11  6  1  0
  3 19  1  0
  5 20  1  0
  5 21  1  0
  6 22  1  1
  7 23  1  0
  7 24  1  0
  8 25  1  1
  9 26  1  0
  9 27  1  0
 10 28  1  6
 11 29  1  0
 11 30  1  0
 12 31  1  0
 12 32  1  0
 13 33  1  0
 13 34  1  0
 15 35  1  0
 16 36  1  0
 17 37  1  0
M  END
>  <meeko>  (87) 
{"is_sidechain": false}

$$$$

     RDKit          3D

 37 40  0  0  0  0  0  0  0  0999 V2000
    5.8710    2.4780  -58.9950 O   0  0  0  0  0  0  0  0  0  0  0  0
    6.1370    2.4060  -60.1890 C   0  0  0  0  0  0  0  0  0  0  0  0
    7.3410    2.7990  -60.7260 N   0  0  0  0  0  0  0  0  0  0  0  0
    8.4640    3.3550  -59.9620 C   0  0  2  0  0  0  0  0  0  0  0  0
    9.6190    3.6720  -60.9520 C   0  0  0  0  0  0  0  0  0  0  0  0
   10.8320    4.2590  -60.2140 C   0  0  1  0  0  0  0  0  0  0  0  0
   10.4110    5.5560  -59.5040 C   0  0  0  0  0  0  0  0  0  0  0  0
    9.2860    5.2610  -58.5000 C   0  0  2  0  0  0  0  0  0  0  0  0
    9.7840    4.2390  -57.4650 C   0  0  0  0  0  0  0  0  0  0  0  0
   10.2080    2.9370  -58.1660 C   0  0  2  0  0  0  0  0  0  0  0  0
   11.3280    3.2460  -59.1710 C   0  0  0  0  0  0  0  0  0  0  0  0
    8.9990    2.3480  -58.9140 C   0  0  0  0  0  0  0  0  0  0  0  0
    8.0750    4.6740  -59.2490 C   0  0  0  0  0  0  0  0  0  0  0  0
    5.1860    1.8900  -61.1400 C   0  0  0  0  0  0  0  0  0  0  0  0
    4.1160    1.0190  -61.0550 C   0  0  0  0  0  0  0  0  0  0  0  0
    3.6000    0.9390  -62.3630 C   0  0  0  0  0  0  0  0  0  0  0  0
    4.2820    1.6970  -63.2230 N   0  0  0  0  0  0  0  0  0  0  0  0
    5.2340    2.2600  -62.4600 N   0  0  0  0  0  0  0  0  0  0  0  0
    7.4650    2.7010  -61.7220 H   0  0  0  0  0  0  0  0  0  0  0  0
    9.9216    2.7446  -61.4604 H   0  0  0  0  0  0  0  0  0  0  0  0
    9.2611    4.4129  -61.6821 H   0  0  0  0  0  0  0  0  0  0  0  0
   11.6371    4.4741  -60.9320 H   0  0  0  0  0  0  0  0  0  0  0  0
   11.2757    5.9765  -58.9697 H   0  0  0  0  0  0  0  0  0  0  0  0
   10.0493    6.2772  -60.2517 H   0  0  0  0  0  0  0  0  0  0  0  0
    8.9920    6.1912  -57.9917 H   0  0  0  0  0  0  0  0  0  0  0  0
   10.6459    4.6586  -56.9256 H   0  0  0  0  0  0  0  0  0  0  0  0
    8.9704    4.0179  -56.7585 H   0  0  0  0  0  0  0  0  0  0  0  0
   10.5697    2.2133  -57.4207 H   0  0  0  0  0  0  0  0  0  0  0  0
   12.1918    3.6672  -58.6359 H   0  0  0  0  0  0  0  0  0  0  0  0
   11.6225    2.3169  -59.6810 H   0  0  0  0  0  0  0  0  0  0  0  0
    9.3052    1.4231  -59.4246 H   0  0  0  0  0  0  0  0  0  0  0  0
    8.2014    2.1348  -58.1871 H   0  0  0  0  0  0  0  0  0  0  0  0
    7.2678    4.4719  -58.5295 H   0  0  0  0  0  0  0  0  0  0  0  0
    7.7381    5.3999  -60.0037 H   0  0  0  0  0  0  0  0  0  0  0  0
    3.7468    0.4998  -60.1583 H   0  0  0  0  0  0  0  0  0  0  0  0
    2.7336    0.3220  -62.6434 H   0  0  0  0  0  0  0  0  0  0  0  0
    5.9000    2.8970  -62.8870 H   0  0  0  0  0  0  0  0  0  0  0  0
  1  2  2  0
  2  3  1  0
  4  3  1  6
  4  5  1  0
  5  6  1  0
  6  7  1  0
  7  8  1  0
  8  9  1  0
  9 10  1  0
 10 11  1  0
 10 12  1  0
  8 13  1  0
  2 14  1  0
 14 15  2  0
 15 16  1  0
 16 17  2  0
 17 18  1  0
 12  4  1  0
 18 14  1  0
 13  4  1  0
 11  6  1  0
  3 19  1  0
  5 20  1  0
  5 21  1  0
  6 22  1  6
  7 23  1  0
  7 24  1  0
  8 25  1  1
  9 26  1  0
  9 27  1  0
 10 28  1  1
 11 29  1  0
 11 30  1  0
 12 31  1  0
 12 32  1  0
 13 33  1  0
 13 34  1  0
 15 35  1  0
 16 36  1  0
 18 37  1  0
M  END
>  <meeko>  (88) 
{"is_sidechain": false}

$$$$

     RDKit          3D

 36 39  0  0  0  0  0  0  0  0999 V2000
    5.8450    2.3980  -59.0360 O   0  0  0  0  0  0  0  0  0  0  0  0
    6.1320    2.3940  -60.2280 C   0  0  0  0  0  0  0  0  0  0  0  0
    7.3250    2.8470  -60.7470 N   0  0  0  0  0  0  0  0  0  0  0  0
    8.4370    3.4010  -59.9750 C   0  0  2  0  0  0  0  0  0  0  0  0
    9.5860    3.7610  -60.9550 C   0  0  0  0  0  0  0  0  0  0  0  0
   10.7880    4.3510  -60.2020 C   0  0  1  0  0  0  0  0  0  0  0  0
   10.3440    5.6220  -59.4600 C   0  0  0  0  0  0  0  0  0  0  0  0
    9.2230    5.2830  -58.4650 C   0  0  2  0  0  0  0  0  0  0  0  0
    9.7390    4.2450  -57.4550 C   0  0  0  0  0  0  0  0  0  0  0  0
   10.1860    2.9690  -58.1870 C   0  0  2  0  0  0  0  0  0  0  0  0
   11.3010    3.3200  -59.1840 C   0  0  0  0  0  0  0  0  0  0  0  0
    8.9870    2.3790  -58.9510 C   0  0  0  0  0  0  0  0  0  0  0  0
    8.0240    4.6950  -59.2290 C   0  0  0  0  0  0  0  0  0  0  0  0
    5.2180    1.8970  -61.2480 C   0  0  0  0  0  0  0  0  0  0  0  0
    4.1840    0.9980  -61.0890 C   0  0  0  0  0  0  0  0  0  0  0  0
    3.6530    0.8780  -62.3350 N   0  0  0  0  0  0  0  0  0  0  0  0
    4.3030    1.6470  -63.2230 N   0  0  0  0  0  0  0  0  0  0  0  0
    5.2680    2.2800  -62.5700 N   0  0  0  0  0  0  0  0  0  0  0  0
    7.4170    2.7790  -61.7570 H   0  0  0  0  0  0  0  0  0  0  0  0
    9.9049    2.8514  -61.4850 H   0  0  0  0  0  0  0  0  0  0  0  0
    9.2158    4.5128  -61.6676 H   0  0  0  0  0  0  0  0  0  0  0  0
   11.5894    4.5988  -60.9136 H   0  0  0  0  0  0  0  0  0  0  0  0
   11.2009    6.0436  -58.9141 H   0  0  0  0  0  0  0  0  0  0  0  0
    9.9704    6.3553  -60.1899 H   0  0  0  0  0  0  0  0  0  0  0  0
    8.9116    6.1947  -57.9342 H   0  0  0  0  0  0  0  0  0  0  0  0
   10.5932    4.6666  -56.9050 H   0  0  0  0  0  0  0  0  0  0  0  0
    8.9294    3.9922  -56.7546 H   0  0  0  0  0  0  0  0  0  0  0  0
   10.5603    2.2344  -57.4588 H   0  0  0  0  0  0  0  0  0  0  0  0
   12.1583    3.7415  -58.6387 H   0  0  0  0  0  0  0  0  0  0  0  0
   11.6103    2.4086  -59.7166 H   0  0  0  0  0  0  0  0  0  0  0  0
    9.3085    1.4715  -59.4830 H   0  0  0  0  0  0  0  0  0  0  0  0
    8.1921    2.1363  -58.2304 H   0  0  0  0  0  0  0  0  0  0  0  0
    7.2200    4.4606  -58.5157 H   0  0  0  0  0  0  0  0  0  0  0  0
    7.6746    5.4338  -59.9653 H   0  0  0  0  0  0  0  0  0  0  0  0
    3.8626    0.4937  -60.1657 H   0  0  0  0  0  0  0  0  0  0  0  0
    2.8750    0.3140  -62.6550 H   0  0  0  0  0  0  0  0  0  0  0  0
  1  2  2  0
  2  3  1  0
  4  3  1  6
  4  5  1  0
  5  6  1  0
  6  7  1  0
  7  8  1  0
  8  9  1  0
  9 10  1  0
 10 11  1  0
 10 12  1  0
  8 13  1  0
  2 14  1  0
 14 15  2  0
 15 16  1  0
 16 17  1  0
 17 18  2  0
 12  4  1  0
 18 14  1  0
 13  4  1  0
 11  6  1  0
  3 19  1  0
  5 20  1  0
  5 21  1  0
  6 22  1  6
  7 23  1  0
  7 24  1  0
  8 25  1  1
  9 26  1  0
  9 27  1  0
 10 28  1  1
 11 29  1  0
 11 30  1  0
 12 31  1  0
 12 32  1  0
 13 33  1  0
 13 34  1  0
 15 35  1  0
 16 36  1  0
M  END
>  <meeko>  (89) 
{"is_sidechain": false}

$$$$

     RDKit          3D

 36 39  0  0  0  0  0  0  0  0999 V2000
    5.8860    2.5060  -59.1140 O   0  0  0  0  0  0  0  0  0  0  0  0
    6.1630    2.4640  -60.3050 C   0  0  0  0  0  0  0  0  0  0  0  0
    7.3700    2.9000  -60.8190 N   0  0  0  0  0  0  0  0  0  0  0  0
    8.4720    3.4260  -59.9990 C   0  0  2  0  0  0  0  0  0  0  0  0
    9.6690    3.7320  -60.9400 C   0  0  0  0  0  0  0  0  0  0  0  0
   10.8680    4.2800  -60.1490 C   0  0  1  0  0  0  0  0  0  0  0  0
   10.4510    5.5760  -59.4370 C   0  0  0  0  0  0  0  0  0  0  0  0
    9.2820    5.2960  -58.4820 C   0  0  2  0  0  0  0  0  0  0  0  0
    9.7150    4.2480  -57.4410 C   0  0  0  0  0  0  0  0  0  0  0  0
   10.1360    2.9460  -58.1440 C   0  0  2  0  0  0  0  0  0  0  0  0
   11.3000    3.2400  -59.1030 C   0  0  0  0  0  0  0  0  0  0  0  0
    8.9440    2.3940  -58.9450 C   0  0  0  0  0  0  0  0  0  0  0  0
    8.0880    4.7480  -59.2840 C   0  0  0  0  0  0  0  0  0  0  0  0
    5.2600    1.9270  -61.2810 C   0  0  0  0  0  0  0  0  0  0  0  0
    4.2550    0.9960  -61.1240 C   0  0  0  0  0  0  0  0  0  0  0  0
    3.6310    0.7800  -62.3210 N   0  0  0  0  0  0  0  0  0  0  0  0
    4.1960    1.5700  -63.2230 N   0  0  0  0  0  0  0  0  0  0  0  0
    5.1460    2.2760  -62.5960 N   0  0  0  0  0  0  0  0  0  0  0  0
    7.6460    2.5070  -61.7080 H   0  0  0  0  0  0  0  0  0  0  0  0
    9.9693    2.8060  -61.4522 H   0  0  0  0  0  0  0  0  0  0  0  0
    9.3545    4.4926  -61.6698 H   0  0  0  0  0  0  0  0  0  0  0  0
   11.7047    4.4859  -60.8328 H   0  0  0  0  0  0  0  0  0  0  0  0
   11.3042    5.9677  -58.8638 H   0  0  0  0  0  0  0  0  0  0  0  0
   10.1356    6.3156  -60.1876 H   0  0  0  0  0  0  0  0  0  0  0  0
    8.9911    6.2270  -57.9734 H   0  0  0  0  0  0  0  0  0  0  0  0
   10.5643    4.6398  -56.8621 H   0  0  0  0  0  0  0  0  0  0  0  0
    8.8695    4.0371  -56.7697 H   0  0  0  0  0  0  0  0  0  0  0  0
   10.4530    2.2060  -57.3944 H   0  0  0  0  0  0  0  0  0  0  0  0
   12.1538    3.6317  -58.5306 H   0  0  0  0  0  0  0  0  0  0  0  0
   11.5898    2.3108  -59.6154 H   0  0  0  0  0  0  0  0  0  0  0  0
    9.2489    1.4688  -59.4560 H   0  0  0  0  0  0  0  0  0  0  0  0
    8.1146    2.1897  -58.2519 H   0  0  0  0  0  0  0  0  0  0  0  0
    7.2488    4.5579  -58.5987 H   0  0  0  0  0  0  0  0  0  0  0  0
    7.7990    5.4906  -60.0423 H   0  0  0  0  0  0  0  0  0  0  0  0
    3.9943    0.5010  -60.1769 H   0  0  0  0  0  0  0  0  0  0  0  0
    5.6500    2.9810  -63.1210 H   0  0  0  0  0  0  0  0  0  0  0  0
  1  2  2  0
  2  3  1  0
  4  3  1  6
  4  5  1  0
  5  6  1  0
  6  7  1  0
  7  8  1  0
  8  9  1  0
  9 10  1  0
 10 11  1  0
 10 12  1  0
  8 13  1  0
  2 14  1  0
 14 15  2  0
 15 16  1  0
 16 17  2  0
 17 18  1  0
 12  4  1  0
 18 14  1  0
 13  4  1  0
 11  6  1  0
  3 19  1  0
  5 20  1  0
  5 21  1  0
  6 22  1  6
  7 23  1  0
  7 24  1  0
  8 25  1  1
  9 26  1  0
  9 27  1  0
 10 28  1  1
 11 29  1  0
 11 30  1  0
 12 31  1  0
 12 32  1  0
 13 33  1  0
 13 34  1  0
 15 35  1  0
 18 36  1  0
M  END
>  <meeko>  (90) 
{"is_sidechain": false}

$$$$

     RDKit          3D

 36 39  0  0  0  0  0  0  0  0999 V2000
    5.7830    2.4580  -59.1860 O   0  0  0  0  0  0  0  0  0  0  0  0
    6.0480    2.4420  -60.3850 C   0  0  0  0  0  0  0  0  0  0  0  0
    7.2500    2.9150  -60.8940 N   0  0  0  0  0  0  0  0  0  0  0  0
    8.3550    3.4270  -60.0720 C   0  0  2  0  0  0  0  0  0  0  0  0
    8.8020    2.3940  -59.0080 C   0  0  0  0  0  0  0  0  0  0  0  0
    9.9980    2.9310  -58.2030 C   0  0  1  0  0  0  0  0  0  0  0  0
   11.1740    3.1990  -59.1570 C   0  0  0  0  0  0  0  0  0  0  0  0
   10.7670    4.2370  -60.2130 C   0  0  2  0  0  0  0  0  0  0  0  0
   10.3680    5.5450  -59.5140 C   0  0  0  0  0  0  0  0  0  0  0  0
    9.1870    5.2930  -58.5650 C   0  0  2  0  0  0  0  0  0  0  0  0
    9.5970    4.2460  -57.5140 C   0  0  0  0  0  0  0  0  0  0  0  0
    7.9900    4.7590  -59.3700 C   0  0  0  0  0  0  0  0  0  0  0  0
    9.5640    3.7040  -61.0080 C   0  0  0  0  0  0  0  0  0  0  0  0
    5.1220    1.9060  -61.3920 C   0  0  0  0  0  0  0  0  0  0  0  0
    4.0970    0.9420  -61.2410 C   0  0  0  0  0  0  0  0  0  0  0  0
    3.4740    0.7270  -62.4030 N   0  0  0  0  0  0  0  0  0  0  0  0
    4.1580    1.5460  -63.2160 N   0  0  0  0  0  0  0  0  0  0  0  0
    5.1450    2.2810  -62.6860 N   0  0  0  0  0  0  0  0  0  0  0  0
    7.4810    2.6590  -61.8430 H   0  0  0  0  0  0  0  0  0  0  0  0
    7.9648    2.1950  -58.3228 H   0  0  0  0  0  0  0  0  0  0  0  0
    9.1042    1.4672  -59.5176 H   0  0  0  0  0  0  0  0  0  0  0  0
   10.2956    2.1905  -57.4460 H   0  0  0  0  0  0  0  0  0  0  0  0
   12.0302    3.5810  -58.5816 H   0  0  0  0  0  0  0  0  0  0  0  0
   11.4517    2.2612  -59.6605 H   0  0  0  0  0  0  0  0  0  0  0  0
   11.6116    4.4228  -60.8928 H   0  0  0  0  0  0  0  0  0  0  0  0
   11.2239    5.9260  -58.9376 H   0  0  0  0  0  0  0  0  0  0  0  0
   10.0710    6.2843  -60.2725 H   0  0  0  0  0  0  0  0  0  0  0  0
    8.9072    6.2326  -58.0661 H   0  0  0  0  0  0  0  0  0  0  0  0
   10.4506    4.6277  -56.9346 H   0  0  0  0  0  0  0  0  0  0  0  0
    8.7445    4.0556  -56.8454 H   0  0  0  0  0  0  0  0  0  0  0  0
    7.1435    4.5883  -58.6886 H   0  0  0  0  0  0  0  0  0  0  0  0
    7.7188    5.5006  -60.1359 H   0  0  0  0  0  0  0  0  0  0  0  0
    9.2718    4.4504  -61.7614 H   0  0  0  0  0  0  0  0  0  0  0  0
    9.8550    2.7602  -61.4923 H   0  0  0  0  0  0  0  0  0  0  0  0
    3.8473    0.4383  -60.2955 H   0  0  0  0  0  0  0  0  0  0  0  0
    3.9340    1.6100  -64.2080 H   0  0  0  0  0  0  0  0  0  0  0  0
  1  2  2  0
  2  3  1  0
  4  3  1  6
  4  5  1  0
  5  6  1  0
  6  7  1  0
  7  8  1  0
  8  9  1  0
  9 10  1  0
 10 11  1  0
 10 12  1  0
  8 13  1  0
  2 14  1  0
 14 15  1  0
 15 16  2  0
 16 17  1  0
 17 18  1  0
 12  4  1  0
 18 14  2  0
 13  4  1  0
 11  6  1  0
  3 19  1  0
  5 20  1  0
  5 21  1  0
  6 22  1  1
  7 23  1  0
  7 24  1  0
  8 25  1  6
  9 26  1  0
  9 27  1  0
 10 28  1  1
 11 29  1  0
 11 30  1  0
 12 31  1  0
 12 32  1  0
 13 33  1  0
 13 34  1  0
 15 35  1  0
 17 36  1  0
M  END
>  <meeko>  (91) 
{"is_sidechain": false}

$$$$

     RDKit          3D

 32 34  0  0  0  0  0  0  0  0999 V2000
   13.0320    7.3130  -60.1960 C   0  0  0  0  0  0  0  0  0  0  0  0
   11.9220    6.4140  -60.2070 O   0  0  0  0  0  0  0  0  0  0  0  0
   12.0020    5.4200  -59.2760 C   0  0  0  0  0  0  0  0  0  0  0  0
   12.9540    5.2510  -58.5260 O   0  0  0  0  0  0  0  0  0  0  0  0
   10.7460    4.5510  -59.2990 C   0  0  2  0  0  0  0  0  0  0  0  0
   11.0320    3.1720  -58.6630 C   0  0  0  0  0  0  0  0  0  0  0  0
    9.7670    2.2950  -58.6900 C   0  0  1  0  0  0  0  0  0  0  0  0
    8.6460    3.0020  -57.9100 C   0  0  0  0  0  0  0  0  0  0  0  0
    8.3330    4.3660  -58.5500 C   0  0  2  0  0  0  0  0  0  0  0  0
    7.8950    4.1520  -60.0080 C   0  0  0  0  0  0  0  0  0  0  0  0
    9.0140    3.4530  -60.7960 C   0  0  2  0  0  0  0  0  0  0  0  0
    9.3210    2.0940  -60.1470 C   0  0  0  0  0  0  0  0  0  0  0  0
   10.2790    4.3260  -60.7590 C   0  0  0  0  0  0  0  0  0  0  0  0
    9.5980    5.2400  -58.5230 C   0  0  0  0  0  0  0  0  0  0  0  0
   13.3107    7.5387  -59.1561 H   0  0  0  0  0  0  0  0  0  0  0  0
   13.8853    6.8483  -60.7117 H   0  0  0  0  0  0  0  0  0  0  0  0
   12.7548    8.2442  -60.7117 H   0  0  0  0  0  0  0  0  0  0  0  0
   11.8321    2.6714  -59.2280 H   0  0  0  0  0  0  0  0  0  0  0  0
   11.3418    3.3188  -57.6178 H   0  0  0  0  0  0  0  0  0  0  0  0
    9.9815    1.3190  -58.2303 H   0  0  0  0  0  0  0  0  0  0  0  0
    7.7413    2.3765  -57.9266 H   0  0  0  0  0  0  0  0  0  0  0  0
    8.9745    3.1591  -56.8720 H   0  0  0  0  0  0  0  0  0  0  0  0
    7.5272    4.8632  -57.9901 H   0  0  0  0  0  0  0  0  0  0  0  0
    6.9900    3.5271  -60.0285 H   0  0  0  0  0  0  0  0  0  0  0  0
    7.6847    5.1285  -60.4688 H   0  0  0  0  0  0  0  0  0  0  0  0
    8.6942    3.3026  -61.8377 H   0  0  0  0  0  0  0  0  0  0  0  0
    8.4168    1.4680  -60.1679 H   0  0  0  0  0  0  0  0  0  0  0  0
   10.1295    1.6013  -60.7070 H   0  0  0  0  0  0  0  0  0  0  0  0
   11.0805    3.8246  -61.3213 H   0  0  0  0  0  0  0  0  0  0  0  0
   10.0488    5.3019  -61.2113 H   0  0  0  0  0  0  0  0  0  0  0  0
    9.3773    6.2116  -58.9892 H   0  0  0  0  0  0  0  0  0  0  0  0
    9.9098    5.3844  -57.4781 H   0  0  0  0  0  0  0  0  0  0  0  0
  1  2  1  0
  2  3  1  0
  3  4  2  0
  5  3  1  6
  5  6  1  0
  6  7  1  0
  7  8  1  0
  8  9  1  0
  9 10  1  0
 10 11  1  0
 11 12  1  0
 11 13  1  0
  9 14  1  0
 13  5  1  0
 14  5  1  0
 12  7  1  0
  1 15  1  0
  1 16  1  0
  1 17  1  0
  6 18  1  0
  6 19  1  0
  7 20  1  1
  8 21  1  0
  8 22  1  0
  9 23  1  1
 10 24  1  0
 10 25  1  0
 11 26  1  6
 12 27  1  0
 12 28  1  0
 13 29  1  0
 13 30  1  0
 14 31  1  0
 14 32  1  0
M  END
>  <meeko>  (92) 
{"is_sidechain": false}

$$$$

     RDKit          3D

 34 37  0  0  0  0  0  0  0  0999 V2000
    5.6890    2.4930  -58.9920 O   0  0  0  0  0  0  0  0  0  0  0  0
    5.9100    2.4030  -60.2040 C   0  0  0  0  0  0  0  0  0  0  0  0
    7.1380    2.8130  -60.7330 N   0  0  0  0  0  0  0  0  0  0  0  0
    8.2660    3.3670  -59.9960 C   0  0  2  0  0  0  0  0  0  0  0  0
    8.7110    2.4350  -58.8410 C   0  0  0  0  0  0  0  0  0  0  0  0
    9.9340    3.0210  -58.1140 C   0  0  1  0  0  0  0  0  0  0  0  0
   11.0970    3.1630  -59.1090 C   0  0  0  0  0  0  0  0  0  0  0  0
   10.6910    4.1000  -60.2570 C   0  0  2  0  0  0  0  0  0  0  0  0
   10.3330    5.4810  -59.6850 C   0  0  0  0  0  0  0  0  0  0  0  0
    9.1670    5.3520  -58.6940 C   0  0  2  0  0  0  0  0  0  0  0  0
    9.5750    4.4060  -57.5510 C   0  0  0  0  0  0  0  0  0  0  0  0
    7.9420    4.7690  -59.4210 C   0  0  0  0  0  0  0  0  0  0  0  0
    9.4620    3.5180  -60.9730 C   0  0  0  0  0  0  0  0  0  0  0  0
    5.0530    1.9040  -61.2970 C   0  0  0  0  0  0  0  0  0  0  0  0
    5.1070    2.3190  -62.5900 N   0  0  0  0  0  0  0  0  0  0  0  0
    4.1520    1.5980  -63.2230 N   0  0  0  0  0  0  0  0  0  0  0  0
    3.5440    0.7760  -62.3420 N   0  0  0  0  0  0  0  0  0  0  0  0
    4.0910    0.9460  -61.1170 N   0  0  0  0  0  0  0  0  0  0  0  0
    7.1970    2.6890  -61.7460 H   0  0  0  0  0  0  0  0  0  0  0  0
    7.8830    2.3254  -58.1252 H   0  0  0  0  0  0  0  0  0  0  0  0
    8.9831    1.4551  -59.2603 H   0  0  0  0  0  0  0  0  0  0  0  0
   10.2304    2.3530  -57.2919 H   0  0  0  0  0  0  0  0  0  0  0  0
   11.9724    3.5802  -58.5898 H   0  0  0  0  0  0  0  0  0  0  0  0
   11.3453    2.1732  -59.5197 H   0  0  0  0  0  0  0  0  0  0  0  0
   11.5257    4.1978  -60.9668 H   0  0  0  0  0  0  0  0  0  0  0  0
   11.2082    5.8983  -59.1656 H   0  0  0  0  0  0  0  0  0  0  0  0
   10.0355    6.1471  -60.5083 H   0  0  0  0  0  0  0  0  0  0  0  0
    8.9181    6.3426  -58.2857 H   0  0  0  0  0  0  0  0  0  0  0  0
   10.4478    4.8233  -57.0274 H   0  0  0  0  0  0  0  0  0  0  0  0
    8.7327    4.3028  -56.8511 H   0  0  0  0  0  0  0  0  0  0  0  0
    7.1064    4.6843  -58.7107 H   0  0  0  0  0  0  0  0  0  0  0  0
    7.6697    5.4384  -60.2503 H   0  0  0  0  0  0  0  0  0  0  0  0
    9.1726    4.1905  -61.7940 H   0  0  0  0  0  0  0  0  0  0  0  0
    9.7231    2.5228  -61.3622 H   0  0  0  0  0  0  0  0  0  0  0  0
  1  2  2  0
  2  3  1  0
  4  3  1  6
  4  5  1  0
  5  6  1  0
  6  7  1  0
  7  8  1  0
  8  9  1  0
  9 10  1  0
 10 11  1  0
 10 12  1  0
  8 13  1  0
  2 14  1  0
 14 15  2  0
 15 16  1  0
 16 17  2  0
 17 18  1  0
 12  4  1  0
 18 14  1  0
 13  4  1  0
 11  6  1  0
  3 19  1  0
  5 20  1  0
  5 21  1  0
  6 22  1  1
  7 23  1  0
  7 24  1  0
  8 25  1  6
  9 26  1  0
  9 27  1  0
 10 28  1  1
 11 29  1  0
 11 30  1  0
 12 31  1  0
 12 32  1  0
 13 33  1  0
 13 34  1  0
M  CHG  1  18  -1
M  END
>  <meeko>  (93) 
{"is_sidechain": false}

$$$$

     RDKit          3D

 36 38  0  0  0  0  0  0  0  0999 V2000
    2.9020    1.8850  -61.0000 C   0  0  0  0  0  0  0  0  0  0  0  0
    4.1900    1.2700  -60.9840 O   0  0  0  0  0  0  0  0  0  0  0  0
    5.1600    2.0310  -61.5520 C   0  0  0  0  0  0  0  0  0  0  0  0
    5.2990    2.2730  -62.7360 O   0  0  0  0  0  0  0  0  0  0  0  0
    6.1090    2.5520  -60.4430 C   0  0  0  0  0  0  0  0  0  0  0  0
    5.7740    2.4960  -59.2710 O   0  0  0  0  0  0  0  0  0  0  0  0
    7.3140    3.0440  -60.9180 N   0  0  0  0  0  0  0  0  0  0  0  0
    8.4200    3.5030  -60.0770 C   0  0  2  0  0  0  0  0  0  0  0  0
    9.6470    3.7810  -60.9870 C   0  0  0  0  0  0  0  0  0  0  0  0
   10.8500    4.2610  -60.1610 C   0  0  1  0  0  0  0  0  0  0  0  0
   10.4710    5.5560  -59.4240 C   0  0  0  0  0  0  0  0  0  0  0  0
    9.2720    5.2990  -58.4970 C   0  0  2  0  0  0  0  0  0  0  0  0
    9.6450    4.2110  -57.4760 C   0  0  0  0  0  0  0  0  0  0  0  0
   10.0260    2.9100  -58.2020 C   0  0  2  0  0  0  0  0  0  0  0  0
   11.2190    3.1800  -59.1330 C   0  0  0  0  0  0  0  0  0  0  0  0
    8.8270    2.4270  -59.0400 C   0  0  0  0  0  0  0  0  0  0  0  0
    8.0750    4.8190  -59.3340 C   0  0  0  0  0  0  0  0  0  0  0  0
    2.5607    2.0480  -59.9671 H   0  0  0  0  0  0  0  0  0  0  0  0
    2.9634    2.8510  -61.5226 H   0  0  0  0  0  0  0  0  0  0  0  0
    2.1894    1.2300  -61.5226 H   0  0  0  0  0  0  0  0  0  0  0  0
    7.4990    2.8690  -61.9010 H   0  0  0  0  0  0  0  0  0  0  0  0
    9.9199    2.8554  -61.5149 H   0  0  0  0  0  0  0  0  0  0  0  0
    9.3784    4.5702  -61.7046 H   0  0  0  0  0  0  0  0  0  0  0  0
   11.7072    4.4495  -60.8240 H   0  0  0  0  0  0  0  0  0  0  0  0
   11.3278    5.8991  -58.8255 H   0  0  0  0  0  0  0  0  0  0  0  0
   10.2001    6.3261  -60.1612 H   0  0  0  0  0  0  0  0  0  0  0  0
    9.0063    6.2274  -57.9703 H   0  0  0  0  0  0  0  0  0  0  0  0
   10.4992    4.5549  -56.8742 H   0  0  0  0  0  0  0  0  0  0  0  0
    8.7800    4.0184  -56.8244 H   0  0  0  0  0  0  0  0  0  0  0  0
   10.2979    2.1399  -57.4651 H   0  0  0  0  0  0  0  0  0  0  0  0
   12.0767    3.5230  -58.5358 H   0  0  0  0  0  0  0  0  0  0  0  0
   11.4803    2.2522  -59.6630 H   0  0  0  0  0  0  0  0  0  0  0  0
    9.1035    1.5023  -59.5677 H   0  0  0  0  0  0  0  0  0  0  0  0
    7.9760    2.2410  -58.3683 H   0  0  0  0  0  0  0  0  0  0  0  0
    7.2162    4.6441  -58.6692 H   0  0  0  0  0  0  0  0  0  0  0  0
    7.8302    5.5918  -60.0776 H   0  0  0  0  0  0  0  0  0  0  0  0
  1  2  1  0
  2  3  1  0
  3  4  2  0
  3  5  1  0
  5  6  2  0
  5  7  1  0
  8  7  1  6
  8  9  1  0
  9 10  1  0
 10 11  1  0
 11 12  1  0
 12 13  1  0
 13 14  1  0
 14 15  1  0
 14 16  1  0
 12 17  1  0
 16  8  1  0
 17  8  1  0
 15 10  1  0
  1 18  1  0
  1 19  1  0
  1 20  1  0
  7 21  1  0
  9 22  1  0
  9 23  1  0
 10 24  1  6
 11 25  1  0
 11 26  1  0
 12 27  1  1
 13 28  1  0
 13 29  1  0
 14 30  1  1
 15 31  1  0
 15 32  1  0
 16 33  1  0
 16 34  1  0
 17 35  1  0
 17 36  1  0
M  END
>  <meeko>  (94) 
{"is_sidechain": false}

$$$$

     RDKit          3D

 39 41  0  0  0  0  0  0  0  0999 V2000
    9.2360    5.0730  -56.6490 C   0  0  0  0  0  0  0  0  0  0  0  0
    8.9170    4.2060  -57.7600 N   0  0  0  0  0  0  0  0  0  0  0  0
    7.7330    3.5560  -57.7570 N   0  0  0  0  0  0  0  0  0  0  0  0
    7.7170    2.8980  -58.9350 C   0  0  0  0  0  0  0  0  0  0  0  0
    6.5770    2.0630  -59.3450 C   0  0  0  0  0  0  0  0  0  0  0  0
    6.1860    1.0990  -58.6950 O   0  0  0  0  0  0  0  0  0  0  0  0
    6.0120    2.4670  -60.5370 N   0  0  0  0  0  0  0  0  0  0  0  0
    5.0190    1.6860  -61.2260 C   0  0  0  0  0  0  0  0  0  0  0  0
    4.8610    2.0860  -62.6920 C   0  0  0  0  0  0  0  0  0  0  0  0
    3.4420    1.6640  -63.0720 C   0  0  0  0  0  0  0  0  0  0  0  0
    2.7220    1.3420  -61.7630 C   0  0  0  0  0  0  0  0  0  0  0  0
    3.6180    1.8920  -60.6640 C   0  0  0  0  0  0  0  0  0  0  0  0
    8.9040    3.1400  -59.6670 C   0  0  0  0  0  0  0  0  0  0  0  0
    9.6800    3.9670  -58.8800 C   0  0  0  0  0  0  0  0  0  0  0  0
   11.0030    4.5260  -59.1340 C   0  0  0  0  0  0  0  0  0  0  0  0
   11.1280    5.7830  -59.7370 C   0  0  0  0  0  0  0  0  0  0  0  0
   12.3910    6.3250  -59.9860 C   0  0  0  0  0  0  0  0  0  0  0  0
   13.5370    5.6120  -59.6400 C   0  0  0  0  0  0  0  0  0  0  0  0
   13.4220    4.3540  -59.0500 C   0  0  0  0  0  0  0  0  0  0  0  0
   12.1600    3.8110  -58.8010 C   0  0  0  0  0  0  0  0  0  0  0  0
    9.0416    4.5446  -55.7040 H   0  0  0  0  0  0  0  0  0  0  0  0
   10.2975    5.3571  -56.6986 H   0  0  0  0  0  0  0  0  0  0  0  0
    8.6117    5.9773  -56.6986 H   0  0  0  0  0  0  0  0  0  0  0  0
    6.5310    3.2000  -61.0170 H   0  0  0  0  0  0  0  0  0  0  0  0
    5.3840    0.6556  -61.1033 H   0  0  0  0  0  0  0  0  0  0  0  0
    4.9852    3.1725  -62.8109 H   0  0  0  0  0  0  0  0  0  0  0  0
    5.6173    1.6083  -63.3322 H   0  0  0  0  0  0  0  0  0  0  0  0
    2.9291    2.4836  -63.5966 H   0  0  0  0  0  0  0  0  0  0  0  0
    3.4517    0.7946  -63.7459 H   0  0  0  0  0  0  0  0  0  0  0  0
    1.7362    1.8293  -61.7359 H   0  0  0  0  0  0  0  0  0  0  0  0
    2.5475    0.2622  -61.6468 H   0  0  0  0  0  0  0  0  0  0  0  0
    3.4164    2.9588  -60.4868 H   0  0  0  0  0  0  0  0  0  0  0  0
    3.4644    1.3985  -59.6930 H   0  0  0  0  0  0  0  0  0  0  0  0
    9.1573    2.7478  -60.6630 H   0  0  0  0  0  0  0  0  0  0  0  0
   10.2261    6.3474  -60.0165 H   0  0  0  0  0  0  0  0  0  0  0  0
   12.4810    7.3156  -60.4557 H   0  0  0  0  0  0  0  0  0  0  0  0
   14.5314    6.0412  -59.8321 H   0  0  0  0  0  0  0  0  0  0  0  0
   14.3263    3.7888  -58.7804 H   0  0  0  0  0  0  0  0  0  0  0  0
   12.0742    2.8157  -58.3405 H   0  0  0  0  0  0  0  0  0  0  0  0
  1  2  1  0
  2  3  1  0
  3  4  2  0
  4  5  1  0
  5  6  2  0
  5  7  1  0
  7  8  1  0
  8  9  1  0
  9 10  1  0
 10 11  1  0
 11 12  1  0
  4 13  1  0
 13 14  2  0
 14 15  1  0
 15 16  2  0
 16 17  1  0
 17 18  2  0
 18 19  1  0
 19 20  2  0
 14  2  1  0
 20 15  1  0
 12  8  1  0
  1 21  1  0
  1 22  1  0
  1 23  1  0
  7 24  1  0
  8 25  1  0
  9 26  1  0
  9 27  1  0
 10 28  1  0
 10 29  1  0
 11 30  1  0
 11 31  1  0
 12 32  1  0
 12 33  1  0
 13 34  1  0
 16 35  1  0
 17 36  1  0
 18 37  1  0
 19 38  1  0
 20 39  1  0
M  END
>  <meeko>  (95) 
{"is_sidechain": false}

$$$$

     RDKit          3D

 36 38  0  0  0  0  0  0  0  0999 V2000
    5.7020    1.9750  -56.9530 C   0  0  0  0  0  0  0  0  0  0  0  0
    6.9310    1.5510  -56.3240 N   0  0  0  0  0  0  0  0  0  0  0  0
    6.8850    0.5500  -55.4280 N   0  0  0  0  0  0  0  0  0  0  0  0
    8.1620    0.3500  -55.0550 C   0  0  0  0  0  0  0  0  0  0  0  0
    8.5230   -0.6920  -54.0590 C   0  0  0  0  0  0  0  0  0  0  0  0
    9.6770   -1.0950  -53.9390 O   0  0  0  0  0  0  0  0  0  0  0  0
    7.4460   -1.1320  -53.2990 N   0  0  0  0  0  0  0  0  0  0  0  0
    7.4400   -2.1310  -52.3040 C   0  0  0  0  0  0  0  0  0  0  0  0
    7.0480   -3.4190  -52.6970 C   0  0  0  0  0  0  0  0  0  0  0  0
    7.0160   -4.4700  -51.7770 C   0  0  0  0  0  0  0  0  0  0  0  0
    7.3790   -4.2440  -50.4520 C   0  0  0  0  0  0  0  0  0  0  0  0
    7.7740   -2.9700  -50.0520 C   0  0  0  0  0  0  0  0  0  0  0  0
    7.8050   -1.9180  -50.9740 C   0  0  0  0  0  0  0  0  0  0  0  0
    9.0140    1.2670  -55.7360 C   0  0  0  0  0  0  0  0  0  0  0  0
    8.1960    2.0420  -56.5350 C   0  0  0  0  0  0  0  0  0  0  0  0
    8.5330    3.1430  -57.4290 C   0  0  0  0  0  0  0  0  0  0  0  0
    8.8410    2.8880  -58.7700 C   0  0  0  0  0  0  0  0  0  0  0  0
    9.1670    3.9390  -59.6310 C   0  0  0  0  0  0  0  0  0  0  0  0
    9.1930    5.2490  -59.1540 C   0  0  0  0  0  0  0  0  0  0  0  0
    8.8950    5.5100  -57.8180 C   0  0  0  0  0  0  0  0  0  0  0  0
    8.5690    4.4600  -56.9570 C   0  0  0  0  0  0  0  0  0  0  0  0
    4.9630    2.2299  -56.1791 H   0  0  0  0  0  0  0  0  0  0  0  0
    5.8964    2.8580  -57.5795 H   0  0  0  0  0  0  0  0  0  0  0  0
    5.3106    1.1600  -57.5795 H   0  0  0  0  0  0  0  0  0  0  0  0
    6.5710   -0.6490  -53.4330 H   0  0  0  0  0  0  0  0  0  0  0  0
    6.7621   -3.6041  -53.7429 H   0  0  0  0  0  0  0  0  0  0  0  0
    6.7045   -5.4746  -52.0990 H   0  0  0  0  0  0  0  0  0  0  0  0
    7.3539   -5.0684  -49.7242 H   0  0  0  0  0  0  0  0  0  0  0  0
    8.0631   -2.7898  -49.0061 H   0  0  0  0  0  0  0  0  0  0  0  0
    8.1194   -0.9156  -50.6481 H   0  0  0  0  0  0  0  0  0  0  0  0
   10.1075    1.3428  -55.6436 H   0  0  0  0  0  0  0  0  0  0  0  0
    8.8264    1.8551  -59.1481 H   0  0  0  0  0  0  0  0  0  0  0  0
    9.4032    3.7330  -60.6854 H   0  0  0  0  0  0  0  0  0  0  0  0
    9.4487    6.0764  -59.8323 H   0  0  0  0  0  0  0  0  0  0  0  0
    8.9166    6.5433  -57.4415 H   0  0  0  0  0  0  0  0  0  0  0  0
    8.3392    4.6693  -55.9018 H   0  0  0  0  0  0  0  0  0  0  0  0
  1  2  1  0
  2  3  1  0
  3  4  2  0
  4  5  1  0
  5  6  2  0
  5  7  1  0
  7  8  1  0
  8  9  2  0
  9 10  1  0
 10 11  2  0
 11 12  1  0
 12 13  2  0
  4 14  1  0
 14 15  2  0
 15 16  1  0
 16 17  2  0
 17 18  1  0
 18 19  2  0
 19 20  1  0
 20 21  2  0
 15  2  1  0
 21 16  1  0
 13  8  1  0
  1 22  1  0
  1 23  1  0
  1 24  1  0
  7 25  1  0
  9 26  1  0
 10 27  1  0
 11 28  1  0
 12 29  1  0
 13 30  1  0
 14 31  1  0
 17 32  1  0
 18 33  1  0
 19 34  1  0
 20 35  1  0
 21 36  1  0
M  END
>  <meeko>  (96) 
{"is_sidechain": false}

$$$$

     RDKit          3D

 33 35  0  0  0  0  0  0  0  0999 V2000
    8.4600    4.1920  -57.6670 C   0  0  0  0  0  0  0  0  0  0  0  0
    8.3900    3.8090  -59.0590 N   0  0  0  0  0  0  0  0  0  0  0  0
    7.2210    3.3560  -59.5440 N   0  0  0  0  0  0  0  0  0  0  0  0
    7.4420    3.1490  -60.8550 C   0  0  0  0  0  0  0  0  0  0  0  0
    6.3710    2.6590  -61.7510 C   0  0  0  0  0  0  0  0  0  0  0  0
    6.4960    2.5790  -62.9710 O   0  0  0  0  0  0  0  0  0  0  0  0
    5.1930    2.3040  -61.1050 N   0  0  0  0  0  0  0  0  0  0  0  0
    4.0430    1.8470  -61.8170 C   0  0  0  0  0  0  0  0  0  0  0  0
    3.5970    0.4150  -61.7010 C   0  0  0  0  0  0  0  0  0  0  0  0
    2.7730    1.5080  -61.0870 C   0  0  0  0  0  0  0  0  0  0  0  0
    8.7890    3.4740  -61.1770 C   0  0  0  0  0  0  0  0  0  0  0  0
    9.3900    3.8690  -59.9970 C   0  0  0  0  0  0  0  0  0  0  0  0
   10.7590    4.3040  -59.7460 C   0  0  0  0  0  0  0  0  0  0  0  0
   11.7280    3.3780  -59.3440 C   0  0  0  0  0  0  0  0  0  0  0  0
   13.0400    3.7890  -59.0990 C   0  0  0  0  0  0  0  0  0  0  0  0
   13.3900    5.1310  -59.2480 C   0  0  0  0  0  0  0  0  0  0  0  0
   12.4290    6.0620  -59.6380 C   0  0  0  0  0  0  0  0  0  0  0  0
   11.1180    5.6510  -59.8850 C   0  0  0  0  0  0  0  0  0  0  0  0
    8.2982    3.3067  -57.0345 H   0  0  0  0  0  0  0  0  0  0  0  0
    9.4511    4.6189  -57.4536 H   0  0  0  0  0  0  0  0  0  0  0  0
    7.6840    4.9419  -57.4536 H   0  0  0  0  0  0  0  0  0  0  0  0
    5.0910    2.5240  -60.1250 H   0  0  0  0  0  0  0  0  0  0  0  0
    4.3058    2.5182  -62.6479 H   0  0  0  0  0  0  0  0  0  0  0  0
    3.2277   -0.1195  -62.5886 H   0  0  0  0  0  0  0  0  0  0  0  0
    4.0549   -0.5144  -61.3316 H   0  0  0  0  0  0  0  0  0  0  0  0
    1.7996    1.7744  -61.5246 H   0  0  0  0  0  0  0  0  0  0  0  0
    2.3769    1.7110  -60.0811 H   0  0  0  0  0  0  0  0  0  0  0  0
    9.2596    3.4213  -62.1699 H   0  0  0  0  0  0  0  0  0  0  0  0
   11.4546    2.3197  -59.2202 H   0  0  0  0  0  0  0  0  0  0  0  0
   13.7975    3.0543  -58.7885 H   0  0  0  0  0  0  0  0  0  0  0  0
   14.4240    5.4544  -59.0578 H   0  0  0  0  0  0  0  0  0  0  0  0
   12.7037    7.1211  -59.7512 H   0  0  0  0  0  0  0  0  0  0  0  0
   10.3621    6.3894  -60.1907 H   0  0  0  0  0  0  0  0  0  0  0  0
  1  2  1  0
  2  3  1  0
  3  4  2  0
  4  5  1  0
  5  6  2  0
  5  7  1  0
  7  8  1  0
  8  9  1  0
  9 10  1  0
  4 11  1  0
 11 12  2  0
 12 13  1  0
 13 14  2  0
 14 15  1  0
 15 16  2  0
 16 17  1  0
 17 18  2  0
 12  2  1  0
 18 13  1  0
 10  8  1  0
  1 19  1  0
  1 20  1  0
  1 21  1  0
  7 22  1  0
  8 23  1  0
  9 24  1  0
  9 25  1  0
 10 26  1  0
 10 27  1  0
 11 28  1  0
 14 29  1  0
 15 30  1  0
 16 31  1  0
 17 32  1  0
 18 33  1  0
M  END
>  <meeko>  (97) 
{"is_sidechain": false}

$$$$

     RDKit          3D

 43 45  0  0  0  0  0  0  0  0999 V2000
    7.3860   -0.0880  -53.1770 C   0  0  0  0  0  0  0  0  0  0  0  0
    8.3470   -1.0650  -53.6400 N   0  0  0  0  0  0  0  0  0  0  0  0
    9.2770   -0.8260  -54.6180 C   0  0  0  0  0  0  0  0  0  0  0  0
   10.0640   -1.9540  -54.7800 C   0  0  0  0  0  0  0  0  0  0  0  0
   11.1630   -2.0490  -55.7430 C   0  0  0  0  0  0  0  0  0  0  0  0
   11.7670   -1.0620  -56.1490 O   0  0  0  0  0  0  0  0  0  0  0  0
   11.4750   -3.3340  -56.1380 N   0  0  0  0  0  0  0  0  0  0  0  0
   12.6320   -3.6190  -56.9770 C   0  0  0  0  0  0  0  0  0  0  0  0
   13.3650   -4.8820  -56.5020 C   0  0  0  0  0  0  0  0  0  0  0  0
   12.5780   -6.1590  -56.7950 C   0  0  0  0  0  0  0  0  0  0  0  0
   12.2050   -6.2630  -58.2700 C   0  0  0  0  0  0  0  0  0  0  0  0
   11.4500   -5.0270  -58.7500 C   0  0  0  0  0  0  0  0  0  0  0  0
   12.2190   -3.7390  -58.4500 C   0  0  0  0  0  0  0  0  0  0  0  0
    9.5580   -2.9100  -53.8510 C   0  0  0  0  0  0  0  0  0  0  0  0
    8.4930   -2.3490  -53.1640 C   0  0  0  0  0  0  0  0  0  0  0  0
    7.6620   -2.9450  -52.1210 C   0  0  0  0  0  0  0  0  0  0  0  0
    6.6730   -3.8800  -52.4470 C   0  0  0  0  0  0  0  0  0  0  0  0
    5.8840   -4.4490  -51.4450 C   0  0  0  0  0  0  0  0  0  0  0  0
    6.0820   -4.0890  -50.1110 C   0  0  0  0  0  0  0  0  0  0  0  0
    7.0710   -3.1650  -49.7800 C   0  0  0  0  0  0  0  0  0  0  0  0
    7.8610   -2.5970  -50.7800 C   0  0  0  0  0  0  0  0  0  0  0  0
    7.3752   -0.0770  -52.0771 H   0  0  0  0  0  0  0  0  0  0  0  0
    7.6663    0.9078  -53.5509 H   0  0  0  0  0  0  0  0  0  0  0  0
    6.3857   -0.3518  -53.5509 H   0  0  0  0  0  0  0  0  0  0  0  0
    9.3816    0.1116  -55.1837 H   0  0  0  0  0  0  0  0  0  0  0  0
   11.0580   -4.0950  -55.6250 H   0  0  0  0  0  0  0  0  0  0  0  0
   13.3325   -2.7757  -56.8874 H   0  0  0  0  0  0  0  0  0  0  0  0
   14.3363   -4.9404  -57.0150 H   0  0  0  0  0  0  0  0  0  0  0  0
   13.4882   -4.8074  -55.4115 H   0  0  0  0  0  0  0  0  0  0  0  0
   13.1933   -7.0284  -56.5203 H   0  0  0  0  0  0  0  0  0  0  0  0
   11.6491   -6.1332  -56.2064 H   0  0  0  0  0  0  0  0  0  0  0  0
   13.1248   -6.3716  -58.8634 H   0  0  0  0  0  0  0  0  0  0  0  0
   11.5485   -7.1364  -58.3968 H   0  0  0  0  0  0  0  0  0  0  0  0
   11.2948   -5.1042  -59.8363 H   0  0  0  0  0  0  0  0  0  0  0  0
   10.4896   -4.9841  -58.2153 H   0  0  0  0  0  0  0  0  0  0  0  0
   13.1263   -3.7191  -59.0716 H   0  0  0  0  0  0  0  0  0  0  0  0
   11.5500   -2.8953  -58.6749 H   0  0  0  0  0  0  0  0  0  0  0  0
    9.9493   -3.9274  -53.7035 H   0  0  0  0  0  0  0  0  0  0  0  0
    6.5164   -4.1680  -53.4970 H   0  0  0  0  0  0  0  0  0  0  0  0
    5.1061   -5.1812  -51.7072 H   0  0  0  0  0  0  0  0  0  0  0  0
    5.4580   -4.5342  -49.3220 H   0  0  0  0  0  0  0  0  0  0  0  0
    7.2292   -2.8829  -48.7286 H   0  0  0  0  0  0  0  0  0  0  0  0
    8.6441   -1.8721  -50.5131 H   0  0  0  0  0  0  0  0  0  0  0  0
  1  2  1  0
  2  3  1  0
  3  4  2  0
  4  5  1  0
  5  6  2  0
  5  7  1  0
  7  8  1  0
  8  9  1  0
  9 10  1  0
 10 11  1  0
 11 12  1  0
 12 13  1  0
  4 14  1  0
 14 15  2  0
 15 16  1  0
 16 17  2  0
 17 18  1  0
 18 19  2  0
 19 20  1  0
 20 21  2  0
 15  2  1  0
 21 16  1  0
 13  8  1  0
  1 22  1  0
  1 23  1  0
  1 24  1  0
  3 25  1  0
  7 26  1  0
  8 27  1  0
  9 28  1  0
  9 29  1  0
 10 30  1  0
 10 31  1  0
 11 32  1  0
 11 33  1  0
 12 34  1  0
 12 35  1  0
 13 36  1  0
 13 37  1  0
 14 38  1  0
 17 39  1  0
 18 40  1  0
 19 41  1  0
 20 42  1  0
 21 43  1  0
M  END
>  <meeko>  (98) 
{"is_sidechain": false}

$$$$

     RDKit          3D

 39 41  0  0  0  0  0  0  0  0999 V2000
    9.9530   -1.3640  -54.3810 O   0  0  0  0  0  0  0  0  0  0  0  0
    8.7870   -1.0010  -54.2660 C   0  0  0  0  0  0  0  0  0  0  0  0
    7.8970   -1.5400  -53.3620 N   0  0  0  0  0  0  0  0  0  0  0  0
    8.2950   -2.4710  -52.3200 C   0  0  0  0  0  0  0  0  0  0  0  0
    7.8010   -3.8900  -52.6500 C   0  0  0  0  0  0  0  0  0  0  0  0
    6.4460   -4.1800  -52.0130 C   0  0  0  0  0  0  0  0  0  0  0  0
    6.5010   -4.0830  -50.4880 C   0  0  0  0  0  0  0  0  0  0  0  0
    7.5720   -3.1170  -49.9760 C   0  0  0  0  0  0  0  0  0  0  0  0
    7.8070   -1.9700  -50.9490 C   0  0  0  0  0  0  0  0  0  0  0  0
    8.2010    0.0770  -55.0780 C   0  0  0  0  0  0  0  0  0  0  0  0
    8.8860    1.1670  -55.6710 C   0  0  0  0  0  0  0  0  0  0  0  0
    7.9290    1.9200  -56.3210 C   0  0  0  0  0  0  0  0  0  0  0  0
    8.0280    3.1430  -57.1140 C   0  0  0  0  0  0  0  0  0  0  0  0
    8.8940    4.1720  -56.7170 C   0  0  0  0  0  0  0  0  0  0  0  0
    9.0020    5.3460  -57.4680 C   0  0  0  0  0  0  0  0  0  0  0  0
    8.2410    5.5070  -58.6230 C   0  0  0  0  0  0  0  0  0  0  0  0
    7.3720    4.4970  -59.0270 C   0  0  0  0  0  0  0  0  0  0  0  0
    7.2650    3.3230  -58.2770 C   0  0  0  0  0  0  0  0  0  0  0  0
    6.7560    1.2430  -56.1020 N   0  0  0  0  0  0  0  0  0  0  0  0
    6.8800    0.1390  -55.3450 N   0  0  0  0  0  0  0  0  0  0  0  0
    7.0110   -1.0430  -53.3000 H   0  0  0  0  0  0  0  0  0  0  0  0
    9.3926   -2.5238  -52.2708 H   0  0  0  0  0  0  0  0  0  0  0  0
    7.7102   -3.9906  -53.7416 H   0  0  0  0  0  0  0  0  0  0  0  0
    8.5296   -4.6084  -52.2462 H   0  0  0  0  0  0  0  0  0  0  0  0
    5.7127   -3.4516  -52.3896 H   0  0  0  0  0  0  0  0  0  0  0  0
    6.1568   -5.2073  -52.2793 H   0  0  0  0  0  0  0  0  0  0  0  0
    5.5208   -3.7401  -50.1253 H   0  0  0  0  0  0  0  0  0  0  0  0
    6.7594   -5.0829  -50.1093 H   0  0  0  0  0  0  0  0  0  0  0  0
    7.2469   -2.7039  -49.0097 H   0  0  0  0  0  0  0  0  0  0  0  0
    8.5141   -3.6747  -49.8693 H   0  0  0  0  0  0  0  0  0  0  0  0
    6.8636   -1.4211  -51.0862 H   0  0  0  0  0  0  0  0  0  0  0  0
    8.5868   -1.3192  -50.5267 H   0  0  0  0  0  0  0  0  0  0  0  0
    9.9656    1.3721  -55.6228 H   0  0  0  0  0  0  0  0  0  0  0  0
    9.4955    4.0539  -55.8037 H   0  0  0  0  0  0  0  0  0  0  0  0
    9.6885    6.1431  -57.1464 H   0  0  0  0  0  0  0  0  0  0  0  0
    8.3262    6.4302  -59.2150 H   0  0  0  0  0  0  0  0  0  0  0  0
    6.7687    4.6235  -59.9381 H   0  0  0  0  0  0  0  0  0  0  0  0
    6.5745    2.5309  -58.6024 H   0  0  0  0  0  0  0  0  0  0  0  0
    5.8350    1.4800  -56.4550 H   0  0  0  0  0  0  0  0  0  0  0  0
  1  2  2  0
  2  3  1  0
  3  4  1  0
  4  5  1  0
  5  6  1  0
  6  7  1  0
  7  8  1  0
  8  9  1  0
  2 10  1  0
 10 11  1  0
 11 12  2  0
 12 13  1  0
 13 14  2  0
 14 15  1  0
 15 16  2  0
 16 17  1  0
 17 18  2  0
 12 19  1  0
 19 20  1  0
  9  4  1  0
 20 10  2  0
 18 13  1  0
  3 21  1  0
  4 22  1  0
  5 23  1  0
  5 24  1  0
  6 25  1  0
  6 26  1  0
  7 27  1  0
  7 28  1  0
  8 29  1  0
  8 30  1  0
  9 31  1  0
  9 32  1  0
 11 33  1  0
 14 34  1  0
 15 35  1  0
 16 36  1  0
 17 37  1  0
 18 38  1  0
 19 39  1  0
M  END
>  <meeko>  (99) 
{"is_sidechain": false}

$$$$

     RDKit          3D

 39 41  0  0  0  0  0  0  0  0999 V2000
    6.9580    3.0070  -57.1270 O   0  0  0  0  0  0  0  0  0  0  0  0
    7.8050    2.1640  -56.8470 C   0  0  0  0  0  0  0  0  0  0  0  0
    9.0410    2.1220  -57.4630 N   0  0  0  0  0  0  0  0  0  0  0  0
    9.3850    3.0630  -58.5240 C   0  0  0  0  0  0  0  0  0  0  0  0
    9.2960    2.3840  -59.8940 C   0  0  0  0  0  0  0  0  0  0  0  0
    9.5460    3.3690  -61.0380 C   0  0  0  0  0  0  0  0  0  0  0  0
   10.4950    4.5090  -60.6660 C   0  0  0  0  0  0  0  0  0  0  0  0
   11.4890    4.0880  -59.5940 C   0  0  0  0  0  0  0  0  0  0  0  0
   10.7860    3.6650  -58.3010 C   0  0  0  0  0  0  0  0  0  0  0  0
    7.5770    1.1250  -55.8770 C   0  0  0  0  0  0  0  0  0  0  0  0
    8.4670    0.5490  -54.9920 C   0  0  0  0  0  0  0  0  0  0  0  0
    7.7390   -0.4310  -54.2630 C   0  0  0  0  0  0  0  0  0  0  0  0
    8.2150   -1.3140  -53.1910 C   0  0  0  0  0  0  0  0  0  0  0  0
    7.4490   -1.5010  -52.0290 C   0  0  0  0  0  0  0  0  0  0  0  0
    7.8920   -2.3370  -51.0000 C   0  0  0  0  0  0  0  0  0  0  0  0
    9.1100   -3.0010  -51.1190 C   0  0  0  0  0  0  0  0  0  0  0  0
    9.8840   -2.8300  -52.2650 C   0  0  0  0  0  0  0  0  0  0  0  0
    9.4400   -1.9920  -53.2940 C   0  0  0  0  0  0  0  0  0  0  0  0
    6.4660   -0.4650  -54.6950 N   0  0  0  0  0  0  0  0  0  0  0  0
    6.4150    0.4400  -55.6800 N   0  0  0  0  0  0  0  0  0  0  0  0
    9.5350    1.2400  -57.4550 H   0  0  0  0  0  0  0  0  0  0  0  0
    8.6576    3.8877  -58.4971 H   0  0  0  0  0  0  0  0  0  0  0  0
   10.0488    1.5835  -59.9434 H   0  0  0  0  0  0  0  0  0  0  0  0
    8.2790    1.9806  -60.0084 H   0  0  0  0  0  0  0  0  0  0  0  0
    9.9805    2.8166  -61.8842 H   0  0  0  0  0  0  0  0  0  0  0  0
    8.5769    3.8244  -61.2900 H   0  0  0  0  0  0  0  0  0  0  0  0
   11.0495    4.8184  -61.5642 H   0  0  0  0  0  0  0  0  0  0  0  0
    9.8933    5.3394  -60.2679 H   0  0  0  0  0  0  0  0  0  0  0  0
   12.0814    3.2411  -59.9706 H   0  0  0  0  0  0  0  0  0  0  0  0
   12.1325    4.9507  -59.3668 H   0  0  0  0  0  0  0  0  0  0  0  0
   11.4105    2.9130  -57.7966 H   0  0  0  0  0  0  0  0  0  0  0  0
   10.6519    4.5742  -57.6966 H   0  0  0  0  0  0  0  0  0  0  0  0
    9.5316    0.7995  -54.8740 H   0  0  0  0  0  0  0  0  0  0  0  0
    6.4849   -0.9813  -51.9269 H   0  0  0  0  0  0  0  0  0  0  0  0
    7.2786   -2.4702  -50.0967 H   0  0  0  0  0  0  0  0  0  0  0  0
    9.4604   -3.6591  -50.3102 H   0  0  0  0  0  0  0  0  0  0  0  0
   10.8460   -3.3548  -52.3610 H   0  0  0  0  0  0  0  0  0  0  0  0
   10.0584   -1.8629  -54.1945 H   0  0  0  0  0  0  0  0  0  0  0  0
    5.5470    0.5320  -56.1950 H   0  0  0  0  0  0  0  0  0  0  0  0
  1  2  2  0
  2  3  1  0
  3  4  1  0
  4  5  1  0
  5  6  1  0
  6  7  1  0
  7  8  1  0
  8  9  1  0
  2 10  1  0
 10 11  2  0
 11 12  1  0
 12 13  1  0
 13 14  2  0
 14 15  1  0
 15 16  2  0
 16 17  1  0
 17 18  2  0
 12 19  2  0
 19 20  1  0
  9  4  1  0
 20 10  1  0
 18 13  1  0
  3 21  1  0
  4 22  1  0
  5 23  1  0
  5 24  1  0
  6 25  1  0
  6 26  1  0
  7 27  1  0
  7 28  1  0
  8 29  1  0
  8 30  1  0
  9 31  1  0
  9 32  1  0
 11 33  1  0
 14 34  1  0
 15 35  1  0
 16 36  1  0
 17 37  1  0
 18 38  1  0
 20 39  1  0
M  END
>  <meeko>  (100) 
{"is_sidechain": false}

$$$$

     RDKit          3D

 45 47  0  0  0  0  0  0  0  0999 V2000
   10.7530   -3.1880  -54.4030 C   0  0  0  0  0  0  0  0  0  0  0  0
   10.5850   -1.8570  -53.6930 C   0  0  0  0  0  0  0  0  0  0  0  0
    9.3120   -1.2280  -54.0000 N   0  0  0  0  0  0  0  0  0  0  0  0
    9.2790   -0.2600  -54.9420 N   0  0  0  0  0  0  0  0  0  0  0  0
    7.9920    0.1450  -54.9550 C   0  0  0  0  0  0  0  0  0  0  0  0
    7.5190    1.2080  -55.8540 C   0  0  0  0  0  0  0  0  0  0  0  0
    6.3320    1.4010  -56.0960 O   0  0  0  0  0  0  0  0  0  0  0  0
    8.5470    1.9490  -56.4000 N   0  0  0  0  0  0  0  0  0  0  0  0
    8.3450    2.9140  -57.4630 C   0  0  0  0  0  0  0  0  0  0  0  0
    9.2940    2.6530  -58.6350 C   0  0  0  0  0  0  0  0  0  0  0  0
    9.0270    3.6010  -59.8060 C   0  0  0  0  0  0  0  0  0  0  0  0
    8.4420    4.9500  -59.3840 C   0  0  0  0  0  0  0  0  0  0  0  0
    8.9140    5.3600  -57.9960 C   0  0  0  0  0  0  0  0  0  0  0  0
    8.5050    4.3450  -56.9260 C   0  0  0  0  0  0  0  0  0  0  0  0
    7.2210   -0.5880  -54.0220 C   0  0  0  0  0  0  0  0  0  0  0  0
    8.0900   -1.4770  -53.4220 C   0  0  0  0  0  0  0  0  0  0  0  0
    7.8380   -2.4610  -52.3800 C   0  0  0  0  0  0  0  0  0  0  0  0
    7.2930   -3.7070  -52.7080 C   0  0  0  0  0  0  0  0  0  0  0  0
    7.0470   -4.6520  -51.7100 C   0  0  0  0  0  0  0  0  0  0  0  0
    7.3520   -4.3590  -50.3810 C   0  0  0  0  0  0  0  0  0  0  0  0
    7.9050   -3.1220  -50.0500 C   0  0  0  0  0  0  0  0  0  0  0  0
    8.1500   -2.1770  -51.0460 C   0  0  0  0  0  0  0  0  0  0  0  0
   10.8543   -3.9908  -53.6579 H   0  0  0  0  0  0  0  0  0  0  0  0
    9.8721   -3.3814  -55.0328 H   0  0  0  0  0  0  0  0  0  0  0  0
   11.6543   -3.1564  -55.0328 H   0  0  0  0  0  0  0  0  0  0  0  0
   10.6446   -2.0246  -52.6075 H   0  0  0  0  0  0  0  0  0  0  0  0
   11.3852   -1.1863  -54.0392 H   0  0  0  0  0  0  0  0  0  0  0  0
    9.4740    1.5790  -56.2030 H   0  0  0  0  0  0  0  0  0  0  0  0
    7.3178    2.8010  -57.8399 H   0  0  0  0  0  0  0  0  0  0  0  0
   10.3297    2.7937  -58.2923 H   0  0  0  0  0  0  0  0  0  0  0  0
    9.1291    1.6233  -58.9850 H   0  0  0  0  0  0  0  0  0  0  0  0
    9.9774    3.7830  -60.3291 H   0  0  0  0  0  0  0  0  0  0  0  0
    8.2800    3.1140  -60.4500 H   0  0  0  0  0  0  0  0  0  0  0  0
    8.7557    5.7165  -60.1079 H   0  0  0  0  0  0  0  0  0  0  0  0
    7.3463    4.8555  -59.3591 H   0  0  0  0  0  0  0  0  0  0  0  0
   10.0108    5.4438  -58.0047 H   0  0  0  0  0  0  0  0  0  0  0  0
    8.4423    6.3223  -57.7482 H   0  0  0  0  0  0  0  0  0  0  0  0
    9.2758    4.3376  -56.1413 H   0  0  0  0  0  0  0  0  0  0  0  0
    7.5218    4.6577  -56.5445 H   0  0  0  0  0  0  0  0  0  0  0  0
    6.1465   -0.4727  -53.8164 H   0  0  0  0  0  0  0  0  0  0  0  0
    7.0574   -3.9431  -53.7562 H   0  0  0  0  0  0  0  0  0  0  0  0
    6.6125   -5.6280  -51.9721 H   0  0  0  0  0  0  0  0  0  0  0  0
    7.1566   -5.1028  -49.5945 H   0  0  0  0  0  0  0  0  0  0  0  0
    8.1481   -2.8916  -49.0022 H   0  0  0  0  0  0  0  0  0  0  0  0
    8.5904   -1.2043  -50.7817 H   0  0  0  0  0  0  0  0  0  0  0  0
  1  2  1  0
  2  3  1  0
  3  4  1  0
  4  5  2  0
  5  6  1  0
  6  7  2  0
  6  8  1  0
  8  9  1  0
  9 10  1  0
 10 11  1  0
 11 12  1  0
 12 13  1  0
 13 14  1  0
  5 15  1  0
 15 16  2  0
 16 17  1  0
 17 18  2  0
 18 19  1  0
 19 20  2  0
 20 21  1  0
 21 22  2  0
 16  3  1  0
 22 17  1  0
 14  9  1  0
  1 23  1  0
  1 24  1  0
  1 25  1  0
  2 26  1  0
  2 27  1  0
  8 28  1  0
  9 29  1  0
 10 30  1  0
 10 31  1  0
 11 32  1  0
 11 33  1  0
 12 34  1  0
 12 35  1  0
 13 36  1  0
 13 37  1  0
 14 38  1  0
 14 39  1  0
 15 40  1  0
 18 41  1  0
 19 42  1  0
 20 43  1  0
 21 44  1  0
 22 45  1  0
M  END
>  <meeko>  (101) 
{"is_sidechain": false}

$$$$

     RDKit          3D

 39 41  0  0  0  0  0  0  0  0999 V2000
    7.2530    2.9580  -56.9190 C   0  0  0  0  0  0  0  0  0  0  0  0
    8.3840    2.0820  -56.7060 N   0  0  0  0  0  0  0  0  0  0  0  0
    8.2640    1.0730  -55.8190 N   0  0  0  0  0  0  0  0  0  0  0  0
    9.4870    0.5030  -55.8010 C   0  0  0  0  0  0  0  0  0  0  0  0
    9.8040   -0.6420  -54.9330 C   0  0  0  0  0  0  0  0  0  0  0  0
    9.2450   -0.8400  -53.8590 O   0  0  0  0  0  0  0  0  0  0  0  0
   10.7760   -1.4610  -55.4580 N   0  0  0  0  0  0  0  0  0  0  0  0
   11.1180   -2.7340  -54.8850 C   0  0  0  0  0  0  0  0  0  0  0  0
   11.5110   -3.7210  -55.9540 C   0  0  0  0  0  0  0  0  0  0  0  0
   11.5020   -3.3400  -57.3040 C   0  0  0  0  0  0  0  0  0  0  0  0
   11.8850   -4.2430  -58.2980 C   0  0  0  0  0  0  0  0  0  0  0  0
   12.2850   -5.5320  -57.9510 C   0  0  0  0  0  0  0  0  0  0  0  0
   12.3090   -5.9180  -56.6120 C   0  0  0  0  0  0  0  0  0  0  0  0
   11.9270   -5.0160  -55.6170 C   0  0  0  0  0  0  0  0  0  0  0  0
   10.3630    1.1590  -56.7000 C   0  0  0  0  0  0  0  0  0  0  0  0
    9.6240    2.1610  -57.2950 C   0  0  0  0  0  0  0  0  0  0  0  0
   10.0190    3.1400  -58.3010 C   0  0  0  0  0  0  0  0  0  0  0  0
   10.6060    4.3560  -57.9280 C   0  0  0  0  0  0  0  0  0  0  0  0
   10.9800    5.2880  -58.8990 C   0  0  0  0  0  0  0  0  0  0  0  0
   10.7660    5.0140  -60.2480 C   0  0  0  0  0  0  0  0  0  0  0  0
   10.1720    3.8110  -60.6290 C   0  0  0  0  0  0  0  0  0  0  0  0
    9.7980    2.8800  -59.6580 C   0  0  0  0  0  0  0  0  0  0  0  0
    6.8455    3.2736  -55.9472 H   0  0  0  0  0  0  0  0  0  0  0  0
    7.5766    3.8434  -57.4859 H   0  0  0  0  0  0  0  0  0  0  0  0
    6.4767    2.4233  -57.4859 H   0  0  0  0  0  0  0  0  0  0  0  0
   11.0560   -1.2380  -56.4090 H   0  0  0  0  0  0  0  0  0  0  0  0
   11.9611   -2.6010  -54.1911 H   0  0  0  0  0  0  0  0  0  0  0  0
   10.2384   -3.1259  -54.3533 H   0  0  0  0  0  0  0  0  0  0  0  0
   11.1909   -2.3221  -57.5818 H   0  0  0  0  0  0  0  0  0  0  0  0
   11.8710   -3.9369  -59.3545 H   0  0  0  0  0  0  0  0  0  0  0  0
   12.5819   -6.2451  -58.7342 H   0  0  0  0  0  0  0  0  0  0  0  0
   12.6292   -6.9343  -56.3388 H   0  0  0  0  0  0  0  0  0  0  0  0
   11.9528   -5.3241  -54.5613 H   0  0  0  0  0  0  0  0  0  0  0  0
   11.4200    0.9182  -56.8864 H   0  0  0  0  0  0  0  0  0  0  0  0
   10.7735    4.5783  -56.8638 H   0  0  0  0  0  0  0  0  0  0  0  0
   11.4438    6.2390  -58.5982 H   0  0  0  0  0  0  0  0  0  0  0  0
   11.0654    5.7462  -61.0124 H   0  0  0  0  0  0  0  0  0  0  0  0
    9.9983    3.5958  -61.6937 H   0  0  0  0  0  0  0  0  0  0  0  0
    9.3257    1.9343  -59.9623 H   0  0  0  0  0  0  0  0  0  0  0  0
  1  2  1  0
  2  3  1  0
  3  4  2  0
  4  5  1  0
  5  6  2  0
  5  7  1  0
  7  8  1  0
  8  9  1  0
  9 10  2  0
 10 11  1  0
 11 12  2  0
 12 13  1  0
 13 14  2  0
  4 15  1  0
 15 16  2  0
 16 17  1  0
 17 18  2  0
 18 19  1  0
 19 20  2  0
 20 21  1  0
 21 22  2  0
 16  2  1  0
 22 17  1  0
 14  9  1  0
  1 23  1  0
  1 24  1  0
  1 25  1  0
  7 26  1  0
  8 27  1  0
  8 28  1  0
 10 29  1  0
 11 30  1  0
 12 31  1  0
 13 32  1  0
 14 33  1  0
 15 34  1  0
 18 35  1  0
 19 36  1  0
 20 37  1  0
 21 38  1  0
 22 39  1  0
M  END
>  <meeko>  (102) 
{"is_sidechain": false}

$$$$

     RDKit          3D

 45 47  0  0  0  0  0  0  0  0999 V2000
   10.7100   -2.7750  -53.6950 C   0  0  0  0  0  0  0  0  0  0  0  0
    9.7030   -1.7800  -53.9880 N   0  0  0  0  0  0  0  0  0  0  0  0
    9.9610   -0.8570  -54.9400 N   0  0  0  0  0  0  0  0  0  0  0  0
    8.8750   -0.0580  -54.9250 C   0  0  0  0  0  0  0  0  0  0  0  0
    8.7530    1.1070  -55.8160 C   0  0  0  0  0  0  0  0  0  0  0  0
    7.6720    1.5870  -56.1450 O   0  0  0  0  0  0  0  0  0  0  0  0
    9.9730    1.6070  -56.2220 N   0  0  0  0  0  0  0  0  0  0  0  0
   10.0900    2.8690  -56.9120 C   0  0  0  0  0  0  0  0  0  0  0  0
   10.6860    2.7140  -58.3200 C   0  0  0  0  0  0  0  0  0  0  0  0
    9.5900    2.2430  -59.2950 C   0  0  0  0  0  0  0  0  0  0  0  0
    9.9510    2.5570  -60.7420 C   0  0  0  0  0  0  0  0  0  0  0  0
   10.0870    4.0610  -60.9750 C   0  0  0  0  0  0  0  0  0  0  0  0
   10.5010    4.8360  -59.7230 C   0  0  0  0  0  0  0  0  0  0  0  0
   11.3880    4.0000  -58.8070 C   0  0  0  0  0  0  0  0  0  0  0  0
    7.9370   -0.4940  -53.9590 C   0  0  0  0  0  0  0  0  0  0  0  0
    8.4790   -1.6250  -53.3820 C   0  0  0  0  0  0  0  0  0  0  0  0
    7.9410   -2.4880  -52.3350 C   0  0  0  0  0  0  0  0  0  0  0  0
    8.1660   -2.2000  -50.9830 C   0  0  0  0  0  0  0  0  0  0  0  0
    7.6480   -3.0330  -49.9880 C   0  0  0  0  0  0  0  0  0  0  0  0
    6.9070   -4.1610  -50.3380 C   0  0  0  0  0  0  0  0  0  0  0  0
    6.6890   -4.4610  -51.6820 C   0  0  0  0  0  0  0  0  0  0  0  0
    7.2070   -3.6290  -52.6770 C   0  0  0  0  0  0  0  0  0  0  0  0
   10.8159   -2.8796  -52.6051 H   0  0  0  0  0  0  0  0  0  0  0  0
   10.4089   -3.7401  -54.1285 H   0  0  0  0  0  0  0  0  0  0  0  0
   11.6714   -2.4624  -54.1285 H   0  0  0  0  0  0  0  0  0  0  0  0
   10.7680    1.1930  -55.7400 H   0  0  0  0  0  0  0  0  0  0  0  0
    9.0896    3.3179  -56.9994 H   0  0  0  0  0  0  0  0  0  0  0  0
   10.7692    3.5083  -56.3289 H   0  0  0  0  0  0  0  0  0  0  0  0
   11.4733    1.9468  -58.2808 H   0  0  0  0  0  0  0  0  0  0  0  0
    9.4603    1.1560  -59.1876 H   0  0  0  0  0  0  0  0  0  0  0  0
    8.6599    2.7767  -59.0497 H   0  0  0  0  0  0  0  0  0  0  0  0
   10.9072    2.0704  -60.9849 H   0  0  0  0  0  0  0  0  0  0  0  0
    9.1433    2.1809  -61.3871 H   0  0  0  0  0  0  0  0  0  0  0  0
   10.8463    4.2257  -61.7537 H   0  0  0  0  0  0  0  0  0  0  0  0
    9.0962    4.4336  -61.2740 H   0  0  0  0  0  0  0  0  0  0  0  0
   11.0534    5.7369  -60.0284 H   0  0  0  0  0  0  0  0  0  0  0  0
    9.5891    5.1006  -59.1676 H   0  0  0  0  0  0  0  0  0  0  0  0
   12.2981    3.7188  -59.3571 H   0  0  0  0  0  0  0  0  0  0  0  0
   11.6236    4.6089  -57.9217 H   0  0  0  0  0  0  0  0  0  0  0  0
    6.9713   -0.0262  -53.7169 H   0  0  0  0  0  0  0  0  0  0  0  0
    8.7536   -1.3133  -50.7030 H   0  0  0  0  0  0  0  0  0  0  0  0
    7.8249   -2.7987  -48.9279 H   0  0  0  0  0  0  0  0  0  0  0  0
    6.4947   -4.8137  -49.5544 H   0  0  0  0  0  0  0  0  0  0  0  0
    6.1087   -5.3535  -51.9589 H   0  0  0  0  0  0  0  0  0  0  0  0
    7.0368   -3.8723  -53.7362 H   0  0  0  0  0  0  0  0  0  0  0  0
  1  2  1  0
  2  3  1  0
  3  4  2  0
  4  5  1  0
  5  6  2  0
  5  7  1  0
  7  8  1  0
  8  9  1  0
  9 10  1  0
 10 11  1  0
 11 12  1  0
 12 13  1  0
 13 14  1  0
  4 15  1  0
 15 16  2  0
 16 17  1  0
 17 18  2  0
 18 19  1  0
 19 20  2  0
 20 21  1  0
 21 22  2  0
 16  2  1  0
 22 17  1  0
 14  9  1  0
  1 23  1  0
  1 24  1  0
  1 25  1  0
  7 26  1  0
  8 27  1  0
  8 28  1  0
  9 29  1  0
 10 30  1  0
 10 31  1  0
 11 32  1  0
 11 33  1  0
 12 34  1  0
 12 35  1  0
 13 36  1  0
 13 37  1  0
 14 38  1  0
 14 39  1  0
 15 40  1  0
 18 41  1  0
 19 42  1  0
 20 43  1  0
 21 44  1  0
 22 45  1  0
M  END
>  <meeko>  (103) 
{"is_sidechain": false}

$$$$

     RDKit          3D

 42 44  0  0  0  0  0  0  0  0999 V2000
    5.6850    1.1110  -56.1880 C   0  0  0  0  0  0  0  0  0  0  0  0
    7.1250    1.2220  -56.1160 N   0  0  0  0  0  0  0  0  0  0  0  0
    7.7690    1.8930  -57.0890 N   0  0  0  0  0  0  0  0  0  0  0  0
    9.0690    1.8130  -56.7690 C   0  0  0  0  0  0  0  0  0  0  0  0
   10.1090    2.4170  -57.6120 C   0  0  0  0  0  0  0  0  0  0  0  0
   11.3670    2.7550  -57.0920 C   0  0  0  0  0  0  0  0  0  0  0  0
   12.3470    3.3320  -57.9060 C   0  0  0  0  0  0  0  0  0  0  0  0
   12.0820    3.5800  -59.2510 C   0  0  0  0  0  0  0  0  0  0  0  0
   10.8400    3.2490  -59.7850 C   0  0  0  0  0  0  0  0  0  0  0  0
    9.8610    2.6710  -58.9710 C   0  0  0  0  0  0  0  0  0  0  0  0
    9.2220    1.0940  -55.5520 C   0  0  0  0  0  0  0  0  0  0  0  0
    7.9520    0.7290  -55.1370 C   0  0  0  0  0  0  0  0  0  0  0  0
    7.4990   -0.0120  -53.9810 C   0  0  0  0  0  0  0  0  0  0  0  0
    6.6190    0.3890  -53.2270 O   0  0  0  0  0  0  0  0  0  0  0  0
    8.1490   -1.2120  -53.7690 N   0  0  0  0  0  0  0  0  0  0  0  0
    7.9110   -2.0140  -52.5780 C   0  0  0  0  0  0  0  0  0  0  0  0
    6.9310   -3.1560  -52.8900 C   0  0  0  0  0  0  0  0  0  0  0  0
    7.0760   -4.3620  -51.9570 C   0  0  0  0  0  0  0  0  0  0  0  0
    7.6170   -3.9650  -50.5910 C   0  0  0  0  0  0  0  0  0  0  0  0
    8.9990   -3.3180  -50.6950 C   0  0  0  0  0  0  0  0  0  0  0  0
    9.2230   -2.5540  -52.0030 C   0  0  0  0  0  0  0  0  0  0  0  0
    5.2684    1.0789  -55.1705 H   0  0  0  0  0  0  0  0  0  0  0  0
    5.2766    1.9803  -56.7242 H   0  0  0  0  0  0  0  0  0  0  0  0
    5.4146    0.1894  -56.7242 H   0  0  0  0  0  0  0  0  0  0  0  0
   11.5855    2.5639  -56.0310 H   0  0  0  0  0  0  0  0  0  0  0  0
   13.3291    3.5905  -57.4833 H   0  0  0  0  0  0  0  0  0  0  0  0
   12.8526    4.0364  -59.8896 H   0  0  0  0  0  0  0  0  0  0  0  0
   10.6287    3.4421  -60.8471 H   0  0  0  0  0  0  0  0  0  0  0  0
    8.8824    2.4114  -59.4012 H   0  0  0  0  0  0  0  0  0  0  0  0
   10.1685    0.8703  -55.0381 H   0  0  0  0  0  0  0  0  0  0  0  0
    8.9980   -1.3840  -54.2880 H   0  0  0  0  0  0  0  0  0  0  0  0
    7.4569   -1.3679  -51.8122 H   0  0  0  0  0  0  0  0  0  0  0  0
    5.9055   -2.7683  -52.8000 H   0  0  0  0  0  0  0  0  0  0  0  0
    7.1585   -3.5067  -53.9075 H   0  0  0  0  0  0  0  0  0  0  0  0
    6.0892   -4.8300  -51.8257 H   0  0  0  0  0  0  0  0  0  0  0  0
    7.7907   -5.0616  -52.4150 H   0  0  0  0  0  0  0  0  0  0  0  0
    6.9225   -3.2492  -50.1270 H   0  0  0  0  0  0  0  0  0  0  0  0
    7.7103   -4.8760  -49.9816 H   0  0  0  0  0  0  0  0  0  0  0  0
    9.1175   -2.6150  -49.8573 H   0  0  0  0  0  0  0  0  0  0  0  0
    9.7384   -4.1319  -50.6669 H   0  0  0  0  0  0  0  0  0  0  0  0
    9.9015   -1.7099  -51.8105 H   0  0  0  0  0  0  0  0  0  0  0  0
    9.6564   -3.2505  -52.7358 H   0  0  0  0  0  0  0  0  0  0  0  0
  1  2  1  0
  2  3  1  0
  3  4  2  0
  4  5  1  0
  5  6  2  0
  6  7  1  0
  7  8  2  0
  8  9  1  0
  9 10  2  0
  4 11  1  0
 11 12  2  0
 12 13  1  0
 13 14  2  0
 13 15  1  0
 15 16  1  0
 16 17  1  0
 17 18  1  0
 18 19  1  0
 19 20  1  0
 20 21  1  0
 12  2  1  0
 21 16  1  0
 10  5  1  0
  1 22  1  0
  1 23  1  0
  1 24  1  0
  6 25  1  0
  7 26  1  0
  8 27  1  0
  9 28  1  0
 10 29  1  0
 11 30  1  0
 15 31  1  0
 16 32  1  0
 17 33  1  0
 17 34  1  0
 18 35  1  0
 18 36  1  0
 19 37  1  0
 19 38  1  0
 20 39  1  0
 20 40  1  0
 21 41  1  0
 21 42  1  0
M  END
>  <meeko>  (104) 
{"is_sidechain": false}

$$$$

     RDKit          3D

 38 39  0  0  0  0  0  0  0  0999 V2000
    8.4640   -0.2670  -53.5400 C   0  0  0  0  0  0  0  0  0  0  0  0
    9.1020   -1.4910  -53.9660 N   0  0  0  0  0  0  0  0  0  0  0  0
    9.9590   -1.4470  -55.0010 N   0  0  0  0  0  0  0  0  0  0  0  0
   10.3470   -2.7200  -55.1920 C   0  0  0  0  0  0  0  0  0  0  0  0
   11.3050   -3.0860  -56.2590 C   0  0  0  0  0  0  0  0  0  0  0  0
   11.8420   -2.2560  -56.9880 O   0  0  0  0  0  0  0  0  0  0  0  0
   11.5350   -4.4490  -56.3830 N   0  0  0  0  0  0  0  0  0  0  0  0
   12.3770   -5.0640  -57.4200 C   0  0  0  0  0  0  0  0  0  0  0  0
   12.3300   -6.5910  -57.2220 C   0  0  0  0  0  0  0  0  0  0  0  0
   11.8410   -4.7390  -58.8230 C   0  0  0  0  0  0  0  0  0  0  0  0
   13.8410   -4.6130  -57.2930 C   0  0  0  0  0  0  0  0  0  0  0  0
    9.7170   -3.5670  -54.2350 C   0  0  0  0  0  0  0  0  0  0  0  0
    8.9340   -2.7500  -53.4440 C   0  0  0  0  0  0  0  0  0  0  0  0
    8.0890   -3.0850  -52.3040 C   0  0  0  0  0  0  0  0  0  0  0  0
    8.4340   -2.6690  -51.0120 C   0  0  0  0  0  0  0  0  0  0  0  0
    7.6200   -2.9960  -49.9250 C   0  0  0  0  0  0  0  0  0  0  0  0
    6.4600   -3.7430  -50.1220 C   0  0  0  0  0  0  0  0  0  0  0  0
    6.1140   -4.1680  -51.4030 C   0  0  0  0  0  0  0  0  0  0  0  0
    6.9270   -3.8430  -52.4920 C   0  0  0  0  0  0  0  0  0  0  0  0
    8.4434   -0.2275  -52.4409 H   0  0  0  0  0  0  0  0  0  0  0  0
    9.0278    0.5944  -53.9274 H   0  0  0  0  0  0  0  0  0  0  0  0
    7.4349   -0.2358  -53.9274 H   0  0  0  0  0  0  0  0  0  0  0  0
   10.9030   -5.0610  -55.8880 H   0  0  0  0  0  0  0  0  0  0  0  0
   12.3229   -6.8212  -56.1464 H   0  0  0  0  0  0  0  0  0  0  0  0
   11.4190   -6.9934  -57.6891 H   0  0  0  0  0  0  0  0  0  0  0  0
   13.2145   -7.0487  -57.6891 H   0  0  0  0  0  0  0  0  0  0  0  0
   10.9034   -4.1705  -58.7347 H   0  0  0  0  0  0  0  0  0  0  0  0
   12.5836   -4.1389  -59.3693 H   0  0  0  0  0  0  0  0  0  0  0  0
   11.6523   -5.6749  -59.3693 H   0  0  0  0  0  0  0  0  0  0  0  0
   14.1083   -4.5306  -56.2292 H   0  0  0  0  0  0  0  0  0  0  0  0
   14.4956   -5.3511  -57.7795 H   0  0  0  0  0  0  0  0  0  0  0  0
   13.9667   -3.6345  -57.7795 H   0  0  0  0  0  0  0  0  0  0  0  0
    9.8318   -4.6572  -54.1442 H   0  0  0  0  0  0  0  0  0  0  0  0
    9.3504   -2.0819  -50.8525 H   0  0  0  0  0  0  0  0  0  0  0  0
    7.8947   -2.6638  -48.9130 H   0  0  0  0  0  0  0  0  0  0  0  0
    5.8175   -3.9971  -49.2660 H   0  0  0  0  0  0  0  0  0  0  0  0
    5.1998   -4.7600  -51.5572 H   0  0  0  0  0  0  0  0  0  0  0  0
    6.6529   -4.1841  -53.5012 H   0  0  0  0  0  0  0  0  0  0  0  0
  1  2  1  0
  2  3  1  0
  3  4  2  0
  4  5  1  0
  5  6  2  0
  5  7  1  0
  7  8  1  0
  8  9  1  0
  8 10  1  0
  8 11  1  0
  4 12  1  0
 12 13  2  0
 13 14  1  0
 14 15  2  0
 15 16  1  0
 16 17  2  0
 17 18  1  0
 18 19  2  0
 13  2  1  0
 19 14  1  0
  1 20  1  0
  1 21  1  0
  1 22  1  0
  7 23  1  0
  9 24  1  0
  9 25  1  0
  9 26  1  0
 10 27  1  0
 10 28  1  0
 10 29  1  0
 11 30  1  0
 11 31  1  0
 11 32  1  0
 12 33  1  0
 15 34  1  0
 16 35  1  0
 17 36  1  0
 18 37  1  0
 19 38  1  0
M  END
>  <meeko>  (105) 
{"is_sidechain": false}

$$$$

     RDKit          3D

 39 41  0  0  0  0  0  0  0  0999 V2000
    9.3430    2.8500  -61.3160 C   0  0  0  0  0  0  0  0  0  0  0  0
    9.0780    2.9300  -59.8970 N   0  0  0  0  0  0  0  0  0  0  0  0
    7.9860    2.3090  -59.4080 N   0  0  0  0  0  0  0  0  0  0  0  0
    7.9720    2.6180  -58.0980 C   0  0  0  0  0  0  0  0  0  0  0  0
    6.9220    2.2090  -57.1350 C   0  0  0  0  0  0  0  0  0  0  0  0
    5.7820    2.6690  -57.2530 O   0  0  0  0  0  0  0  0  0  0  0  0
    7.2210    1.3050  -56.1030 N   0  0  0  0  0  0  0  0  0  0  0  0
    8.5780    0.9240  -55.7070 C   0  0  0  0  0  0  0  0  0  0  0  0
    8.6460    0.4350  -54.2630 C   0  0  0  0  0  0  0  0  0  0  0  0
    7.6870   -0.7240  -53.9990 C   0  0  0  0  0  0  0  0  0  0  0  0
    6.3970   -0.6290  -54.8160 C   0  0  0  0  0  0  0  0  0  0  0  0
    6.1180    0.7910  -55.2960 C   0  0  0  0  0  0  0  0  0  0  0  0
    9.0830    3.4490  -57.7820 C   0  0  0  0  0  0  0  0  0  0  0  0
    9.8030    3.6070  -58.9480 C   0  0  0  0  0  0  0  0  0  0  0  0
   11.0330    4.3530  -59.1940 C   0  0  0  0  0  0  0  0  0  0  0  0
   10.9920    5.6470  -59.7270 C   0  0  0  0  0  0  0  0  0  0  0  0
   12.1760    6.3520  -59.9600 C   0  0  0  0  0  0  0  0  0  0  0  0
   13.4060    5.7670  -59.6660 C   0  0  0  0  0  0  0  0  0  0  0  0
   13.4560    4.4750  -59.1450 C   0  0  0  0  0  0  0  0  0  0  0  0
   12.2730    3.7690  -58.9120 C   0  0  0  0  0  0  0  0  0  0  0  0
   10.3847    2.5355  -61.4773 H   0  0  0  0  0  0  0  0  0  0  0  0
    8.6634    2.1170  -61.7752 H   0  0  0  0  0  0  0  0  0  0  0  0
    9.1825    3.8366  -61.7752 H   0  0  0  0  0  0  0  0  0  0  0  0
    8.9265    0.1182  -56.3698 H   0  0  0  0  0  0  0  0  0  0  0  0
    9.2150    1.8170  -55.7895 H   0  0  0  0  0  0  0  0  0  0  0  0
    9.6722    0.1007  -54.0504 H   0  0  0  0  0  0  0  0  0  0  0  0
    8.3529    1.2704  -53.6101 H   0  0  0  0  0  0  0  0  0  0  0  0
    8.1956   -1.6653  -54.2547 H   0  0  0  0  0  0  0  0  0  0  0  0
    7.4074   -0.6847  -52.9359 H   0  0  0  0  0  0  0  0  0  0  0  0
    6.4844   -1.2877  -55.6926 H   0  0  0  0  0  0  0  0  0  0  0  0
    5.5640   -0.9335  -54.1654 H   0  0  0  0  0  0  0  0  0  0  0  0
    5.2003    0.7903  -55.9025 H   0  0  0  0  0  0  0  0  0  0  0  0
    6.0017    1.4387  -54.4145 H   0  0  0  0  0  0  0  0  0  0  0  0
    9.3214    3.8814  -56.7990 H   0  0  0  0  0  0  0  0  0  0  0  0
   10.0231    6.1110  -59.9635 H   0  0  0  0  0  0  0  0  0  0  0  0
   12.1369    7.3696  -60.3758 H   0  0  0  0  0  0  0  0  0  0  0  0
   14.3372    6.3245  -59.8450 H   0  0  0  0  0  0  0  0  0  0  0  0
   14.4271    4.0112  -58.9173 H   0  0  0  0  0  0  0  0  0  0  0  0
   12.3166    2.7482  -58.5045 H   0  0  0  0  0  0  0  0  0  0  0  0
  1  2  1  0
  2  3  1  0
  3  4  2  0
  4  5  1  0
  5  6  2  0
  5  7  1  0
  7  8  1  0
  8  9  1  0
  9 10  1  0
 10 11  1  0
 11 12  1  0
  4 13  1  0
 13 14  2  0
 14 15  1  0
 15 16  2  0
 16 17  1  0
 17 18  2  0
 18 19  1  0
 19 20  2  0
 14  2  1  0
 20 15  1  0
 12  7  1  0
  1 21  1  0
  1 22  1  0
  1 23  1  0
  8 24  1  0
  8 25  1  0
  9 26  1  0
  9 27  1  0
 10 28  1  0
 10 29  1  0
 11 30  1  0
 11 31  1  0
 12 32  1  0
 12 33  1  0
 13 34  1  0
 16 35  1  0
 17 36  1  0
 18 37  1  0
 19 38  1  0
 20 39  1  0
M  END
>  <meeko>  (106) 
{"is_sidechain": false}

$$$$

     RDKit          3D

 38 39  0  0  0  0  0  0  0  0999 V2000
    3.1710    0.7740  -63.1980 C   0  0  0  0  0  0  0  0  0  0  0  0
    2.7510    1.9770  -62.3680 C   0  0  0  0  0  0  0  0  0  0  0  0
    3.3520    1.9240  -60.9630 C   0  0  0  0  0  0  0  0  0  0  0  0
    4.6140    1.0670  -60.8850 C   0  0  0  0  0  0  0  0  0  0  0  0
    5.7590    1.8150  -60.4260 N   0  0  0  0  0  0  0  0  0  0  0  0
    6.5590    2.5750  -61.2510 C   0  0  0  0  0  0  0  0  0  0  0  0
    6.4050    2.6640  -62.4650 O   0  0  0  0  0  0  0  0  0  0  0  0
    7.6250    3.2830  -60.5250 C   0  0  0  0  0  0  0  0  0  0  0  0
    8.9980    3.3360  -60.8660 C   0  0  0  0  0  0  0  0  0  0  0  0
    9.6020    4.1260  -59.9090 C   0  0  0  0  0  0  0  0  0  0  0  0
   10.9990    4.5220  -59.7720 C   0  0  0  0  0  0  0  0  0  0  0  0
   11.9630    3.5760  -59.4050 C   0  0  0  0  0  0  0  0  0  0  0  0
   13.3030    3.9450  -59.2730 C   0  0  0  0  0  0  0  0  0  0  0  0
   13.6900    5.2620  -59.5130 C   0  0  0  0  0  0  0  0  0  0  0  0
   12.7400    6.2090  -59.8920 C   0  0  0  0  0  0  0  0  0  0  0  0
   11.3990    5.8410  -60.0240 C   0  0  0  0  0  0  0  0  0  0  0  0
    8.5910    4.4640  -59.0410 N   0  0  0  0  0  0  0  0  0  0  0  0
    8.7010    5.2240  -57.8160 C   0  0  0  0  0  0  0  0  0  0  0  0
    7.3800    3.9900  -59.4030 N   0  0  0  0  0  0  0  0  0  0  0  0
    3.4588   -0.0505  -62.5291 H   0  0  0  0  0  0  0  0  0  0  0  0
    2.3310    0.4551  -63.8326 H   0  0  0  0  0  0  0  0  0  0  0  0
    4.0269    1.0472  -63.8326 H   0  0  0  0  0  0  0  0  0  0  0  0
    3.0933    2.8944  -62.8691 H   0  0  0  0  0  0  0  0  0  0  0  0
    1.6549    1.9677  -62.2758 H   0  0  0  0  0  0  0  0  0  0  0  0
    3.6041    2.9482  -60.6508 H   0  0  0  0  0  0  0  0  0  0  0  0
    2.6020    1.4657  -60.3016 H   0  0  0  0  0  0  0  0  0  0  0  0
    4.4334    0.2348  -60.1887 H   0  0  0  0  0  0  0  0  0  0  0  0
    4.8356    0.7031  -61.8991 H   0  0  0  0  0  0  0  0  0  0  0  0
    5.9920    1.8620  -59.4370 H   0  0  0  0  0  0  0  0  0  0  0  0
    9.4855    2.8460  -61.7217 H   0  0  0  0  0  0  0  0  0  0  0  0
   11.6627    2.5342  -59.2192 H   0  0  0  0  0  0  0  0  0  0  0  0
   14.0533    3.1961  -58.9795 H   0  0  0  0  0  0  0  0  0  0  0  0
   14.7448    5.5542  -59.4034 H   0  0  0  0  0  0  0  0  0  0  0  0
   13.0466    7.2472  -60.0873 H   0  0  0  0  0  0  0  0  0  0  0  0
   10.6532    6.5905  -60.3273 H   0  0  0  0  0  0  0  0  0  0  0  0
    8.6030    4.5471  -56.9545 H   0  0  0  0  0  0  0  0  0  0  0  0
    9.6807    5.7229  -57.7807 H   0  0  0  0  0  0  0  0  0  0  0  0
    7.9030    5.9802  -57.7807 H   0  0  0  0  0  0  0  0  0  0  0  0
  1  2  1  0
  2  3  1  0
  3  4  1  0
  4  5  1  0
  5  6  1  0
  6  7  2  0
  6  8  1  0
  8  9  1  0
  9 10  2  0
 10 11  1  0
 11 12  2  0
 12 13  1  0
 13 14  2  0
 14 15  1  0
 15 16  2  0
 10 17  1  0
 17 18  1  0
 17 19  1  0
 19  8  2  0
 16 11  1  0
  1 20  1  0
  1 21  1  0
  1 22  1  0
  2 23  1  0
  2 24  1  0
  3 25  1  0
  3 26  1  0
  4 27  1  0
  4 28  1  0
  5 29  1  0
  9 30  1  0
 12 31  1  0
 13 32  1  0
 14 33  1  0
 15 34  1  0
 16 35  1  0
 18 36  1  0
 18 37  1  0
 18 38  1  0
M  END
>  <meeko>  (107) 
{"is_sidechain": false}

$$$$

     RDKit          3D

 36 38  0  0  0  0  0  0  0  0999 V2000
    8.4210    4.2110  -57.8210 C   0  0  0  0  0  0  0  0  0  0  0  0
    8.4190    3.8700  -59.2260 N   0  0  0  0  0  0  0  0  0  0  0  0
    7.2740    3.4410  -59.7830 N   0  0  0  0  0  0  0  0  0  0  0  0
    7.5920    3.1440  -61.0560 C   0  0  0  0  0  0  0  0  0  0  0  0
    6.5830    2.6160  -62.0000 C   0  0  0  0  0  0  0  0  0  0  0  0
    6.8080    2.4210  -63.1920 O   0  0  0  0  0  0  0  0  0  0  0  0
    5.3440    2.3390  -61.4400 N   0  0  0  0  0  0  0  0  0  0  0  0
    4.2380    1.7750  -62.2440 C   0  0  0  0  0  0  0  0  0  0  0  0
    2.8530    2.3810  -61.9150 C   0  0  0  0  0  0  0  0  0  0  0  0
    2.6460    1.2280  -60.9120 C   0  0  0  0  0  0  0  0  0  0  0  0
    3.6910    0.4280  -61.7130 C   0  0  0  0  0  0  0  0  0  0  0  0
    8.9720    3.4110  -61.2840 C   0  0  0  0  0  0  0  0  0  0  0  0
    9.4780    3.9060  -60.0980 C   0  0  0  0  0  0  0  0  0  0  0  0
   10.8280    4.3450  -59.7700 C   0  0  0  0  0  0  0  0  0  0  0  0
   11.1940    5.6850  -59.9500 C   0  0  0  0  0  0  0  0  0  0  0  0
   12.4850    6.1130  -59.6350 C   0  0  0  0  0  0  0  0  0  0  0  0
   13.4170    5.2070  -59.1310 C   0  0  0  0  0  0  0  0  0  0  0  0
   13.0590    3.8740  -58.9390 C   0  0  0  0  0  0  0  0  0  0  0  0
   11.7690    3.4440  -59.2550 C   0  0  0  0  0  0  0  0  0  0  0  0
    8.4156    3.2897  -57.2201 H   0  0  0  0  0  0  0  0  0  0  0  0
    9.3226    4.7961  -57.5870 H   0  0  0  0  0  0  0  0  0  0  0  0
    7.5263    4.8067  -57.5870 H   0  0  0  0  0  0  0  0  0  0  0  0
    5.2500    2.4150  -60.4370 H   0  0  0  0  0  0  0  0  0  0  0  0
    4.6926    1.8633  -63.2418 H   0  0  0  0  0  0  0  0  0  0  0  0
    2.8888    3.3816  -61.4596 H   0  0  0  0  0  0  0  0  0  0  0  0
    2.1174    2.5939  -62.7046 H   0  0  0  0  0  0  0  0  0  0  0  0
    2.9414    1.4613  -59.8784 H   0  0  0  0  0  0  0  0  0  0  0  0
    1.6466    0.8208  -60.6988 H   0  0  0  0  0  0  0  0  0  0  0  0
    4.4012   -0.1417  -61.0957 H   0  0  0  0  0  0  0  0  0  0  0  0
    3.3936   -0.3802  -62.3973 H   0  0  0  0  0  0  0  0  0  0  0  0
    9.5264    3.2538  -62.2210 H   0  0  0  0  0  0  0  0  0  0  0  0
   10.4599    6.4044  -60.3419 H   0  0  0  0  0  0  0  0  0  0  0  0
   12.7670    7.1657  -59.7846 H   0  0  0  0  0  0  0  0  0  0  0  0
   14.4347    5.5443  -58.8849 H   0  0  0  0  0  0  0  0  0  0  0  0
   13.7935    3.1600  -58.5381 H   0  0  0  0  0  0  0  0  0  0  0  0
   11.4898    2.3916  -59.0987 H   0  0  0  0  0  0  0  0  0  0  0  0
  1  2  1  0
  2  3  1  0
  3  4  2  0
  4  5  1  0
  5  6  2  0
  5  7  1  0
  7  8  1  0
  8  9  1  0
  9 10  1  0
 10 11  1  0
  4 12  1  0
 12 13  2  0
 13 14  1  0
 14 15  2  0
 15 16  1  0
 16 17  2  0
 17 18  1  0
 18 19  2  0
 13  2  1  0
 19 14  1  0
 11  8  1  0
  1 20  1  0
  1 21  1  0
  1 22  1  0
  7 23  1  0
  8 24  1  0
  9 25  1  0
  9 26  1  0
 10 27  1  0
 10 28  1  0
 11 29  1  0
 11 30  1  0
 12 31  1  0
 15 32  1  0
 16 33  1  0
 17 34  1  0
 18 35  1  0
 19 36  1  0
M  END
>  <meeko>  (108) 
{"is_sidechain": false}

$$$$

     RDKit          3D

 26 27  0  0  0  0  0  0  0  0999 V2000
    8.7360    5.2500  -57.8730 C   0  0  0  0  0  0  0  0  0  0  0  0
    8.6630    4.5170  -59.1170 N   0  0  0  0  0  0  0  0  0  0  0  0
    7.4730    4.0290  -59.5090 N   0  0  0  0  0  0  0  0  0  0  0  0
    7.7260    3.3670  -60.6510 C   0  0  0  0  0  0  0  0  0  0  0  0
    6.6570    2.6790  -61.3970 C   0  0  0  0  0  0  0  0  0  0  0  0
    5.7340    2.0000  -60.6410 N   0  0  0  0  0  0  0  0  0  0  0  0
    6.5350    2.6890  -62.6200 O   0  0  0  0  0  0  0  0  0  0  0  0
    9.1090    3.4600  -60.9710 C   0  0  0  0  0  0  0  0  0  0  0  0
    9.6910    4.2240  -59.9780 C   0  0  0  0  0  0  0  0  0  0  0  0
   11.0760    4.6460  -59.8140 C   0  0  0  0  0  0  0  0  0  0  0  0
   12.0480    3.7240  -59.4100 C   0  0  0  0  0  0  0  0  0  0  0  0
   13.3770    4.1230  -59.2530 C   0  0  0  0  0  0  0  0  0  0  0  0
   13.7440    5.4450  -59.5040 C   0  0  0  0  0  0  0  0  0  0  0  0
   12.7840    6.3670  -59.9160 C   0  0  0  0  0  0  0  0  0  0  0  0
   11.4540    5.9700  -60.0730 C   0  0  0  0  0  0  0  0  0  0  0  0
    8.6661    4.5479  -57.0291 H   0  0  0  0  0  0  0  0  0  0  0  0
    9.6925    5.7909  -57.8217 H   0  0  0  0  0  0  0  0  0  0  0  0
    7.9050    5.9689  -57.8217 H   0  0  0  0  0  0  0  0  0  0  0  0
    5.6440    2.1430  -59.6480 H   0  0  0  0  0  0  0  0  0  0  0  0
    4.9390    1.6380  -61.1500 H   0  0  0  0  0  0  0  0  0  0  0  0
    9.6154    3.0117  -61.8385 H   0  0  0  0  0  0  0  0  0  0  0  0
   11.7637    2.6794  -59.2151 H   0  0  0  0  0  0  0  0  0  0  0  0
   14.1352    3.3940  -58.9310 H   0  0  0  0  0  0  0  0  0  0  0  0
   14.7904    5.7594  -59.3768 H   0  0  0  0  0  0  0  0  0  0  0  0
   13.0738    7.4088  -60.1179 H   0  0  0  0  0  0  0  0  0  0  0  0
   10.6999    6.7003  -60.4015 H   0  0  0  0  0  0  0  0  0  0  0  0
  1  2  1  0
  2  3  1  0
  3  4  2  0
  4  5  1  0
  5  6  1  0
  5  7  2  0
  4  8  1  0
  8  9  2  0
  9 10  1  0
 10 11  2  0
 11 12  1  0
 12 13  2  0
 13 14  1  0
 14 15  2  0
  9  2  1  0
 15 10  1  0
  1 16  1  0
  1 17  1  0
  1 18  1  0
  6 19  1  0
  6 20  1  0
  8 21  1  0
 11 22  1  0
 12 23  1  0
 13 24  1  0
 14 25  1  0
 15 26  1  0
M  END
>  <meeko>  (109) 
{"is_sidechain": false}

$$$$

     RDKit          3D

 48 50  0  0  0  0  0  0  0  0999 V2000
    5.5390    1.8980  -56.8410 C   0  0  0  0  0  0  0  0  0  0  0  0
    6.8360    1.5100  -56.3350 N   0  0  0  0  0  0  0  0  0  0  0  0
    6.8780    0.5070  -55.4330 N   0  0  0  0  0  0  0  0  0  0  0  0
    8.1860    0.3760  -55.1340 C   0  0  0  0  0  0  0  0  0  0  0  0
    8.6730   -0.6310  -54.1790 C   0  0  0  0  0  0  0  0  0  0  0  0
    9.8410   -1.0060  -54.1390 O   0  0  0  0  0  0  0  0  0  0  0  0
    7.6790   -1.1130  -53.3520 N   0  0  0  0  0  0  0  0  0  0  0  0
    7.8680   -2.2500  -52.4730 C   0  0  0  0  0  0  0  0  0  0  0  0
    7.8630   -1.7980  -51.0030 C   0  0  0  0  0  0  0  0  0  0  0  0
    7.4470   -2.9000  -50.0250 C   0  0  0  0  0  0  0  0  0  0  0  0
    7.7720   -4.2880  -50.5550 C   0  0  0  0  0  0  0  0  0  0  0  0
    7.0520   -4.5750  -51.8730 C   0  0  0  0  0  0  0  0  0  0  0  0
    6.8090   -3.3260  -52.7240 C   0  0  0  0  0  0  0  0  0  0  0  0
    8.9600    1.3100  -55.8590 C   0  0  0  0  0  0  0  0  0  0  0  0
    8.0710    2.0400  -56.6240 C   0  0  0  0  0  0  0  0  0  0  0  0
    8.3700    3.1700  -57.5720 C   0  0  0  0  0  0  0  0  0  0  0  0
    8.8330    4.4420  -56.8390 C   0  0  0  0  0  0  0  0  0  0  0  0
    9.7530    5.3250  -57.6870 C   0  0  0  0  0  0  0  0  0  0  0  0
    9.3560    5.3000  -59.1570 C   0  0  0  0  0  0  0  0  0  0  0  0
    9.4330    3.8930  -59.7550 C   0  0  0  0  0  0  0  0  0  0  0  0
    9.3100    2.7750  -58.7150 C   0  0  0  0  0  0  0  0  0  0  0  0
    4.8621    2.1005  -55.9979 H   0  0  0  0  0  0  0  0  0  0  0  0
    5.6413    2.8049  -57.4551 H   0  0  0  0  0  0  0  0  0  0  0  0
    5.1265    1.0839  -57.4551 H   0  0  0  0  0  0  0  0  0  0  0  0
    6.7450   -0.7980  -53.6010 H   0  0  0  0  0  0  0  0  0  0  0  0
    8.8491   -2.6959  -52.6934 H   0  0  0  0  0  0  0  0  0  0  0  0
    8.8768   -1.4628  -50.7387 H   0  0  0  0  0  0  0  0  0  0  0  0
    7.1200   -0.9915  -50.9157 H   0  0  0  0  0  0  0  0  0  0  0  0
    7.9793   -2.7498  -49.0741 H   0  0  0  0  0  0  0  0  0  0  0  0
    6.3575   -2.8367  -49.8869 H   0  0  0  0  0  0  0  0  0  0  0  0
    8.8573   -4.3616  -50.7187 H   0  0  0  0  0  0  0  0  0  0  0  0
    7.4334   -5.0256  -49.8125 H   0  0  0  0  0  0  0  0  0  0  0  0
    7.6627   -5.2797  -52.4564 H   0  0  0  0  0  0  0  0  0  0  0  0
    6.0650   -4.9881  -51.6177 H   0  0  0  0  0  0  0  0  0  0  0  0
    6.8345   -3.6091  -53.7866 H   0  0  0  0  0  0  0  0  0  0  0  0
    5.8286   -2.9106  -52.4479 H   0  0  0  0  0  0  0  0  0  0  0  0
   10.0526    1.4315  -55.8216 H   0  0  0  0  0  0  0  0  0  0  0  0
    7.4117    3.4142  -58.0537 H   0  0  0  0  0  0  0  0  0  0  0  0
    7.9448    5.0282  -56.5607 H   0  0  0  0  0  0  0  0  0  0  0  0
    9.4084    4.1210  -55.9582 H   0  0  0  0  0  0  0  0  0  0  0  0
    9.6933    6.3598  -57.3188 H   0  0  0  0  0  0  0  0  0  0  0  0
   10.7782    4.9357  -57.6010 H   0  0  0  0  0  0  0  0  0  0  0  0
    8.3238    5.6685  -59.2511 H   0  0  0  0  0  0  0  0  0  0  0  0
   10.0621    5.9390  -59.7075 H   0  0  0  0  0  0  0  0  0  0  0  0
    8.6172    3.7804  -60.4843 H   0  0  0  0  0  0  0  0  0  0  0  0
   10.4259    3.7940  -60.2179 H   0  0  0  0  0  0  0  0  0  0  0  0
    8.9162    1.8727  -59.2056 H   0  0  0  0  0  0  0  0  0  0  0  0
   10.3077    2.5876  -58.2912 H   0  0  0  0  0  0  0  0  0  0  0  0
  1  2  1  0
  2  3  1  0
  3  4  2  0
  4  5  1  0
  5  6  2  0
  5  7  1  0
  7  8  1  0
  8  9  1  0
  9 10  1  0
 10 11  1  0
 11 12  1  0
 12 13  1  0
  4 14  1  0
 14 15  2  0
 15 16  1  0
 16 17  1  0
 17 18  1  0
 18 19  1  0
 19 20  1  0
 20 21  1  0
 15  2  1  0
 21 16  1  0
 13  8  1  0
  1 22  1  0
  1 23  1  0
  1 24  1  0
  7 25  1  0
  8 26  1  0
  9 27  1  0
  9 28  1  0
 10 29  1  0
 10 30  1  0
 11 31  1  0
 11 32  1  0
 12 33  1  0
 12 34  1  0
 13 35  1  0
 13 36  1  0
 14 37  1  0
 16 38  1  0
 17 39  1  0
 17 40  1  0
 18 41  1  0
 18 42  1  0
 19 43  1  0
 19 44  1  0
 20 45  1  0
 20 46  1  0
 21 47  1  0
 21 48  1  0
M  END
>  <meeko>  (110) 
{"is_sidechain": false}

$$$$
