9GF
     RDKit          3D

 67 68  0  0  0  0  0  0  0  0999 V2000
  130.9710  147.9410  169.8670 C   0  0  0  0  0  0  0  0  0  0  0  0
  131.7230  146.8410  169.1130 C   0  0  0  0  0  0  0  0  0  0  0  0
  133.2160  147.1750  169.0820 C   0  0  0  0  0  0  0  0  0  0  0  0
  134.0270  145.9100  169.3720 C   0  0  0  0  0  0  0  0  0  0  0  0
  133.5770  144.7890  168.4350 C   0  0  0  0  0  0  0  0  0  0  0  0
  133.6610  143.4470  169.1660 C   0  0  0  0  0  0  0  0  0  0  0  0
  134.8550  142.6520  168.6340 C   0  0  0  0  0  0  0  0  0  0  0  0
  134.5140  141.1610  168.6270 C   0  0  0  0  0  0  0  0  0  0  0  0
  135.1800  143.1070  167.2100 C   0  0  0  0  0  0  0  0  0  0  0  0
  136.0510  142.8880  169.5220 C   0  0  0  0  0  0  0  0  0  0  0  0
  136.9130  143.9360  169.2550 C   0  0  0  0  0  0  0  0  0  0  0  0
  138.0100  144.1540  170.0660 C   0  0  0  0  0  0  0  0  0  0  0  0
  138.2480  143.3270  171.1470 C   0  0  0  0  0  0  0  0  0  0  0  0
  139.4450  143.5670  172.0310 C   0  0  2  0  0  0  0  0  0  0  0  0
  139.1360  144.6990  173.0120 C   0  0  0  0  0  0  0  0  0  0  0  0
  140.3500  144.9420  173.9100 C   0  0  2  0  0  0  0  0  0  0  0  0
  140.0620  145.9990  174.8270 O   0  0  0  0  0  0  0  0  0  0  0  0
  141.5530  145.3300  173.0470 C   0  0  0  0  0  0  0  0  0  0  0  0
  141.8630  144.1970  172.0660 C   0  0  0  0  0  0  0  0  0  0  0  0
  140.6480  143.9540  171.1680 C   0  0  1  0  0  0  0  0  0  0  0  0
  140.9570  142.8220  170.1870 C   0  0  0  0  0  0  0  0  0  0  0  0
  141.8420  143.3540  169.0570 C   0  0  0  0  0  0  0  0  0  0  0  0
  141.2230  144.6310  168.4840 C   0  0  0  0  0  0  0  0  0  0  0  0
  142.1500  145.7110  168.6180 O   0  0  0  0  0  0  0  0  0  0  0  0
  137.3840  142.2760  171.4170 C   0  0  0  0  0  0  0  0  0  0  0  0
  137.6130  141.4640  172.4830 O   0  0  0  0  0  0  0  0  0  0  0  0
  136.2810  142.0610  170.6040 C   0  0  0  0  0  0  0  0  0  0  0  0
  131.0791  147.7828  170.9502 H   0  0  0  0  0  0  0  0  0  0  0  0
  131.3882  148.9221  169.5963 H   0  0  0  0  0  0  0  0  0  0  0  0
  129.9053  147.9084  169.5963 H   0  0  0  0  0  0  0  0  0  0  0  0
  131.5730  145.8781  169.6231 H   0  0  0  0  0  0  0  0  0  0  0  0
  131.3403  146.7736  168.0839 H   0  0  0  0  0  0  0  0  0  0  0  0
  133.4845  147.5631  168.0884 H   0  0  0  0  0  0  0  0  0  0  0  0
  133.4378  147.9360  169.8447 H   0  0  0  0  0  0  0  0  0  0  0  0
  135.0957  146.1150  169.2114 H   0  0  0  0  0  0  0  0  0  0  0  0
  133.8649  145.6023  170.4156 H   0  0  0  0  0  0  0  0  0  0  0  0
  132.5390  144.9699  168.1192 H   0  0  0  0  0  0  0  0  0  0  0  0
  134.2311  144.7660  167.5509 H   0  0  0  0  0  0  0  0  0  0  0  0
  133.7889  143.6238  170.2441 H   0  0  0  0  0  0  0  0  0  0  0  0
  132.7354  142.8775  168.9958 H   0  0  0  0  0  0  0  0  0  0  0  0
  134.4312  140.7989  169.6624 H   0  0  0  0  0  0  0  0  0  0  0  0
  133.5573  141.0061  168.1068 H   0  0  0  0  0  0  0  0  0  0  0  0
  135.3083  140.6056  168.1068 H   0  0  0  0  0  0  0  0  0  0  0  0
  135.8190  144.0016  167.2478 H   0  0  0  0  0  0  0  0  0  0  0  0
  135.7082  142.3013  166.6792 H   0  0  0  0  0  0  0  0  0  0  0  0
  134.2465  143.3453  166.6792 H   0  0  0  0  0  0  0  0  0  0  0  0
  136.7249  144.5968  168.3959 H   0  0  0  0  0  0  0  0  0  0  0  0
  138.6951  144.9873  169.8508 H   0  0  0  0  0  0  0  0  0  0  0  0
  139.6762  142.6491  172.5914 H   0  0  0  0  0  0  0  0  0  0  0  0
  138.9051  145.6169  172.4515 H   0  0  0  0  0  0  0  0  0  0  0  0
  138.2714  144.4204  173.6323 H   0  0  0  0  0  0  0  0  0  0  0  0
  140.5803  144.0238  174.4702 H   0  0  0  0  0  0  0  0  0  0  0  0
  140.0300  146.8760  174.4190 H   0  0  0  0  0  0  0  0  0  0  0  0
  141.3214  146.2476  172.4862 H   0  0  0  0  0  0  0  0  0  0  0  0
  142.4262  145.5056  173.6925 H   0  0  0  0  0  0  0  0  0  0  0  0
  142.7278  144.4753  171.4457 H   0  0  0  0  0  0  0  0  0  0  0  0
  142.0944  143.2793  172.6266 H   0  0  0  0  0  0  0  0  0  0  0  0
  140.4170  144.8719  170.6075 H   0  0  0  0  0  0  0  0  0  0  0  0
  141.4829  142.0127  170.7147 H   0  0  0  0  0  0  0  0  0  0  0  0
  140.0175  142.4349  169.7658 H   0  0  0  0  0  0  0  0  0  0  0  0
  142.8448  143.5769  169.4503 H   0  0  0  0  0  0  0  0  0  0  0  0
  141.9200  142.5959  168.2638 H   0  0  0  0  0  0  0  0  0  0  0  0
  140.9880  144.4793  167.4202 H   0  0  0  0  0  0  0  0  0  0  0  0
  140.3000  144.8695  169.0328 H   0  0  0  0  0  0  0  0  0  0  0  0
  141.7800  146.5760  168.3970 H   0  0  0  0  0  0  0  0  0  0  0  0
  138.5200  141.1330  172.5380 H   0  0  0  0  0  0  0  0  0  0  0  0
  135.5903  141.2328  170.8207 H   0  0  0  0  0  0  0  0  0  0  0  0
  1  2  1  0
  2  3  1  0
  3  4  1  0
  4  5  1  0
  5  6  1  0
  6  7  1  0
  7  8  1  0
  7  9  1  0
  7 10  1  0
 10 11  1  0
 11 12  2  0
 12 13  1  0
 13 14  1  0
 14 15  1  0
 15 16  1  0
 16 17  1  0
 16 18  1  0
 18 19  1  0
 19 20  1  0
 20 21  1  0
 21 22  1  0
 22 23  1  0
 23 24  1  0
 13 25  2  0
 25 26  1  0
 25 27  1  0
 27 10  2  0
 20 14  1  0
  1 28  1  0
  1 29  1  0
  1 30  1  0
  2 31  1  0
  2 32  1  0
  3 33  1  0
  3 34  1  0
  4 35  1  0
  4 36  1  0
  5 37  1  0
  5 38  1  0
  6 39  1  0
  6 40  1  0
  8 41  1  0
  8 42  1  0
  8 43  1  0
  9 44  1  0
  9 45  1  0
  9 46  1  0
 11 47  1  0
 12 48  1  0
 14 49  1  1
 15 50  1  0
 15 51  1  0
 16 52  1  1
 17 53  1  0
 18 54  1  0
 18 55  1  0
 19 56  1  0
 19 57  1  0
 20 58  1  6
 21 59  1  0
 21 60  1  0
 22 61  1  0
 22 62  1  0
 23 63  1  0
 23 64  1  0
 24 65  1  0
 26 66  1  0
 27 67  1  0
M  END
>  <meeko>  (1) 
{"is_sidechain": [false], "free_energy": -9.326, "intermolecular_energy": -15.596, "internal_energy": -1.617}

$$$$
9GF
     RDKit          3D

 67 68  0  0  0  0  0  0  0  0999 V2000
  132.0900  147.5590  169.3250 C   0  0  0  0  0  0  0  0  0  0  0  0
  133.6090  147.4880  169.5010 C   0  0  0  0  0  0  0  0  0  0  0  0
  134.0740  146.0400  169.3360 C   0  0  0  0  0  0  0  0  0  0  0  0
  132.9740  145.2270  168.6490 C   0  0  0  0  0  0  0  0  0  0  0  0
  133.5610  143.9150  168.1250 C   0  0  0  0  0  0  0  0  0  0  0  0
  133.9910  143.0400  169.3040 C   0  0  0  0  0  0  0  0  0  0  0  0
  135.3010  142.3290  168.9600 C   0  0  0  0  0  0  0  0  0  0  0  0
  135.0710  140.8170  168.9370 C   0  0  0  0  0  0  0  0  0  0  0  0
  135.7880  142.7920  167.5850 C   0  0  0  0  0  0  0  0  0  0  0  0
  136.3400  142.6630  170.0000 C   0  0  0  0  0  0  0  0  0  0  0  0
  137.0160  143.8670  169.9400 C   0  0  0  0  0  0  0  0  0  0  0  0
  137.9700  144.1750  170.8910 C   0  0  0  0  0  0  0  0  0  0  0  0
  138.2510  143.2800  171.9050 C   0  0  0  0  0  0  0  0  0  0  0  0
  139.2920  143.6170  172.9420 C   0  0  2  0  0  0  0  0  0  0  0  0
  138.6220  144.3090  174.1300 C   0  0  0  0  0  0  0  0  0  0  0  0
  139.6780  144.6500  175.1830 C   0  0  2  0  0  0  0  0  0  0  0  0
  139.0520  145.2970  176.2930 O   0  0  0  0  0  0  0  0  0  0  0  0
  140.7240  145.5860  174.5720 C   0  0  0  0  0  0  0  0  0  0  0  0
  141.3940  144.8940  173.3830 C   0  0  0  0  0  0  0  0  0  0  0  0
  140.3370  144.5530  172.3300 C   0  0  1  0  0  0  0  0  0  0  0  0
  141.0070  143.8610  171.1410 C   0  0  0  0  0  0  0  0  0  0  0  0
  142.4710  144.2980  171.0560 C   0  0  0  0  0  0  0  0  0  0  0  0
  142.5960  145.4710  170.0810 C   0  0  0  0  0  0  0  0  0  0  0  0
  143.6310  146.3510  170.5250 O   0  0  0  0  0  0  0  0  0  0  0  0
  137.5740  142.0710  171.9680 C   0  0  0  0  0  0  0  0  0  0  0  0
  137.8450  141.1900  172.9670 O   0  0  0  0  0  0  0  0  0  0  0  0
  136.6130  141.7660  171.0140 C   0  0  0  0  0  0  0  0  0  0  0  0
  131.6070  147.5816  170.3131 H   0  0  0  0  0  0  0  0  0  0  0  0
  131.8276  148.4704  168.7677 H   0  0  0  0  0  0  0  0  0  0  0  0
  131.7438  146.6761  168.7677 H   0  0  0  0  0  0  0  0  0  0  0  0
  134.0959  148.1183  168.7423 H   0  0  0  0  0  0  0  0  0  0  0  0
  133.8792  147.8479  170.5047 H   0  0  0  0  0  0  0  0  0  0  0  0
  134.9862  146.0154  168.7218 H   0  0  0  0  0  0  0  0  0  0  0  0
  134.2866  145.6078  170.3249 H   0  0  0  0  0  0  0  0  0  0  0  0
  132.1743  145.0080  169.3718 H   0  0  0  0  0  0  0  0  0  0  0  0
  132.5611  145.8051  167.8092 H   0  0  0  0  0  0  0  0  0  0  0  0
  132.8010  143.3842  167.5329 H   0  0  0  0  0  0  0  0  0  0  0  0
  134.4344  144.1317  167.4923 H   0  0  0  0  0  0  0  0  0  0  0  0
  134.1383  143.6700  170.1936 H   0  0  0  0  0  0  0  0  0  0  0  0
  133.2109  142.2922  169.5094 H   0  0  0  0  0  0  0  0  0  0  0  0
  135.0135  140.4391  169.9685 H   0  0  0  0  0  0  0  0  0  0  0  0
  134.1291  140.5973  168.4130 H   0  0  0  0  0  0  0  0  0  0  0  0
  135.9050  140.3272  168.4130 H   0  0  0  0  0  0  0  0  0  0  0  0
  136.5800  143.5450  167.7109 H   0  0  0  0  0  0  0  0  0  0  0  0
  136.1859  141.9310  167.0279 H   0  0  0  0  0  0  0  0  0  0  0  0
  134.9482  143.2328  167.0279 H   0  0  0  0  0  0  0  0  0  0  0  0
  136.7942  144.5815  169.1336 H   0  0  0  0  0  0  0  0  0  0  0  0
  138.5063  145.1341  170.8405 H   0  0  0  0  0  0  0  0  0  0  0  0
  139.7820  142.6934  173.2838 H   0  0  0  0  0  0  0  0  0  0  0  0
  138.1332  145.2332  173.7881 H   0  0  0  0  0  0  0  0  0  0  0  0
  137.8696  143.6374  174.5691 H   0  0  0  0  0  0  0  0  0  0  0  0
  140.1670  143.7257  175.5245 H   0  0  0  0  0  0  0  0  0  0  0  0
  139.3900  145.0140  177.1550 H   0  0  0  0  0  0  0  0  0  0  0  0
  140.2345  146.5100  174.2305 H   0  0  0  0  0  0  0  0  0  0  0  0
  141.4832  145.8319  175.3290 H   0  0  0  0  0  0  0  0  0  0  0  0
  142.1460  145.5659  172.9436 H   0  0  0  0  0  0  0  0  0  0  0  0
  141.8833  143.9698  173.7244 H   0  0  0  0  0  0  0  0  0  0  0  0
  139.8473  145.4769  171.9885 H   0  0  0  0  0  0  0  0  0  0  0  0
  140.9570  142.7704  171.2755 H   0  0  0  0  0  0  0  0  0  0  0  0
  140.4863  144.1399  170.2130 H   0  0  0  0  0  0  0  0  0  0  0  0
  142.8192  144.6098  172.0517 H   0  0  0  0  0  0  0  0  0  0  0  0
  143.0850  143.4576  170.7001 H   0  0  0  0  0  0  0  0  0  0  0  0
  142.8431  145.0903  169.0790 H   0  0  0  0  0  0  0  0  0  0  0  0
  141.6422  146.0175  170.0405 H   0  0  0  0  0  0  0  0  0  0  0  0
  144.4810  146.2120  170.0860 H   0  0  0  0  0  0  0  0  0  0  0  0
  138.5410  140.5550  172.7540 H   0  0  0  0  0  0  0  0  0  0  0  0
  136.0695  140.8110  171.0656 H   0  0  0  0  0  0  0  0  0  0  0  0
  1  2  1  0
  2  3  1  0
  3  4  1  0
  4  5  1  0
  5  6  1  0
  6  7  1  0
  7  8  1  0
  7  9  1  0
  7 10  1  0
 10 11  1  0
 11 12  2  0
 12 13  1  0
 13 14  1  0
 14 15  1  0
 15 16  1  0
 16 17  1  0
 16 18  1  0
 18 19  1  0
 19 20  1  0
 20 21  1  0
 21 22  1  0
 22 23  1  0
 23 24  1  0
 13 25  2  0
 25 26  1  0
 25 27  1  0
 27 10  2  0
 20 14  1  0
  1 28  1  0
  1 29  1  0
  1 30  1  0
  2 31  1  0
  2 32  1  0
  3 33  1  0
  3 34  1  0
  4 35  1  0
  4 36  1  0
  5 37  1  0
  5 38  1  0
  6 39  1  0
  6 40  1  0
  8 41  1  0
  8 42  1  0
  8 43  1  0
  9 44  1  0
  9 45  1  0
  9 46  1  0
 11 47  1  0
 12 48  1  0
 14 49  1  1
 15 50  1  0
 15 51  1  0
 16 52  1  1
 17 53  1  0
 18 54  1  0
 18 55  1  0
 19 56  1  0
 19 57  1  0
 20 58  1  6
 21 59  1  0
 21 60  1  0
 22 61  1  0
 22 62  1  0
 23 63  1  0
 23 64  1  0
 24 65  1  0
 26 66  1  0
 27 67  1  0
M  END
>  <meeko>  (2) 
{"is_sidechain": [false], "free_energy": -9.106, "intermolecular_energy": -15.376, "internal_energy": -1.468}

$$$$
9GF
     RDKit          3D

 67 68  0  0  0  0  0  0  0  0999 V2000
  135.9020  139.2410  169.7260 C   0  0  0  0  0  0  0  0  0  0  0  0
  134.6200  139.2770  170.5630 C   0  0  0  0  0  0  0  0  0  0  0  0
  133.7080  140.3930  170.0490 C   0  0  0  0  0  0  0  0  0  0  0  0
  133.7720  140.4410  168.5220 C   0  0  0  0  0  0  0  0  0  0  0  0
  133.9660  141.8870  168.0640 C   0  0  0  0  0  0  0  0  0  0  0  0
  134.1750  142.7860  169.2850 C   0  0  0  0  0  0  0  0  0  0  0  0
  135.2960  143.7850  168.9960 C   0  0  0  0  0  0  0  0  0  0  0  0
  135.9650  143.4320  167.6660 C   0  0  0  0  0  0  0  0  0  0  0  0
  134.7130  145.1980  168.9150 C   0  0  0  0  0  0  0  0  0  0  0  0
  136.3180  143.7270  170.1020 C   0  0  0  0  0  0  0  0  0  0  0  0
  136.9500  144.8830  170.5220 C   0  0  0  0  0  0  0  0  0  0  0  0
  137.8880  144.8320  171.5360 C   0  0  0  0  0  0  0  0  0  0  0  0
  138.1960  143.6250  172.1330 C   0  0  0  0  0  0  0  0  0  0  0  0
  139.2190  143.5700  173.2390 C   0  0  2  0  0  0  0  0  0  0  0  0
  138.6020  144.1050  174.5320 C   0  0  0  0  0  0  0  0  0  0  0  0
  139.6390  144.0490  175.6550 C   0  0  2  0  0  0  0  0  0  0  0  0
  139.0620  144.5470  176.8630 O   0  0  0  0  0  0  0  0  0  0  0  0
  140.8480  144.9080  175.2750 C   0  0  0  0  0  0  0  0  0  0  0  0
  141.4660  144.3740  173.9810 C   0  0  0  0  0  0  0  0  0  0  0  0
  140.4280  144.4300  172.8590 C   0  0  1  0  0  0  0  0  0  0  0  0
  141.0460  143.8960  171.5650 C   0  0  0  0  0  0  0  0  0  0  0  0
  142.4960  144.3720  171.4590 C   0  0  0  0  0  0  0  0  0  0  0  0
  142.6390  145.3060  170.2540 C   0  0  0  0  0  0  0  0  0  0  0  0
  143.6680  146.2640  170.5140 O   0  0  0  0  0  0  0  0  0  0  0  0
  137.5630  142.4630  171.7140 C   0  0  0  0  0  0  0  0  0  0  0  0
  137.8620  141.2760  172.3040 O   0  0  0  0  0  0  0  0  0  0  0  0
  136.6190  142.5180  170.7000 C   0  0  0  0  0  0  0  0  0  0  0  0
  136.7755  139.2165  170.3941 H   0  0  0  0  0  0  0  0  0  0  0  0
  135.9004  138.3425  169.0914 H   0  0  0  0  0  0  0  0  0  0  0  0
  135.9508  140.1381  169.0914 H   0  0  0  0  0  0  0  0  0  0  0  0
  134.1004  138.3110  170.4800 H   0  0  0  0  0  0  0  0  0  0  0  0
  134.8743  139.4665  171.6163 H   0  0  0  0  0  0  0  0  0  0  0  0
  132.6733  140.1965  170.3666 H   0  0  0  0  0  0  0  0  0  0  0  0
  134.0410  141.3573  170.4604 H   0  0  0  0  0  0  0  0  0  0  0  0
  134.6161  139.8291  168.1712 H   0  0  0  0  0  0  0  0  0  0  0  0
  132.8340  140.0471  168.1036 H   0  0  0  0  0  0  0  0  0  0  0  0
  134.8470  141.9487  167.4083 H   0  0  0  0  0  0  0  0  0  0  0  0
  133.0741  142.2194  167.5126 H   0  0  0  0  0  0  0  0  0  0  0  0
  133.2448  143.3314  169.5024 H   0  0  0  0  0  0  0  0  0  0  0  0
  134.4490  142.1681  170.1529 H   0  0  0  0  0  0  0  0  0  0  0  0
  136.9226  142.9267  167.8600 H   0  0  0  0  0  0  0  0  0  0  0  0
  135.3075  142.7634  167.0909 H   0  0  0  0  0  0  0  0  0  0  0  0
  136.1458  144.3521  167.0909 H   0  0  0  0  0  0  0  0  0  0  0  0
  134.5524  145.5872  169.9312 H   0  0  0  0  0  0  0  0  0  0  0  0
  135.4141  145.8537  168.3778 H   0  0  0  0  0  0  0  0  0  0  0  0
  133.7536  145.1685  168.3778 H   0  0  0  0  0  0  0  0  0  0  0  0
  136.7058  145.8452  170.0482 H   0  0  0  0  0  0  0  0  0  0  0  0
  138.3895  145.7531  171.8677 H   0  0  0  0  0  0  0  0  0  0  0  0
  139.5405  142.5287  173.3887 H   0  0  0  0  0  0  0  0  0  0  0  0
  138.2810  145.1463  174.3813 H   0  0  0  0  0  0  0  0  0  0  0  0
  137.7330  143.4885  174.8053 H   0  0  0  0  0  0  0  0  0  0  0  0
  139.9605  143.0078  175.8054 H   0  0  0  0  0  0  0  0  0  0  0  0
  139.0460  143.9050  177.5860 H   0  0  0  0  0  0  0  0  0  0  0  0
  140.5257  145.9490  175.1252 H   0  0  0  0  0  0  0  0  0  0  0  0
  141.5946  144.8681  176.0819 H   0  0  0  0  0  0  0  0  0  0  0  0
  142.3348  144.9909  173.7078 H   0  0  0  0  0  0  0  0  0  0  0  0
  141.7880  143.3329  174.1309 H   0  0  0  0  0  0  0  0  0  0  0  0
  140.1058  145.4711  172.7095 H   0  0  0  0  0  0  0  0  0  0  0  0
  141.0206  142.7963  171.5729 H   0  0  0  0  0  0  0  0  0  0  0  0
  140.4732  144.2694  170.7033 H   0  0  0  0  0  0  0  0  0  0  0  0
  142.7728  144.9120  172.3765 H   0  0  0  0  0  0  0  0  0  0  0  0
  143.1589  143.5036  171.3309 H   0  0  0  0  0  0  0  0  0  0  0  0
  142.9025  144.7174  169.3629 H   0  0  0  0  0  0  0  0  0  0  0  0
  141.6868  145.8284  170.0795 H   0  0  0  0  0  0  0  0  0  0  0  0
  144.2300  146.0420  171.2680 H   0  0  0  0  0  0  0  0  0  0  0  0
  138.4690  140.7240  171.7920 H   0  0  0  0  0  0  0  0  0  0  0  0
  136.1099  141.5998  170.3717 H   0  0  0  0  0  0  0  0  0  0  0  0
  1  2  1  0
  2  3  1  0
  3  4  1  0
  4  5  1  0
  5  6  1  0
  6  7  1  0
  7  8  1  0
  7  9  1  0
  7 10  1  0
 10 11  1  0
 11 12  2  0
 12 13  1  0
 13 14  1  0
 14 15  1  0
 15 16  1  0
 16 17  1  0
 16 18  1  0
 18 19  1  0
 19 20  1  0
 20 21  1  0
 21 22  1  0
 22 23  1  0
 23 24  1  0
 13 25  2  0
 25 26  1  0
 25 27  1  0
 27 10  2  0
 20 14  1  0
  1 28  1  0
  1 29  1  0
  1 30  1  0
  2 31  1  0
  2 32  1  0
  3 33  1  0
  3 34  1  0
  4 35  1  0
  4 36  1  0
  5 37  1  0
  5 38  1  0
  6 39  1  0
  6 40  1  0
  8 41  1  0
  8 42  1  0
  8 43  1  0
  9 44  1  0
  9 45  1  0
  9 46  1  0
 11 47  1  0
 12 48  1  0
 14 49  1  1
 15 50  1  0
 15 51  1  0
 16 52  1  1
 17 53  1  0
 18 54  1  0
 18 55  1  0
 19 56  1  0
 19 57  1  0
 20 58  1  6
 21 59  1  0
 21 60  1  0
 22 61  1  0
 22 62  1  0
 23 63  1  0
 23 64  1  0
 24 65  1  0
 26 66  1  0
 27 67  1  0
M  END
>  <meeko>  (3) 
{"is_sidechain": [false], "free_energy": -8.984, "intermolecular_energy": -14.627, "internal_energy": -2.014}

$$$$
9GF
     RDKit          3D

 67 68  0  0  0  0  0  0  0  0999 V2000
  133.7510  145.4480  169.0690 C   0  0  0  0  0  0  0  0  0  0  0  0
  133.0970  144.1550  168.5760 C   0  0  0  0  0  0  0  0  0  0  0  0
  133.8580  143.6310  167.3580 C   0  0  0  0  0  0  0  0  0  0  0  0
  133.2770  142.2800  166.9360 C   0  0  0  0  0  0  0  0  0  0  0  0
  133.1670  141.3670  168.1590 C   0  0  0  0  0  0  0  0  0  0  0  0
  134.5340  140.7530  168.4630 C   0  0  0  0  0  0  0  0  0  0  0  0
  134.7130  140.6300  169.9770 C   0  0  0  0  0  0  0  0  0  0  0  0
  133.4300  141.0760  170.6800 C   0  0  0  0  0  0  0  0  0  0  0  0
  135.0140  139.1750  170.3400 C   0  0  0  0  0  0  0  0  0  0  0  0
  135.8570  141.5060  170.4200 C   0  0  0  0  0  0  0  0  0  0  0  0
  136.6550  141.1170  171.4800 C   0  0  0  0  0  0  0  0  0  0  0  0
  137.7050  141.9180  171.8890 C   0  0  0  0  0  0  0  0  0  0  0  0
  137.9600  143.1100  171.2390 C   0  0  0  0  0  0  0  0  0  0  0  0
  139.1040  143.9830  171.6850 C   0  0  2  0  0  0  0  0  0  0  0  0
  140.3390  143.6790  170.8360 C   0  0  0  0  0  0  0  0  0  0  0  0
  141.5010  144.5650  171.2880 C   0  0  2  0  0  0  0  0  0  0  0  0
  142.6540  144.2810  170.4940 O   0  0  0  0  0  0  0  0  0  0  0  0
  141.8140  144.2830  172.7590 C   0  0  0  0  0  0  0  0  0  0  0  0
  140.5780  144.5870  173.6100 C   0  0  0  0  0  0  0  0  0  0  0  0
  139.4170  143.7010  173.1570 C   0  0  1  0  0  0  0  0  0  0  0  0
  138.1820  144.0050  174.0070 C   0  0  0  0  0  0  0  0  0  0  0  0
  138.5140  143.7870  175.4850 C   0  0  0  0  0  0  0  0  0  0  0  0
  138.4370  142.2930  175.8100 C   0  0  0  0  0  0  0  0  0  0  0  0
  139.7550  141.7860  176.0330 O   0  0  0  0  0  0  0  0  0  0  0  0
  137.1610  143.5020  170.1740 C   0  0  0  0  0  0  0  0  0  0  0  0
  137.4130  144.6720  169.5300 O   0  0  0  0  0  0  0  0  0  0  0  0
  136.1110  142.6940  169.7630 C   0  0  0  0  0  0  0  0  0  0  0  0
  133.7569  145.4597  170.1689 H   0  0  0  0  0  0  0  0  0  0  0  0
  134.7845  145.5014  168.6962 H   0  0  0  0  0  0  0  0  0  0  0  0
  133.1816  146.3122  168.6962 H   0  0  0  0  0  0  0  0  0  0  0  0
  133.1242  143.4018  169.3772 H   0  0  0  0  0  0  0  0  0  0  0  0
  132.0522  144.3560  168.2968 H   0  0  0  0  0  0  0  0  0  0  0  0
  133.7605  144.3472  166.5288 H   0  0  0  0  0  0  0  0  0  0  0  0
  134.9208  143.5091  167.6143 H   0  0  0  0  0  0  0  0  0  0  0  0
  132.2784  142.4305  166.4999 H   0  0  0  0  0  0  0  0  0  0  0  0
  133.9371  141.8144  166.1893 H   0  0  0  0  0  0  0  0  0  0  0  0
  132.8282  141.9542  169.0253 H   0  0  0  0  0  0  0  0  0  0  0  0
  132.4430  140.5649  167.9531 H   0  0  0  0  0  0  0  0  0  0  0  0
  134.5980  139.7554  168.0041 H   0  0  0  0  0  0  0  0  0  0  0  0
  135.3248  141.3975  168.0517 H   0  0  0  0  0  0  0  0  0  0  0  0
  133.5727  141.0264  171.7696 H   0  0  0  0  0  0  0  0  0  0  0  0
  133.1922  142.1095  170.3880 H   0  0  0  0  0  0  0  0  0  0  0  0
  132.6024  140.4128  170.3880 H   0  0  0  0  0  0  0  0  0  0  0  0
  135.0363  139.0672  171.4345 H   0  0  0  0  0  0  0  0  0  0  0  0
  134.2316  138.5237  169.9233 H   0  0  0  0  0  0  0  0  0  0  0  0
  135.9906  138.8876  169.9233 H   0  0  0  0  0  0  0  0  0  0  0  0
  136.4540  140.1682  171.9990 H   0  0  0  0  0  0  0  0  0  0  0  0
  138.3380  141.6059  172.7328 H   0  0  0  0  0  0  0  0  0  0  0  0
  138.8263  145.0405  171.5639 H   0  0  0  0  0  0  0  0  0  0  0  0
  140.6159  142.6214  170.9575 H   0  0  0  0  0  0  0  0  0  0  0  0
  140.1147  143.8809  169.7782 H   0  0  0  0  0  0  0  0  0  0  0  0
  141.2240  145.6227  171.1671 H   0  0  0  0  0  0  0  0  0  0  0  0
  143.0760  145.0660  170.1180 H   0  0  0  0  0  0  0  0  0  0  0  0
  142.0908  143.2252  172.8789 H   0  0  0  0  0  0  0  0  0  0  0  0
  142.6498  144.9195  173.0851 H   0  0  0  0  0  0  0  0  0  0  0  0
  140.8024  144.3850  174.6678 H   0  0  0  0  0  0  0  0  0  0  0  0
  140.3009  145.6447  173.4895 H   0  0  0  0  0  0  0  0  0  0  0  0
  139.6945  142.6434  173.2773 H   0  0  0  0  0  0  0  0  0  0  0  0
  137.8769  145.0501  173.8500 H   0  0  0  0  0  0  0  0  0  0  0  0
  137.3605  143.3352  173.7130 H   0  0  0  0  0  0  0  0  0  0  0  0
  139.5299  144.1552  175.6908 H   0  0  0  0  0  0  0  0  0  0  0  0
  137.7921  144.3356  176.1079 H   0  0  0  0  0  0  0  0  0  0  0  0
  137.8292  142.1453  176.7149 H   0  0  0  0  0  0  0  0  0  0  0  0
  137.9755  141.7574  174.9673 H   0  0  0  0  0  0  0  0  0  0  0  0
  140.3540  142.4190  176.4510 H   0  0  0  0  0  0  0  0  0  0  0  0
  138.1040  144.6090  168.8560 H   0  0  0  0  0  0  0  0  0  0  0  0
  135.4811  142.9992  168.9144 H   0  0  0  0  0  0  0  0  0  0  0  0
  1  2  1  0
  2  3  1  0
  3  4  1  0
  4  5  1  0
  5  6  1  0
  6  7  1  0
  7  8  1  0
  7  9  1  0
  7 10  1  0
 10 11  1  0
 11 12  2  0
 12 13  1  0
 13 14  1  0
 14 15  1  0
 15 16  1  0
 16 17  1  0
 16 18  1  0
 18 19  1  0
 19 20  1  0
 20 21  1  0
 21 22  1  0
 22 23  1  0
 23 24  1  0
 13 25  2  0
 25 26  1  0
 25 27  1  0
 27 10  2  0
 20 14  1  0
  1 28  1  0
  1 29  1  0
  1 30  1  0
  2 31  1  0
  2 32  1  0
  3 33  1  0
  3 34  1  0
  4 35  1  0
  4 36  1  0
  5 37  1  0
  5 38  1  0
  6 39  1  0
  6 40  1  0
  8 41  1  0
  8 42  1  0
  8 43  1  0
  9 44  1  0
  9 45  1  0
  9 46  1  0
 11 47  1  0
 12 48  1  0
 14 49  1  1
 15 50  1  0
 15 51  1  0
 16 52  1  1
 17 53  1  0
 18 54  1  0
 18 55  1  0
 19 56  1  0
 19 57  1  0
 20 58  1  6
 21 59  1  0
 21 60  1  0
 22 61  1  0
 22 62  1  0
 23 63  1  0
 23 64  1  0
 24 65  1  0
 26 66  1  0
 27 67  1  0
M  END
>  <meeko>  (4) 
{"is_sidechain": [false], "free_energy": -8.83, "intermolecular_energy": -14.662, "internal_energy": -1.721}

$$$$
9GF
     RDKit          3D

 67 68  0  0  0  0  0  0  0  0999 V2000
  130.5180  147.7600  169.5190 C   0  0  0  0  0  0  0  0  0  0  0  0
  132.0400  147.5980  169.4660 C   0  0  0  0  0  0  0  0  0  0  0  0
  132.4050  146.5610  168.4030 C   0  0  0  0  0  0  0  0  0  0  0  0
  133.3730  145.5380  169.0000 C   0  0  0  0  0  0  0  0  0  0  0  0
  133.3400  144.2560  168.1670 C   0  0  0  0  0  0  0  0  0  0  0  0
  133.4460  143.0420  169.0920 C   0  0  0  0  0  0  0  0  0  0  0  0
  134.7010  142.2400  168.7380 C   0  0  0  0  0  0  0  0  0  0  0  0
  134.3490  140.7550  168.6500 C   0  0  0  0  0  0  0  0  0  0  0  0
  135.2480  142.7160  167.3910 C   0  0  0  0  0  0  0  0  0  0  0  0
  135.7450  142.4460  169.8060 C   0  0  0  0  0  0  0  0  0  0  0  0
  136.0790  141.4080  170.6550 C   0  0  0  0  0  0  0  0  0  0  0  0
  137.0350  141.5930  171.6360 C   0  0  0  0  0  0  0  0  0  0  0  0
  137.6610  142.8180  171.7690 C   0  0  0  0  0  0  0  0  0  0  0  0
  138.7040  143.0190  172.8390 C   0  0  2  0  0  0  0  0  0  0  0  0
  138.1500  143.9450  173.9230 C   0  0  0  0  0  0  0  0  0  0  0  0
  139.2080  144.1490  175.0090 C   0  0  2  0  0  0  0  0  0  0  0  0
  138.6900  145.0130  176.0220 O   0  0  0  0  0  0  0  0  0  0  0  0
  140.4570  144.7810  174.3900 C   0  0  0  0  0  0  0  0  0  0  0  0
  141.0120  143.8560  173.3050 C   0  0  0  0  0  0  0  0  0  0  0  0
  139.9530  143.6510  172.2200 C   0  0  1  0  0  0  0  0  0  0  0  0
  140.5070  142.7260  171.1340 C   0  0  0  0  0  0  0  0  0  0  0  0
  140.9590  143.5610  169.9340 C   0  0  0  0  0  0  0  0  0  0  0  0
  142.4570  143.8510  170.0500 C   0  0  0  0  0  0  0  0  0  0  0  0
  142.6520  145.2270  170.3850 O   0  0  0  0  0  0  0  0  0  0  0  0
  137.3280  143.8620  170.9180 C   0  0  0  0  0  0  0  0  0  0  0  0
  137.9460  145.0660  171.0440 O   0  0  0  0  0  0  0  0  0  0  0  0
  136.3710  143.6710  169.9320 C   0  0  0  0  0  0  0  0  0  0  0  0
  130.1893  147.7950  170.5682 H   0  0  0  0  0  0  0  0  0  0  0  0
  130.2308  148.6938  169.0134 H   0  0  0  0  0  0  0  0  0  0  0  0
  130.0407  146.9076  169.0134 H   0  0  0  0  0  0  0  0  0  0  0  0
  132.5029  148.5628  169.2113 H   0  0  0  0  0  0  0  0  0  0  0  0
  132.4077  147.2628  170.4471 H   0  0  0  0  0  0  0  0  0  0  0  0
  131.4933  146.0481  168.0628 H   0  0  0  0  0  0  0  0  0  0  0  0
  132.8831  147.0636  167.5493 H   0  0  0  0  0  0  0  0  0  0  0  0
  134.3922  145.9518  168.9953 H   0  0  0  0  0  0  0  0  0  0  0  0
  133.0735  145.3106  170.0337 H   0  0  0  0  0  0  0  0  0  0  0  0
  132.3950  144.2078  167.6061 H   0  0  0  0  0  0  0  0  0  0  0  0
  134.1855  144.2549  167.4633 H   0  0  0  0  0  0  0  0  0  0  0  0
  133.5098  143.3811  170.1365 H   0  0  0  0  0  0  0  0  0  0  0  0
  132.5569  142.4065  168.9670 H   0  0  0  0  0  0  0  0  0  0  0  0
  134.2508  140.3407  169.6643 H   0  0  0  0  0  0  0  0  0  0  0  0
  133.3975  140.6350  168.1112 H   0  0  0  0  0  0  0  0  0  0  0  0
  135.1454  140.2207  168.1112 H   0  0  0  0  0  0  0  0  0  0  0  0
  136.0680  143.4296  167.5597 H   0  0  0  0  0  0  0  0  0  0  0  0
  135.6243  141.8528  166.8224 H   0  0  0  0  0  0  0  0  0  0  0  0
  134.4451  143.2079  166.8224 H   0  0  0  0  0  0  0  0  0  0  0  0
  135.5827  140.4320  170.5498 H   0  0  0  0  0  0  0  0  0  0  0  0
  137.2976  140.7651  172.3110 H   0  0  0  0  0  0  0  0  0  0  0  0
  138.9652  142.0475  173.2840 H   0  0  0  0  0  0  0  0  0  0  0  0
  137.8898  144.9165  173.4775 H   0  0  0  0  0  0  0  0  0  0  0  0
  137.2510  143.4928  174.3672 H   0  0  0  0  0  0  0  0  0  0  0  0
  139.4695  143.1777  175.4541 H   0  0  0  0  0  0  0  0  0  0  0  0
  138.6990  144.6290  176.9100 H   0  0  0  0  0  0  0  0  0  0  0  0
  140.1944  145.7521  173.9449 H   0  0  0  0  0  0  0  0  0  0  0  0
  141.2181  144.9292  175.1702 H   0  0  0  0  0  0  0  0  0  0  0  0
  141.9099  144.3098  172.8601 H   0  0  0  0  0  0  0  0  0  0  0  0
  141.2745  142.8848  173.7498 H   0  0  0  0  0  0  0  0  0  0  0  0
  139.6911  144.6226  171.7757 H   0  0  0  0  0  0  0  0  0  0  0  0
  141.3642  142.1641  171.5333 H   0  0  0  0  0  0  0  0  0  0  0  0
  139.7230  142.0227  170.8167 H   0  0  0  0  0  0  0  0  0  0  0  0
  140.7641  143.0043  169.0055 H   0  0  0  0  0  0  0  0  0  0  0  0
  140.4021  144.5094  169.9165 H   0  0  0  0  0  0  0  0  0  0  0  0
  142.8933  143.2170  170.8359 H   0  0  0  0  0  0  0  0  0  0  0  0
  142.9476  143.6346  169.0895 H   0  0  0  0  0  0  0  0  0  0  0  0
  143.1780  145.3660  171.1850 H   0  0  0  0  0  0  0  0  0  0  0  0
  137.7980  145.6640  170.2990 H   0  0  0  0  0  0  0  0  0  0  0  0
  136.1108  144.4946  169.2508 H   0  0  0  0  0  0  0  0  0  0  0  0
  1  2  1  0
  2  3  1  0
  3  4  1  0
  4  5  1  0
  5  6  1  0
  6  7  1  0
  7  8  1  0
  7  9  1  0
  7 10  1  0
 10 11  1  0
 11 12  2  0
 12 13  1  0
 13 14  1  0
 14 15  1  0
 15 16  1  0
 16 17  1  0
 16 18  1  0
 18 19  1  0
 19 20  1  0
 20 21  1  0
 21 22  1  0
 22 23  1  0
 23 24  1  0
 13 25  2  0
 25 26  1  0
 25 27  1  0
 27 10  2  0
 20 14  1  0
  1 28  1  0
  1 29  1  0
  1 30  1  0
  2 31  1  0
  2 32  1  0
  3 33  1  0
  3 34  1  0
  4 35  1  0
  4 36  1  0
  5 37  1  0
  5 38  1  0
  6 39  1  0
  6 40  1  0
  8 41  1  0
  8 42  1  0
  8 43  1  0
  9 44  1  0
  9 45  1  0
  9 46  1  0
 11 47  1  0
 12 48  1  0
 14 49  1  1
 15 50  1  0
 15 51  1  0
 16 52  1  1
 17 53  1  0
 18 54  1  0
 18 55  1  0
 19 56  1  0
 19 57  1  0
 20 58  1  6
 21 59  1  0
 21 60  1  0
 22 61  1  0
 22 62  1  0
 23 63  1  0
 23 64  1  0
 24 65  1  0
 26 66  1  0
 27 67  1  0
M  END
>  <meeko>  (5) 
{"is_sidechain": [false], "free_energy": -8.747, "intermolecular_energy": -15.538, "internal_energy": -0.706}

$$$$
9GF
     RDKit          3D

 67 68  0  0  0  0  0  0  0  0999 V2000
  139.1170  144.2540  174.7310 C   0  0  0  0  0  0  0  0  0  0  0  0
  138.3140  145.2420  173.8820 C   0  0  0  0  0  0  0  0  0  0  0  0
  139.2730  146.1070  173.0630 C   0  0  0  0  0  0  0  0  0  0  0  0
  140.7160  145.7750  173.4500 C   0  0  0  0  0  0  0  0  0  0  0  0
  141.5510  145.5770  172.1840 C   0  0  0  0  0  0  0  0  0  0  0  0
  141.5910  144.0910  171.8250 C   0  0  0  0  0  0  0  0  0  0  0  0
  141.1690  143.9080  170.3650 C   0  0  0  0  0  0  0  0  0  0  0  0
  141.4800  145.1830  169.5800 C   0  0  0  0  0  0  0  0  0  0  0  0
  141.9360  142.7330  169.7550 C   0  0  0  0  0  0  0  0  0  0  0  0
  139.6890  143.6280  170.3020 C   0  0  0  0  0  0  0  0  0  0  0  0
  138.9480  144.0660  169.2200 C   0  0  0  0  0  0  0  0  0  0  0  0
  137.5910  143.8120  169.1600 C   0  0  0  0  0  0  0  0  0  0  0  0
  136.9710  143.1190  170.1810 C   0  0  0  0  0  0  0  0  0  0  0  0
  135.4910  142.8410  170.1140 C   0  0  2  0  0  0  0  0  0  0  0  0
  135.2630  141.3670  169.7760 C   0  0  0  0  0  0  0  0  0  0  0  0
  133.7600  141.0860  169.7090 C   0  0  2  0  0  0  0  0  0  0  0  0
  133.5470  139.7090  169.3930 O   0  0  0  0  0  0  0  0  0  0  0  0
  133.1260  141.9610  168.6260 C   0  0  0  0  0  0  0  0  0  0  0  0
  133.3540  143.4360  168.9640 C   0  0  0  0  0  0  0  0  0  0  0  0
  134.8560  143.7170  169.0310 C   0  0  1  0  0  0  0  0  0  0  0  0
  135.0850  145.1920  169.3690 C   0  0  0  0  0  0  0  0  0  0  0  0
  133.8400  145.9990  168.9940 C   0  0  0  0  0  0  0  0  0  0  0  0
  133.8750  147.3520  169.7080 C   0  0  0  0  0  0  0  0  0  0  0  0
  132.5460  147.8630  169.8260 O   0  0  0  0  0  0  0  0  0  0  0  0
  137.7120  142.6770  171.2680 C   0  0  0  0  0  0  0  0  0  0  0  0
  137.1050  141.9900  172.2710 O   0  0  0  0  0  0  0  0  0  0  0  0
  139.0750  142.9290  171.3230 C   0  0  0  0  0  0  0  0  0  0  0  0
  138.9465  144.4638  175.7973 H   0  0  0  0  0  0  0  0  0  0  0  0
  138.7939  143.2275  174.5030 H   0  0  0  0  0  0  0  0  0  0  0  0
  140.1878  144.3605  174.5030 H   0  0  0  0  0  0  0  0  0  0  0  0
  137.6501  144.6869  173.2030 H   0  0  0  0  0  0  0  0  0  0  0  0
  137.7109  145.8851  174.5398 H   0  0  0  0  0  0  0  0  0  0  0  0
  139.1249  145.9053  171.9918 H   0  0  0  0  0  0  0  0  0  0  0  0
  139.0737  147.1694  173.2669 H   0  0  0  0  0  0  0  0  0  0  0  0
  141.1366  146.6019  174.0410 H   0  0  0  0  0  0  0  0  0  0  0  0
  140.7320  144.8517  174.0478 H   0  0  0  0  0  0  0  0  0  0  0  0
  141.0995  146.1421  171.3553 H   0  0  0  0  0  0  0  0  0  0  0  0
  142.5748  145.9385  172.3606 H   0  0  0  0  0  0  0  0  0  0  0  0
  142.6130  143.7079  171.9622 H   0  0  0  0  0  0  0  0  0  0  0  0
  140.9012  143.5369  172.4786 H   0  0  0  0  0  0  0  0  0  0  0  0
  141.6807  146.0059  170.2818 H   0  0  0  0  0  0  0  0  0  0  0  0
  142.3640  145.0173  168.9468 H   0  0  0  0  0  0  0  0  0  0  0  0
  140.6189  145.4429  168.9468 H   0  0  0  0  0  0  0  0  0  0  0  0
  142.3458  142.1052  170.5599 H   0  0  0  0  0  0  0  0  0  0  0  0
  141.2547  142.1336  169.1333 H   0  0  0  0  0  0  0  0  0  0  0  0
  142.7589  143.1155  169.1333 H   0  0  0  0  0  0  0  0  0  0  0  0
  139.4397  144.6178  168.4053 H   0  0  0  0  0  0  0  0  0  0  0  0
  137.0041  144.1622  168.2981 H   0  0  0  0  0  0  0  0  0  0  0  0
  135.0310  143.0690  171.0869 H   0  0  0  0  0  0  0  0  0  0  0  0
  135.7226  141.1385  168.8031 H   0  0  0  0  0  0  0  0  0  0  0  0
  135.7196  140.7374  170.5539 H   0  0  0  0  0  0  0  0  0  0  0  0
  133.3001  141.3148  170.6817 H   0  0  0  0  0  0  0  0  0  0  0  0
  134.1850  139.3470  168.7620 H   0  0  0  0  0  0  0  0  0  0  0  0
  133.5865  141.7322  167.6536 H   0  0  0  0  0  0  0  0  0  0  0  0
  132.0459  141.7587  168.5768 H   0  0  0  0  0  0  0  0  0  0  0  0
  132.8975  144.0654  168.1859 H   0  0  0  0  0  0  0  0  0  0  0  0
  132.8942  143.6648  169.9368 H   0  0  0  0  0  0  0  0  0  0  0  0
  135.3154  143.4884  168.0580 H   0  0  0  0  0  0  0  0  0  0  0  0
  135.2786  145.2957  170.4469 H   0  0  0  0  0  0  0  0  0  0  0  0
  135.9505  145.5682  168.8039 H   0  0  0  0  0  0  0  0  0  0  0  0
  133.8208  146.1590  167.9059 H   0  0  0  0  0  0  0  0  0  0  0  0
  132.9392  145.4465  169.2993 H   0  0  0  0  0  0  0  0  0  0  0  0
  134.3098  147.2263  170.7105 H   0  0  0  0  0  0  0  0  0  0  0  0
  134.4886  148.0569  169.1278 H   0  0  0  0  0  0  0  0  0  0  0  0
  132.3250  148.1860  170.7100 H   0  0  0  0  0  0  0  0  0  0  0  0
  137.6970  141.7450  172.9940 H   0  0  0  0  0  0  0  0  0  0  0  0
  139.6665  142.5724  172.1791 H   0  0  0  0  0  0  0  0  0  0  0  0
  1  2  1  0
  2  3  1  0
  3  4  1  0
  4  5  1  0
  5  6  1  0
  6  7  1  0
  7  8  1  0
  7  9  1  0
  7 10  1  0
 10 11  1  0
 11 12  2  0
 12 13  1  0
 13 14  1  0
 14 15  1  0
 15 16  1  0
 16 17  1  0
 16 18  1  0
 18 19  1  0
 19 20  1  0
 20 21  1  0
 21 22  1  0
 22 23  1  0
 23 24  1  0
 13 25  2  0
 25 26  1  0
 25 27  1  0
 27 10  2  0
 20 14  1  0
  1 28  1  0
  1 29  1  0
  1 30  1  0
  2 31  1  0
  2 32  1  0
  3 33  1  0
  3 34  1  0
  4 35  1  0
  4 36  1  0
  5 37  1  0
  5 38  1  0
  6 39  1  0
  6 40  1  0
  8 41  1  0
  8 42  1  0
  8 43  1  0
  9 44  1  0
  9 45  1  0
  9 46  1  0
 11 47  1  0
 12 48  1  0
 14 49  1  1
 15 50  1  0
 15 51  1  0
 16 52  1  1
 17 53  1  0
 18 54  1  0
 18 55  1  0
 19 56  1  0
 19 57  1  0
 20 58  1  6
 21 59  1  0
 21 60  1  0
 22 61  1  0
 22 62  1  0
 23 63  1  0
 23 64  1  0
 24 65  1  0
 26 66  1  0
 27 67  1  0
M  END
>  <meeko>  (6) 
{"is_sidechain": [false], "free_energy": -8.537, "intermolecular_energy": -14.185, "internal_energy": -1.708}

$$$$
9GF
     RDKit          3D

 67 68  0  0  0  0  0  0  0  0999 V2000
  134.1970  139.7700  170.0270 C   0  0  0  0  0  0  0  0  0  0  0  0
  132.8420  140.1520  169.4250 C   0  0  0  0  0  0  0  0  0  0  0  0
  132.9100  141.5800  168.8810 C   0  0  0  0  0  0  0  0  0  0  0  0
  134.0750  141.6950  167.8960 C   0  0  0  0  0  0  0  0  0  0  0  0
  134.7780  143.0390  168.0900 C   0  0  0  0  0  0  0  0  0  0  0  0
  135.2850  143.1470  169.5290 C   0  0  0  0  0  0  0  0  0  0  0  0
  136.3110  144.2790  169.6250 C   0  0  0  0  0  0  0  0  0  0  0  0
  137.1690  144.2980  168.3590 C   0  0  0  0  0  0  0  0  0  0  0  0
  135.5830  145.6170  169.7680 C   0  0  0  0  0  0  0  0  0  0  0  0
  137.1940  144.0560  170.8260 C   0  0  0  0  0  0  0  0  0  0  0  0
  137.6030  145.1310  171.5920 C   0  0  0  0  0  0  0  0  0  0  0  0
  138.4130  144.9310  172.6930 C   0  0  0  0  0  0  0  0  0  0  0  0
  138.8170  143.6540  173.0320 C   0  0  0  0  0  0  0  0  0  0  0  0
  139.7000  143.4350  174.2330 C   0  0  2  0  0  0  0  0  0  0  0  0
  138.9140  143.7450  175.5080 C   0  0  0  0  0  0  0  0  0  0  0  0
  139.8110  143.5230  176.7270 C   0  0  2  0  0  0  0  0  0  0  0  0
  139.0760  143.8120  177.9180 O   0  0  0  0  0  0  0  0  0  0  0  0
  141.0270  144.4480  176.6410 C   0  0  0  0  0  0  0  0  0  0  0  0
  141.8140  144.1380  175.3660 C   0  0  0  0  0  0  0  0  0  0  0  0
  140.9170  144.3600  174.1470 C   0  0  1  0  0  0  0  0  0  0  0  0
  141.7030  144.0500  172.8710 C   0  0  0  0  0  0  0  0  0  0  0  0
  141.9930  145.3530  172.1220 C   0  0  0  0  0  0  0  0  0  0  0  0
  142.9960  145.0820  170.9980 C   0  0  0  0  0  0  0  0  0  0  0  0
  143.1420  146.2570  170.1980 O   0  0  0  0  0  0  0  0  0  0  0  0
  138.4070  142.5720  172.2650 C   0  0  0  0  0  0  0  0  0  0  0  0
  138.7990  141.3140  172.5990 O   0  0  0  0  0  0  0  0  0  0  0  0
  137.5900  142.7760  171.1630 C   0  0  0  0  0  0  0  0  0  0  0  0
  134.1290  139.7892  171.1247 H   0  0  0  0  0  0  0  0  0  0  0  0
  134.4740  138.7588  169.6944 H   0  0  0  0  0  0  0  0  0  0  0  0
  134.9614  140.4877  169.6944 H   0  0  0  0  0  0  0  0  0  0  0  0
  132.5959  139.4592  168.6067 H   0  0  0  0  0  0  0  0  0  0  0  0
  132.0657  140.0922  170.2020 H   0  0  0  0  0  0  0  0  0  0  0  0
  131.9687  141.8213  168.3655 H   0  0  0  0  0  0  0  0  0  0  0  0
  133.0626  142.2828  169.7133 H   0  0  0  0  0  0  0  0  0  0  0  0
  134.7895  140.8784  168.0767 H   0  0  0  0  0  0  0  0  0  0  0  0
  133.6922  141.6274  166.8670 H   0  0  0  0  0  0  0  0  0  0  0  0
  135.6279  143.1117  167.3955 H   0  0  0  0  0  0  0  0  0  0  0  0
  134.0690  143.8557  167.8891 H   0  0  0  0  0  0  0  0  0  0  0  0
  134.4401  143.3600  170.2004 H   0  0  0  0  0  0  0  0  0  0  0  0
  135.7573  142.1982  169.8235 H   0  0  0  0  0  0  0  0  0  0  0  0
  138.2329  144.3216  168.6374 H   0  0  0  0  0  0  0  0  0  0  0  0
  136.9655  143.3951  167.7645 H   0  0  0  0  0  0  0  0  0  0  0  0
  136.9257  145.1910  167.7645 H   0  0  0  0  0  0  0  0  0  0  0  0
  135.4548  145.8525  170.8348 H   0  0  0  0  0  0  0  0  0  0  0  0
  136.1743  146.4095  169.2860 H   0  0  0  0  0  0  0  0  0  0  0  0
  134.5964  145.5510  169.2860 H   0  0  0  0  0  0  0  0  0  0  0  0
  137.2827  146.1487  171.3243 H   0  0  0  0  0  0  0  0  0  0  0  0
  138.7366  145.7892  173.3003 H   0  0  0  0  0  0  0  0  0  0  0  0
  140.0355  142.3876  174.2547 H   0  0  0  0  0  0  0  0  0  0  0  0
  138.5779  144.7922  175.4860 H   0  0  0  0  0  0  0  0  0  0  0  0
  138.0397  143.0804  175.5703 H   0  0  0  0  0  0  0  0  0  0  0  0
  140.1477  142.4760  176.7487 H   0  0  0  0  0  0  0  0  0  0  0  0
  138.4600  143.1140  178.1800 H   0  0  0  0  0  0  0  0  0  0  0  0
  140.6905  145.4950  176.6188 H   0  0  0  0  0  0  0  0  0  0  0  0
  141.6717  144.2888  177.5179 H   0  0  0  0  0  0  0  0  0  0  0  0
  142.6883  144.8027  175.3039 H   0  0  0  0  0  0  0  0  0  0  0  0
  142.1505  143.0910  175.3880 H   0  0  0  0  0  0  0  0  0  0  0  0
  140.5813  145.4073  174.1258 H   0  0  0  0  0  0  0  0  0  0  0  0
  142.6517  143.5595  173.1346 H   0  0  0  0  0  0  0  0  0  0  0  0
  141.1110  143.3814  172.2287 H   0  0  0  0  0  0  0  0  0  0  0  0
  141.0590  145.7454  171.6934 H   0  0  0  0  0  0  0  0  0  0  0  0
  142.4145  146.0915  172.8198 H   0  0  0  0  0  0  0  0  0  0  0  0
  143.9695  144.8106  171.4325 H   0  0  0  0  0  0  0  0  0  0  0  0
  142.6311  144.2545  170.3719 H   0  0  0  0  0  0  0  0  0  0  0  0
  143.6120  146.1100  169.3660 H   0  0  0  0  0  0  0  0  0  0  0  0
  139.5180  140.9680  172.0530 H   0  0  0  0  0  0  0  0  0  0  0  0
  137.2577  141.9196  170.5579 H   0  0  0  0  0  0  0  0  0  0  0  0
  1  2  1  0
  2  3  1  0
  3  4  1  0
  4  5  1  0
  5  6  1  0
  6  7  1  0
  7  8  1  0
  7  9  1  0
  7 10  1  0
 10 11  1  0
 11 12  2  0
 12 13  1  0
 13 14  1  0
 14 15  1  0
 15 16  1  0
 16 17  1  0
 16 18  1  0
 18 19  1  0
 19 20  1  0
 20 21  1  0
 21 22  1  0
 22 23  1  0
 23 24  1  0
 13 25  2  0
 25 26  1  0
 25 27  1  0
 27 10  2  0
 20 14  1  0
  1 28  1  0
  1 29  1  0
  1 30  1  0
  2 31  1  0
  2 32  1  0
  3 33  1  0
  3 34  1  0
  4 35  1  0
  4 36  1  0
  5 37  1  0
  5 38  1  0
  6 39  1  0
  6 40  1  0
  8 41  1  0
  8 42  1  0
  8 43  1  0
  9 44  1  0
  9 45  1  0
  9 46  1  0
 11 47  1  0
 12 48  1  0
 14 49  1  1
 15 50  1  0
 15 51  1  0
 16 52  1  1
 17 53  1  0
 18 54  1  0
 18 55  1  0
 19 56  1  0
 19 57  1  0
 20 58  1  6
 21 59  1  0
 21 60  1  0
 22 61  1  0
 22 62  1  0
 23 63  1  0
 23 64  1  0
 24 65  1  0
 26 66  1  0
 27 67  1  0
M  END
>  <meeko>  (7) 
{"is_sidechain": [false], "free_energy": -8.426, "intermolecular_energy": -14.014, "internal_energy": -1.694}

$$$$
9GF
     RDKit          3D

 67 68  0  0  0  0  0  0  0  0999 V2000
  140.2810  143.9080  169.1140 C   0  0  0  0  0  0  0  0  0  0  0  0
  141.5640  143.0800  169.2260 C   0  0  0  0  0  0  0  0  0  0  0  0
  142.4360  143.6420  170.3510 C   0  0  0  0  0  0  0  0  0  0  0  0
  142.3450  145.1700  170.3510 C   0  0  0  0  0  0  0  0  0  0  0  0
  142.3120  145.6790  171.7930 C   0  0  0  0  0  0  0  0  0  0  0  0
  142.1860  144.4920  172.7510 C   0  0  0  0  0  0  0  0  0  0  0  0
  140.9460  144.6760  173.6290 C   0  0  0  0  0  0  0  0  0  0  0  0
  141.1360  143.9200  174.9450 C   0  0  0  0  0  0  0  0  0  0  0  0
  140.7420  146.1640  173.9200 C   0  0  0  0  0  0  0  0  0  0  0  0
  139.7370  144.1340  172.9090 C   0  0  0  0  0  0  0  0  0  0  0  0
  138.7960  145.0030  172.3880 C   0  0  0  0  0  0  0  0  0  0  0  0
  137.6860  144.5100  171.7290 C   0  0  0  0  0  0  0  0  0  0  0  0
  137.5140  143.1470  171.5880 C   0  0  0  0  0  0  0  0  0  0  0  0
  136.3040  142.6090  170.8680 C   0  0  2  0  0  0  0  0  0  0  0  0
  136.2190  141.0960  171.0730 C   0  0  0  0  0  0  0  0  0  0  0  0
  134.9900  140.5500  170.3430 C   0  0  2  0  0  0  0  0  0  0  0  0
  134.9110  139.1370  170.5340 O   0  0  0  0  0  0  0  0  0  0  0  0
  135.1070  140.8570  168.8480 C   0  0  0  0  0  0  0  0  0  0  0  0
  135.1920  142.3710  168.6430 C   0  0  0  0  0  0  0  0  0  0  0  0
  136.4210  142.9160  169.3730 C   0  0  1  0  0  0  0  0  0  0  0  0
  136.5060  144.4300  169.1680 C   0  0  0  0  0  0  0  0  0  0  0  0
  135.1050  144.9880  168.9100 C   0  0  0  0  0  0  0  0  0  0  0  0
  134.8940  146.2470  169.7550 C   0  0  0  0  0  0  0  0  0  0  0  0
  133.6480  146.8530  169.4040 O   0  0  0  0  0  0  0  0  0  0  0  0
  138.4570  142.2720  172.1090 C   0  0  0  0  0  0  0  0  0  0  0  0
  138.2920  140.9310  171.9680 O   0  0  0  0  0  0  0  0  0  0  0  0
  139.5730  142.7700  172.7670 C   0  0  0  0  0  0  0  0  0  0  0  0
  139.9100  144.1474  170.1215 H   0  0  0  0  0  0  0  0  0  0  0  0
  140.4926  144.8404  168.5700 H   0  0  0  0  0  0  0  0  0  0  0  0
  139.5186  143.3311  168.5700 H   0  0  0  0  0  0  0  0  0  0  0  0
  141.3072  142.0338  169.4487 H   0  0  0  0  0  0  0  0  0  0  0  0
  142.1156  143.1273  168.2755 H   0  0  0  0  0  0  0  0  0  0  0  0
  142.0830  143.2535  171.3177 H   0  0  0  0  0  0  0  0  0  0  0  0
  143.4809  143.3365  170.1930 H   0  0  0  0  0  0  0  0  0  0  0  0
  143.2207  145.5894  169.8341 H   0  0  0  0  0  0  0  0  0  0  0  0
  141.4276  145.4826  169.8308 H   0  0  0  0  0  0  0  0  0  0  0  0
  143.2405  146.2277  172.0094 H   0  0  0  0  0  0  0  0  0  0  0  0
  141.4501  146.3496  171.9252 H   0  0  0  0  0  0  0  0  0  0  0  0
  142.0907  143.5616  172.1719 H   0  0  0  0  0  0  0  0  0  0  0  0
  143.0816  144.4371  173.3873 H   0  0  0  0  0  0  0  0  0  0  0  0
  140.9641  144.6042  175.7890 H   0  0  0  0  0  0  0  0  0  0  0  0
  140.4192  143.0872  174.9962 H   0  0  0  0  0  0  0  0  0  0  0  0
  142.1614  143.5250  174.9962 H   0  0  0  0  0  0  0  0  0  0  0  0
  140.7199  146.3252  175.0079 H   0  0  0  0  0  0  0  0  0  0  0  0
  141.5695  146.7403  173.4807 H   0  0  0  0  0  0  0  0  0  0  0  0
  139.7899  146.4964  173.4807 H   0  0  0  0  0  0  0  0  0  0  0  0
  138.9313  146.0891  172.4984 H   0  0  0  0  0  0  0  0  0  0  0  0
  136.9387  145.2038  171.3164 H   0  0  0  0  0  0  0  0  0  0  0  0
  135.3972  143.0846  171.2698 H   0  0  0  0  0  0  0  0  0  0  0  0
  137.1256  140.6201  170.6710 H   0  0  0  0  0  0  0  0  0  0  0  0
  136.1347  140.8760  172.1475 H   0  0  0  0  0  0  0  0  0  0  0  0
  134.0833  141.0253  170.7455 H   0  0  0  0  0  0  0  0  0  0  0  0
  134.8570  138.6310  169.7120 H   0  0  0  0  0  0  0  0  0  0  0  0
  136.0135  140.3811  168.4459 H   0  0  0  0  0  0  0  0  0  0  0  0
  134.2233  140.4651  168.3231 H   0  0  0  0  0  0  0  0  0  0  0  0
  135.2760  142.5914  167.5686 H   0  0  0  0  0  0  0  0  0  0  0  0
  134.2855  142.8470  169.0451 H   0  0  0  0  0  0  0  0  0  0  0  0
  137.3276  142.4402  168.9709 H   0  0  0  0  0  0  0  0  0  0  0  0
  136.9275  144.8991  170.0692 H   0  0  0  0  0  0  0  0  0  0  0  0
  137.1526  144.6479  168.3052 H   0  0  0  0  0  0  0  0  0  0  0  0
  135.0011  145.2399  167.8443 H   0  0  0  0  0  0  0  0  0  0  0  0
  134.3533  144.2327  169.1830 H   0  0  0  0  0  0  0  0  0  0  0  0
  134.8823  145.9755  170.8209 H   0  0  0  0  0  0  0  0  0  0  0  0
  135.7130  146.9567  169.5664 H   0  0  0  0  0  0  0  0  0  0  0  0
  133.2410  147.3580  170.1200 H   0  0  0  0  0  0  0  0  0  0  0  0
  137.8840  140.5020  172.7310 H   0  0  0  0  0  0  0  0  0  0  0  0
  140.3258  142.0793  173.1748 H   0  0  0  0  0  0  0  0  0  0  0  0
  1  2  1  0
  2  3  1  0
  3  4  1  0
  4  5  1  0
  5  6  1  0
  6  7  1  0
  7  8  1  0
  7  9  1  0
  7 10  1  0
 10 11  1  0
 11 12  2  0
 12 13  1  0
 13 14  1  0
 14 15  1  0
 15 16  1  0
 16 17  1  0
 16 18  1  0
 18 19  1  0
 19 20  1  0
 20 21  1  0
 21 22  1  0
 22 23  1  0
 23 24  1  0
 13 25  2  0
 25 26  1  0
 25 27  1  0
 27 10  2  0
 20 14  1  0
  1 28  1  0
  1 29  1  0
  1 30  1  0
  2 31  1  0
  2 32  1  0
  3 33  1  0
  3 34  1  0
  4 35  1  0
  4 36  1  0
  5 37  1  0
  5 38  1  0
  6 39  1  0
  6 40  1  0
  8 41  1  0
  8 42  1  0
  8 43  1  0
  9 44  1  0
  9 45  1  0
  9 46  1  0
 11 47  1  0
 12 48  1  0
 14 49  1  1
 15 50  1  0
 15 51  1  0
 16 52  1  1
 17 53  1  0
 18 54  1  0
 18 55  1  0
 19 56  1  0
 19 57  1  0
 20 58  1  6
 21 59  1  0
 21 60  1  0
 22 61  1  0
 22 62  1  0
 23 63  1  0
 23 64  1  0
 24 65  1  0
 26 66  1  0
 27 67  1  0
M  END
>  <meeko>  (8) 
{"is_sidechain": [false], "free_energy": -8.245, "intermolecular_energy": -14.487, "internal_energy": -0.918}

$$$$
9GF
     RDKit          3D

 67 68  0  0  0  0  0  0  0  0999 V2000
  139.9770  142.5600  175.7830 C   0  0  0  0  0  0  0  0  0  0  0  0
  140.1790  144.0040  176.2500 C   0  0  0  0  0  0  0  0  0  0  0  0
  141.3510  144.6260  175.4880 C   0  0  0  0  0  0  0  0  0  0  0  0
  142.2540  143.5160  174.9470 C   0  0  0  0  0  0  0  0  0  0  0  0
  142.7370  143.8880  173.5450 C   0  0  0  0  0  0  0  0  0  0  0  0
  141.8510  144.9980  172.9770 C   0  0  0  0  0  0  0  0  0  0  0  0
  141.6060  144.7440  171.4890 C   0  0  0  0  0  0  0  0  0  0  0  0
  141.7690  146.0520  170.7130 C   0  0  0  0  0  0  0  0  0  0  0  0
  142.6140  143.7160  170.9730 C   0  0  0  0  0  0  0  0  0  0  0  0
  140.2070  144.2160  171.2940 C   0  0  0  0  0  0  0  0  0  0  0  0
  139.7210  144.0010  170.0180 C   0  0  0  0  0  0  0  0  0  0  0  0
  138.4390  143.5180  169.8360 C   0  0  0  0  0  0  0  0  0  0  0  0
  137.6390  143.2490  170.9300 C   0  0  0  0  0  0  0  0  0  0  0  0
  136.2410  142.7220  170.7310 C   0  0  2  0  0  0  0  0  0  0  0  0
  136.2710  141.1940  170.7010 C   0  0  0  0  0  0  0  0  0  0  0  0
  134.8520  140.6590  170.5000 C   0  0  2  0  0  0  0  0  0  0  0  0
  134.8800  139.2310  170.4720 O   0  0  0  0  0  0  0  0  0  0  0  0
  134.2930  141.1830  169.1750 C   0  0  0  0  0  0  0  0  0  0  0  0
  134.2630  142.7130  169.2040 C   0  0  0  0  0  0  0  0  0  0  0  0
  135.6820  143.2470  169.4060 C   0  0  1  0  0  0  0  0  0  0  0  0
  135.6520  144.7770  169.4350 C   0  0  0  0  0  0  0  0  0  0  0  0
  134.2440  145.2650  169.0880 C   0  0  0  0  0  0  0  0  0  0  0  0
  134.0770  146.7130  169.5540 C   0  0  0  0  0  0  0  0  0  0  0  0
  133.1810  147.3960  168.6740 O   0  0  0  0  0  0  0  0  0  0  0  0
  138.1240  143.4640  172.2120 C   0  0  0  0  0  0  0  0  0  0  0  0
  137.3410  143.1950  173.2900 O   0  0  0  0  0  0  0  0  0  0  0  0
  139.4130  143.9440  172.3920 C   0  0  0  0  0  0  0  0  0  0  0  0
  139.8848  141.9009  176.6588 H   0  0  0  0  0  0  0  0  0  0  0  0
  139.0611  142.4952  175.1773 H   0  0  0  0  0  0  0  0  0  0  0  0
  140.8400  142.2464  175.1773 H   0  0  0  0  0  0  0  0  0  0  0  0
  139.2651  144.5841  176.0545 H   0  0  0  0  0  0  0  0  0  0  0  0
  140.3954  144.0142  177.3285 H   0  0  0  0  0  0  0  0  0  0  0  0
  140.9664  145.2267  174.6506 H   0  0  0  0  0  0  0  0  0  0  0  0
  141.9288  145.2707  176.1666 H   0  0  0  0  0  0  0  0  0  0  0  0
  143.1211  143.3921  175.6124 H   0  0  0  0  0  0  0  0  0  0  0  0
  141.6884  142.5737  174.9013 H   0  0  0  0  0  0  0  0  0  0  0  0
  143.7777  144.2405  173.5974 H   0  0  0  0  0  0  0  0  0  0  0  0
  142.6810  143.0046  172.8920 H   0  0  0  0  0  0  0  0  0  0  0  0
  140.8890  145.0083  173.5104 H   0  0  0  0  0  0  0  0  0  0  0  0
  142.3521  145.9688  173.1055 H   0  0  0  0  0  0  0  0  0  0  0  0
  141.8731  146.8877  171.4207 H   0  0  0  0  0  0  0  0  0  0  0  0
  142.6668  145.9934  170.0801 H   0  0  0  0  0  0  0  0  0  0  0  0
  140.8843  146.2156  170.0801 H   0  0  0  0  0  0  0  0  0  0  0  0
  143.1006  143.2197  171.8256 H   0  0  0  0  0  0  0  0  0  0  0  0
  142.0919  142.9656  170.3612 H   0  0  0  0  0  0  0  0  0  0  0  0
  143.3745  144.2233  170.3612 H   0  0  0  0  0  0  0  0  0  0  0  0
  140.3560  144.2148  169.1456 H   0  0  0  0  0  0  0  0  0  0  0  0
  138.0551  143.3476  168.8193 H   0  0  0  0  0  0  0  0  0  0  0  0
  135.6008  143.0597  171.5593 H   0  0  0  0  0  0  0  0  0  0  0  0
  136.9108  140.8562  169.8724 H   0  0  0  0  0  0  0  0  0  0  0  0
  136.6732  140.8168  171.6528 H   0  0  0  0  0  0  0  0  0  0  0  0
  134.2124  140.9970  171.3286 H   0  0  0  0  0  0  0  0  0  0  0  0
  134.0050  138.8200  170.4280 H   0  0  0  0  0  0  0  0  0  0  0  0
  134.9334  140.8443  168.3472 H   0  0  0  0  0  0  0  0  0  0  0  0
  133.2726  140.7987  169.0297 H   0  0  0  0  0  0  0  0  0  0  0  0
  133.8614  143.0900  168.2518 H   0  0  0  0  0  0  0  0  0  0  0  0
  133.6225  143.0516  170.0317 H   0  0  0  0  0  0  0  0  0  0  0  0
  136.3226  142.9086  168.5782 H   0  0  0  0  0  0  0  0  0  0  0  0
  135.9254  145.1303  170.4402 H   0  0  0  0  0  0  0  0  0  0  0  0
  136.3690  145.1723  168.7004 H   0  0  0  0  0  0  0  0  0  0  0  0
  134.0949  145.2106  167.9995 H   0  0  0  0  0  0  0  0  0  0  0  0
  133.5010  144.6295  169.5920 H   0  0  0  0  0  0  0  0  0  0  0  0
  133.6682  146.7248  170.5752 H   0  0  0  0  0  0  0  0  0  0  0  0
  135.0550  147.2164  169.5449 H   0  0  0  0  0  0  0  0  0  0  0  0
  133.6100  147.7820  167.8980 H   0  0  0  0  0  0  0  0  0  0  0  0
  137.7260  142.5590  173.9070 H   0  0  0  0  0  0  0  0  0  0  0  0
  139.8027  144.1079  173.4075 H   0  0  0  0  0  0  0  0  0  0  0  0
  1  2  1  0
  2  3  1  0
  3  4  1  0
  4  5  1  0
  5  6  1  0
  6  7  1  0
  7  8  1  0
  7  9  1  0
  7 10  1  0
 10 11  1  0
 11 12  2  0
 12 13  1  0
 13 14  1  0
 14 15  1  0
 15 16  1  0
 16 17  1  0
 16 18  1  0
 18 19  1  0
 19 20  1  0
 20 21  1  0
 21 22  1  0
 22 23  1  0
 23 24  1  0
 13 25  2  0
 25 26  1  0
 25 27  1  0
 27 10  2  0
 20 14  1  0
  1 28  1  0
  1 29  1  0
  1 30  1  0
  2 31  1  0
  2 32  1  0
  3 33  1  0
  3 34  1  0
  4 35  1  0
  4 36  1  0
  5 37  1  0
  5 38  1  0
  6 39  1  0
  6 40  1  0
  8 41  1  0
  8 42  1  0
  8 43  1  0
  9 44  1  0
  9 45  1  0
  9 46  1  0
 11 47  1  0
 12 48  1  0
 14 49  1  1
 15 50  1  0
 15 51  1  0
 16 52  1  1
 17 53  1  0
 18 54  1  0
 18 55  1  0
 19 56  1  0
 19 57  1  0
 20 58  1  6
 21 59  1  0
 21 60  1  0
 22 61  1  0
 22 62  1  0
 23 63  1  0
 23 64  1  0
 24 65  1  0
 26 66  1  0
 27 67  1  0
M  END
>  <meeko>  (9) 
{"is_sidechain": [false], "free_energy": -7.856, "intermolecular_energy": -13.016, "internal_energy": -1.738}

$$$$
