
     RDKit          3D

 40 43  0  0  0  0  0  0  0  0999 V2000
    7.4060   -1.1990  -52.0230 O   0  0  0  0  0  0  0  0  0  0  0  0
    7.0310   -0.0500  -52.7690 C   0  0  0  0  0  0  0  0  0  0  0  0
    7.2710   -0.2990  -54.2610 C   0  0  0  0  0  0  0  0  0  0  0  0
    6.0520    0.0880  -55.1250 C   0  0  0  0  0  0  0  0  0  0  0  0
    6.1620    1.5190  -55.6400 C   0  0  0  0  0  0  0  0  0  0  0  0
    7.3710    1.7220  -56.4730 N   0  0  0  0  0  0  0  0  0  0  0  0
    7.1220    1.8950  -57.8050 C   0  0  0  0  0  0  0  0  0  0  0  0
    6.0110    1.5630  -58.4270 N   0  0  0  0  0  0  0  0  0  0  0  0
    6.2350    1.7870  -59.7620 C   0  0  0  0  0  0  0  0  0  0  0  0
    5.0410    1.4430  -60.9250 Cl  0  0  0  0  0  0  0  0  0  0  0  0
    7.4980    2.2870  -59.9580 C   0  0  0  0  0  0  0  0  0  0  0  0
    8.2650    2.6750  -61.0810 C   0  0  0  0  0  0  0  0  0  0  0  0
    7.6890    2.4850  -62.2720 O   0  0  0  0  0  0  0  0  0  0  0  0
    9.4510    3.1740  -61.0180 N   0  0  0  0  0  0  0  0  0  0  0  0
   10.0010    3.3640  -59.7290 C   0  0  0  0  0  0  0  0  0  0  0  0
   11.2670    3.9460  -59.6400 C   0  0  0  0  0  0  0  0  0  0  0  0
   11.8460    4.1800  -58.3950 C   0  0  0  0  0  0  0  0  0  0  0  0
   13.4060    4.8990  -58.2990 Cl  0  0  0  0  0  0  0  0  0  0  0  0
   11.1670    3.8460  -57.2230 C   0  0  0  0  0  0  0  0  0  0  0  0
    9.9000    3.2610  -57.2900 C   0  0  0  0  0  0  0  0  0  0  0  0
    9.3260    3.0060  -58.5380 C   0  0  0  0  0  0  0  0  0  0  0  0
    8.0470    2.4170  -58.7000 N   0  0  0  0  0  0  0  0  0  0  0  0
    8.4740    0.7700  -56.2070 C   0  0  0  0  0  0  0  0  0  0  0  0
    8.5400    0.4370  -54.7210 C   0  0  0  0  0  0  0  0  0  0  0  0
    7.3840   -1.9590  -52.6310 H   0  0  0  0  0  0  0  0  0  0  0  0
    5.9649    0.1625  -52.6011 H   0  0  0  0  0  0  0  0  0  0  0  0
    7.6360    0.8086  -52.4422 H   0  0  0  0  0  0  0  0  0  0  0  0
    7.4178   -1.3802  -54.4006 H   0  0  0  0  0  0  0  0  0  0  0  0
    5.9909   -0.5969  -55.9836 H   0  0  0  0  0  0  0  0  0  0  0  0
    5.1497    0.0152  -54.5001 H   0  0  0  0  0  0  0  0  0  0  0  0
    5.2722    1.7472  -56.2452 H   0  0  0  0  0  0  0  0  0  0  0  0
    6.2354    2.1870  -54.7691 H   0  0  0  0  0  0  0  0  0  0  0  0
    7.6580    1.5270  -62.4310 H   0  0  0  0  0  0  0  0  0  0  0  0
   11.8093    4.2208  -60.5567 H   0  0  0  0  0  0  0  0  0  0  0  0
   11.6298    4.0435  -56.2448 H   0  0  0  0  0  0  0  0  0  0  0  0
    9.3588    3.0033  -56.3677 H   0  0  0  0  0  0  0  0  0  0  0  0
    8.3013   -0.1540  -56.7784 H   0  0  0  0  0  0  0  0  0  0  0  0
    9.4251    1.2305  -56.5126 H   0  0  0  0  0  0  0  0  0  0  0  0
    9.4143   -0.2041  -54.5351 H   0  0  0  0  0  0  0  0  0  0  0  0
    8.6224    1.3772  -54.1559 H   0  0  0  0  0  0  0  0  0  0  0  0
  1  2  1  0
  2  3  1  0
  3  4  1  0
  4  5  1  0
  5  6  1  0
  6  7  1  0
  7  8  2  0
  8  9  1  0
  9 10  1  0
  9 11  2  0
 11 12  1  0
 12 13  1  0
 12 14  2  0
 14 15  1  0
 15 16  2  0
 16 17  1  0
 17 18  1  0
 17 19  2  0
 19 20  1  0
 20 21  2  0
 21 22  1  0
  6 23  1  0
 23 24  1  0
 24  3  1  0
 22  7  1  0
 22 11  1  0
 21 15  1  0
  1 25  1  0
  2 26  1  0
  2 27  1  0
  3 28  1  0
  4 29  1  0
  4 30  1  0
  5 31  1  0
  5 32  1  0
 13 33  1  0
 16 34  1  0
 19 35  1  0
 20 36  1  0
 23 37  1  0
 23 38  1  0
 24 39  1  0
 24 40  1  0
M  END
>  <meeko>  (1) 
{"is_sidechain": false}

$$$$

     RDKit          3D

 40 43  0  0  0  0  0  0  0  0999 V2000
    7.2930    2.3650  -62.5530 O   0  0  0  0  0  0  0  0  0  0  0  0
    7.7700    2.6290  -61.4550 C   0  0  0  0  0  0  0  0  0  0  0  0
    8.9430    3.3450  -61.3730 N   0  0  0  0  0  0  0  0  0  0  0  0
    9.5500    3.7210  -60.1660 C   0  0  0  0  0  0  0  0  0  0  0  0
   10.7150    4.4880  -60.2050 C   0  0  0  0  0  0  0  0  0  0  0  0
   11.3080    4.8890  -59.0090 C   0  0  0  0  0  0  0  0  0  0  0  0
   12.7440    5.8360  -59.0460 Cl  0  0  0  0  0  0  0  0  0  0  0  0
   10.7430    4.5390  -57.7830 C   0  0  0  0  0  0  0  0  0  0  0  0
    9.5760    3.7690  -57.7420 C   0  0  0  0  0  0  0  0  0  0  0  0
    8.9860    3.3440  -58.9340 C   0  0  0  0  0  0  0  0  0  0  0  0
    7.8090    2.5570  -58.9910 N   0  0  0  0  0  0  0  0  0  0  0  0
    7.0320    1.9650  -58.0010 C   0  0  0  0  0  0  0  0  0  0  0  0
    7.3870    1.9280  -56.6830 N   0  0  0  0  0  0  0  0  0  0  0  0
    8.5950    1.1140  -56.4210 C   0  0  0  0  0  0  0  0  0  0  0  0
    8.7200    0.7820  -54.9380 C   0  0  0  0  0  0  0  0  0  0  0  0
    7.5480   -0.1040  -54.4780 C   0  0  0  0  0  0  0  0  0  0  0  0
    7.3720   -0.0400  -52.9570 C   0  0  0  0  0  0  0  0  0  0  0  0
    7.7030   -1.2870  -52.3600 O   0  0  0  0  0  0  0  0  0  0  0  0
    6.2510    0.2550  -55.2280 C   0  0  0  0  0  0  0  0  0  0  0  0
    6.2660    1.6910  -55.7440 C   0  0  0  0  0  0  0  0  0  0  0  0
    5.9500    1.4220  -58.5170 N   0  0  0  0  0  0  0  0  0  0  0  0
    6.0560    1.5780  -59.8740 C   0  0  0  0  0  0  0  0  0  0  0  0
    4.8660    0.9720  -60.9280 Cl  0  0  0  0  0  0  0  0  0  0  0  0
    7.2100    2.2510  -60.1960 C   0  0  0  0  0  0  0  0  0  0  0  0
    9.3410    3.6220  -62.2620 H   0  0  0  0  0  0  0  0  0  0  0  0
   11.1607    4.7732  -61.1694 H   0  0  0  0  0  0  0  0  0  0  0  0
   11.2160    4.8691  -56.8464 H   0  0  0  0  0  0  0  0  0  0  0  0
    9.1253    3.4996  -56.7754 H   0  0  0  0  0  0  0  0  0  0  0  0
    8.5292    0.1778  -56.9948 H   0  0  0  0  0  0  0  0  0  0  0  0
    9.4797    1.6920  -56.7262 H   0  0  0  0  0  0  0  0  0  0  0  0
    9.6659    0.2474  -54.7661 H   0  0  0  0  0  0  0  0  0  0  0  0
    8.7015    1.7195  -54.3629 H   0  0  0  0  0  0  0  0  0  0  0  0
    7.7878   -1.1471  -54.7318 H   0  0  0  0  0  0  0  0  0  0  0  0
    8.0305    0.7414  -52.5499 H   0  0  0  0  0  0  0  0  0  0  0  0
    6.3205    0.1918  -52.7321 H   0  0  0  0  0  0  0  0  0  0  0  0
    7.2730   -1.3080  -51.4880 H   0  0  0  0  0  0  0  0  0  0  0  0
    6.1346   -0.4279  -56.0825 H   0  0  0  0  0  0  0  0  0  0  0  0
    5.4130    0.1570  -54.5222 H   0  0  0  0  0  0  0  0  0  0  0  0
    5.3178    1.8921  -56.2640 H   0  0  0  0  0  0  0  0  0  0  0  0
    6.3952    2.3620  -54.8820 H   0  0  0  0  0  0  0  0  0  0  0  0
  1  2  2  0
  2  3  1  0
  3  4  1  0
  4  5  2  0
  5  6  1  0
  6  7  1  0
  6  8  2  0
  8  9  1  0
  9 10  2  0
 10 11  1  0
 11 12  1  0
 12 13  1  0
 13 14  1  0
 14 15  1  0
 15 16  1  0
 16 17  1  0
 17 18  1  0
 16 19  1  0
 19 20  1  0
 12 21  2  0
 21 22  1  0
 22 23  1  0
 22 24  2  0
 24  2  1  0
 10  4  1  0
 24 11  1  0
 20 13  1  0
  3 25  1  0
  5 26  1  0
  8 27  1  0
  9 28  1  0
 14 29  1  0
 14 30  1  0
 15 31  1  0
 15 32  1  0
 16 33  1  0
 17 34  1  0
 17 35  1  0
 18 36  1  0
 19 37  1  0
 19 38  1  0
 20 39  1  0
 20 40  1  0
M  END
>  <meeko>  (2) 
{"is_sidechain": false}

$$$$

     RDKit          3D

 41 44  0  0  0  0  0  0  0  0999 V2000
   12.6410    7.1300  -60.7100 O   0  0  0  0  0  0  0  0  0  0  0  0
   12.3840    6.2580  -59.6230 C   0  0  0  0  0  0  0  0  0  0  0  0
   11.2110    5.3320  -59.9800 C   0  0  0  0  0  0  0  0  0  0  0  0
   11.6090    3.8500  -59.8800 C   0  0  0  0  0  0  0  0  0  0  0  0
   11.7530    3.3710  -58.4330 C   0  0  0  0  0  0  0  0  0  0  0  0
   10.5680    3.7450  -57.6300 N   0  0  0  0  0  0  0  0  0  0  0  0
    9.7340    2.7860  -57.1610 C   0  0  0  0  0  0  0  0  0  0  0  0
    9.9280    2.1280  -56.0210 N   0  0  0  0  0  0  0  0  0  0  0  0
    8.7860    1.4740  -55.6320 C   0  0  0  0  0  0  0  0  0  0  0  0
    8.5920    0.6330  -54.1270 Cl  0  0  0  0  0  0  0  0  0  0  0  0
    7.8800    1.6460  -56.6380 C   0  0  0  0  0  0  0  0  0  0  0  0
    6.5290    1.2310  -56.8370 C   0  0  0  0  0  0  0  0  0  0  0  0
    5.8830    0.6350  -55.8170 O   0  0  0  0  0  0  0  0  0  0  0  0
    5.8930    1.4200  -57.9500 N   0  0  0  0  0  0  0  0  0  0  0  0
    6.5990    2.0130  -59.0350 C   0  0  0  0  0  0  0  0  0  0  0  0
    5.9490    2.1020  -60.2660 C   0  0  0  0  0  0  0  0  0  0  0  0
    6.6250    2.6080  -61.3770 C   0  0  0  0  0  0  0  0  0  0  0  0
    5.8180    2.7080  -62.8920 Cl  0  0  0  0  0  0  0  0  0  0  0  0
    7.9600    3.0150  -61.2820 C   0  0  0  0  0  0  0  0  0  0  0  0
    8.6340    2.9430  -60.0610 C   0  0  0  0  0  0  0  0  0  0  0  0
    7.9380    2.4820  -58.9540 C   0  0  0  0  0  0  0  0  0  0  0  0
    8.5650    2.3650  -57.6400 N   0  0  0  0  0  0  0  0  0  0  0  0
   10.1380    5.1550  -57.6910 C   0  0  0  0  0  0  0  0  0  0  0  0
    9.9510    5.5950  -59.1350 C   0  0  0  0  0  0  0  0  0  0  0  0
   13.3590    7.7330  -60.4440 H   0  0  0  0  0  0  0  0  0  0  0  0
   13.2797    5.6535  -59.4174 H   0  0  0  0  0  0  0  0  0  0  0  0
   12.1288    6.8479  -58.7303 H   0  0  0  0  0  0  0  0  0  0  0  0
   10.9592    5.5669  -61.0247 H   0  0  0  0  0  0  0  0  0  0  0  0
   10.8360    3.2442  -60.3755 H   0  0  0  0  0  0  0  0  0  0  0  0
   12.5895    3.7368  -60.3656 H   0  0  0  0  0  0  0  0  0  0  0  0
   11.8616    2.2764  -58.4256 H   0  0  0  0  0  0  0  0  0  0  0  0
   12.6401    3.8494  -57.9922 H   0  0  0  0  0  0  0  0  0  0  0  0
   10.7530    2.2070  -55.4410 H   0  0  0  0  0  0  0  0  0  0  0  0
    6.4180    0.3600  -55.0580 H   0  0  0  0  0  0  0  0  0  0  0  0
    4.9036    1.7733  -60.3610 H   0  0  0  0  0  0  0  0  0  0  0  0
    8.4815    3.3936  -62.1735 H   0  0  0  0  0  0  0  0  0  0  0  0
    9.6889    3.2440  -59.9797 H   0  0  0  0  0  0  0  0  0  0  0  0
    9.1851    5.2661  -57.1528 H   0  0  0  0  0  0  0  0  0  0  0  0
   10.9126    5.7827  -57.2262 H   0  0  0  0  0  0  0  0  0  0  0  0
    9.1077    5.0389  -59.5704 H   0  0  0  0  0  0  0  0  0  0  0  0
    9.7553    6.6774  -59.1403 H   0  0  0  0  0  0  0  0  0  0  0  0
  1  2  1  0
  2  3  1  0
  3  4  1  0
  4  5  1  0
  5  6  1  0
  6  7  1  0
  7  8  2  0
  8  9  1  0
  9 10  1  0
  9 11  2  0
 11 12  1  0
 12 13  1  0
 12 14  2  0
 14 15  1  0
 15 16  2  0
 16 17  1  0
 17 18  1  0
 17 19  2  0
 19 20  1  0
 20 21  2  0
 21 22  1  0
  6 23  1  0
 23 24  1  0
 24  3  1  0
 22  7  1  0
 22 11  1  0
 21 15  1  0
  1 25  1  0
  2 26  1  0
  2 27  1  0
  3 28  1  0
  4 29  1  0
  4 30  1  0
  5 31  1  0
  5 32  1  0
  8 33  1  0
 13 34  1  0
 16 35  1  0
 19 36  1  0
 20 37  1  0
 23 38  1  0
 23 39  1  0
 24 40  1  0
 24 41  1  0
M  CHG  1   8   1
M  END
>  <meeko>  (3) 
{"is_sidechain": false}

$$$$

     RDKit          3D

 41 44  0  0  0  0  0  0  0  0999 V2000
    5.8550    0.9510  -56.0270 O   0  0  0  0  0  0  0  0  0  0  0  0
    6.2720    1.3760  -57.1010 C   0  0  0  0  0  0  0  0  0  0  0  0
    5.4020    1.4430  -58.1800 N   0  0  0  0  0  0  0  0  0  0  0  0
    5.7320    1.8720  -59.4870 C   0  0  0  0  0  0  0  0  0  0  0  0
    4.7570    1.8330  -60.4810 C   0  0  0  0  0  0  0  0  0  0  0  0
    5.0890    2.2240  -61.7790 C   0  0  0  0  0  0  0  0  0  0  0  0
    3.8930    2.1740  -63.0130 Cl  0  0  0  0  0  0  0  0  0  0  0  0
    6.3860    2.6480  -62.0920 C   0  0  0  0  0  0  0  0  0  0  0  0
    7.3710    2.6960  -61.1030 C   0  0  0  0  0  0  0  0  0  0  0  0
    7.0270    2.3260  -59.8130 C   0  0  0  0  0  0  0  0  0  0  0  0
    7.9680    2.3460  -58.7120 N   0  0  0  0  0  0  0  0  0  0  0  0
    9.2350    2.7470  -58.6450 C   0  0  0  0  0  0  0  0  0  0  0  0
    9.9650    3.4260  -59.5600 N   0  0  0  0  0  0  0  0  0  0  0  0
    9.7580    4.8840  -59.6280 C   0  0  0  0  0  0  0  0  0  0  0  0
   10.7680    5.5960  -58.7340 C   0  0  0  0  0  0  0  0  0  0  0  0
   12.2180    5.0910  -58.9150 C   0  0  0  0  0  0  0  0  0  0  0  0
   12.8220    4.5940  -57.5910 C   0  0  0  0  0  0  0  0  0  0  0  0
   11.8180    4.1460  -56.6760 O   0  0  0  0  0  0  0  0  0  0  0  0
   12.3330    4.0410  -60.0340 C   0  0  0  0  0  0  0  0  0  0  0  0
   11.3050    2.9200  -59.9210 C   0  0  0  0  0  0  0  0  0  0  0  0
    9.6840    2.4540  -57.4370 N   0  0  0  0  0  0  0  0  0  0  0  0
    8.7020    1.9150  -56.6550 C   0  0  0  0  0  0  0  0  0  0  0  0
    8.9100    1.4750  -54.9910 Cl  0  0  0  0  0  0  0  0  0  0  0  0
    7.5840    1.8460  -57.4440 C   0  0  0  0  0  0  0  0  0  0  0  0
    4.4620    1.1140  -57.9850 H   0  0  0  0  0  0  0  0  0  0  0  0
    3.7362    1.4976  -60.2455 H   0  0  0  0  0  0  0  0  0  0  0  0
    6.6306    2.9450  -63.1225 H   0  0  0  0  0  0  0  0  0  0  0  0
    8.3947    3.0196  -61.3424 H   0  0  0  0  0  0  0  0  0  0  0  0
    9.8884    5.2225  -60.6665 H   0  0  0  0  0  0  0  0  0  0  0  0
    8.7405    5.1209  -59.2836 H   0  0  0  0  0  0  0  0  0  0  0  0
   10.7422    6.6707  -58.9673 H   0  0  0  0  0  0  0  0  0  0  0  0
   10.4811    5.3873  -57.6928 H   0  0  0  0  0  0  0  0  0  0  0  0
   12.8174    5.9562  -59.2347 H   0  0  0  0  0  0  0  0  0  0  0  0
   13.5055    3.7589  -57.8043 H   0  0  0  0  0  0  0  0  0  0  0  0
   13.3541    5.4361  -57.1243 H   0  0  0  0  0  0  0  0  0  0  0  0
   12.2870    4.0840  -55.8160 H   0  0  0  0  0  0  0  0  0  0  0  0
   12.1935    4.5457  -61.0014 H   0  0  0  0  0  0  0  0  0  0  0  0
   13.3276    3.5796  -59.9452 H   0  0  0  0  0  0  0  0  0  0  0  0
   11.2389    2.4011  -60.8887 H   0  0  0  0  0  0  0  0  0  0  0  0
   11.6349    2.2385  -59.1230 H   0  0  0  0  0  0  0  0  0  0  0  0
   10.6110    2.7390  -57.1150 H   0  0  0  0  0  0  0  0  0  0  0  0
  1  2  2  0
  2  3  1  0
  3  4  1  0
  4  5  2  0
  5  6  1  0
  6  7  1  0
  6  8  2  0
  8  9  1  0
  9 10  2  0
 10 11  1  0
 11 12  1  0
 12 13  1  0
 13 14  1  0
 14 15  1  0
 15 16  1  0
 16 17  1  0
 17 18  1  0
 16 19  1  0
 19 20  1  0
 12 21  2  0
 21 22  1  0
 22 23  1  0
 22 24  2  0
 24  2  1  0
 10  4  1  0
 24 11  1  0
 20 13  1  0
  3 25  1  0
  5 26  1  0
  8 27  1  0
  9 28  1  0
 14 29  1  0
 14 30  1  0
 15 31  1  0
 15 32  1  0
 16 33  1  0
 17 34  1  0
 17 35  1  0
 18 36  1  0
 19 37  1  0
 19 38  1  0
 20 39  1  0
 20 40  1  0
 21 41  1  0
M  CHG  1  21   1
M  END
>  <meeko>  (4) 
{"is_sidechain": false}

$$$$

     RDKit          3D

 36 39  0  0  0  0  0  0  0  0999 V2000
    7.3810    2.6260  -61.7530 O   0  0  0  0  0  0  0  0  0  0  0  0
    7.8990    2.8600  -60.5430 C   0  0  0  0  0  0  0  0  0  0  0  0
    8.9410    3.6050  -60.4320 N   0  0  0  0  0  0  0  0  0  0  0  0
    9.4460    3.8390  -59.1240 C   0  0  0  0  0  0  0  0  0  0  0  0
   10.5540    4.6880  -58.9460 C   0  0  0  0  0  0  0  0  0  0  0  0
   11.3390    5.4330  -60.2950 Cl  0  0  0  0  0  0  0  0  0  0  0  0
   11.0540    4.9610  -57.6690 C   0  0  0  0  0  0  0  0  0  0  0  0
   10.4490    4.3990  -56.5470 C   0  0  0  0  0  0  0  0  0  0  0  0
    9.3500    3.5510  -56.6930 C   0  0  0  0  0  0  0  0  0  0  0  0
    8.8620    3.2580  -57.9710 C   0  0  0  0  0  0  0  0  0  0  0  0
    7.7510    2.4040  -58.1920 N   0  0  0  0  0  0  0  0  0  0  0  0
    6.9730    1.6210  -57.3460 C   0  0  0  0  0  0  0  0  0  0  0  0
    7.2670    1.3930  -56.0300 N   0  0  0  0  0  0  0  0  0  0  0  0
    6.1230    0.9130  -55.2200 C   0  0  0  0  0  0  0  0  0  0  0  0
    6.2640   -0.5620  -54.8690 C   0  0  0  0  0  0  0  0  0  0  0  0
    7.5230   -0.7840  -54.0300 C   0  0  0  0  0  0  0  0  0  0  0  0
    8.0610   -2.4840  -54.2020 Cl  0  0  0  0  0  0  0  0  0  0  0  0
    8.6560    0.1790  -54.3920 C   0  0  0  0  0  0  0  0  0  0  0  0
    8.5280    0.6370  -55.8380 C   0  0  0  0  0  0  0  0  0  0  0  0
    5.9550    1.1050  -58.0000 N   0  0  0  0  0  0  0  0  0  0  0  0
    6.1180    1.4640  -59.3130 C   0  0  0  0  0  0  0  0  0  0  0  0
    5.0210    0.9530  -60.5090 Cl  0  0  0  0  0  0  0  0  0  0  0  0
    7.2400    2.2410  -59.4600 C   0  0  0  0  0  0  0  0  0  0  0  0
    6.9660    3.4510  -62.0550 H   0  0  0  0  0  0  0  0  0  0  0  0
   11.9263    5.6205  -57.5502 H   0  0  0  0  0  0  0  0  0  0  0  0
   10.8385    4.6242  -55.5432 H   0  0  0  0  0  0  0  0  0  0  0  0
    8.8688    3.1142  -55.8055 H   0  0  0  0  0  0  0  0  0  0  0  0
    6.0738    1.4981  -54.2898 H   0  0  0  0  0  0  0  0  0  0  0  0
    5.2050    1.0392  -55.8127 H   0  0  0  0  0  0  0  0  0  0  0  0
    5.3828   -0.8854  -54.2955 H   0  0  0  0  0  0  0  0  0  0  0  0
    6.3418   -1.1473  -55.7971 H   0  0  0  0  0  0  0  0  0  0  0  0
    7.2644   -0.5762  -52.9812 H   0  0  0  0  0  0  0  0  0  0  0  0
    8.6106    1.0560  -53.7296 H   0  0  0  0  0  0  0  0  0  0  0  0
    9.6171   -0.3416  -54.2685 H   0  0  0  0  0  0  0  0  0  0  0  0
    9.3809    1.2843  -56.0902 H   0  0  0  0  0  0  0  0  0  0  0  0
    8.5181   -0.2466  -56.4931 H   0  0  0  0  0  0  0  0  0  0  0  0
  1  2  1  0
  2  3  2  0
  3  4  1  0
  4  5  2  0
  5  6  1  0
  5  7  1  0
  7  8  2  0
  8  9  1  0
  9 10  2  0
 10 11  1  0
 11 12  1  0
 12 13  1  0
 13 14  1  0
 14 15  1  0
 15 16  1  0
 16 17  1  0
 16 18  1  0
 18 19  1  0
 12 20  2  0
 20 21  1  0
 21 22  1  0
 21 23  2  0
 23  2  1  0
 10  4  1  0
 23 11  1  0
 19 13  1  0
  1 24  1  0
  7 25  1  0
  8 26  1  0
  9 27  1  0
 14 28  1  0
 14 29  1  0
 15 30  1  0
 15 31  1  0
 16 32  1  0
 18 33  1  0
 18 34  1  0
 19 35  1  0
 19 36  1  0
M  END
>  <meeko>  (5) 
{"is_sidechain": false}

$$$$

     RDKit          3D

 36 39  0  0  0  0  0  0  0  0999 V2000
    7.4330    2.6730  -61.7880 O   0  0  0  0  0  0  0  0  0  0  0  0
    7.8260    2.8240  -60.6360 C   0  0  0  0  0  0  0  0  0  0  0  0
    8.9220    3.6120  -60.3810 N   0  0  0  0  0  0  0  0  0  0  0  0
    9.4290    3.8800  -59.0960 C   0  0  0  0  0  0  0  0  0  0  0  0
   10.5210    4.7420  -58.9320 C   0  0  0  0  0  0  0  0  0  0  0  0
   11.2940    5.4750  -60.2920 Cl  0  0  0  0  0  0  0  0  0  0  0  0
   11.0030    5.0310  -57.6560 C   0  0  0  0  0  0  0  0  0  0  0  0
   10.3890    4.4680  -56.5370 C   0  0  0  0  0  0  0  0  0  0  0  0
    9.3020    3.6020  -56.6890 C   0  0  0  0  0  0  0  0  0  0  0  0
    8.8310    3.2920  -57.9670 C   0  0  0  0  0  0  0  0  0  0  0  0
    7.7400    2.4180  -58.2070 N   0  0  0  0  0  0  0  0  0  0  0  0
    6.9720    1.6260  -57.3580 C   0  0  0  0  0  0  0  0  0  0  0  0
    7.2630    1.4140  -56.0380 N   0  0  0  0  0  0  0  0  0  0  0  0
    8.5250    0.6600  -55.8370 C   0  0  0  0  0  0  0  0  0  0  0  0
    8.6520    0.2170  -54.3860 C   0  0  0  0  0  0  0  0  0  0  0  0
    7.5170   -0.7430  -54.0150 C   0  0  0  0  0  0  0  0  0  0  0  0
    8.0570   -2.4440  -54.1670 Cl  0  0  0  0  0  0  0  0  0  0  0  0
    6.2600   -0.5320  -54.8600 C   0  0  0  0  0  0  0  0  0  0  0  0
    6.1180    0.9400  -55.2260 C   0  0  0  0  0  0  0  0  0  0  0  0
    5.9650    1.0860  -58.0080 N   0  0  0  0  0  0  0  0  0  0  0  0
    6.1270    1.4360  -59.3230 C   0  0  0  0  0  0  0  0  0  0  0  0
    5.0490    0.8930  -60.5210 Cl  0  0  0  0  0  0  0  0  0  0  0  0
    7.2360    2.2340  -59.4780 C   0  0  0  0  0  0  0  0  0  0  0  0
    9.3550    4.0490  -61.1890 H   0  0  0  0  0  0  0  0  0  0  0  0
   11.8659    5.7018  -57.5319 H   0  0  0  0  0  0  0  0  0  0  0  0
   10.7620    4.7066  -55.5300 H   0  0  0  0  0  0  0  0  0  0  0  0
    8.8181    3.1652  -55.8030 H   0  0  0  0  0  0  0  0  0  0  0  0
    8.5254   -0.2265  -56.4882 H   0  0  0  0  0  0  0  0  0  0  0  0
    9.3746    1.3124  -56.0870 H   0  0  0  0  0  0  0  0  0  0  0  0
    9.6168   -0.2926  -54.2465 H   0  0  0  0  0  0  0  0  0  0  0  0
    8.5933    1.1037  -53.7376 H   0  0  0  0  0  0  0  0  0  0  0  0
    7.2551   -0.5229  -52.9695 H   0  0  0  0  0  0  0  0  0  0  0  0
    6.3351   -1.1303  -55.7800 H   0  0  0  0  0  0  0  0  0  0  0  0
    5.3792   -0.8462  -54.2809 H   0  0  0  0  0  0  0  0  0  0  0  0
    5.1911    1.0765  -55.8023 H   0  0  0  0  0  0  0  0  0  0  0  0
    6.0918    1.5247  -54.2946 H   0  0  0  0  0  0  0  0  0  0  0  0
  1  2  2  0
  2  3  1  0
  3  4  1  0
  4  5  2  0
  5  6  1  0
  5  7  1  0
  7  8  2  0
  8  9  1  0
  9 10  2  0
 10 11  1  0
 11 12  1  0
 12 13  1  0
 13 14  1  0
 14 15  1  0
 15 16  1  0
 16 17  1  0
 16 18  1  0
 18 19  1  0
 12 20  2  0
 20 21  1  0
 21 22  1  0
 21 23  2  0
 23  2  1  0
 10  4  1  0
 23 11  1  0
 19 13  1  0
  3 24  1  0
  7 25  1  0
  8 26  1  0
  9 27  1  0
 14 28  1  0
 14 29  1  0
 15 30  1  0
 15 31  1  0
 16 32  1  0
 18 33  1  0
 18 34  1  0
 19 35  1  0
 19 36  1  0
M  END
>  <meeko>  (6) 
{"is_sidechain": false}

$$$$

     RDKit          3D

 37 40  0  0  0  0  0  0  0  0999 V2000
    4.4310    1.8640  -59.7740 O   0  0  0  0  0  0  0  0  0  0  0  0
    5.5970    1.8940  -59.1030 C   0  0  0  0  0  0  0  0  0  0  0  0
    5.6170    1.4960  -57.8730 N   0  0  0  0  0  0  0  0  0  0  0  0
    6.8650    1.4860  -57.1710 C   0  0  0  0  0  0  0  0  0  0  0  0
    6.9450    0.9440  -55.8810 C   0  0  0  0  0  0  0  0  0  0  0  0
    5.5420    0.3440  -55.0710 Cl  0  0  0  0  0  0  0  0  0  0  0  0
    8.1730    0.8570  -55.2120 C   0  0  0  0  0  0  0  0  0  0  0  0
    9.3510    1.2920  -55.8270 C   0  0  0  0  0  0  0  0  0  0  0  0
    9.3090    1.8430  -57.1060 C   0  0  0  0  0  0  0  0  0  0  0  0
    8.0780    1.9680  -57.7350 C   0  0  0  0  0  0  0  0  0  0  0  0
    7.9730    2.5340  -59.0800 N   0  0  0  0  0  0  0  0  0  0  0  0
    8.8450    3.1720  -59.8590 C   0  0  0  0  0  0  0  0  0  0  0  0
    9.9960    3.8140  -59.5360 N   0  0  0  0  0  0  0  0  0  0  0  0
   11.2600    3.4280  -60.1910 C   0  0  0  0  0  0  0  0  0  0  0  0
   12.4620    3.7140  -59.2970 C   0  0  0  0  0  0  0  0  0  0  0  0
   12.4630    5.1510  -58.7740 C   0  0  0  0  0  0  0  0  0  0  0  0
   12.7430    6.2990  -60.1160 Cl  0  0  0  0  0  0  0  0  0  0  0  0
   11.1440    5.4700  -58.0680 C   0  0  0  0  0  0  0  0  0  0  0  0
    9.9320    5.1710  -58.9430 C   0  0  0  0  0  0  0  0  0  0  0  0
    8.3360    3.1500  -61.0860 N   0  0  0  0  0  0  0  0  0  0  0  0
    7.0240    2.7440  -61.0620 C   0  0  0  0  0  0  0  0  0  0  0  0
    5.9660    2.7380  -62.4350 Cl  0  0  0  0  0  0  0  0  0  0  0  0
    6.7550    2.3830  -59.7740 C   0  0  0  0  0  0  0  0  0  0  0  0
    4.3330    2.4770  -60.5190 H   0  0  0  0  0  0  0  0  0  0  0  0
    8.2107    0.4427  -54.1937 H   0  0  0  0  0  0  0  0  0  0  0  0
   10.3122    1.1991  -55.3003 H   0  0  0  0  0  0  0  0  0  0  0  0
   10.2316    2.1719  -57.6066 H   0  0  0  0  0  0  0  0  0  0  0  0
   11.2311    2.3520  -60.4179 H   0  0  0  0  0  0  0  0  0  0  0  0
   11.3663    4.0194  -61.1124 H   0  0  0  0  0  0  0  0  0  0  0  0
   12.4381    3.0249  -58.4399 H   0  0  0  0  0  0  0  0  0  0  0  0
   13.3720    3.5726  -59.8986 H   0  0  0  0  0  0  0  0  0  0  0  0
   13.2797    5.2541  -58.0444 H   0  0  0  0  0  0  0  0  0  0  0  0
   11.0773    4.8640  -57.1524 H   0  0  0  0  0  0  0  0  0  0  0  0
   11.1365    6.5459  -57.8393 H   0  0  0  0  0  0  0  0  0  0  0  0
    9.0229    5.2474  -58.3285 H   0  0  0  0  0  0  0  0  0  0  0  0
    9.9188    5.9009  -59.7658 H   0  0  0  0  0  0  0  0  0  0  0  0
    8.7900    3.5220  -61.9110 H   0  0  0  0  0  0  0  0  0  0  0  0
  1  2  1  0
  2  3  2  0
  3  4  1  0
  4  5  2  0
  5  6  1  0
  5  7  1  0
  7  8  2  0
  8  9  1  0
  9 10  2  0
 10 11  1  0
 11 12  1  0
 12 13  1  0
 13 14  1  0
 14 15  1  0
 15 16  1  0
 16 17  1  0
 16 18  1  0
 18 19  1  0
 12 20  2  0
 20 21  1  0
 21 22  1  0
 21 23  2  0
 23  2  1  0
 10  4  1  0
 23 11  1  0
 19 13  1  0
  1 24  1  0
  7 25  1  0
  8 26  1  0
  9 27  1  0
 14 28  1  0
 14 29  1  0
 15 30  1  0
 15 31  1  0
 16 32  1  0
 18 33  1  0
 18 34  1  0
 19 35  1  0
 19 36  1  0
 20 37  1  0
M  CHG  1  20   1
M  END
>  <meeko>  (7) 
{"is_sidechain": false}

$$$$

     RDKit          3D

 37 40  0  0  0  0  0  0  0  0999 V2000
   10.4820    4.2590  -60.5920 O   0  0  0  0  0  0  0  0  0  0  0  0
    9.5470    3.6660  -60.0620 C   0  0  0  0  0  0  0  0  0  0  0  0
    8.4680    3.2690  -60.8350 N   0  0  0  0  0  0  0  0  0  0  0  0
    7.2740    2.6650  -60.3580 C   0  0  0  0  0  0  0  0  0  0  0  0
    6.1940    2.4450  -61.2180 C   0  0  0  0  0  0  0  0  0  0  0  0
    6.2990    2.8290  -62.8960 Cl  0  0  0  0  0  0  0  0  0  0  0  0
    4.9950    1.9260  -60.7200 C   0  0  0  0  0  0  0  0  0  0  0  0
    4.8600    1.6430  -59.3560 C   0  0  0  0  0  0  0  0  0  0  0  0
    5.9310    1.8430  -58.4850 C   0  0  0  0  0  0  0  0  0  0  0  0
    7.1300    2.3070  -59.0060 C   0  0  0  0  0  0  0  0  0  0  0  0
    8.2980    2.5330  -58.1730 N   0  0  0  0  0  0  0  0  0  0  0  0
    8.5820    2.1860  -56.9160 C   0  0  0  0  0  0  0  0  0  0  0  0
    8.0580    1.1930  -56.1480 N   0  0  0  0  0  0  0  0  0  0  0  0
    6.6560    1.2900  -55.6810 C   0  0  0  0  0  0  0  0  0  0  0  0
    6.2500    0.0440  -54.9080 C   0  0  0  0  0  0  0  0  0  0  0  0
    7.1590   -0.1770  -53.6960 C   0  0  0  0  0  0  0  0  0  0  0  0
    6.5370    0.7500  -52.2960 Cl  0  0  0  0  0  0  0  0  0  0  0  0
    8.6190    0.2230  -53.9490 C   0  0  0  0  0  0  0  0  0  0  0  0
    8.9510    0.2470  -55.4360 C   0  0  0  0  0  0  0  0  0  0  0  0
    9.5770    2.9730  -56.5260 N   0  0  0  0  0  0  0  0  0  0  0  0
   10.1590    3.5930  -57.6080 C   0  0  0  0  0  0  0  0  0  0  0  0
   11.6020    4.5480  -57.5230 Cl  0  0  0  0  0  0  0  0  0  0  0  0
    9.3800    3.2840  -58.6880 C   0  0  0  0  0  0  0  0  0  0  0  0
    8.5150    3.5290  -61.8180 H   0  0  0  0  0  0  0  0  0  0  0  0
    4.1537    1.7392  -61.4036 H   0  0  0  0  0  0  0  0  0  0  0  0
    3.9040    1.2607  -58.9687 H   0  0  0  0  0  0  0  0  0  0  0  0
    5.8272    1.6374  -57.4094 H   0  0  0  0  0  0  0  0  0  0  0  0
    6.5552    2.1681  -55.0262 H   0  0  0  0  0  0  0  0  0  0  0  0
    6.0005    1.3861  -56.5591 H   0  0  0  0  0  0  0  0  0  0  0  0
    5.2122    0.1589  -54.5618 H   0  0  0  0  0  0  0  0  0  0  0  0
    6.3425   -0.8253  -55.5756 H   0  0  0  0  0  0  0  0  0  0  0  0
    7.1471   -1.2578  -53.4915 H   0  0  0  0  0  0  0  0  0  0  0  0
    8.7911    1.2253  -53.5298 H   0  0  0  0  0  0  0  0  0  0  0  0
    9.2662   -0.5244  -53.4668 H   0  0  0  0  0  0  0  0  0  0  0  0
    9.9958    0.5642  -55.5694 H   0  0  0  0  0  0  0  0  0  0  0  0
    8.8072   -0.7616  -55.8508 H   0  0  0  0  0  0  0  0  0  0  0  0
    9.9810    3.0060  -55.6000 H   0  0  0  0  0  0  0  0  0  0  0  0
  1  2  2  0
  2  3  1  0
  3  4  1  0
  4  5  2  0
  5  6  1  0
  5  7  1  0
  7  8  2  0
  8  9  1  0
  9 10  2  0
 10 11  1  0
 11 12  1  0
 12 13  1  0
 13 14  1  0
 14 15  1  0
 15 16  1  0
 16 17  1  0
 16 18  1  0
 18 19  1  0
 12 20  2  0
 20 21  1  0
 21 22  1  0
 21 23  2  0
 23  2  1  0
 10  4  1  0
 23 11  1  0
 19 13  1  0
  3 24  1  0
  7 25  1  0
  8 26  1  0
  9 27  1  0
 14 28  1  0
 14 29  1  0
 15 30  1  0
 15 31  1  0
 16 32  1  0
 18 33  1  0
 18 34  1  0
 19 35  1  0
 19 36  1  0
 20 37  1  0
M  CHG  1  20   1
M  END
>  <meeko>  (8) 
{"is_sidechain": false}

$$$$

     RDKit          3D

 45 48  0  0  0  0  0  0  0  0999 V2000
    3.6940    1.8720  -60.6170 C   0  0  0  0  0  0  0  0  0  0  0  0
    5.0150    1.1380  -60.7830 C   0  0  0  0  0  0  0  0  0  0  0  0
    6.0680    1.6580  -59.8670 C   0  0  0  0  0  0  0  0  0  0  0  0
    5.9530    1.4610  -58.5110 N   0  0  0  0  0  0  0  0  0  0  0  0
    7.0310    1.9870  -57.9640 C   0  0  0  0  0  0  0  0  0  0  0  0
    7.3740    1.8970  -56.6430 N   0  0  0  0  0  0  0  0  0  0  0  0
    8.5980    1.0960  -56.4150 C   0  0  0  0  0  0  0  0  0  0  0  0
    8.7470    0.7480  -54.9380 C   0  0  0  0  0  0  0  0  0  0  0  0
    7.5920   -0.1530  -54.4690 C   0  0  0  0  0  0  0  0  0  0  0  0
    7.3950   -0.0230  -52.9580 C   0  0  0  0  0  0  0  0  0  0  0  0
    6.2940    0.1450  -55.2390 C   0  0  0  0  0  0  0  0  0  0  0  0
    6.2500    1.5890  -55.7330 C   0  0  0  0  0  0  0  0  0  0  0  0
    7.8130    2.6130  -58.9260 N   0  0  0  0  0  0  0  0  0  0  0  0
    7.2300    2.3430  -60.1460 C   0  0  0  0  0  0  0  0  0  0  0  0
    7.8730    2.7940  -61.3230 C   0  0  0  0  0  0  0  0  0  0  0  0
    7.2730    2.4580  -62.4730 O   0  0  0  0  0  0  0  0  0  0  0  0
    8.9650    3.4760  -61.3490 N   0  0  0  0  0  0  0  0  0  0  0  0
    9.5360    3.8080  -60.0960 C   0  0  0  0  0  0  0  0  0  0  0  0
   10.6940    4.5880  -60.0950 C   0  0  0  0  0  0  0  0  0  0  0  0
   11.2910    4.9740  -58.8940 C   0  0  0  0  0  0  0  0  0  0  0  0
   10.7270    4.5910  -57.6790 C   0  0  0  0  0  0  0  0  0  0  0  0
    9.5690    3.8090  -57.6550 C   0  0  0  0  0  0  0  0  0  0  0  0
    8.9860    3.4050  -58.8590 C   0  0  0  0  0  0  0  0  0  0  0  0
    3.4744    1.9940  -59.5461 H   0  0  0  0  0  0  0  0  0  0  0  0
    3.7621    2.8616  -61.0924 H   0  0  0  0  0  0  0  0  0  0  0  0
    2.8897    1.2914  -61.0924 H   0  0  0  0  0  0  0  0  0  0  0  0
    4.8561    0.0706  -60.5700 H   0  0  0  0  0  0  0  0  0  0  0  0
    5.3598    1.2938  -61.8159 H   0  0  0  0  0  0  0  0  0  0  0  0
    8.5357    0.1668  -57.0004 H   0  0  0  0  0  0  0  0  0  0  0  0
    9.4710    1.6870  -56.7289 H   0  0  0  0  0  0  0  0  0  0  0  0
    9.7002    0.2204  -54.7864 H   0  0  0  0  0  0  0  0  0  0  0  0
    8.7271    1.6793  -54.3530 H   0  0  0  0  0  0  0  0  0  0  0  0
    7.8597   -1.1969  -54.6895 H   0  0  0  0  0  0  0  0  0  0  0  0
    8.2030   -0.5562  -52.4357 H   0  0  0  0  0  0  0  0  0  0  0  0
    7.4148    1.0400  -52.6758 H   0  0  0  0  0  0  0  0  0  0  0  0
    6.4255   -0.4593  -52.6758 H   0  0  0  0  0  0  0  0  0  0  0  0
    6.2301   -0.5302  -56.1050 H   0  0  0  0  0  0  0  0  0  0  0  0
    5.4462   -0.0098  -54.5554 H   0  0  0  0  0  0  0  0  0  0  0  0
    5.3036    1.7523  -56.2694 H   0  0  0  0  0  0  0  0  0  0  0  0
    6.3301    2.2504  -54.8577 H   0  0  0  0  0  0  0  0  0  0  0  0
    7.9630    2.4500  -63.1560 H   0  0  0  0  0  0  0  0  0  0  0  0
   11.1402    4.9014  -61.0503 H   0  0  0  0  0  0  0  0  0  0  0  0
   12.2080    5.5814  -58.9067 H   0  0  0  0  0  0  0  0  0  0  0  0
   11.1952    4.9055  -56.7346 H   0  0  0  0  0  0  0  0  0  0  0  0
    9.1197    3.5137  -56.6953 H   0  0  0  0  0  0  0  0  0  0  0  0
  1  2  1  0
  2  3  1  0
  3  4  1  0
  4  5  2  0
  5  6  1  0
  6  7  1  0
  7  8  1  0
  8  9  1  0
  9 10  1  0
  9 11  1  0
 11 12  1  0
  5 13  1  0
 13 14  1  0
 14 15  1  0
 15 16  1  0
 15 17  2  0
 17 18  1  0
 18 19  2  0
 19 20  1  0
 20 21  2  0
 21 22  1  0
 22 23  2  0
 14  3  2  0
 23 18  1  0
 12  6  1  0
 23 13  1  0
  1 24  1  0
  1 25  1  0
  1 26  1  0
  2 27  1  0
  2 28  1  0
  7 29  1  0
  7 30  1  0
  8 31  1  0
  8 32  1  0
  9 33  1  0
 10 34  1  0
 10 35  1  0
 10 36  1  0
 11 37  1  0
 11 38  1  0
 12 39  1  0
 12 40  1  0
 16 41  1  0
 19 42  1  0
 20 43  1  0
 21 44  1  0
 22 45  1  0
M  END
>  <meeko>  (9) 
{"is_sidechain": false}

$$$$

     RDKit          3D

 45 48  0  0  0  0  0  0  0  0999 V2000
   10.3550    4.4180  -60.5700 C   0  0  0  0  0  0  0  0  0  0  0  0
    9.2660    4.9590  -59.6580 C   0  0  0  0  0  0  0  0  0  0  0  0
    8.4840    3.8730  -59.0060 C   0  0  0  0  0  0  0  0  0  0  0  0
    7.2840    3.4710  -59.5390 N   0  0  0  0  0  0  0  0  0  0  0  0
    6.8530    2.4830  -58.7820 C   0  0  0  0  0  0  0  0  0  0  0  0
    5.7520    1.7130  -59.0400 N   0  0  0  0  0  0  0  0  0  0  0  0
    5.7100    1.2130  -60.4330 C   0  0  0  0  0  0  0  0  0  0  0  0
    4.3380    0.6300  -60.7590 C   0  0  0  0  0  0  0  0  0  0  0  0
    3.2340    1.6980  -60.6630 C   0  0  0  0  0  0  0  0  0  0  0  0
    2.8980    2.2860  -62.0330 C   0  0  0  0  0  0  0  0  0  0  0  0
    3.6180    2.8180  -59.6810 C   0  0  0  0  0  0  0  0  0  0  0  0
    4.4780    2.2780  -58.5430 C   0  0  0  0  0  0  0  0  0  0  0  0
    7.7010    2.2850  -57.6970 N   0  0  0  0  0  0  0  0  0  0  0  0
    8.7780    3.1300  -57.8820 C   0  0  0  0  0  0  0  0  0  0  0  0
    9.9070    3.1480  -57.0010 C   0  0  0  0  0  0  0  0  0  0  0  0
   10.8950    3.8640  -57.1400 O   0  0  0  0  0  0  0  0  0  0  0  0
    9.8280    2.2750  -55.9420 N   0  0  0  0  0  0  0  0  0  0  0  0
    8.7240    1.4470  -55.6930 C   0  0  0  0  0  0  0  0  0  0  0  0
    8.7290    0.6360  -54.5570 C   0  0  0  0  0  0  0  0  0  0  0  0
    7.6280   -0.1710  -54.2780 C   0  0  0  0  0  0  0  0  0  0  0  0
    6.5200   -0.1600  -55.1260 C   0  0  0  0  0  0  0  0  0  0  0  0
    6.5100    0.6480  -56.2670 C   0  0  0  0  0  0  0  0  0  0  0  0
    7.6200    1.4400  -56.5620 C   0  0  0  0  0  0  0  0  0  0  0  0
   11.1750    4.0106  -59.9603 H   0  0  0  0  0  0  0  0  0  0  0  0
    9.9395    3.6216  -61.2048 H   0  0  0  0  0  0  0  0  0  0  0  0
   10.7387    5.2303  -61.2048 H   0  0  0  0  0  0  0  0  0  0  0  0
    9.7333    5.5765  -58.8767 H   0  0  0  0  0  0  0  0  0  0  0  0
    8.5725    5.5491  -60.2752 H   0  0  0  0  0  0  0  0  0  0  0  0
    5.9210    2.0448  -61.1211 H   0  0  0  0  0  0  0  0  0  0  0  0
    6.4652    0.4212  -60.5460 H   0  0  0  0  0  0  0  0  0  0  0  0
    4.3555    0.2250  -61.7816 H   0  0  0  0  0  0  0  0  0  0  0  0
    4.1169   -0.1616  -60.0280 H   0  0  0  0  0  0  0  0  0  0  0  0
    2.3354    1.1941  -60.2776 H   0  0  0  0  0  0  0  0  0  0  0  0
    2.3561    3.2343  -61.9021 H   0  0  0  0  0  0  0  0  0  0  0  0
    3.8278    2.4691  -62.5915 H   0  0  0  0  0  0  0  0  0  0  0  0
    2.2682    1.5779  -62.5915 H   0  0  0  0  0  0  0  0  0  0  0  0
    4.1821    3.5923  -60.2216 H   0  0  0  0  0  0  0  0  0  0  0  0
    2.6964    3.2395  -59.2534 H   0  0  0  0  0  0  0  0  0  0  0  0
    4.7003    3.0979  -57.8442 H   0  0  0  0  0  0  0  0  0  0  0  0
    3.9186    1.4740  -58.0424 H   0  0  0  0  0  0  0  0  0  0  0  0
   10.6170    2.2860  -55.3100 H   0  0  0  0  0  0  0  0  0  0  0  0
    9.5993    0.6340  -53.8842 H   0  0  0  0  0  0  0  0  0  0  0  0
    7.6323   -0.8176  -53.3881 H   0  0  0  0  0  0  0  0  0  0  0  0
    5.6489   -0.7909  -54.8954 H   0  0  0  0  0  0  0  0  0  0  0  0
    5.6314    0.6592  -56.9287 H   0  0  0  0  0  0  0  0  0  0  0  0
  1  2  1  0
  2  3  1  0
  3  4  1  0
  4  5  2  0
  5  6  1  0
  6  7  1  0
  7  8  1  0
  8  9  1  0
  9 10  1  0
  9 11  1  0
 11 12  1  0
  5 13  1  0
 13 14  1  0
 14 15  1  0
 15 16  2  0
 15 17  1  0
 17 18  1  0
 18 19  2  0
 19 20  1  0
 20 21  2  0
 21 22  1  0
 22 23  2  0
 14  3  2  0
 23 18  1  0
 12  6  1  0
 23 13  1  0
  1 24  1  0
  1 25  1  0
  1 26  1  0
  2 27  1  0
  2 28  1  0
  7 29  1  0
  7 30  1  0
  8 31  1  0
  8 32  1  0
  9 33  1  0
 10 34  1  0
 10 35  1  0
 10 36  1  0
 11 37  1  0
 11 38  1  0
 12 39  1  0
 12 40  1  0
 17 41  1  0
 19 42  1  0
 20 43  1  0
 21 44  1  0
 22 45  1  0
M  END
>  <meeko>  (10) 
{"is_sidechain": false}

$$$$

     RDKit          3D

 46 49  0  0  0  0  0  0  0  0999 V2000
   10.4650    4.4910  -60.5730 C   0  0  0  0  0  0  0  0  0  0  0  0
    9.6970    5.0250  -59.3780 C   0  0  0  0  0  0  0  0  0  0  0  0
    8.7950    4.0010  -58.8020 C   0  0  0  0  0  0  0  0  0  0  0  0
    7.4650    3.8680  -59.1960 N   0  0  0  0  0  0  0  0  0  0  0  0
    6.9020    2.7930  -58.6440 C   0  0  0  0  0  0  0  0  0  0  0  0
    5.7590    2.2190  -59.1000 N   0  0  0  0  0  0  0  0  0  0  0  0
    5.8260    1.0290  -59.9830 C   0  0  0  0  0  0  0  0  0  0  0  0
    4.9540    1.2380  -61.2160 C   0  0  0  0  0  0  0  0  0  0  0  0
    3.4770    1.4490  -60.8380 C   0  0  0  0  0  0  0  0  0  0  0  0
    2.7620    2.2520  -61.9250 C   0  0  0  0  0  0  0  0  0  0  0  0
    3.3100    2.1040  -59.4550 C   0  0  0  0  0  0  0  0  0  0  0  0
    4.4960    2.9850  -59.0840 C   0  0  0  0  0  0  0  0  0  0  0  0
    7.7260    2.4110  -57.6730 N   0  0  0  0  0  0  0  0  0  0  0  0
    8.9740    3.0260  -57.8530 C   0  0  0  0  0  0  0  0  0  0  0  0
   10.0860    2.6230  -57.0620 C   0  0  0  0  0  0  0  0  0  0  0  0
   11.2580    3.1900  -57.3750 O   0  0  0  0  0  0  0  0  0  0  0  0
   10.0360    1.7570  -56.1030 N   0  0  0  0  0  0  0  0  0  0  0  0
    8.7440    1.2300  -55.7920 C   0  0  0  0  0  0  0  0  0  0  0  0
    8.6270    0.4010  -54.6770 C   0  0  0  0  0  0  0  0  0  0  0  0
    7.3730   -0.0700  -54.2750 C   0  0  0  0  0  0  0  0  0  0  0  0
    6.2170    0.3020  -54.9690 C   0  0  0  0  0  0  0  0  0  0  0  0
    6.3010    1.1260  -56.0920 C   0  0  0  0  0  0  0  0  0  0  0  0
    7.5560    1.5390  -56.5130 C   0  0  0  0  0  0  0  0  0  0  0  0
   11.3211    3.8958  -60.2225 H   0  0  0  0  0  0  0  0  0  0  0  0
    9.8026    3.8577  -61.1814 H   0  0  0  0  0  0  0  0  0  0  0  0
   10.8280    5.3325  -61.1814 H   0  0  0  0  0  0  0  0  0  0  0  0
   10.4142    5.3423  -58.6066 H   0  0  0  0  0  0  0  0  0  0  0  0
    9.0814    5.8711  -59.7173 H   0  0  0  0  0  0  0  0  0  0  0  0
    7.0310    4.4300  -59.9170 H   0  0  0  0  0  0  0  0  0  0  0  0
    6.8677    0.8684  -60.2978 H   0  0  0  0  0  0  0  0  0  0  0  0
    5.4609    0.1510  -59.4300 H   0  0  0  0  0  0  0  0  0  0  0  0
    5.3128    2.1237  -61.7607 H   0  0  0  0  0  0  0  0  0  0  0  0
    5.0228    0.3362  -61.8422 H   0  0  0  0  0  0  0  0  0  0  0  0
    3.0090    0.4561  -60.7671 H   0  0  0  0  0  0  0  0  0  0  0  0
    2.1002    2.9952  -61.4564 H   0  0  0  0  0  0  0  0  0  0  0  0
    3.5065    2.7665  -62.5503 H   0  0  0  0  0  0  0  0  0  0  0  0
    2.1649    1.5720  -62.5503 H   0  0  0  0  0  0  0  0  0  0  0  0
    2.3999    2.7218  -59.4641 H   0  0  0  0  0  0  0  0  0  0  0  0
    3.2427    1.2992  -58.7081 H   0  0  0  0  0  0  0  0  0  0  0  0
    4.5687    3.8111  -59.8067 H   0  0  0  0  0  0  0  0  0  0  0  0
    4.3369    3.3712  -58.0664 H   0  0  0  0  0  0  0  0  0  0  0  0
   11.0700    3.9560  -57.9470 H   0  0  0  0  0  0  0  0  0  0  0  0
    9.5258    0.1159  -54.1105 H   0  0  0  0  0  0  0  0  0  0  0  0
    7.2951   -0.7390  -53.4053 H   0  0  0  0  0  0  0  0  0  0  0  0
    5.2351   -0.0574  -54.6273 H   0  0  0  0  0  0  0  0  0  0  0  0
    5.3943    1.4401  -56.6298 H   0  0  0  0  0  0  0  0  0  0  0  0
  1  2  1  0
  2  3  1  0
  3  4  1  0
  4  5  2  0
  5  6  1  0
  6  7  1  0
  7  8  1  0
  8  9  1  0
  9 10  1  0
  9 11  1  0
 11 12  1  0
  5 13  1  0
 13 14  1  0
 14 15  1  0
 15 16  1  0
 15 17  2  0
 17 18  1  0
 18 19  2  0
 19 20  1  0
 20 21  2  0
 21 22  1  0
 22 23  2  0
 14  3  2  0
 23 18  1  0
 12  6  1  0
 23 13  1  0
  1 24  1  0
  1 25  1  0
  1 26  1  0
  2 27  1  0
  2 28  1  0
  4 29  1  0
  7 30  1  0
  7 31  1  0
  8 32  1  0
  8 33  1  0
  9 34  1  0
 10 35  1  0
 10 36  1  0
 10 37  1  0
 11 38  1  0
 11 39  1  0
 12 40  1  0
 12 41  1  0
 16 42  1  0
 19 43  1  0
 20 44  1  0
 21 45  1  0
 22 46  1  0
M  CHG  1   4   1
M  END
>  <meeko>  (11) 
{"is_sidechain": false}

$$$$

     RDKit          3D

 46 49  0  0  0  0  0  0  0  0999 V2000
    9.0930   -0.4080  -54.8360 C   0  0  0  0  0  0  0  0  0  0  0  0
    9.0230    1.1090  -54.8400 C   0  0  0  0  0  0  0  0  0  0  0  0
    8.9120    1.6480  -56.2150 C   0  0  0  0  0  0  0  0  0  0  0  0
   10.0000    2.1620  -56.9110 N   0  0  0  0  0  0  0  0  0  0  0  0
    9.6270    2.6800  -58.0780 C   0  0  0  0  0  0  0  0  0  0  0  0
   10.4160    3.4780  -58.8350 N   0  0  0  0  0  0  0  0  0  0  0  0
   10.2140    4.9440  -58.7650 C   0  0  0  0  0  0  0  0  0  0  0  0
   10.9890    5.6520  -59.8680 C   0  0  0  0  0  0  0  0  0  0  0  0
   12.4970    5.3460  -59.8170 C   0  0  0  0  0  0  0  0  0  0  0  0
   13.2700    6.4700  -59.1270 C   0  0  0  0  0  0  0  0  0  0  0  0
   12.8090    3.9970  -59.1420 C   0  0  0  0  0  0  0  0  0  0  0  0
   11.6990    2.9810  -59.3690 C   0  0  0  0  0  0  0  0  0  0  0  0
    8.3590    2.3210  -58.2670 N   0  0  0  0  0  0  0  0  0  0  0  0
    7.8440    1.7830  -57.0750 C   0  0  0  0  0  0  0  0  0  0  0  0
    6.4710    1.4080  -56.8510 C   0  0  0  0  0  0  0  0  0  0  0  0
    5.9520    0.9740  -55.8270 O   0  0  0  0  0  0  0  0  0  0  0  0
    5.6950    1.5910  -57.9860 N   0  0  0  0  0  0  0  0  0  0  0  0
    6.1740    2.0060  -59.2500 C   0  0  0  0  0  0  0  0  0  0  0  0
    5.2980    2.0350  -60.3320 C   0  0  0  0  0  0  0  0  0  0  0  0
    5.7780    2.3810  -61.5980 C   0  0  0  0  0  0  0  0  0  0  0  0
    7.1320    2.6810  -61.7890 C   0  0  0  0  0  0  0  0  0  0  0  0
    8.0190    2.6640  -60.7110 C   0  0  0  0  0  0  0  0  0  0  0  0
    7.5220    2.3600  -59.4530 C   0  0  0  0  0  0  0  0  0  0  0  0
    9.1098   -0.7715  -53.7979 H   0  0  0  0  0  0  0  0  0  0  0  0
    8.2128   -0.8170  -55.3536 H   0  0  0  0  0  0  0  0  0  0  0  0
   10.0072   -0.7342  -55.3536 H   0  0  0  0  0  0  0  0  0  0  0  0
    8.1439    1.4269  -54.2603 H   0  0  0  0  0  0  0  0  0  0  0  0
    9.9505    1.4965  -54.3933 H   0  0  0  0  0  0  0  0  0  0  0  0
   10.9310    2.2530  -56.5250 H   0  0  0  0  0  0  0  0  0  0  0  0
    9.1426    5.1658  -58.8781 H   0  0  0  0  0  0  0  0  0  0  0  0
   10.5798    5.3033  -57.7918 H   0  0  0  0  0  0  0  0  0  0  0  0
   10.5952    5.3252  -60.8417 H   0  0  0  0  0  0  0  0  0  0  0  0
   10.8621    6.7351  -59.7240 H   0  0  0  0  0  0  0  0  0  0  0  0
   12.8285    5.2748  -60.8634 H   0  0  0  0  0  0  0  0  0  0  0  0
   13.1902    6.3539  -58.0361 H   0  0  0  0  0  0  0  0  0  0  0  0
   14.3281    6.4235  -59.4242 H   0  0  0  0  0  0  0  0  0  0  0  0
   12.8480    7.4414  -59.4242 H   0  0  0  0  0  0  0  0  0  0  0  0
   13.7463    3.5991  -59.5580 H   0  0  0  0  0  0  0  0  0  0  0  0
   12.8985    4.1692  -58.0593 H   0  0  0  0  0  0  0  0  0  0  0  0
   11.5934    2.7974  -60.4484 H   0  0  0  0  0  0  0  0  0  0  0  0
   11.9614    2.0496  -58.8459 H   0  0  0  0  0  0  0  0  0  0  0  0
    4.7220    1.3270  -57.8850 H   0  0  0  0  0  0  0  0  0  0  0  0
    4.2355    1.7873  -60.1912 H   0  0  0  0  0  0  0  0  0  0  0  0
    5.0857    2.4180  -62.4521 H   0  0  0  0  0  0  0  0  0  0  0  0
    7.4995    2.9318  -62.7950 H   0  0  0  0  0  0  0  0  0  0  0  0
    9.0864    2.8864  -60.8563 H   0  0  0  0  0  0  0  0  0  0  0  0
  1  2  1  0
  2  3  1  0
  3  4  1  0
  4  5  2  0
  5  6  1  0
  6  7  1  0
  7  8  1  0
  8  9  1  0
  9 10  1  0
  9 11  1  0
 11 12  1  0
  5 13  1  0
 13 14  1  0
 14 15  1  0
 15 16  2  0
 15 17  1  0
 17 18  1  0
 18 19  2  0
 19 20  1  0
 20 21  2  0
 21 22  1  0
 22 23  2  0
 14  3  2  0
 23 18  1  0
 12  6  1  0
 23 13  1  0
  1 24  1  0
  1 25  1  0
  1 26  1  0
  2 27  1  0
  2 28  1  0
  4 29  1  0
  7 30  1  0
  7 31  1  0
  8 32  1  0
  8 33  1  0
  9 34  1  0
 10 35  1  0
 10 36  1  0
 10 37  1  0
 11 38  1  0
 11 39  1  0
 12 40  1  0
 12 41  1  0
 17 42  1  0
 19 43  1  0
 20 44  1  0
 21 45  1  0
 22 46  1  0
M  CHG  1   4   1
M  END
>  <meeko>  (12) 
{"is_sidechain": false}

$$$$

     RDKit          3D

 40 43  0  0  0  0  0  0  0  0999 V2000
    6.8820    2.2600  -63.2230 C   0  0  0  0  0  0  0  0  0  0  0  0
    5.9270    2.9230  -62.2320 C   0  0  2  0  0  0  0  0  0  0  0  0
    6.5140    3.0230  -60.8120 C   0  0  0  0  0  0  0  0  0  0  0  0
    6.6390    1.6990  -60.1630 N   0  0  0  0  0  0  0  0  0  0  0  0
    6.9250    1.7360  -58.8290 C   0  0  0  0  0  0  0  0  0  0  0  0
    6.1420    1.2960  -57.8670 N   0  0  0  0  0  0  0  0  0  0  0  0
    6.8830    1.3420  -56.7190 C   0  0  0  0  0  0  0  0  0  0  0  0
    6.2640    0.7870  -55.2340 Cl  0  0  0  0  0  0  0  0  0  0  0  0
    8.1310    1.8590  -56.9660 C   0  0  0  0  0  0  0  0  0  0  0  0
    9.2960    2.1010  -56.1950 C   0  0  0  0  0  0  0  0  0  0  0  0
    9.2710    1.6830  -54.9170 O   0  0  0  0  0  0  0  0  0  0  0  0
   10.3460    2.6760  -56.6680 N   0  0  0  0  0  0  0  0  0  0  0  0
   10.3250    3.1270  -58.0130 C   0  0  0  0  0  0  0  0  0  0  0  0
   11.4300    3.8220  -58.5370 C   0  0  0  0  0  0  0  0  0  0  0  0
   12.8480    4.1070  -57.5870 Cl  0  0  0  0  0  0  0  0  0  0  0  0
   11.4160    4.3140  -59.8460 C   0  0  0  0  0  0  0  0  0  0  0  0
   10.2930    4.1330  -60.6500 C   0  0  0  0  0  0  0  0  0  0  0  0
    9.1840    3.4440  -60.1580 C   0  0  0  0  0  0  0  0  0  0  0  0
    9.2100    2.9230  -58.8600 C   0  0  0  0  0  0  0  0  0  0  0  0
    8.1220    2.2100  -58.2990 N   0  0  0  0  0  0  0  0  0  0  0  0
    5.5960    0.7230  -60.5680 C   0  0  0  0  0  0  0  0  0  0  0  0
    4.3570    1.3720  -61.2150 C   0  0  1  0  0  0  0  0  0  0  0  0
    3.4390    2.0630  -60.2090 C   0  0  0  0  0  0  0  0  0  0  0  0
    4.6540    2.2640  -62.2990 O   0  0  0  0  0  0  0  0  0  0  0  0
    7.6639    1.7172  -62.6716 H   0  0  0  0  0  0  0  0  0  0  0  0
    6.3227    1.5549  -63.8555 H   0  0  0  0  0  0  0  0  0  0  0  0
    7.3471    3.0305  -63.8555 H   0  0  0  0  0  0  0  0  0  0  0  0
    5.7757    3.9739  -62.5197 H   0  0  0  0  0  0  0  0  0  0  0  0
    7.5113    3.4830  -60.8728 H   0  0  0  0  0  0  0  0  0  0  0  0
    5.8277    3.6323  -60.2056 H   0  0  0  0  0  0  0  0  0  0  0  0
    8.8460    0.8210  -54.7950 H   0  0  0  0  0  0  0  0  0  0  0  0
   12.2941    4.8453  -60.2417 H   0  0  0  0  0  0  0  0  0  0  0  0
   10.2805    4.5339  -61.6743 H   0  0  0  0  0  0  0  0  0  0  0  0
    8.2925    3.3110  -60.7885 H   0  0  0  0  0  0  0  0  0  0  0  0
    6.0384    0.0223  -61.2913 H   0  0  0  0  0  0  0  0  0  0  0  0
    5.2535    0.2202  -59.6516 H   0  0  0  0  0  0  0  0  0  0  0  0
    3.8177    0.5127  -61.6402 H   0  0  0  0  0  0  0  0  0  0  0  0
    3.7644    1.8181  -59.1872 H   0  0  0  0  0  0  0  0  0  0  0  0
    3.4858    3.1519  -60.3576 H   0  0  0  0  0  0  0  0  0  0  0  0
    2.4055    1.7168  -60.3576 H   0  0  0  0  0  0  0  0  0  0  0  0
  1  2  1  0
  2  3  1  0
  3  4  1  0
  4  5  1  0
  5  6  2  0
  6  7  1  0
  7  8  1  0
  7  9  2  0
  9 10  1  0
 10 11  1  0
 10 12  2  0
 12 13  1  0
 13 14  2  0
 14 15  1  0
 14 16  1  0
 16 17  2  0
 17 18  1  0
 18 19  2  0
 19 20  1  0
  4 21  1  0
 21 22  1  0
 22 23  1  0
 22 24  1  0
 24  2  1  0
 20  5  1  0
 20  9  1  0
 19 13  1  0
  1 25  1  0
  1 26  1  0
  1 27  1  0
  2 28  1  6
  3 29  1  0
  3 30  1  0
 11 31  1  0
 16 32  1  0
 17 33  1  0
 18 34  1  0
 21 35  1  0
 21 36  1  0
 22 37  1  6
 23 38  1  0
 23 39  1  0
 23 40  1  0
M  END
>  <meeko>  (13) 
{"is_sidechain": false}

$$$$

     RDKit          3D

 40 43  0  0  0  0  0  0  0  0999 V2000
   12.6190    3.8450  -57.6760 C   0  0  0  0  0  0  0  0  0  0  0  0
   11.2840    4.5450  -57.9160 C   0  0  2  0  0  0  0  0  0  0  0  0
   10.1230    3.8830  -57.1430 C   0  0  0  0  0  0  0  0  0  0  0  0
    9.7720    2.5450  -57.6930 N   0  0  0  0  0  0  0  0  0  0  0  0
    8.5950    2.0550  -57.2040 C   0  0  0  0  0  0  0  0  0  0  0  0
    7.3990    2.5230  -57.4870 N   0  0  0  0  0  0  0  0  0  0  0  0
    6.5260    1.8430  -56.6850 C   0  0  0  0  0  0  0  0  0  0  0  0
    4.8560    2.1720  -56.7050 Cl  0  0  0  0  0  0  0  0  0  0  0  0
    7.1900    0.9280  -55.9060 C   0  0  0  0  0  0  0  0  0  0  0  0
    6.8190   -0.0030  -54.9020 C   0  0  0  0  0  0  0  0  0  0  0  0
    5.5230   -0.0200  -54.5440 O   0  0  0  0  0  0  0  0  0  0  0  0
    7.6570   -0.7990  -54.3350 N   0  0  0  0  0  0  0  0  0  0  0  0
    9.0140   -0.7660  -54.7500 C   0  0  0  0  0  0  0  0  0  0  0  0
    9.9410   -1.6560  -54.1790 C   0  0  0  0  0  0  0  0  0  0  0  0
    9.4730   -2.7810  -52.9510 Cl  0  0  0  0  0  0  0  0  0  0  0  0
   11.2780   -1.6650  -54.5910 C   0  0  0  0  0  0  0  0  0  0  0  0
   11.7070   -0.7910  -55.5880 C   0  0  0  0  0  0  0  0  0  0  0  0
   10.8100    0.1050  -56.1690 C   0  0  0  0  0  0  0  0  0  0  0  0
    9.4770    0.1300  -55.7420 C   0  0  0  0  0  0  0  0  0  0  0  0
    8.5130    1.0150  -56.2850 N   0  0  0  0  0  0  0  0  0  0  0  0
    9.9030    2.4820  -59.1760 C   0  0  0  0  0  0  0  0  0  0  0  0
    9.9410    3.8850  -59.8080 C   0  0  2  0  0  0  0  0  0  0  0  0
   10.0540    3.8000  -61.3230 C   0  0  0  0  0  0  0  0  0  0  0  0
   11.0710    4.6400  -59.3350 O   0  0  0  0  0  0  0  0  0  0  0  0
   12.7953    3.7526  -56.5942 H   0  0  0  0  0  0  0  0  0  0  0  0
   12.5948    2.8436  -58.1304 H   0  0  0  0  0  0  0  0  0  0  0  0
   13.4290    4.4344  -58.1304 H   0  0  0  0  0  0  0  0  0  0  0  0
   11.3157    5.5658  -57.5073 H   0  0  0  0  0  0  0  0  0  0  0  0
   10.4193    3.7666  -56.0901 H   0  0  0  0  0  0  0  0  0  0  0  0
    9.2394    4.5308  -57.2409 H   0  0  0  0  0  0  0  0  0  0  0  0
    5.3380   -0.5700  -53.7670 H   0  0  0  0  0  0  0  0  0  0  0  0
   11.9912   -2.3626  -54.1275 H   0  0  0  0  0  0  0  0  0  0  0  0
   12.7563   -0.8079  -55.9177 H   0  0  0  0  0  0  0  0  0  0  0  0
   11.1488    0.7899  -56.9603 H   0  0  0  0  0  0  0  0  0  0  0  0
   10.8335    1.9526  -59.4288 H   0  0  0  0  0  0  0  0  0  0  0  0
    9.0251    1.9520  -59.5740 H   0  0  0  0  0  0  0  0  0  0  0  0
    9.0031    4.3823  -59.5200 H   0  0  0  0  0  0  0  0  0  0  0  0
   10.9064    3.1588  -61.5917 H   0  0  0  0  0  0  0  0  0  0  0  0
    9.1287    3.3721  -61.7363 H   0  0  0  0  0  0  0  0  0  0  0  0
   10.2085    4.8076  -61.7363 H   0  0  0  0  0  0  0  0  0  0  0  0
  1  2  1  0
  2  3  1  0
  3  4  1  0
  4  5  1  0
  5  6  2  0
  6  7  1  0
  7  8  1  0
  7  9  2  0
  9 10  1  0
 10 11  1  0
 10 12  2  0
 12 13  1  0
 13 14  2  0
 14 15  1  0
 14 16  1  0
 16 17  2  0
 17 18  1  0
 18 19  2  0
 19 20  1  0
  4 21  1  0
 21 22  1  0
 22 23  1  0
 22 24  1  0
 24  2  1  0
 20  5  1  0
 20  9  1  0
 19 13  1  0
  1 25  1  0
  1 26  1  0
  1 27  1  0
  2 28  1  1
  3 29  1  0
  3 30  1  0
 11 31  1  0
 16 32  1  0
 17 33  1  0
 18 34  1  0
 21 35  1  0
 21 36  1  0
 22 37  1  6
 23 38  1  0
 23 39  1  0
 23 40  1  0
M  END
>  <meeko>  (14) 
{"is_sidechain": false}

$$$$

     RDKit          3D

 40 43  0  0  0  0  0  0  0  0999 V2000
    6.7930    2.2770  -63.2220 C   0  0  0  0  0  0  0  0  0  0  0  0
    5.9570    2.6180  -61.9970 C   0  0  2  0  0  0  0  0  0  0  0  0
    6.7690    2.4400  -60.6980 C   0  0  0  0  0  0  0  0  0  0  0  0
    5.9650    2.8540  -59.5110 N   0  0  0  0  0  0  0  0  0  0  0  0
    6.4440    2.3470  -58.3360 C   0  0  0  0  0  0  0  0  0  0  0  0
    5.7590    1.6020  -57.4970 N   0  0  0  0  0  0  0  0  0  0  0  0
    6.6490    1.1920  -56.5380 C   0  0  0  0  0  0  0  0  0  0  0  0
    6.1700    0.1580  -55.2740 Cl  0  0  0  0  0  0  0  0  0  0  0  0
    7.8950    1.7180  -56.7780 C   0  0  0  0  0  0  0  0  0  0  0  0
    9.1380    1.5670  -56.0900 C   0  0  0  0  0  0  0  0  0  0  0  0
    9.3240    0.8530  -55.1110 O   0  0  0  0  0  0  0  0  0  0  0  0
   10.1740    2.3010  -56.6140 N   0  0  0  0  0  0  0  0  0  0  0  0
   10.0550    3.1760  -57.7100 C   0  0  0  0  0  0  0  0  0  0  0  0
   11.1610    3.9230  -58.1390 C   0  0  0  0  0  0  0  0  0  0  0  0
   12.6980    3.7740  -57.3640 Cl  0  0  0  0  0  0  0  0  0  0  0  0
   11.0350    4.8140  -59.2050 C   0  0  0  0  0  0  0  0  0  0  0  0
    9.8020    4.9680  -59.8400 C   0  0  0  0  0  0  0  0  0  0  0  0
    8.6940    4.2250  -59.4230 C   0  0  0  0  0  0  0  0  0  0  0  0
    8.8230    3.3150  -58.3710 C   0  0  0  0  0  0  0  0  0  0  0  0
    7.7510    2.5200  -57.8920 N   0  0  0  0  0  0  0  0  0  0  0  0
    4.5040    2.6400  -59.7230 C   0  0  0  0  0  0  0  0  0  0  0  0
    4.2450    1.4990  -60.7260 C   0  0  1  0  0  0  0  0  0  0  0  0
    2.7550    1.2390  -60.8930 C   0  0  0  0  0  0  0  0  0  0  0  0
    4.7800    1.7900  -62.0320 O   0  0  0  0  0  0  0  0  0  0  0  0
    7.7674    1.8795  -62.9018 H   0  0  0  0  0  0  0  0  0  0  0  0
    6.2687    1.5209  -63.8248 H   0  0  0  0  0  0  0  0  0  0  0  0
    6.9471    3.1841  -63.8248 H   0  0  0  0  0  0  0  0  0  0  0  0
    5.6582    3.6765  -62.0120 H   0  0  0  0  0  0  0  0  0  0  0  0
    7.0517    1.3823  -60.5913 H   0  0  0  0  0  0  0  0  0  0  0  0
    7.6675    3.0721  -60.7538 H   0  0  0  0  0  0  0  0  0  0  0  0
   11.0670    2.2160  -56.1380 H   0  0  0  0  0  0  0  0  0  0  0  0
   11.9059    5.3940  -59.5443 H   0  0  0  0  0  0  0  0  0  0  0  0
    9.7014    5.6784  -60.6738 H   0  0  0  0  0  0  0  0  0  0  0  0
    7.7226    4.3565  -59.9221 H   0  0  0  0  0  0  0  0  0  0  0  0
    4.0360    2.3845  -58.7609 H   0  0  0  0  0  0  0  0  0  0  0  0
    4.0731    3.5660  -60.1316 H   0  0  0  0  0  0  0  0  0  0  0  0
    4.7489    0.6152  -60.3076 H   0  0  0  0  0  0  0  0  0  0  0  0
    2.2839    1.1568  -59.9024 H   0  0  0  0  0  0  0  0  0  0  0  0
    2.2976    2.0709  -61.4487 H   0  0  0  0  0  0  0  0  0  0  0  0
    2.6064    0.3014  -61.4487 H   0  0  0  0  0  0  0  0  0  0  0  0
  1  2  1  0
  2  3  1  0
  3  4  1  0
  4  5  1  0
  5  6  2  0
  6  7  1  0
  7  8  1  0
  7  9  2  0
  9 10  1  0
 10 11  2  0
 10 12  1  0
 12 13  1  0
 13 14  2  0
 14 15  1  0
 14 16  1  0
 16 17  2  0
 17 18  1  0
 18 19  2  0
 19 20  1  0
  4 21  1  0
 21 22  1  0
 22 23  1  0
 22 24  1  0
 24  2  1  0
 20  5  1  0
 20  9  1  0
 19 13  1  0
  1 25  1  0
  1 26  1  0
  1 27  1  0
  2 28  1  6
  3 29  1  0
  3 30  1  0
 12 31  1  0
 16 32  1  0
 17 33  1  0
 18 34  1  0
 21 35  1  0
 21 36  1  0
 22 37  1  1
 23 38  1  0
 23 39  1  0
 23 40  1  0
M  END
>  <meeko>  (15) 
{"is_sidechain": false}

$$$$

     RDKit          3D

 40 43  0  0  0  0  0  0  0  0999 V2000
   10.7930    4.4790  -60.5140 C   0  0  0  0  0  0  0  0  0  0  0  0
   10.8010    3.9390  -59.0910 C   0  0  2  0  0  0  0  0  0  0  0  0
    9.5910    3.0200  -58.8370 C   0  0  0  0  0  0  0  0  0  0  0  0
    9.6660    2.4250  -57.4790 N   0  0  0  0  0  0  0  0  0  0  0  0
    8.5010    1.8800  -57.0190 C   0  0  0  0  0  0  0  0  0  0  0  0
    7.2920    2.2880  -57.3330 N   0  0  0  0  0  0  0  0  0  0  0  0
    6.4310    1.6090  -56.5130 C   0  0  0  0  0  0  0  0  0  0  0  0
    4.7550    1.9020  -56.5500 Cl  0  0  0  0  0  0  0  0  0  0  0  0
    7.1200    0.7300  -55.7120 C   0  0  0  0  0  0  0  0  0  0  0  0
    6.6850   -0.1650  -54.6870 C   0  0  0  0  0  0  0  0  0  0  0  0
    5.5350   -0.2670  -54.2750 O   0  0  0  0  0  0  0  0  0  0  0  0
    7.6800   -0.9440  -54.1480 N   0  0  0  0  0  0  0  0  0  0  0  0
    9.0190   -0.9380  -54.5840 C   0  0  0  0  0  0  0  0  0  0  0  0
    9.9490   -1.8230  -54.0230 C   0  0  0  0  0  0  0  0  0  0  0  0
    9.4980   -2.9140  -52.7610 Cl  0  0  0  0  0  0  0  0  0  0  0  0
   11.2650   -1.8430  -54.4850 C   0  0  0  0  0  0  0  0  0  0  0  0
   11.6530   -0.9890  -55.5170 C   0  0  0  0  0  0  0  0  0  0  0  0
   10.7350   -0.0990  -56.0810 C   0  0  0  0  0  0  0  0  0  0  0  0
    9.4240   -0.0530  -55.5990 C   0  0  0  0  0  0  0  0  0  0  0  0
    8.4370    0.8270  -56.1080 N   0  0  0  0  0  0  0  0  0  0  0  0
   10.4170    3.2630  -56.5090 C   0  0  0  0  0  0  0  0  0  0  0  0
   10.4010    4.7680  -56.8570 C   0  0  2  0  0  0  0  0  0  0  0  0
    9.0510    5.4290  -56.5920 C   0  0  0  0  0  0  0  0  0  0  0  0
   10.8120    5.0700  -58.2020 O   0  0  0  0  0  0  0  0  0  0  0  0
   10.7767    5.5786  -60.4888 H   0  0  0  0  0  0  0  0  0  0  0  0
   11.6963    4.1376  -61.0408 H   0  0  0  0  0  0  0  0  0  0  0  0
    9.9002    4.1110  -61.0408 H   0  0  0  0  0  0  0  0  0  0  0  0
   11.6929    3.3189  -58.9178 H   0  0  0  0  0  0  0  0  0  0  0  0
    8.6654    3.6079  -58.9240 H   0  0  0  0  0  0  0  0  0  0  0  0
    9.5971    2.2099  -59.5812 H   0  0  0  0  0  0  0  0  0  0  0  0
    7.3940   -1.5960  -53.4260 H   0  0  0  0  0  0  0  0  0  0  0  0
   11.9959   -2.5316  -54.0359 H   0  0  0  0  0  0  0  0  0  0  0  0
   12.6877   -1.0161  -55.8893 H   0  0  0  0  0  0  0  0  0  0  0  0
   11.0437    0.5640  -56.9027 H   0  0  0  0  0  0  0  0  0  0  0  0
    9.9685    3.1306  -55.5134 H   0  0  0  0  0  0  0  0  0  0  0  0
   11.4661    2.9338  -56.5396 H   0  0  0  0  0  0  0  0  0  0  0  0
   11.1517    5.1906  -56.1730 H   0  0  0  0  0  0  0  0  0  0  0  0
    8.8884    5.5086  -55.5070 H   0  0  0  0  0  0  0  0  0  0  0  0
    9.0408    6.4340  -57.0390 H   0  0  0  0  0  0  0  0  0  0  0  0
    8.2509    4.8207  -57.0390 H   0  0  0  0  0  0  0  0  0  0  0  0
  1  2  1  0
  2  3  1  0
  3  4  1  0
  4  5  1  0
  5  6  2  0
  6  7  1  0
  7  8  1  0
  7  9  2  0
  9 10  1  0
 10 11  2  0
 10 12  1  0
 12 13  1  0
 13 14  2  0
 14 15  1  0
 14 16  1  0
 16 17  2  0
 17 18  1  0
 18 19  2  0
 19 20  1  0
  4 21  1  0
 21 22  1  0
 22 23  1  0
 22 24  1  0
 24  2  1  0
 20  5  1  0
 20  9  1  0
 19 13  1  0
  1 25  1  0
  1 26  1  0
  1 27  1  0
  2 28  1  6
  3 29  1  0
  3 30  1  0
 12 31  1  0
 16 32  1  0
 17 33  1  0
 18 34  1  0
 21 35  1  0
 21 36  1  0
 22 37  1  1
 23 38  1  0
 23 39  1  0
 23 40  1  0
M  END
>  <meeko>  (16) 
{"is_sidechain": false}

$$$$

     RDKit          3D

 41 44  0  0  0  0  0  0  0  0999 V2000
    9.9720   -3.0790  -54.5480 C   0  0  0  0  0  0  0  0  0  0  0  0
    8.9720   -1.9320  -54.5250 C   0  0  2  0  0  0  0  0  0  0  0  0
    9.5800   -0.6600  -55.1290 C   0  0  0  0  0  0  0  0  0  0  0  0
    8.6790    0.4980  -54.9300 N   0  0  0  0  0  0  0  0  0  0  0  0
    8.0420    1.0920  -55.9620 C   0  0  0  0  0  0  0  0  0  0  0  0
    6.7730    0.8580  -56.2840 N   0  0  0  0  0  0  0  0  0  0  0  0
    6.2970    1.8310  -57.1280 C   0  0  0  0  0  0  0  0  0  0  0  0
    4.6480    1.9660  -57.6490 Cl  0  0  0  0  0  0  0  0  0  0  0  0
    7.3570    2.6360  -57.4280 C   0  0  0  0  0  0  0  0  0  0  0  0
    7.5180    3.8050  -58.2250 C   0  0  0  0  0  0  0  0  0  0  0  0
    6.4200    4.3910  -58.7380 O   0  0  0  0  0  0  0  0  0  0  0  0
    8.6730    4.3400  -58.4570 N   0  0  0  0  0  0  0  0  0  0  0  0
    9.8460    3.6940  -57.9510 C   0  0  0  0  0  0  0  0  0  0  0  0
   11.1180    4.1760  -58.2930 C   0  0  0  0  0  0  0  0  0  0  0  0
   11.3100    5.5930  -59.2630 Cl  0  0  0  0  0  0  0  0  0  0  0  0
   12.2770    3.5130  -57.8670 C   0  0  0  0  0  0  0  0  0  0  0  0
   12.1880    2.3420  -57.1100 C   0  0  0  0  0  0  0  0  0  0  0  0
   10.9420    1.8370  -56.7460 C   0  0  0  0  0  0  0  0  0  0  0  0
    9.8040    2.5320  -57.1330 C   0  0  0  0  0  0  0  0  0  0  0  0
    8.4650    2.0510  -56.7830 N   0  0  0  0  0  0  0  0  0  0  0  0
    8.2000    0.6830  -53.5350 C   0  0  0  0  0  0  0  0  0  0  0  0
    7.6600   -0.6370  -52.9580 C   0  0  1  0  0  0  0  0  0  0  0  0
    6.2780   -0.9880  -53.5050 C   0  0  0  0  0  0  0  0  0  0  0  0
    8.5940   -1.7080  -53.1600 O   0  0  0  0  0  0  0  0  0  0  0  0
   10.2232   -3.3672  -53.5166 H   0  0  0  0  0  0  0  0  0  0  0  0
    9.5308   -3.9397  -55.0720 H   0  0  0  0  0  0  0  0  0  0  0  0
   10.8848   -2.7592  -55.0720 H   0  0  0  0  0  0  0  0  0  0  0  0
    8.0909   -2.1906  -55.1307 H   0  0  0  0  0  0  0  0  0  0  0  0
   10.5446   -0.4546  -54.6417 H   0  0  0  0  0  0  0  0  0  0  0  0
    9.7224   -0.8151  -56.2087 H   0  0  0  0  0  0  0  0  0  0  0  0
    6.1840    0.1480  -55.8720 H   0  0  0  0  0  0  0  0  0  0  0  0
    5.6050    3.8680  -58.7500 H   0  0  0  0  0  0  0  0  0  0  0  0
   13.2651    3.9180  -58.1309 H   0  0  0  0  0  0  0  0  0  0  0  0
   13.1042    1.8176  -56.8007 H   0  0  0  0  0  0  0  0  0  0  0  0
   10.8612    0.9070  -56.1641 H   0  0  0  0  0  0  0  0  0  0  0  0
    9.0356    1.0331  -52.9112 H   0  0  0  0  0  0  0  0  0  0  0  0
    7.3859    1.4228  -53.5391 H   0  0  0  0  0  0  0  0  0  0  0  0
    7.5400   -0.4907  -51.8744 H   0  0  0  0  0  0  0  0  0  0  0  0
    5.5862   -1.1637  -52.6680 H   0  0  0  0  0  0  0  0  0  0  0  0
    5.9051   -0.1560  -54.1205 H   0  0  0  0  0  0  0  0  0  0  0  0
    6.3473   -1.8971  -54.1205 H   0  0  0  0  0  0  0  0  0  0  0  0
  1  2  1  0
  2  3  1  0
  3  4  1  0
  4  5  1  0
  5  6  2  0
  6  7  1  0
  7  8  1  0
  7  9  2  0
  9 10  1  0
 10 11  1  0
 10 12  2  0
 12 13  1  0
 13 14  2  0
 14 15  1  0
 14 16  1  0
 16 17  2  0
 17 18  1  0
 18 19  2  0
 19 20  1  0
  4 21  1  0
 21 22  1  0
 22 23  1  0
 22 24  1  0
 24  2  1  0
 20  5  1  0
 20  9  1  0
 19 13  1  0
  1 25  1  0
  1 26  1  0
  1 27  1  0
  2 28  1  6
  3 29  1  0
  3 30  1  0
  6 31  1  0
 11 32  1  0
 16 33  1  0
 17 34  1  0
 18 35  1  0
 21 36  1  0
 21 37  1  0
 22 38  1  1
 23 39  1  0
 23 40  1  0
 23 41  1  0
M  CHG  1   6   1
M  END
>  <meeko>  (17) 
{"is_sidechain": false}

$$$$

     RDKit          3D

 41 44  0  0  0  0  0  0  0  0999 V2000
   11.3090   -2.3020  -55.3790 C   0  0  0  0  0  0  0  0  0  0  0  0
   10.2540   -1.2560  -55.7060 C   0  0  2  0  0  0  0  0  0  0  0  0
   10.9040    0.0650  -56.1430 C   0  0  0  0  0  0  0  0  0  0  0  0
    9.8860    1.1430  -56.2700 N   0  0  0  0  0  0  0  0  0  0  0  0
   10.0920    2.1860  -57.1050 C   0  0  0  0  0  0  0  0  0  0  0  0
   11.0900    3.0510  -56.9660 N   0  0  0  0  0  0  0  0  0  0  0  0
   11.2720    3.7780  -58.1220 C   0  0  0  0  0  0  0  0  0  0  0  0
   12.5780    4.8910  -58.3720 Cl  0  0  0  0  0  0  0  0  0  0  0  0
   10.2500    3.4250  -58.9530 C   0  0  0  0  0  0  0  0  0  0  0  0
    9.8700    3.7980  -60.2660 C   0  0  0  0  0  0  0  0  0  0  0  0
   10.7400    4.5620  -60.9340 O   0  0  0  0  0  0  0  0  0  0  0  0
    8.7740    3.4340  -60.8420 N   0  0  0  0  0  0  0  0  0  0  0  0
    7.8520    2.6460  -60.0720 C   0  0  0  0  0  0  0  0  0  0  0  0
    6.5920    2.3260  -60.5990 C   0  0  0  0  0  0  0  0  0  0  0  0
    6.1440    2.8020  -62.1970 Cl  0  0  0  0  0  0  0  0  0  0  0  0
    5.6510    1.6230  -59.8340 C   0  0  0  0  0  0  0  0  0  0  0  0
    5.9420    1.2430  -58.5210 C   0  0  0  0  0  0  0  0  0  0  0  0
    7.1850    1.5370  -57.9640 C   0  0  0  0  0  0  0  0  0  0  0  0
    8.1260    2.1890  -58.7510 C   0  0  0  0  0  0  0  0  0  0  0  0
    9.4460    2.5270  -58.2180 N   0  0  0  0  0  0  0  0  0  0  0  0
    8.9370    1.2520  -55.1380 C   0  0  0  0  0  0  0  0  0  0  0  0
    8.3780   -0.1300  -54.7680 C   0  0  2  0  0  0  0  0  0  0  0  0
    7.5330   -0.0610  -53.5050 C   0  0  0  0  0  0  0  0  0  0  0  0
    9.4590   -1.0440  -54.5290 O   0  0  0  0  0  0  0  0  0  0  0  0
   11.4050   -2.3972  -54.2873 H   0  0  0  0  0  0  0  0  0  0  0  0
   11.0101   -3.2704  -55.8066 H   0  0  0  0  0  0  0  0  0  0  0  0
   12.2748   -1.9948  -55.8066 H   0  0  0  0  0  0  0  0  0  0  0  0
    9.6289   -1.6114  -56.5384 H   0  0  0  0  0  0  0  0  0  0  0  0
   11.6522    0.3631  -55.3938 H   0  0  0  0  0  0  0  0  0  0  0  0
   11.3797   -0.0855  -57.1233 H   0  0  0  0  0  0  0  0  0  0  0  0
   11.7390    3.0800  -56.1910 H   0  0  0  0  0  0  0  0  0  0  0  0
   10.2320    5.1650  -61.5100 H   0  0  0  0  0  0  0  0  0  0  0  0
    4.6744    1.3680  -60.2713 H   0  0  0  0  0  0  0  0  0  0  0  0
    5.1869    0.7097  -57.9249 H   0  0  0  0  0  0  0  0  0  0  0  0
    7.4158    1.2592  -56.9250 H   0  0  0  0  0  0  0  0  0  0  0  0
    9.4593    1.6758  -54.2676 H   0  0  0  0  0  0  0  0  0  0  0  0
    8.1029    1.9046  -55.4353 H   0  0  0  0  0  0  0  0  0  0  0  0
    7.7547   -0.4724  -55.6072 H   0  0  0  0  0  0  0  0  0  0  0  0
    8.1875   -0.1144  -52.6226 H   0  0  0  0  0  0  0  0  0  0  0  0
    6.9733    0.8858  -53.4896 H   0  0  0  0  0  0  0  0  0  0  0  0
    6.8271   -0.9045  -53.4896 H   0  0  0  0  0  0  0  0  0  0  0  0
  1  2  1  0
  2  3  1  0
  3  4  1  0
  4  5  1  0
  5  6  2  0
  6  7  1  0
  7  8  1  0
  7  9  2  0
  9 10  1  0
 10 11  1  0
 10 12  2  0
 12 13  1  0
 13 14  2  0
 14 15  1  0
 14 16  1  0
 16 17  2  0
 17 18  1  0
 18 19  2  0
 19 20  1  0
  4 21  1  0
 21 22  1  0
 22 23  1  0
 22 24  1  0
 24  2  1  0
 20  5  1  0
 20  9  1  0
 19 13  1  0
  1 25  1  0
  1 26  1  0
  1 27  1  0
  2 28  1  6
  3 29  1  0
  3 30  1  0
  6 31  1  0
 11 32  1  0
 16 33  1  0
 17 34  1  0
 18 35  1  0
 21 36  1  0
 21 37  1  0
 22 38  1  6
 23 39  1  0
 23 40  1  0
 23 41  1  0
M  CHG  1   6   1
M  END
>  <meeko>  (18) 
{"is_sidechain": false}

$$$$

     RDKit          3D

 41 44  0  0  0  0  0  0  0  0999 V2000
   10.0310   -1.0730  -54.6420 C   0  0  0  0  0  0  0  0  0  0  0  0
    8.6290   -0.6270  -55.0340 C   0  0  2  0  0  0  0  0  0  0  0  0
    8.6460    0.7550  -55.7070 C   0  0  0  0  0  0  0  0  0  0  0  0
    7.2590    1.1560  -56.0720 N   0  0  0  0  0  0  0  0  0  0  0  0
    6.9630    1.5580  -57.3320 C   0  0  0  0  0  0  0  0  0  0  0  0
    5.9020    1.1380  -58.0110 N   0  0  0  0  0  0  0  0  0  0  0  0
    6.0600    1.3790  -59.3570 C   0  0  0  0  0  0  0  0  0  0  0  0
    4.9730    0.8100  -60.5820 Cl  0  0  0  0  0  0  0  0  0  0  0  0
    7.2050    2.1150  -59.4810 C   0  0  0  0  0  0  0  0  0  0  0  0
    7.8320    2.6170  -60.6700 C   0  0  0  0  0  0  0  0  0  0  0  0
    7.5430    2.4080  -61.8440 O   0  0  0  0  0  0  0  0  0  0  0  0
    8.9080    3.4390  -60.3700 N   0  0  0  0  0  0  0  0  0  0  0  0
    9.3070    3.8530  -59.0720 C   0  0  0  0  0  0  0  0  0  0  0  0
   10.3200    4.8020  -58.9080 C   0  0  0  0  0  0  0  0  0  0  0  0
   11.1690    5.4420  -60.2660 Cl  0  0  0  0  0  0  0  0  0  0  0  0
   10.6470    5.2650  -57.6300 C   0  0  0  0  0  0  0  0  0  0  0  0
    9.9510    4.7990  -56.5090 C   0  0  0  0  0  0  0  0  0  0  0  0
    8.9430    3.8420  -56.6520 C   0  0  0  0  0  0  0  0  0  0  0  0
    8.6710    3.3540  -57.9210 C   0  0  0  0  0  0  0  0  0  0  0  0
    7.6500    2.3490  -58.1590 N   0  0  0  0  0  0  0  0  0  0  0  0
    6.1910    0.6410  -55.1770 C   0  0  0  0  0  0  0  0  0  0  0  0
    6.7630    0.3130  -53.7910 C   0  0  1  0  0  0  0  0  0  0  0  0
    5.6880   -0.2170  -52.8560 C   0  0  0  0  0  0  0  0  0  0  0  0
    7.8100   -0.6650  -53.8570 O   0  0  0  0  0  0  0  0  0  0  0  0
   10.1142   -1.0995  -53.5455 H   0  0  0  0  0  0  0  0  0  0  0  0
   10.2236   -2.0768  -55.0487 H   0  0  0  0  0  0  0  0  0  0  0  0
   10.7681   -0.3650  -55.0487 H   0  0  0  0  0  0  0  0  0  0  0  0
    8.2048   -1.3082  -55.7864 H   0  0  0  0  0  0  0  0  0  0  0  0
    9.0688    1.4947  -55.0112 H   0  0  0  0  0  0  0  0  0  0  0  0
    9.2617    0.7079  -56.6174 H   0  0  0  0  0  0  0  0  0  0  0  0
    5.1450    0.5780  -57.6450 H   0  0  0  0  0  0  0  0  0  0  0  0
    9.3860    3.8440  -61.1720 H   0  0  0  0  0  0  0  0  0  0  0  0
   11.4560    5.9998  -57.5049 H   0  0  0  0  0  0  0  0  0  0  0  0
   10.1987    5.1880  -55.5103 H   0  0  0  0  0  0  0  0  0  0  0  0
    8.3785    3.4842  -55.7783 H   0  0  0  0  0  0  0  0  0  0  0  0
    5.4062    1.4047  -55.0732 H   0  0  0  0  0  0  0  0  0  0  0  0
    5.7716   -0.2767  -55.6151 H   0  0  0  0  0  0  0  0  0  0  0  0
    7.1684    1.2595  -53.4040 H   0  0  0  0  0  0  0  0  0  0  0  0
    6.0008   -0.0628  -51.8128 H   0  0  0  0  0  0  0  0  0  0  0  0
    4.7455    0.3197  -53.0393 H   0  0  0  0  0  0  0  0  0  0  0  0
    5.5398   -1.2914  -53.0393 H   0  0  0  0  0  0  0  0  0  0  0  0
  1  2  1  0
  2  3  1  0
  3  4  1  0
  4  5  1  0
  5  6  2  0
  6  7  1  0
  7  8  1  0
  7  9  2  0
  9 10  1  0
 10 11  2  0
 10 12  1  0
 12 13  1  0
 13 14  2  0
 14 15  1  0
 14 16  1  0
 16 17  2  0
 17 18  1  0
 18 19  2  0
 19 20  1  0
  4 21  1  0
 21 22  1  0
 22 23  1  0
 22 24  1  0
 24  2  1  0
 20  5  1  0
 20  9  1  0
 19 13  1  0
  1 25  1  0
  1 26  1  0
  1 27  1  0
  2 28  1  6
  3 29  1  0
  3 30  1  0
  6 31  1  0
 12 32  1  0
 16 33  1  0
 17 34  1  0
 18 35  1  0
 21 36  1  0
 21 37  1  0
 22 38  1  1
 23 39  1  0
 23 40  1  0
 23 41  1  0
M  CHG  1   6   1
M  END
>  <meeko>  (19) 
{"is_sidechain": false}

$$$$

     RDKit          3D

 41 44  0  0  0  0  0  0  0  0999 V2000
    6.3770   -1.4320  -53.4690 C   0  0  0  0  0  0  0  0  0  0  0  0
    7.6140   -0.7980  -52.8370 C   0  0  2  0  0  0  0  0  0  0  0  0
    7.9150    0.5800  -53.4580 C   0  0  0  0  0  0  0  0  0  0  0  0
    8.5020    0.4410  -54.8170 N   0  0  0  0  0  0  0  0  0  0  0  0
    7.8990    1.0160  -55.8880 C   0  0  0  0  0  0  0  0  0  0  0  0
    6.6470    0.7730  -56.2550 N   0  0  0  0  0  0  0  0  0  0  0  0
    6.1890    1.7550  -57.1030 C   0  0  0  0  0  0  0  0  0  0  0  0
    4.5480    1.8820  -57.6480 Cl  0  0  0  0  0  0  0  0  0  0  0  0
    7.2650    2.5500  -57.3820 C   0  0  0  0  0  0  0  0  0  0  0  0
    7.3310    3.7230  -58.2070 C   0  0  0  0  0  0  0  0  0  0  0  0
    6.4200    4.3350  -58.7560 O   0  0  0  0  0  0  0  0  0  0  0  0
    8.6360    4.1690  -58.3520 N   0  0  0  0  0  0  0  0  0  0  0  0
    9.8000    3.5220  -57.8620 C   0  0  0  0  0  0  0  0  0  0  0  0
   11.0720    3.9960  -58.1960 C   0  0  0  0  0  0  0  0  0  0  0  0
   11.2690    5.4190  -59.1520 Cl  0  0  0  0  0  0  0  0  0  0  0  0
   12.2120    3.3060  -57.7740 C   0  0  0  0  0  0  0  0  0  0  0  0
   12.0900    2.1270  -57.0300 C   0  0  0  0  0  0  0  0  0  0  0  0
   10.8290    1.6440  -56.6770 C   0  0  0  0  0  0  0  0  0  0  0  0
    9.7110    2.3700  -57.0590 C   0  0  0  0  0  0  0  0  0  0  0  0
    8.3620    1.9480  -56.7240 N   0  0  0  0  0  0  0  0  0  0  0  0
    9.4490   -0.6870  -54.9990 C   0  0  0  0  0  0  0  0  0  0  0  0
    9.8490   -1.2890  -53.6450 C   0  0  2  0  0  0  0  0  0  0  0  0
   10.7830   -2.4760  -53.8240 C   0  0  0  0  0  0  0  0  0  0  0  0
    8.6850   -1.7470  -52.9510 O   0  0  0  0  0  0  0  0  0  0  0  0
    5.6980   -1.7800  -52.6767 H   0  0  0  0  0  0  0  0  0  0  0  0
    5.8613   -0.6871  -54.0928 H   0  0  0  0  0  0  0  0  0  0  0  0
    6.6806   -2.2856  -54.0928 H   0  0  0  0  0  0  0  0  0  0  0  0
    7.4577   -0.5811  -51.7700 H   0  0  0  0  0  0  0  0  0  0  0  0
    6.9792    1.1539  -53.5284 H   0  0  0  0  0  0  0  0  0  0  0  0
    8.6417    1.0999  -52.8163 H   0  0  0  0  0  0  0  0  0  0  0  0
    6.0370    0.0690  -55.8630 H   0  0  0  0  0  0  0  0  0  0  0  0
    8.7540    4.9880  -58.9440 H   0  0  0  0  0  0  0  0  0  0  0  0
   13.2103    3.6918  -58.0280 H   0  0  0  0  0  0  0  0  0  0  0  0
   12.9922    1.5783  -56.7219 H   0  0  0  0  0  0  0  0  0  0  0  0
   10.7244    0.7082  -56.1084 H   0  0  0  0  0  0  0  0  0  0  0  0
    8.9695   -1.4647  -55.6116 H   0  0  0  0  0  0  0  0  0  0  0  0
   10.3541   -0.3096  -55.4974 H   0  0  0  0  0  0  0  0  0  0  0  0
   10.3608   -0.5013  -53.0726 H   0  0  0  0  0  0  0  0  0  0  0  0
   11.0836   -2.8581  -52.8373 H   0  0  0  0  0  0  0  0  0  0  0  0
   10.2646   -3.2696  -54.3821 H   0  0  0  0  0  0  0  0  0  0  0  0
   11.6763   -2.1588  -54.3821 H   0  0  0  0  0  0  0  0  0  0  0  0
  1  2  1  0
  2  3  1  0
  3  4  1  0
  4  5  1  0
  5  6  2  0
  6  7  1  0
  7  8  1  0
  7  9  2  0
  9 10  1  0
 10 11  2  0
 10 12  1  0
 12 13  1  0
 13 14  2  0
 14 15  1  0
 14 16  1  0
 16 17  2  0
 17 18  1  0
 18 19  2  0
 19 20  1  0
  4 21  1  0
 21 22  1  0
 22 23  1  0
 22 24  1  0
 24  2  1  0
 20  5  1  0
 20  9  1  0
 19 13  1  0
  1 25  1  0
  1 26  1  0
  1 27  1  0
  2 28  1  1
  3 29  1  0
  3 30  1  0
  6 31  1  0
 12 32  1  0
 16 33  1  0
 17 34  1  0
 18 35  1  0
 21 36  1  0
 21 37  1  0
 22 38  1  1
 23 39  1  0
 23 40  1  0
 23 41  1  0
M  CHG  1   6   1
M  END
>  <meeko>  (20) 
{"is_sidechain": false}

$$$$

     RDKit          3D

 41 44  0  0  0  0  0  0  0  0999 V2000
    5.6960    1.4480  -56.5860 O   0  0  0  0  0  0  0  0  0  0  0  0
    6.0270    1.7190  -57.8600 C   0  0  0  0  0  0  0  0  0  0  0  0
    5.1290    1.7080  -58.7810 N   0  0  0  0  0  0  0  0  0  0  0  0
    5.5060    2.0070  -60.1160 C   0  0  0  0  0  0  0  0  0  0  0  0
    4.5390    2.0160  -61.1340 C   0  0  0  0  0  0  0  0  0  0  0  0
    2.8810    1.6540  -60.8060 Cl  0  0  0  0  0  0  0  0  0  0  0  0
    4.8910    2.3180  -62.4530 C   0  0  0  0  0  0  0  0  0  0  0  0
    6.2140    2.6200  -62.7770 C   0  0  0  0  0  0  0  0  0  0  0  0
    7.1970    2.6160  -61.7860 C   0  0  0  0  0  0  0  0  0  0  0  0
    6.8440    2.3070  -60.4670 C   0  0  0  0  0  0  0  0  0  0  0  0
    7.7820    2.2820  -59.4110 N   0  0  0  0  0  0  0  0  0  0  0  0
    9.1460    2.4910  -59.3760 C   0  0  0  0  0  0  0  0  0  0  0  0
    9.9000    2.7360  -60.4490 O   0  0  0  0  0  0  0  0  0  0  0  0
   10.0360    4.1170  -60.7990 C   0  0  0  0  0  0  0  0  0  0  0  0
   11.2600    4.7730  -60.1350 C   0  0  2  0  0  0  0  0  0  0  0  0
   12.3530    3.7210  -59.8740 C   0  0  0  0  0  0  0  0  0  0  0  0
   13.3670    4.2330  -58.8580 C   0  0  0  0  0  0  0  0  0  0  0  0
   12.7310    4.5480  -57.5090 C   0  0  0  0  0  0  0  0  0  0  0  0
   11.2650    4.8140  -57.6500 N   0  0  0  0  0  0  0  0  0  0  0  0
   10.8900    5.5730  -58.8800 C   0  0  0  0  0  0  0  0  0  0  0  0
    9.6240    2.3680  -58.1590 N   0  0  0  0  0  0  0  0  0  0  0  0
    8.5420    2.0740  -57.3680 C   0  0  0  0  0  0  0  0  0  0  0  0
    8.7080    1.8250  -55.6940 Cl  0  0  0  0  0  0  0  0  0  0  0  0
    7.3940    2.0010  -58.1200 C   0  0  0  0  0  0  0  0  0  0  0  0
    5.7620    0.5120  -56.3430 H   0  0  0  0  0  0  0  0  0  0  0  0
    4.1213    2.3175  -63.2389 H   0  0  0  0  0  0  0  0  0  0  0  0
    6.4831    2.8618  -63.8158 H   0  0  0  0  0  0  0  0  0  0  0  0
    8.2407    2.8537  -62.0394 H   0  0  0  0  0  0  0  0  0  0  0  0
   10.1419    4.1959  -61.8910 H   0  0  0  0  0  0  0  0  0  0  0  0
    9.1385    4.6434  -60.4420 H   0  0  0  0  0  0  0  0  0  0  0  0
   11.6713    5.5139  -60.8363 H   0  0  0  0  0  0  0  0  0  0  0  0
   11.8854    2.8041  -59.4859 H   0  0  0  0  0  0  0  0  0  0  0  0
   12.8757    3.5143  -60.8196 H   0  0  0  0  0  0  0  0  0  0  0  0
   14.1404    3.4643  -58.7129 H   0  0  0  0  0  0  0  0  0  0  0  0
   13.7948    5.1664  -59.2528 H   0  0  0  0  0  0  0  0  0  0  0  0
   12.8768    3.6911  -56.8349 H   0  0  0  0  0  0  0  0  0  0  0  0
   13.2106    5.4496  -57.1002 H   0  0  0  0  0  0  0  0  0  0  0  0
   10.9450    5.3350  -56.8210 H   0  0  0  0  0  0  0  0  0  0  0  0
   10.7510    3.9230  -57.6230 H   0  0  0  0  0  0  0  0  0  0  0  0
    9.8058    5.7586  -58.8750 H   0  0  0  0  0  0  0  0  0  0  0  0
   11.4367    6.5275  -58.8910 H   0  0  0  0  0  0  0  0  0  0  0  0
  1  2  1  0
  2  3  2  0
  3  4  1  0
  4  5  2  0
  5  6  1  0
  5  7  1  0
  7  8  2  0
  8  9  1  0
  9 10  2  0
 10 11  1  0
 11 12  1  0
 12 13  1  0
 13 14  1  0
 14 15  1  0
 15 16  1  0
 16 17  1  0
 17 18  1  0
 18 19  1  0
 19 20  1  0
 12 21  2  0
 21 22  1  0
 22 23  1  0
 22 24  2  0
 24  2  1  0
 10  4  1  0
 24 11  1  0
 20 15  1  0
  1 25  1  0
  7 26  1  0
  8 27  1  0
  9 28  1  0
 14 29  1  0
 14 30  1  0
 15 31  1  6
 16 32  1  0
 16 33  1  0
 17 34  1  0
 17 35  1  0
 18 36  1  0
 18 37  1  0
 19 38  1  0
 19 39  1  0
 20 40  1  0
 20 41  1  0
M  CHG  1  19   1
M  END
>  <meeko>  (21) 
{"is_sidechain": false}

$$$$

     RDKit          3D

 41 44  0  0  0  0  0  0  0  0999 V2000
    5.6340   -0.4820  -53.5560 O   0  0  0  0  0  0  0  0  0  0  0  0
    6.8110   -0.3050  -54.1600 C   0  0  0  0  0  0  0  0  0  0  0  0
    6.9810    0.6720  -54.9760 N   0  0  0  0  0  0  0  0  0  0  0  0
    8.2540    0.8150  -55.5930 C   0  0  0  0  0  0  0  0  0  0  0  0
    8.4850    1.8720  -56.4890 C   0  0  0  0  0  0  0  0  0  0  0  0
    7.2420    3.0120  -56.8680 Cl  0  0  0  0  0  0  0  0  0  0  0  0
    9.7300    2.0310  -57.1030 C   0  0  0  0  0  0  0  0  0  0  0  0
   10.7670    1.1370  -56.8320 C   0  0  0  0  0  0  0  0  0  0  0  0
   10.5690    0.0770  -55.9460 C   0  0  0  0  0  0  0  0  0  0  0  0
    9.3210   -0.0820  -55.3340 C   0  0  0  0  0  0  0  0  0  0  0  0
    9.0460   -1.1310  -54.4270 N   0  0  0  0  0  0  0  0  0  0  0  0
    9.8140   -2.1680  -53.9370 C   0  0  0  0  0  0  0  0  0  0  0  0
   11.0710   -2.4140  -54.3060 O   0  0  0  0  0  0  0  0  0  0  0  0
   11.3670   -3.7790  -54.6100 C   0  0  0  0  0  0  0  0  0  0  0  0
   10.8970   -4.1780  -56.0240 C   0  0  1  0  0  0  0  0  0  0  0  0
   11.4840   -3.2160  -57.0770 C   0  0  0  0  0  0  0  0  0  0  0  0
   12.5880   -3.8420  -57.9370 C   0  0  0  0  0  0  0  0  0  0  0  0
   13.4820   -4.7850  -57.1480 C   0  0  0  0  0  0  0  0  0  0  0  0
   12.6730   -5.8470  -56.4830 N   0  0  0  0  0  0  0  0  0  0  0  0
   11.2000   -5.6260  -56.3990 C   0  0  0  0  0  0  0  0  0  0  0  0
    9.1330   -2.9400  -53.1110 N   0  0  0  0  0  0  0  0  0  0  0  0
    7.8830   -2.3590  -53.0280 C   0  0  0  0  0  0  0  0  0  0  0  0
    6.6810   -3.0500  -52.0450 Cl  0  0  0  0  0  0  0  0  0  0  0  0
    7.8090   -1.2520  -53.8380 C   0  0  0  0  0  0  0  0  0  0  0  0
    5.3230   -1.3790  -53.7750 H   0  0  0  0  0  0  0  0  0  0  0  0
    9.8935    2.8639  -57.8026 H   0  0  0  0  0  0  0  0  0  0  0  0
   11.7446    1.2685  -57.3189 H   0  0  0  0  0  0  0  0  0  0  0  0
   11.3865   -0.6268  -55.7309 H   0  0  0  0  0  0  0  0  0  0  0  0
   12.4547   -3.9286  -54.5432 H   0  0  0  0  0  0  0  0  0  0  0  0
   10.8301   -4.4095  -53.8860 H   0  0  0  0  0  0  0  0  0  0  0  0
    9.8002   -4.0956  -56.0094 H   0  0  0  0  0  0  0  0  0  0  0  0
   10.6700   -2.8894  -57.7409 H   0  0  0  0  0  0  0  0  0  0  0  0
   11.9401   -2.3788  -56.5283 H   0  0  0  0  0  0  0  0  0  0  0  0
   12.1186   -4.4055  -58.7568 H   0  0  0  0  0  0  0  0  0  0  0  0
   13.2190   -3.0241  -58.3149 H   0  0  0  0  0  0  0  0  0  0  0  0
   14.2030   -5.2559  -57.8324 H   0  0  0  0  0  0  0  0  0  0  0  0
   14.0100   -4.2072  -56.3751 H   0  0  0  0  0  0  0  0  0  0  0  0
   12.8580   -6.7600  -56.9160 H   0  0  0  0  0  0  0  0  0  0  0  0
   13.0150   -5.9580  -55.5040 H   0  0  0  0  0  0  0  0  0  0  0  0
   10.7442   -5.8502  -57.3747 H   0  0  0  0  0  0  0  0  0  0  0  0
   10.7846   -6.2882  -55.6251 H   0  0  0  0  0  0  0  0  0  0  0  0
  1  2  1  0
  2  3  2  0
  3  4  1  0
  4  5  2  0
  5  6  1  0
  5  7  1  0
  7  8  2  0
  8  9  1  0
  9 10  2  0
 10 11  1  0
 11 12  1  0
 12 13  1  0
 13 14  1  0
 14 15  1  0
 15 16  1  0
 16 17  1  0
 17 18  1  0
 18 19  1  0
 19 20  1  0
 12 21  2  0
 21 22  1  0
 22 23  1  0
 22 24  2  0
 24  2  1  0
 10  4  1  0
 24 11  1  0
 20 15  1  0
  1 25  1  0
  7 26  1  0
  8 27  1  0
  9 28  1  0
 14 29  1  0
 14 30  1  0
 15 31  1  1
 16 32  1  0
 16 33  1  0
 17 34  1  0
 17 35  1  0
 18 36  1  0
 18 37  1  0
 19 38  1  0
 19 39  1  0
 20 40  1  0
 20 41  1  0
M  CHG  1  19   1
M  END
>  <meeko>  (22) 
{"is_sidechain": false}

$$$$

     RDKit          3D

 41 44  0  0  0  0  0  0  0  0999 V2000
    4.6050    1.5330  -59.8680 O   0  0  0  0  0  0  0  0  0  0  0  0
    5.7080    1.6690  -59.3540 C   0  0  0  0  0  0  0  0  0  0  0  0
    5.9130    1.3240  -58.0390 N   0  0  0  0  0  0  0  0  0  0  0  0
    7.1430    1.4440  -57.3640 C   0  0  0  0  0  0  0  0  0  0  0  0
    7.2580    1.0520  -56.0250 C   0  0  0  0  0  0  0  0  0  0  0  0
    5.9040    0.4240  -55.1580 Cl  0  0  0  0  0  0  0  0  0  0  0  0
    8.4810    1.1650  -55.3650 C   0  0  0  0  0  0  0  0  0  0  0  0
    9.5960    1.6670  -56.0390 C   0  0  0  0  0  0  0  0  0  0  0  0
    9.4950    2.0630  -57.3770 C   0  0  0  0  0  0  0  0  0  0  0  0
    8.2690    1.9550  -58.0360 C   0  0  0  0  0  0  0  0  0  0  0  0
    8.0790    2.3320  -59.3850 N   0  0  0  0  0  0  0  0  0  0  0  0
    8.9420    2.8700  -60.3200 C   0  0  0  0  0  0  0  0  0  0  0  0
   10.1970    3.2430  -60.0730 O   0  0  0  0  0  0  0  0  0  0  0  0
   10.5730    4.5160  -60.6080 C   0  0  0  0  0  0  0  0  0  0  0  0
   10.9180    5.5980  -59.5570 C   0  0  2  0  0  0  0  0  0  0  0  0
   12.2740    6.2600  -59.8620 C   0  0  0  0  0  0  0  0  0  0  0  0
   13.4660    5.3880  -59.4610 C   0  0  0  0  0  0  0  0  0  0  0  0
   13.3600    4.9070  -58.0220 C   0  0  0  0  0  0  0  0  0  0  0  0
   12.0450    4.2320  -57.8190 N   0  0  0  0  0  0  0  0  0  0  0  0
   10.8680    5.1060  -58.1120 C   0  0  0  0  0  0  0  0  0  0  0  0
    8.3510    3.0690  -61.4730 N   0  0  0  0  0  0  0  0  0  0  0  0
    7.0570    2.6350  -61.3030 C   0  0  0  0  0  0  0  0  0  0  0  0
    5.9320    2.7140  -62.5750 Cl  0  0  0  0  0  0  0  0  0  0  0  0
    6.8630    2.1880  -60.0170 C   0  0  0  0  0  0  0  0  0  0  0  0
    5.1090    0.9480  -57.5450 H   0  0  0  0  0  0  0  0  0  0  0  0
    8.5675    0.8583  -54.3122 H   0  0  0  0  0  0  0  0  0  0  0  0
   10.5594    1.7516  -55.5149 H   0  0  0  0  0  0  0  0  0  0  0  0
   10.3754    2.4567  -57.9061 H   0  0  0  0  0  0  0  0  0  0  0  0
   11.4562    4.3689  -61.2470 H   0  0  0  0  0  0  0  0  0  0  0  0
    9.6932    4.8896  -61.1523 H   0  0  0  0  0  0  0  0  0  0  0  0
   10.1215    6.3515  -59.6447 H   0  0  0  0  0  0  0  0  0  0  0  0
   12.3324    6.4590  -60.9423 H   0  0  0  0  0  0  0  0  0  0  0  0
   12.3293    7.1864  -59.2715 H   0  0  0  0  0  0  0  0  0  0  0  0
   13.5058    4.5128  -60.1262 H   0  0  0  0  0  0  0  0  0  0  0  0
   14.3780    5.9965  -59.5501 H   0  0  0  0  0  0  0  0  0  0  0  0
   14.1731    4.1966  -57.8120 H   0  0  0  0  0  0  0  0  0  0  0  0
   13.4397    5.7672  -57.3410 H   0  0  0  0  0  0  0  0  0  0  0  0
   11.9800    3.9190  -56.8410 H   0  0  0  0  0  0  0  0  0  0  0  0
   11.9890    3.3730  -58.3830 H   0  0  0  0  0  0  0  0  0  0  0  0
    9.9425    4.5322  -57.9561 H   0  0  0  0  0  0  0  0  0  0  0  0
   10.8916    5.9748  -57.4378 H   0  0  0  0  0  0  0  0  0  0  0  0
  1  2  2  0
  2  3  1  0
  3  4  1  0
  4  5  2  0
  5  6  1  0
  5  7  1  0
  7  8  2  0
  8  9  1  0
  9 10  2  0
 10 11  1  0
 11 12  1  0
 12 13  1  0
 13 14  1  0
 14 15  1  0
 15 16  1  0
 16 17  1  0
 17 18  1  0
 18 19  1  0
 19 20  1  0
 12 21  2  0
 21 22  1  0
 22 23  1  0
 22 24  2  0
 24  2  1  0
 10  4  1  0
 24 11  1  0
 20 15  1  0
  3 25  1  0
  7 26  1  0
  8 27  1  0
  9 28  1  0
 14 29  1  0
 14 30  1  0
 15 31  1  1
 16 32  1  0
 16 33  1  0
 17 34  1  0
 17 35  1  0
 18 36  1  0
 18 37  1  0
 19 38  1  0
 19 39  1  0
 20 40  1  0
 20 41  1  0
M  CHG  1  19   1
M  END
>  <meeko>  (23) 
{"is_sidechain": false}

$$$$

     RDKit          3D

 41 44  0  0  0  0  0  0  0  0999 V2000
    9.2680    0.6710  -55.1290 O   0  0  0  0  0  0  0  0  0  0  0  0
    8.9910    1.4350  -56.0450 C   0  0  0  0  0  0  0  0  0  0  0  0
    9.9780    2.1510  -56.6790 N   0  0  0  0  0  0  0  0  0  0  0  0
    9.7560    3.0520  -57.7390 C   0  0  0  0  0  0  0  0  0  0  0  0
   10.8300    3.7360  -58.3240 C   0  0  0  0  0  0  0  0  0  0  0  0
   12.4480    3.5020  -57.7700 Cl  0  0  0  0  0  0  0  0  0  0  0  0
   10.6040    4.6260  -59.3740 C   0  0  0  0  0  0  0  0  0  0  0  0
    9.3060    4.8360  -59.8440 C   0  0  0  0  0  0  0  0  0  0  0  0
    8.2260    4.1610  -59.2690 C   0  0  0  0  0  0  0  0  0  0  0  0
    8.4520    3.2700  -58.2170 C   0  0  0  0  0  0  0  0  0  0  0  0
    7.4180    2.5470  -57.5800 N   0  0  0  0  0  0  0  0  0  0  0  0
    6.0520    2.5200  -57.7830 C   0  0  0  0  0  0  0  0  0  0  0  0
    5.4080    3.2570  -58.6910 O   0  0  0  0  0  0  0  0  0  0  0  0
    4.5320    2.5190  -59.5480 C   0  0  0  0  0  0  0  0  0  0  0  0
    5.3110    1.5110  -60.4150 C   0  0  1  0  0  0  0  0  0  0  0  0
    4.4060    0.3930  -60.9620 C   0  0  0  0  0  0  0  0  0  0  0  0
    3.5220    0.8540  -62.1220 C   0  0  0  0  0  0  0  0  0  0  0  0
    4.3360    1.5230  -63.2180 C   0  0  0  0  0  0  0  0  0  0  0  0
    5.1340    2.6390  -62.6280 N   0  0  0  0  0  0  0  0  0  0  0  0
    6.0680    2.2090  -61.5430 C   0  0  0  0  0  0  0  0  0  0  0  0
    5.4490    1.6950  -56.9560 N   0  0  0  0  0  0  0  0  0  0  0  0
    6.4490    1.1580  -56.1830 C   0  0  0  0  0  0  0  0  0  0  0  0
    6.1010    0.0260  -54.9630 Cl  0  0  0  0  0  0  0  0  0  0  0  0
    7.6720    1.6710  -56.5460 C   0  0  0  0  0  0  0  0  0  0  0  0
   10.9260    2.0010  -56.3440 H   0  0  0  0  0  0  0  0  0  0  0  0
   11.4482    5.1624  -59.8318 H   0  0  0  0  0  0  0  0  0  0  0  0
    9.1324    5.5379  -60.6730 H   0  0  0  0  0  0  0  0  0  0  0  0
    7.2051    4.3300  -59.6421 H   0  0  0  0  0  0  0  0  0  0  0  0
    3.8040    1.9724  -58.9305 H   0  0  0  0  0  0  0  0  0  0  0  0
    4.0223    3.2289  -60.2161 H   0  0  0  0  0  0  0  0  0  0  0  0
    6.0520    1.0343  -59.7565 H   0  0  0  0  0  0  0  0  0  0  0  0
    5.0422   -0.4330  -61.3128 H   0  0  0  0  0  0  0  0  0  0  0  0
    3.7398    0.0794  -60.1448 H   0  0  0  0  0  0  0  0  0  0  0  0
    3.0047   -0.0197  -62.5451 H   0  0  0  0  0  0  0  0  0  0  0  0
    2.8015    1.5886  -61.7331 H   0  0  0  0  0  0  0  0  0  0  0  0
    5.0146    0.7867  -63.6733 H   0  0  0  0  0  0  0  0  0  0  0  0
    3.6597    1.9208  -63.9890 H   0  0  0  0  0  0  0  0  0  0  0  0
    5.6890    3.0750  -63.3790 H   0  0  0  0  0  0  0  0  0  0  0  0
    4.5060    3.3830  -62.2930 H   0  0  0  0  0  0  0  0  0  0  0  0
    6.8106    1.5140  -61.9619 H   0  0  0  0  0  0  0  0  0  0  0  0
    6.5639    3.1012  -61.1331 H   0  0  0  0  0  0  0  0  0  0  0  0
  1  2  2  0
  2  3  1  0
  3  4  1  0
  4  5  2  0
  5  6  1  0
  5  7  1  0
  7  8  2  0
  8  9  1  0
  9 10  2  0
 10 11  1  0
 11 12  1  0
 12 13  1  0
 13 14  1  0
 14 15  1  0
 15 16  1  0
 16 17  1  0
 17 18  1  0
 18 19  1  0
 19 20  1  0
 12 21  2  0
 21 22  1  0
 22 23  1  0
 22 24  2  0
 24  2  1  0
 10  4  1  0
 24 11  1  0
 20 15  1  0
  3 25  1  0
  7 26  1  0
  8 27  1  0
  9 28  1  0
 14 29  1  0
 14 30  1  0
 15 31  1  1
 16 32  1  0
 16 33  1  0
 17 34  1  0
 17 35  1  0
 18 36  1  0
 18 37  1  0
 19 38  1  0
 19 39  1  0
 20 40  1  0
 20 41  1  0
M  CHG  1  19   1
M  END
>  <meeko>  (24) 
{"is_sidechain": false}

$$$$

     RDKit          3D

 42 45  0  0  0  0  0  0  0  0999 V2000
    9.3020    0.6110  -55.0750 O   0  0  0  0  0  0  0  0  0  0  0  0
    9.0360    1.4440  -56.0950 C   0  0  0  0  0  0  0  0  0  0  0  0
   10.0210    2.0430  -56.6780 N   0  0  0  0  0  0  0  0  0  0  0  0
    9.7610    2.9470  -57.7530 C   0  0  0  0  0  0  0  0  0  0  0  0
   10.8170    3.6340  -58.3670 C   0  0  0  0  0  0  0  0  0  0  0  0
   12.4530    3.3950  -57.8700 Cl  0  0  0  0  0  0  0  0  0  0  0  0
   10.5750    4.5420  -59.4060 C   0  0  0  0  0  0  0  0  0  0  0  0
    9.2710    4.7870  -59.8480 C   0  0  0  0  0  0  0  0  0  0  0  0
    8.1950    4.1180  -59.2650 C   0  0  0  0  0  0  0  0  0  0  0  0
    8.4550    3.2110  -58.2450 C   0  0  0  0  0  0  0  0  0  0  0  0
    7.3770    2.4720  -57.5910 N   0  0  0  0  0  0  0  0  0  0  0  0
    6.0670    2.4200  -57.8060 C   0  0  0  0  0  0  0  0  0  0  0  0
    5.3350    3.0640  -58.8150 O   0  0  0  0  0  0  0  0  0  0  0  0
    4.1060    2.3700  -59.0250 C   0  0  0  0  0  0  0  0  0  0  0  0
    4.0410    1.8270  -60.4670 C   0  0  2  0  0  0  0  0  0  0  0  0
    5.3050    2.2380  -61.2460 C   0  0  0  0  0  0  0  0  0  0  0  0
    5.1100    2.2700  -62.7640 C   0  0  0  0  0  0  0  0  0  0  0  0
    4.0400    1.2990  -63.2230 C   0  0  0  0  0  0  0  0  0  0  0  0
    2.7320    1.6600  -62.5830 N   0  0  0  0  0  0  0  0  0  0  0  0
    2.7810    2.2690  -61.2120 C   0  0  0  0  0  0  0  0  0  0  0  0
    5.5130    1.6590  -56.8740 N   0  0  0  0  0  0  0  0  0  0  0  0
    6.4850    1.1360  -56.0530 C   0  0  0  0  0  0  0  0  0  0  0  0
    6.1800    0.0620  -54.7260 Cl  0  0  0  0  0  0  0  0  0  0  0  0
    7.6840    1.6240  -56.5020 C   0  0  0  0  0  0  0  0  0  0  0  0
    9.5130    0.9950  -54.2100 H   0  0  0  0  0  0  0  0  0  0  0  0
   11.4183    5.0670  -59.8784 H   0  0  0  0  0  0  0  0  0  0  0  0
    9.0934    5.5097  -60.6581 H   0  0  0  0  0  0  0  0  0  0  0  0
    7.1654    4.3039  -59.6045 H   0  0  0  0  0  0  0  0  0  0  0  0
    4.0370    1.5308  -58.3172 H   0  0  0  0  0  0  0  0  0  0  0  0
    3.2690    3.0656  -58.8652 H   0  0  0  0  0  0  0  0  0  0  0  0
    3.9944    0.7302  -60.3971 H   0  0  0  0  0  0  0  0  0  0  0  0
    5.6065    3.2423  -60.9135 H   0  0  0  0  0  0  0  0  0  0  0  0
    6.0724    1.4782  -61.0368 H   0  0  0  0  0  0  0  0  0  0  0  0
    4.8171    3.2874  -63.0624 H   0  0  0  0  0  0  0  0  0  0  0  0
    6.0597    1.9737  -63.2334 H   0  0  0  0  0  0  0  0  0  0  0  0
    3.9405    1.3529  -64.3172 H   0  0  0  0  0  0  0  0  0  0  0  0
    4.3220    0.2766  -62.9313 H   0  0  0  0  0  0  0  0  0  0  0  0
    2.2350    2.3070  -63.2160 H   0  0  0  0  0  0  0  0  0  0  0  0
    2.1410    0.8150  -62.5780 H   0  0  0  0  0  0  0  0  0  0  0  0
    2.7821    3.3651  -61.3040 H   0  0  0  0  0  0  0  0  0  0  0  0
    1.9000    1.9336  -60.6452 H   0  0  0  0  0  0  0  0  0  0  0  0
    4.5180    1.4960  -56.7580 H   0  0  0  0  0  0  0  0  0  0  0  0
  1  2  1  0
  2  3  2  0
  3  4  1  0
  4  5  2  0
  5  6  1  0
  5  7  1  0
  7  8  2  0
  8  9  1  0
  9 10  2  0
 10 11  1  0
 11 12  1  0
 12 13  1  0
 13 14  1  0
 14 15  1  0
 15 16  1  0
 16 17  1  0
 17 18  1  0
 18 19  1  0
 19 20  1  0
 12 21  2  0
 21 22  1  0
 22 23  1  0
 22 24  2  0
 24  2  1  0
 10  4  1  0
 24 11  1  0
 20 15  1  0
  1 25  1  0
  7 26  1  0
  8 27  1  0
  9 28  1  0
 14 29  1  0
 14 30  1  0
 15 31  1  1
 16 32  1  0
 16 33  1  0
 17 34  1  0
 17 35  1  0
 18 36  1  0
 18 37  1  0
 19 38  1  0
 19 39  1  0
 20 40  1  0
 20 41  1  0
 21 42  1  0
M  CHG  2  19   1  21   1
M  END
>  <meeko>  (25) 
{"is_sidechain": false}

$$$$

     RDKit          3D

 42 45  0  0  0  0  0  0  0  0999 V2000
    9.2680    0.6570  -55.0650 O   0  0  0  0  0  0  0  0  0  0  0  0
    9.0470    1.4900  -56.0870 C   0  0  0  0  0  0  0  0  0  0  0  0
   10.0400    2.0900  -56.6490 N   0  0  0  0  0  0  0  0  0  0  0  0
    9.7600    2.9830  -57.7340 C   0  0  0  0  0  0  0  0  0  0  0  0
   10.8040    3.6890  -58.3490 C   0  0  0  0  0  0  0  0  0  0  0  0
   12.4410    3.4840  -57.8410 Cl  0  0  0  0  0  0  0  0  0  0  0  0
   10.5470    4.5840  -59.3960 C   0  0  0  0  0  0  0  0  0  0  0  0
    9.2400    4.7970  -59.8460 C   0  0  0  0  0  0  0  0  0  0  0  0
    8.1760    4.1110  -59.2640 C   0  0  0  0  0  0  0  0  0  0  0  0
    8.4480    3.2170  -58.2360 C   0  0  0  0  0  0  0  0  0  0  0  0
    7.3770    2.4620  -57.5830 N   0  0  0  0  0  0  0  0  0  0  0  0
    6.0690    2.3900  -57.7920 C   0  0  0  0  0  0  0  0  0  0  0  0
    5.3290    3.0190  -58.8000 O   0  0  0  0  0  0  0  0  0  0  0  0
    4.1090    2.3150  -59.0320 C   0  0  0  0  0  0  0  0  0  0  0  0
    4.0680    1.8190  -60.4930 C   0  0  1  0  0  0  0  0  0  0  0  0
    2.7970    2.2640  -61.2270 C   0  0  0  0  0  0  0  0  0  0  0  0
    2.7230    1.7010  -62.6530 C   0  0  0  0  0  0  0  0  0  0  0  0
    4.0710    1.2730  -63.2200 C   0  0  0  0  0  0  0  0  0  0  0  0
    5.1180    2.2210  -62.7450 N   0  0  0  0  0  0  0  0  0  0  0  0
    5.3260    2.2590  -61.2620 C   0  0  0  0  0  0  0  0  0  0  0  0
    5.5270    1.6290  -56.8530 N   0  0  0  0  0  0  0  0  0  0  0  0
    6.5090    1.1270  -56.0240 C   0  0  0  0  0  0  0  0  0  0  0  0
    6.1940    0.0690  -54.6870 Cl  0  0  0  0  0  0  0  0  0  0  0  0
    7.6960    1.6320  -56.4870 C   0  0  0  0  0  0  0  0  0  0  0  0
   10.2330    0.5800  -54.9310 H   0  0  0  0  0  0  0  0  0  0  0  0
   11.3808    5.1240  -59.8684 H   0  0  0  0  0  0  0  0  0  0  0  0
    9.0512    5.5091  -60.6629 H   0  0  0  0  0  0  0  0  0  0  0  0
    7.1447    4.2735  -59.6104 H   0  0  0  0  0  0  0  0  0  0  0  0
    4.0482    1.4534  -58.3509 H   0  0  0  0  0  0  0  0  0  0  0  0
    3.2582    2.9882  -58.8505 H   0  0  0  0  0  0  0  0  0  0  0  0
    4.0491    0.7199  -60.4541 H   0  0  0  0  0  0  0  0  0  0  0  0
    1.9207    1.9135  -60.6620 H   0  0  0  0  0  0  0  0  0  0  0  0
    2.8152    3.3616  -61.2981 H   0  0  0  0  0  0  0  0  0  0  0  0
    2.0571    0.8255  -62.6453 H   0  0  0  0  0  0  0  0  0  0  0  0
    2.3493    2.5111  -63.2965 H   0  0  0  0  0  0  0  0  0  0  0  0
    4.3102    0.2560  -62.8757 H   0  0  0  0  0  0  0  0  0  0  0  0
    4.0322    1.2812  -64.3193 H   0  0  0  0  0  0  0  0  0  0  0  0
    4.8880    3.1620  -63.0970 H   0  0  0  0  0  0  0  0  0  0  0  0
    6.0090    1.9870  -63.2100 H   0  0  0  0  0  0  0  0  0  0  0  0
    6.1553    1.5847  -61.0021 H   0  0  0  0  0  0  0  0  0  0  0  0
    5.5534    3.2968  -60.9769 H   0  0  0  0  0  0  0  0  0  0  0  0
    4.5360    1.4670  -56.7180 H   0  0  0  0  0  0  0  0  0  0  0  0
  1  2  1  0
  2  3  2  0
  3  4  1  0
  4  5  2  0
  5  6  1  0
  5  7  1  0
  7  8  2  0
  8  9  1  0
  9 10  2  0
 10 11  1  0
 11 12  1  0
 12 13  1  0
 13 14  1  0
 14 15  1  0
 15 16  1  0
 16 17  1  0
 17 18  1  0
 18 19  1  0
 19 20  1  0
 12 21  2  0
 21 22  1  0
 22 23  1  0
 22 24  2  0
 24  2  1  0
 10  4  1  0
 24 11  1  0
 20 15  1  0
  1 25  1  0
  7 26  1  0
  8 27  1  0
  9 28  1  0
 14 29  1  0
 14 30  1  0
 15 31  1  1
 16 32  1  0
 16 33  1  0
 17 34  1  0
 17 35  1  0
 18 36  1  0
 18 37  1  0
 19 38  1  0
 19 39  1  0
 20 40  1  0
 20 41  1  0
 21 42  1  0
M  CHG  2  19   1  21   1
M  END
>  <meeko>  (26) 
{"is_sidechain": false}

$$$$

     RDKit          3D

 42 45  0  0  0  0  0  0  0  0999 V2000
   12.0900    2.2390  -56.8670 O   0  0  0  0  0  0  0  0  0  0  0  0
   10.8960    2.2840  -57.1380 C   0  0  0  0  0  0  0  0  0  0  0  0
    9.9800    1.6590  -56.3110 N   0  0  0  0  0  0  0  0  0  0  0  0
    8.5720    1.6290  -56.4780 C   0  0  0  0  0  0  0  0  0  0  0  0
    7.7600    0.9750  -55.5470 C   0  0  0  0  0  0  0  0  0  0  0  0
    8.4420    0.1770  -54.1800 Cl  0  0  0  0  0  0  0  0  0  0  0  0
    6.3730    0.9610  -55.7130 C   0  0  0  0  0  0  0  0  0  0  0  0
    5.7850    1.6030  -56.8090 C   0  0  0  0  0  0  0  0  0  0  0  0
    6.5780    2.2610  -57.7540 C   0  0  0  0  0  0  0  0  0  0  0  0
    7.9540    2.2580  -57.5760 C   0  0  0  0  0  0  0  0  0  0  0  0
    8.8620    2.9100  -58.5050 N   0  0  0  0  0  0  0  0  0  0  0  0
    8.6450    3.5660  -59.6410 C   0  0  0  0  0  0  0  0  0  0  0  0
    7.4090    3.7850  -60.2720 O   0  0  0  0  0  0  0  0  0  0  0  0
    7.2180    2.8150  -61.2990 C   0  0  0  0  0  0  0  0  0  0  0  0
    5.7110    2.6440  -61.5850 C   0  0  2  0  0  0  0  0  0  0  0  0
    5.0870    1.6080  -60.6440 C   0  0  0  0  0  0  0  0  0  0  0  0
    3.5700    1.4990  -60.8340 C   0  0  0  0  0  0  0  0  0  0  0  0
    3.0820    1.9460  -62.2060 C   0  0  0  0  0  0  0  0  0  0  0  0
    4.1160    1.5980  -63.2230 N   0  0  0  0  0  0  0  0  0  0  0  0
    5.4370    2.2850  -63.0560 C   0  0  0  0  0  0  0  0  0  0  0  0
    9.7940    4.0350  -60.0970 N   0  0  0  0  0  0  0  0  0  0  0  0
   10.8230    3.6460  -59.2680 C   0  0  0  0  0  0  0  0  0  0  0  0
   12.4880    4.0500  -59.5380 Cl  0  0  0  0  0  0  0  0  0  0  0  0
   10.2540    2.9170  -58.2530 C   0  0  0  0  0  0  0  0  0  0  0  0
   10.3760    1.1920  -55.4940 H   0  0  0  0  0  0  0  0  0  0  0  0
    5.7394    0.4426  -54.9783 H   0  0  0  0  0  0  0  0  0  0  0  0
    4.6915    1.5898  -56.9277 H   0  0  0  0  0  0  0  0  0  0  0  0
    6.1223    2.7684  -58.6171 H   0  0  0  0  0  0  0  0  0  0  0  0
    7.7278    3.1482  -62.2150 H   0  0  0  0  0  0  0  0  0  0  0  0
    7.6362    1.8521  -60.9706 H   0  0  0  0  0  0  0  0  0  0  0  0
    5.2345    3.6169  -61.3942 H   0  0  0  0  0  0  0  0  0  0  0  0
    5.5414    0.6266  -60.8450 H   0  0  0  0  0  0  0  0  0  0  0  0
    5.2773    1.9306  -59.6097 H   0  0  0  0  0  0  0  0  0  0  0  0
    3.2782    0.4484  -60.6888 H   0  0  0  0  0  0  0  0  0  0  0  0
    3.1085    2.1734  -60.0976 H   0  0  0  0  0  0  0  0  0  0  0  0
    2.1391    1.4336  -62.4476 H   0  0  0  0  0  0  0  0  0  0  0  0
    2.9107    3.0326  -62.2051 H   0  0  0  0  0  0  0  0  0  0  0  0
    3.7370    1.8010  -64.1620 H   0  0  0  0  0  0  0  0  0  0  0  0
    4.2420    0.5740  -63.2170 H   0  0  0  0  0  0  0  0  0  0  0  0
    6.2340    1.6167  -63.4140 H   0  0  0  0  0  0  0  0  0  0  0  0
    5.4136    3.2183  -63.6377 H   0  0  0  0  0  0  0  0  0  0  0  0
    9.9270    4.6250  -60.9100 H   0  0  0  0  0  0  0  0  0  0  0  0
  1  2  2  0
  2  3  1  0
  3  4  1  0
  4  5  2  0
  5  6  1  0
  5  7  1  0
  7  8  2  0
  8  9  1  0
  9 10  2  0
 10 11  1  0
 11 12  1  0
 12 13  1  0
 13 14  1  0
 14 15  1  0
 15 16  1  0
 16 17  1  0
 17 18  1  0
 18 19  1  0
 19 20  1  0
 12 21  2  0
 21 22  1  0
 22 23  1  0
 22 24  2  0
 24  2  1  0
 10  4  1  0
 24 11  1  0
 20 15  1  0
  3 25  1  0
  7 26  1  0
  8 27  1  0
  9 28  1  0
 14 29  1  0
 14 30  1  0
 15 31  1  1
 16 32  1  0
 16 33  1  0
 17 34  1  0
 17 35  1  0
 18 36  1  0
 18 37  1  0
 19 38  1  0
 19 39  1  0
 20 40  1  0
 20 41  1  0
 21 42  1  0
M  CHG  2  19   1  21   1
M  END
>  <meeko>  (27) 
{"is_sidechain": false}

$$$$

     RDKit          3D

 42 45  0  0  0  0  0  0  0  0999 V2000
   10.2030    3.3970  -61.7240 O   0  0  0  0  0  0  0  0  0  0  0  0
    9.4560    3.0990  -60.7990 C   0  0  0  0  0  0  0  0  0  0  0  0
    8.1230    2.8320  -61.0510 N   0  0  0  0  0  0  0  0  0  0  0  0
    7.1320    2.4920  -60.0930 C   0  0  0  0  0  0  0  0  0  0  0  0
    5.8080    2.2800  -60.4870 C   0  0  0  0  0  0  0  0  0  0  0  0
    5.3410    2.4060  -62.1410 Cl  0  0  0  0  0  0  0  0  0  0  0  0
    4.8360    1.9640  -59.5340 C   0  0  0  0  0  0  0  0  0  0  0  0
    5.1780    1.8610  -58.1810 C   0  0  0  0  0  0  0  0  0  0  0  0
    6.4960    2.0630  -57.7670 C   0  0  0  0  0  0  0  0  0  0  0  0
    7.4520    2.3660  -58.7270 C   0  0  0  0  0  0  0  0  0  0  0  0
    8.8500    2.5920  -58.3980 N   0  0  0  0  0  0  0  0  0  0  0  0
    9.5050    2.5200  -57.2400 C   0  0  0  0  0  0  0  0  0  0  0  0
    8.9620    2.1390  -56.0060 O   0  0  0  0  0  0  0  0  0  0  0  0
    9.2470    0.7820  -55.6740 C   0  0  0  0  0  0  0  0  0  0  0  0
    8.4620    0.3970  -54.4010 C   0  0  1  0  0  0  0  0  0  0  0  0
    6.9580    0.1810  -54.6850 C   0  0  0  0  0  0  0  0  0  0  0  0
    6.5450   -1.2850  -54.5900 C   0  0  0  0  0  0  0  0  0  0  0  0
    6.8720   -1.9050  -53.2350 C   0  0  0  0  0  0  0  0  0  0  0  0
    8.1550   -1.3560  -52.6900 N   0  0  0  0  0  0  0  0  0  0  0  0
    9.0990   -0.8160  -53.7080 C   0  0  0  0  0  0  0  0  0  0  0  0
   10.7570    2.9060  -57.4350 N   0  0  0  0  0  0  0  0  0  0  0  0
   10.9650    3.1740  -58.7710 C   0  0  0  0  0  0  0  0  0  0  0  0
   12.4880    3.6820  -59.4270 Cl  0  0  0  0  0  0  0  0  0  0  0  0
    9.7670    2.9650  -59.4050 C   0  0  0  0  0  0  0  0  0  0  0  0
    7.8360    2.9180  -62.0260 H   0  0  0  0  0  0  0  0  0  0  0  0
    3.7958    1.7952  -59.8493 H   0  0  0  0  0  0  0  0  0  0  0  0
    4.4032    1.6192  -57.4386 H   0  0  0  0  0  0  0  0  0  0  0  0
    6.7706    1.9839  -56.7048 H   0  0  0  0  0  0  0  0  0  0  0  0
    8.9443    0.1282  -56.5052 H   0  0  0  0  0  0  0  0  0  0  0  0
   10.3257    0.6635  -55.4939 H   0  0  0  0  0  0  0  0  0  0  0  0
    8.5242    1.2470  -53.7056 H   0  0  0  0  0  0  0  0  0  0  0  0
    6.3751    0.7589  -53.9527 H   0  0  0  0  0  0  0  0  0  0  0  0
    6.7632    0.5148  -55.7149 H   0  0  0  0  0  0  0  0  0  0  0  0
    5.4599   -1.3559  -54.7562 H   0  0  0  0  0  0  0  0  0  0  0  0
    7.1119   -1.8387  -55.3529 H   0  0  0  0  0  0  0  0  0  0  0  0
    6.0570   -1.6815  -52.5309 H   0  0  0  0  0  0  0  0  0  0  0  0
    6.9821   -2.9919  -53.3639 H   0  0  0  0  0  0  0  0  0  0  0  0
    8.6180   -2.1000  -52.1430 H   0  0  0  0  0  0  0  0  0  0  0  0
    7.9380   -0.6280  -51.9920 H   0  0  0  0  0  0  0  0  0  0  0  0
   10.0334   -0.5086  -53.2156 H   0  0  0  0  0  0  0  0  0  0  0  0
    9.3179   -1.5931  -54.4551 H   0  0  0  0  0  0  0  0  0  0  0  0
   11.4700    3.0430  -56.7300 H   0  0  0  0  0  0  0  0  0  0  0  0
  1  2  2  0
  2  3  1  0
  3  4  1  0
  4  5  2  0
  5  6  1  0
  5  7  1  0
  7  8  2  0
  8  9  1  0
  9 10  2  0
 10 11  1  0
 11 12  1  0
 12 13  1  0
 13 14  1  0
 14 15  1  0
 15 16  1  0
 16 17  1  0
 17 18  1  0
 18 19  1  0
 19 20  1  0
 12 21  2  0
 21 22  1  0
 22 23  1  0
 22 24  2  0
 24  2  1  0
 10  4  1  0
 24 11  1  0
 20 15  1  0
  3 25  1  0
  7 26  1  0
  8 27  1  0
  9 28  1  0
 14 29  1  0
 14 30  1  0
 15 31  1  1
 16 32  1  0
 16 33  1  0
 17 34  1  0
 17 35  1  0
 18 36  1  0
 18 37  1  0
 19 38  1  0
 19 39  1  0
 20 40  1  0
 20 41  1  0
 21 42  1  0
M  CHG  2  19   1  21   1
M  END
>  <meeko>  (28) 
{"is_sidechain": false}

$$$$

     RDKit          3D

 49 53  0  0  0  0  0  0  0  0999 V2000
    7.1630    2.4780  -62.1700 O   0  0  0  0  0  0  0  0  0  0  0  0
    7.7230    2.8240  -61.0070 C   0  0  0  0  0  0  0  0  0  0  0  0
    8.7340    3.6220  -61.0000 N   0  0  0  0  0  0  0  0  0  0  0  0
    9.2730    3.9600  -59.7360 C   0  0  0  0  0  0  0  0  0  0  0  0
   10.3420    4.8590  -59.7030 C   0  0  0  0  0  0  0  0  0  0  0  0
   10.9000    5.2550  -58.4850 C   0  0  0  0  0  0  0  0  0  0  0  0
   10.3870    4.7590  -57.2880 C   0  0  0  0  0  0  0  0  0  0  0  0
    9.3200    3.8580  -57.2980 C   0  0  0  0  0  0  0  0  0  0  0  0
    8.7760    3.4470  -58.5170 C   0  0  0  0  0  0  0  0  0  0  0  0
    7.6960    2.5360  -58.6200 N   0  0  0  0  0  0  0  0  0  0  0  0
    6.9880    1.7930  -57.6850 C   0  0  0  0  0  0  0  0  0  0  0  0
    7.3390    1.6950  -56.3670 N   0  0  0  0  0  0  0  0  0  0  0  0
    8.5690    0.9010  -56.1500 C   0  0  0  0  0  0  0  0  0  0  0  0
    8.7260    0.5350  -54.6770 C   0  0  0  0  0  0  0  0  0  0  0  0
    7.5680   -0.3570  -54.1870 C   0  0  0  0  0  0  0  0  0  0  0  0
    7.9560   -1.8490  -54.2460 C   0  0  0  0  0  0  0  0  0  0  0  0
    7.9750   -2.5190  -52.8930 C   0  0  0  0  0  0  0  0  0  0  0  0
    9.1660   -2.5950  -52.1540 C   0  0  0  0  0  0  0  0  0  0  0  0
    9.1860   -3.2050  -50.8990 C   0  0  0  0  0  0  0  0  0  0  0  0
    8.0150   -3.7450  -50.3660 C   0  0  0  0  0  0  0  0  0  0  0  0
    6.8290   -3.6720  -51.0950 C   0  0  0  0  0  0  0  0  0  0  0  0
    5.2410   -4.3990  -50.3720 Br  0  0  0  0  0  0  0  0  0  0  0  0
    6.8030   -3.0640  -52.3500 C   0  0  0  0  0  0  0  0  0  0  0  0
    6.2780   -0.0770  -54.9850 C   0  0  0  0  0  0  0  0  0  0  0  0
    6.2200    1.3720  -55.4530 C   0  0  0  0  0  0  0  0  0  0  0  0
    5.9780    1.1710  -58.2550 N   0  0  0  0  0  0  0  0  0  0  0  0
    6.0690    1.4370  -59.5970 C   0  0  0  0  0  0  0  0  0  0  0  0
    4.9560    0.7780  -60.7030 Cl  0  0  0  0  0  0  0  0  0  0  0  0
    7.1420    2.2550  -59.8500 C   0  0  0  0  0  0  0  0  0  0  0  0
    7.8510    2.5420  -62.8520 H   0  0  0  0  0  0  0  0  0  0  0  0
   10.7478    5.2584  -60.6442 H   0  0  0  0  0  0  0  0  0  0  0  0
   11.7451    5.9590  -58.4708 H   0  0  0  0  0  0  0  0  0  0  0  0
   10.8246    5.0787  -56.3307 H   0  0  0  0  0  0  0  0  0  0  0  0
    8.9106    3.4744  -56.3518 H   0  0  0  0  0  0  0  0  0  0  0  0
    8.5125   -0.0214  -56.7466 H   0  0  0  0  0  0  0  0  0  0  0  0
    9.4362    1.5039  -56.4574 H   0  0  0  0  0  0  0  0  0  0  0  0
    9.6745   -0.0057  -54.5427 H   0  0  0  0  0  0  0  0  0  0  0  0
    8.7168    1.4645  -54.0888 H   0  0  0  0  0  0  0  0  0  0  0  0
    7.3676   -0.1076  -53.1346 H   0  0  0  0  0  0  0  0  0  0  0  0
    7.2292   -2.3730  -54.8841 H   0  0  0  0  0  0  0  0  0  0  0  0
    8.9783   -1.9024  -54.6485 H   0  0  0  0  0  0  0  0  0  0  0  0
   10.0922   -2.1698  -52.5680 H   0  0  0  0  0  0  0  0  0  0  0  0
   10.1255   -3.2601  -50.3296 H   0  0  0  0  0  0  0  0  0  0  0  0
    8.0276   -4.2254  -49.3765 H   0  0  0  0  0  0  0  0  0  0  0  0
    5.8607   -3.0120  -52.9151 H   0  0  0  0  0  0  0  0  0  0  0  0
    6.2492   -0.7386  -55.8633 H   0  0  0  0  0  0  0  0  0  0  0  0
    5.4158   -0.2645  -54.3281 H   0  0  0  0  0  0  0  0  0  0  0  0
    5.2690    1.5391  -55.9801 H   0  0  0  0  0  0  0  0  0  0  0  0
    6.2990    2.0223  -54.5693 H   0  0  0  0  0  0  0  0  0  0  0  0
  1  2  1  0
  2  3  2  0
  3  4  1  0
  4  5  2  0
  5  6  1  0
  6  7  2  0
  7  8  1  0
  8  9  2  0
  9 10  1  0
 10 11  1  0
 11 12  1  0
 12 13  1  0
 13 14  1  0
 14 15  1  0
 15 16  1  0
 16 17  1  0
 17 18  2  0
 18 19  1  0
 19 20  2  0
 20 21  1  0
 21 22  1  0
 21 23  2  0
 15 24  1  0
 24 25  1  0
 11 26  2  0
 26 27  1  0
 27 28  1  0
 27 29  2  0
 29  2  1  0
  9  4  1  0
 29 10  1  0
 25 12  1  0
 23 17  1  0
  1 30  1  0
  5 31  1  0
  6 32  1  0
  7 33  1  0
  8 34  1  0
 13 35  1  0
 13 36  1  0
 14 37  1  0
 14 38  1  0
 15 39  1  0
 16 40  1  0
 16 41  1  0
 18 42  1  0
 19 43  1  0
 20 44  1  0
 23 45  1  0
 24 46  1  0
 24 47  1  0
 25 48  1  0
 25 49  1  0
M  END
>  <meeko>  (29) 
{"is_sidechain": false}

$$$$

     RDKit          3D

 49 53  0  0  0  0  0  0  0  0999 V2000
    6.3270    4.1460  -59.0600 O   0  0  0  0  0  0  0  0  0  0  0  0
    7.3720    3.7470  -58.5540 C   0  0  0  0  0  0  0  0  0  0  0  0
    8.5710    4.3050  -58.9340 N   0  0  0  0  0  0  0  0  0  0  0  0
    9.8170    3.8880  -58.4450 C   0  0  0  0  0  0  0  0  0  0  0  0
   10.9750    4.4820  -58.9470 C   0  0  0  0  0  0  0  0  0  0  0  0
   12.2230    4.0530  -58.4960 C   0  0  0  0  0  0  0  0  0  0  0  0
   12.3120    3.0270  -57.5550 C   0  0  0  0  0  0  0  0  0  0  0  0
   11.1550    2.4310  -57.0460 C   0  0  0  0  0  0  0  0  0  0  0  0
    9.9040    2.8760  -57.4750 C   0  0  0  0  0  0  0  0  0  0  0  0
    8.6770    2.3390  -57.0090 N   0  0  0  0  0  0  0  0  0  0  0  0
    8.3800    1.4070  -56.0190 C   0  0  0  0  0  0  0  0  0  0  0  0
    9.2910    0.9340  -55.1140 N   0  0  0  0  0  0  0  0  0  0  0  0
    8.7330    0.5650  -53.8020 C   0  0  0  0  0  0  0  0  0  0  0  0
    7.9860   -0.7720  -53.8560 C   0  0  0  0  0  0  0  0  0  0  0  0
    8.6400   -1.7970  -54.8040 C   0  0  0  0  0  0  0  0  0  0  0  0
    8.4980   -3.2420  -54.2900 C   0  0  0  0  0  0  0  0  0  0  0  0
    8.2300   -3.3410  -52.8060 C   0  0  0  0  0  0  0  0  0  0  0  0
    9.2380   -3.0410  -51.8790 C   0  0  0  0  0  0  0  0  0  0  0  0
    8.9930   -3.1310  -50.5070 C   0  0  0  0  0  0  0  0  0  0  0  0
    7.7380   -3.5240  -50.0460 C   0  0  0  0  0  0  0  0  0  0  0  0
    6.7330   -3.8290  -50.9610 C   0  0  0  0  0  0  0  0  0  0  0  0
    5.0310   -4.3660  -50.3380 Br  0  0  0  0  0  0  0  0  0  0  0  0
    6.9720   -3.7420  -52.3330 C   0  0  0  0  0  0  0  0  0  0  0  0
   10.1130   -1.4400  -55.0300 C   0  0  0  0  0  0  0  0  0  0  0  0
   10.2680   -0.0430  -55.6420 C   0  0  0  0  0  0  0  0  0  0  0  0
    7.1030    1.0870  -56.0550 N   0  0  0  0  0  0  0  0  0  0  0  0
    6.5280    1.9130  -56.9840 C   0  0  0  0  0  0  0  0  0  0  0  0
    4.8540    1.8650  -57.2910 Cl  0  0  0  0  0  0  0  0  0  0  0  0
    7.4740    2.7210  -57.5650 C   0  0  0  0  0  0  0  0  0  0  0  0
    8.5100    5.0250  -59.6420 H   0  0  0  0  0  0  0  0  0  0  0  0
   10.9041    5.2852  -59.6952 H   0  0  0  0  0  0  0  0  0  0  0  0
   13.1385    4.5243  -58.8828 H   0  0  0  0  0  0  0  0  0  0  0  0
   13.2994    2.6849  -57.2114 H   0  0  0  0  0  0  0  0  0  0  0  0
   11.2300    1.6157  -56.3114 H   0  0  0  0  0  0  0  0  0  0  0  0
    9.5551    0.4843  -53.0756 H   0  0  0  0  0  0  0  0  0  0  0  0
    8.0166    1.3447  -53.5040 H   0  0  0  0  0  0  0  0  0  0  0  0
    7.9612   -1.1995  -52.8428 H   0  0  0  0  0  0  0  0  0  0  0  0
    6.9772   -0.5666  -54.2434 H   0  0  0  0  0  0  0  0  0  0  0  0
    8.1065   -1.7486  -55.7647 H   0  0  0  0  0  0  0  0  0  0  0  0
    7.6639   -3.7195  -54.8251 H   0  0  0  0  0  0  0  0  0  0  0  0
    9.4601   -3.7423  -54.4746 H   0  0  0  0  0  0  0  0  0  0  0  0
   10.2315   -2.7317  -52.2357 H   0  0  0  0  0  0  0  0  0  0  0  0
    9.7916   -2.8914  -49.7895 H   0  0  0  0  0  0  0  0  0  0  0  0
    7.5421   -3.5930  -48.9658 H   0  0  0  0  0  0  0  0  0  0  0  0
    6.1713   -3.9887  -53.0458 H   0  0  0  0  0  0  0  0  0  0  0  0
   10.6390   -1.4670  -54.0643 H   0  0  0  0  0  0  0  0  0  0  0  0
   10.5406   -2.1719  -55.7310 H   0  0  0  0  0  0  0  0  0  0  0  0
   11.2820    0.3237  -55.4247 H   0  0  0  0  0  0  0  0  0  0  0  0
   10.0864   -0.1367  -56.7229 H   0  0  0  0  0  0  0  0  0  0  0  0
  1  2  2  0
  2  3  1  0
  3  4  1  0
  4  5  2  0
  5  6  1  0
  6  7  2  0
  7  8  1  0
  8  9  2  0
  9 10  1  0
 10 11  1  0
 11 12  1  0
 12 13  1  0
 13 14  1  0
 14 15  1  0
 15 16  1  0
 16 17  1  0
 17 18  2  0
 18 19  1  0
 19 20  2  0
 20 21  1  0
 21 22  1  0
 21 23  2  0
 15 24  1  0
 24 25  1  0
 11 26  2  0
 26 27  1  0
 27 28  1  0
 27 29  2  0
 29  2  1  0
  9  4  1  0
 29 10  1  0
 25 12  1  0
 23 17  1  0
  3 30  1  0
  5 31  1  0
  6 32  1  0
  7 33  1  0
  8 34  1  0
 13 35  1  0
 13 36  1  0
 14 37  1  0
 14 38  1  0
 15 39  1  0
 16 40  1  0
 16 41  1  0
 18 42  1  0
 19 43  1  0
 20 44  1  0
 23 45  1  0
 24 46  1  0
 24 47  1  0
 25 48  1  0
 25 49  1  0
M  END
>  <meeko>  (30) 
{"is_sidechain": false}

$$$$

     RDKit          3D

 50 54  0  0  0  0  0  0  0  0999 V2000
    6.8430    3.2960  -61.8210 O   0  0  0  0  0  0  0  0  0  0  0  0
    7.4760    3.2960  -60.6320 C   0  0  0  0  0  0  0  0  0  0  0  0
    8.6470    3.8440  -60.5530 N   0  0  0  0  0  0  0  0  0  0  0  0
    9.2880    3.8700  -59.2820 C   0  0  0  0  0  0  0  0  0  0  0  0
   10.4940    4.5620  -59.1700 C   0  0  0  0  0  0  0  0  0  0  0  0
   11.1320    4.6770  -57.9300 C   0  0  0  0  0  0  0  0  0  0  0  0
   10.5620    4.1170  -56.7830 C   0  0  0  0  0  0  0  0  0  0  0  0
    9.3590    3.4160  -56.8630 C   0  0  0  0  0  0  0  0  0  0  0  0
    8.7610    3.2730  -58.1070 C   0  0  0  0  0  0  0  0  0  0  0  0
    7.4960    2.5620  -58.2790 N   0  0  0  0  0  0  0  0  0  0  0  0
    6.7640    1.8220  -57.4520 C   0  0  0  0  0  0  0  0  0  0  0  0
    7.1180    1.2270  -56.2880 N   0  0  0  0  0  0  0  0  0  0  0  0
    8.4990    0.7160  -56.1320 C   0  0  0  0  0  0  0  0  0  0  0  0
    8.8140    0.4520  -54.6660 C   0  0  0  0  0  0  0  0  0  0  0  0
    7.8350   -0.5520  -54.0160 C   0  0  0  0  0  0  0  0  0  0  0  0
    8.4170   -1.9790  -53.9160 C   0  0  0  0  0  0  0  0  0  0  0  0
    8.2240   -2.6280  -52.5660 C   0  0  0  0  0  0  0  0  0  0  0  0
    9.2970   -2.7450  -51.6700 C   0  0  0  0  0  0  0  0  0  0  0  0
    9.1180   -3.3490  -50.4230 C   0  0  0  0  0  0  0  0  0  0  0  0
    7.8660   -3.8400  -50.0560 C   0  0  0  0  0  0  0  0  0  0  0  0
    6.7960   -3.7190  -50.9370 C   0  0  0  0  0  0  0  0  0  0  0  0
    5.0950   -4.3820  -50.4450 Br  0  0  0  0  0  0  0  0  0  0  0  0
    6.9660   -3.1150  -52.1830 C   0  0  0  0  0  0  0  0  0  0  0  0
    6.4820   -0.6010  -54.7550 C   0  0  0  0  0  0  0  0  0  0  0  0
    6.0970    0.7530  -55.3350 C   0  0  0  0  0  0  0  0  0  0  0  0
    5.5730    1.6810  -58.0230 N   0  0  0  0  0  0  0  0  0  0  0  0
    5.5960    2.1360  -59.3190 C   0  0  0  0  0  0  0  0  0  0  0  0
    4.2770    1.9990  -60.4370 Cl  0  0  0  0  0  0  0  0  0  0  0  0
    6.8340    2.6740  -59.5200 C   0  0  0  0  0  0  0  0  0  0  0  0
    7.3960    3.3870  -62.6120 H   0  0  0  0  0  0  0  0  0  0  0  0
   10.9462    5.0201  -60.0620 H   0  0  0  0  0  0  0  0  0  0  0  0
   12.0901    5.2125  -57.8571 H   0  0  0  0  0  0  0  0  0  0  0  0
   11.0654    4.2299  -55.8115 H   0  0  0  0  0  0  0  0  0  0  0  0
    8.8957    2.9871  -55.9623 H   0  0  0  0  0  0  0  0  0  0  0  0
    8.6030   -0.2215  -56.6980 H   0  0  0  0  0  0  0  0  0  0  0  0
    9.2007    1.4725  -56.5133 H   0  0  0  0  0  0  0  0  0  0  0  0
    9.8339    0.0464  -54.5929 H   0  0  0  0  0  0  0  0  0  0  0  0
    8.7159    1.4066  -54.1284 H   0  0  0  0  0  0  0  0  0  0  0  0
    7.6722   -0.1774  -52.9946 H   0  0  0  0  0  0  0  0  0  0  0  0
    7.9266   -2.6065  -54.6747 H   0  0  0  0  0  0  0  0  0  0  0  0
    9.5020   -1.8920  -54.0751 H   0  0  0  0  0  0  0  0  0  0  0  0
   10.2874   -2.3580  -51.9515 H   0  0  0  0  0  0  0  0  0  0  0  0
    9.9670   -3.4373  -49.7292 H   0  0  0  0  0  0  0  0  0  0  0  0
    7.7250   -4.3199  -49.0763 H   0  0  0  0  0  0  0  0  0  0  0  0
    6.1101   -3.0204  -52.8675 H   0  0  0  0  0  0  0  0  0  0  0  0
    6.5518   -1.3312  -55.5748 H   0  0  0  0  0  0  0  0  0  0  0  0
    5.7090   -0.8902  -54.0278 H   0  0  0  0  0  0  0  0  0  0  0  0
    5.1329    0.6604  -55.8566 H   0  0  0  0  0  0  0  0  0  0  0  0
    6.0205    1.4789  -54.5121 H   0  0  0  0  0  0  0  0  0  0  0  0
    4.7910    1.1850  -57.6180 H   0  0  0  0  0  0  0  0  0  0  0  0
  1  2  1  0
  2  3  2  0
  3  4  1  0
  4  5  2  0
  5  6  1  0
  6  7  2  0
  7  8  1  0
  8  9  2  0
  9 10  1  0
 10 11  1  0
 11 12  1  0
 12 13  1  0
 13 14  1  0
 14 15  1  0
 15 16  1  0
 16 17  1  0
 17 18  2  0
 18 19  1  0
 19 20  2  0
 20 21  1  0
 21 22  1  0
 21 23  2  0
 15 24  1  0
 24 25  1  0
 11 26  2  0
 26 27  1  0
 27 28  1  0
 27 29  2  0
 29  2  1  0
  9  4  1  0
 29 10  1  0
 25 12  1  0
 23 17  1  0
  1 30  1  0
  5 31  1  0
  6 32  1  0
  7 33  1  0
  8 34  1  0
 13 35  1  0
 13 36  1  0
 14 37  1  0
 14 38  1  0
 15 39  1  0
 16 40  1  0
 16 41  1  0
 18 42  1  0
 19 43  1  0
 20 44  1  0
 23 45  1  0
 24 46  1  0
 24 47  1  0
 25 48  1  0
 25 49  1  0
 26 50  1  0
M  CHG  1  26   1
M  END
>  <meeko>  (31) 
{"is_sidechain": false}

$$$$

     RDKit          3D

 50 54  0  0  0  0  0  0  0  0999 V2000
    9.7320    3.8410  -61.1950 O   0  0  0  0  0  0  0  0  0  0  0  0
    9.2520    3.3460  -60.1790 C   0  0  0  0  0  0  0  0  0  0  0  0
    7.8860    3.1130  -60.1210 N   0  0  0  0  0  0  0  0  0  0  0  0
    7.1790    2.6180  -59.0010 C   0  0  0  0  0  0  0  0  0  0  0  0
    5.7890    2.5430  -59.0520 C   0  0  0  0  0  0  0  0  0  0  0  0
    5.0820    2.1170  -57.9240 C   0  0  0  0  0  0  0  0  0  0  0  0
    5.7570    1.7800  -56.7440 C   0  0  0  0  0  0  0  0  0  0  0  0
    7.1500    1.8430  -56.6830 C   0  0  0  0  0  0  0  0  0  0  0  0
    7.8410    2.2270  -57.8210 C   0  0  0  0  0  0  0  0  0  0  0  0
    9.2890    2.3190  -57.8650 N   0  0  0  0  0  0  0  0  0  0  0  0
   10.2240    1.9530  -56.9910 C   0  0  0  0  0  0  0  0  0  0  0  0
   10.1300    1.0920  -55.9480 N   0  0  0  0  0  0  0  0  0  0  0  0
   10.9500   -0.1340  -55.9060 C   0  0  0  0  0  0  0  0  0  0  0  0
   10.1000   -1.3390  -55.5280 C   0  0  0  0  0  0  0  0  0  0  0  0
    9.4420   -1.1680  -54.1420 C   0  0  0  0  0  0  0  0  0  0  0  0
    8.1780   -2.0450  -54.0010 C   0  0  0  0  0  0  0  0  0  0  0  0
    8.0280   -2.6700  -52.6350 C   0  0  0  0  0  0  0  0  0  0  0  0
    9.1300   -2.7730  -51.7750 C   0  0  0  0  0  0  0  0  0  0  0  0
    8.9950   -3.3630  -50.5160 C   0  0  0  0  0  0  0  0  0  0  0  0
    7.7580   -3.8580  -50.1040 C   0  0  0  0  0  0  0  0  0  0  0  0
    6.6590   -3.7540  -50.9530 C   0  0  0  0  0  0  0  0  0  0  0  0
    4.9790   -4.4260  -50.4020 Br  0  0  0  0  0  0  0  0  0  0  0  0
    6.7850   -3.1630  -52.2100 C   0  0  0  0  0  0  0  0  0  0  0  0
    9.1200    0.3100  -53.8290 C   0  0  0  0  0  0  0  0  0  0  0  0
    8.9250    1.1460  -55.0870 C   0  0  0  0  0  0  0  0  0  0  0  0
   11.3540    2.5360  -57.3660 N   0  0  0  0  0  0  0  0  0  0  0  0
   11.2230    3.1000  -58.6120 C   0  0  0  0  0  0  0  0  0  0  0  0
   12.5260    3.8320  -59.4910 Cl  0  0  0  0  0  0  0  0  0  0  0  0
    9.9120    2.9430  -58.9690 C   0  0  0  0  0  0  0  0  0  0  0  0
    7.3700    3.3970  -60.9480 H   0  0  0  0  0  0  0  0  0  0  0  0
    5.2522    2.8167  -59.9723 H   0  0  0  0  0  0  0  0  0  0  0  0
    3.9850    2.0457  -57.9634 H   0  0  0  0  0  0  0  0  0  0  0  0
    5.1853    1.4635  -55.8591 H   0  0  0  0  0  0  0  0  0  0  0  0
    7.6857    1.5941  -55.7550 H   0  0  0  0  0  0  0  0  0  0  0  0
   11.3962   -0.3038  -56.8970 H   0  0  0  0  0  0  0  0  0  0  0  0
   11.7376   -0.0061  -55.1488 H   0  0  0  0  0  0  0  0  0  0  0  0
    9.3104   -1.4680  -56.2829 H   0  0  0  0  0  0  0  0  0  0  0  0
   10.7573   -2.2201  -55.4867 H   0  0  0  0  0  0  0  0  0  0  0  0
   10.1792   -1.5098  -53.4005 H   0  0  0  0  0  0  0  0  0  0  0  0
    7.2956   -1.4178  -54.1957 H   0  0  0  0  0  0  0  0  0  0  0  0
    8.2728   -2.8680  -54.7247 H   0  0  0  0  0  0  0  0  0  0  0  0
   10.1090   -2.3861  -52.0940 H   0  0  0  0  0  0  0  0  0  0  0  0
    9.8660   -3.4373  -49.8483 H   0  0  0  0  0  0  0  0  0  0  0  0
    7.6511   -4.3275  -49.1150 H   0  0  0  0  0  0  0  0  0  0  0  0
    5.9082   -3.0832  -52.8695 H   0  0  0  0  0  0  0  0  0  0  0  0
    8.1968    0.3507  -53.2323 H   0  0  0  0  0  0  0  0  0  0  0  0
    9.9765    0.7286  -53.2802 H   0  0  0  0  0  0  0  0  0  0  0  0
    8.0630    0.7566  -55.6485 H   0  0  0  0  0  0  0  0  0  0  0  0
    8.7498    2.1910  -54.7917 H   0  0  0  0  0  0  0  0  0  0  0  0
   12.2390    2.4660  -56.8810 H   0  0  0  0  0  0  0  0  0  0  0  0
  1  2  2  0
  2  3  1  0
  3  4  1  0
  4  5  2  0
  5  6  1  0
  6  7  2  0
  7  8  1  0
  8  9  2  0
  9 10  1  0
 10 11  1  0
 11 12  1  0
 12 13  1  0
 13 14  1  0
 14 15  1  0
 15 16  1  0
 16 17  1  0
 17 18  2  0
 18 19  1  0
 19 20  2  0
 20 21  1  0
 21 22  1  0
 21 23  2  0
 15 24  1  0
 24 25  1  0
 11 26  2  0
 26 27  1  0
 27 28  1  0
 27 29  2  0
 29  2  1  0
  9  4  1  0
 29 10  1  0
 25 12  1  0
 23 17  1  0
  3 30  1  0
  5 31  1  0
  6 32  1  0
  7 33  1  0
  8 34  1  0
 13 35  1  0
 13 36  1  0
 14 37  1  0
 14 38  1  0
 15 39  1  0
 16 40  1  0
 16 41  1  0
 18 42  1  0
 19 43  1  0
 20 44  1  0
 23 45  1  0
 24 46  1  0
 24 47  1  0
 25 48  1  0
 25 49  1  0
 26 50  1  0
M  CHG  1  26   1
M  END
>  <meeko>  (32) 
{"is_sidechain": false}

$$$$

     RDKit          3D

 47 50  0  0  0  0  0  0  0  0999 V2000
    5.8980    0.4560  -54.4970 C   0  0  0  0  0  0  0  0  0  0  0  0
    6.8520    0.0320  -55.4670 O   0  0  0  0  0  0  0  0  0  0  0  0
    6.9450    0.9100  -56.4900 C   0  0  0  0  0  0  0  0  0  0  0  0
    5.9500    1.2850  -57.3460 N   0  0  0  0  0  0  0  0  0  0  0  0
    6.5090    2.1210  -58.2000 C   0  0  0  0  0  0  0  0  0  0  0  0
    5.9040    2.6440  -59.3080 N   0  0  0  0  0  0  0  0  0  0  0  0
    6.2400    1.9300  -60.5610 C   0  0  0  0  0  0  0  0  0  0  0  0
    5.2410    2.2610  -61.6610 C   0  0  0  0  0  0  0  0  0  0  0  0
    3.8240    1.8020  -61.2770 C   0  0  0  0  0  0  0  0  0  0  0  0
    3.5500    0.3750  -61.7650 C   0  0  0  0  0  0  0  0  0  0  0  0
    2.9060    2.6690  -61.9570 O   0  0  0  0  0  0  0  0  0  0  0  0
    3.5790    1.9030  -59.7610 C   0  0  0  0  0  0  0  0  0  0  0  0
    4.4720    2.9740  -59.1420 C   0  0  0  0  0  0  0  0  0  0  0  0
    7.8350    2.3680  -57.8540 N   0  0  0  0  0  0  0  0  0  0  0  0
    8.1220    1.5380  -56.7940 C   0  0  0  0  0  0  0  0  0  0  0  0
    9.4380    1.5070  -56.2660 C   0  0  0  0  0  0  0  0  0  0  0  0
    9.6390    0.6440  -55.2510 O   0  0  0  0  0  0  0  0  0  0  0  0
   10.3990    2.2420  -56.7130 N   0  0  0  0  0  0  0  0  0  0  0  0
   10.1000    3.1400  -57.7650 C   0  0  0  0  0  0  0  0  0  0  0  0
   11.1250    3.9740  -58.2210 C   0  0  0  0  0  0  0  0  0  0  0  0
   10.8980    4.9070  -59.2420 C   0  0  0  0  0  0  0  0  0  0  0  0
   12.0010    5.8180  -59.6920 C   0  0  0  0  0  0  0  0  0  0  0  0
    9.6130    5.0210  -59.7880 C   0  0  0  0  0  0  0  0  0  0  0  0
    8.5760    4.1950  -59.3490 C   0  0  0  0  0  0  0  0  0  0  0  0
    8.8240    3.2460  -58.3570 C   0  0  0  0  0  0  0  0  0  0  0  0
    6.2976    0.2784  -53.4877 H   0  0  0  0  0  0  0  0  0  0  0  0
    5.6948    1.5292  -54.6273 H   0  0  0  0  0  0  0  0  0  0  0  0
    4.9652   -0.1123  -54.6273 H   0  0  0  0  0  0  0  0  0  0  0  0
    7.2469    2.2297  -60.8871 H   0  0  0  0  0  0  0  0  0  0  0  0
    6.2041    0.8476  -60.3685 H   0  0  0  0  0  0  0  0  0  0  0  0
    5.2344    3.3487  -61.8252 H   0  0  0  0  0  0  0  0  0  0  0  0
    5.5430    1.7339  -62.5781 H   0  0  0  0  0  0  0  0  0  0  0  0
    3.4222   -0.2906  -60.8986 H   0  0  0  0  0  0  0  0  0  0  0  0
    2.6336    0.3651  -62.3733 H   0  0  0  0  0  0  0  0  0  0  0  0
    4.3976    0.0264  -62.3733 H   0  0  0  0  0  0  0  0  0  0  0  0
    2.5550    3.3070  -61.3120 H   0  0  0  0  0  0  0  0  0  0  0  0
    2.5254    2.1632  -59.5818 H   0  0  0  0  0  0  0  0  0  0  0  0
    3.8160    0.9335  -59.2985 H   0  0  0  0  0  0  0  0  0  0  0  0
    4.2676    3.9375  -59.6318 H   0  0  0  0  0  0  0  0  0  0  0  0
    4.2517    3.0290  -58.0657 H   0  0  0  0  0  0  0  0  0  0  0  0
    9.0810    0.8490  -54.4820 H   0  0  0  0  0  0  0  0  0  0  0  0
   12.1259    3.8968  -57.7713 H   0  0  0  0  0  0  0  0  0  0  0  0
   12.5106    6.2389  -58.8127 H   0  0  0  0  0  0  0  0  0  0  0  0
   12.7227    5.2492  -60.2967 H   0  0  0  0  0  0  0  0  0  0  0  0
   11.5788    6.6341  -60.2967 H   0  0  0  0  0  0  0  0  0  0  0  0
    9.4187    5.7690  -60.5708 H   0  0  0  0  0  0  0  0  0  0  0  0
    7.5698    4.2921  -59.7828 H   0  0  0  0  0  0  0  0  0  0  0  0
  1  2  1  0
  2  3  1  0
  3  4  1  0
  4  5  2  0
  5  6  1  0
  6  7  1  0
  7  8  1  0
  8  9  1  0
  9 10  1  0
  9 11  1  0
  9 12  1  0
 12 13  1  0
  5 14  1  0
 14 15  1  0
 15 16  1  0
 16 17  1  0
 16 18  2  0
 18 19  1  0
 19 20  2  0
 20 21  1  0
 21 22  1  0
 21 23  2  0
 23 24  1  0
 24 25  2  0
 15  3  2  0
 25 19  1  0
 13  6  1  0
 25 14  1  0
  1 26  1  0
  1 27  1  0
  1 28  1  0
  7 29  1  0
  7 30  1  0
  8 31  1  0
  8 32  1  0
 10 33  1  0
 10 34  1  0
 10 35  1  0
 11 36  1  0
 12 37  1  0
 12 38  1  0
 13 39  1  0
 13 40  1  0
 17 41  1  0
 20 42  1  0
 22 43  1  0
 22 44  1  0
 22 45  1  0
 23 46  1  0
 24 47  1  0
M  END
>  <meeko>  (33) 
{"is_sidechain": false}

$$$$

     RDKit          3D

 47 50  0  0  0  0  0  0  0  0999 V2000
    6.6480    2.6400  -61.8370 C   0  0  0  0  0  0  0  0  0  0  0  0
    6.3490    3.3950  -60.6710 O   0  0  0  0  0  0  0  0  0  0  0  0
    7.1370    3.0540  -59.6310 C   0  0  0  0  0  0  0  0  0  0  0  0
    8.4930    3.2140  -59.5530 N   0  0  0  0  0  0  0  0  0  0  0  0
    8.8380    2.7970  -58.3530 C   0  0  0  0  0  0  0  0  0  0  0  0
   10.0840    2.9210  -57.7990 N   0  0  0  0  0  0  0  0  0  0  0  0
   11.2140    2.5160  -58.6540 C   0  0  0  0  0  0  0  0  0  0  0  0
   11.6430    3.6270  -59.6120 C   0  0  0  0  0  0  0  0  0  0  0  0
   11.8920    4.9560  -58.8890 C   0  0  0  0  0  0  0  0  0  0  0  0
   13.2080    4.9300  -58.1020 C   0  0  0  0  0  0  0  0  0  0  0  0
   12.0420    5.9910  -59.8690 O   0  0  0  0  0  0  0  0  0  0  0  0
   10.7010    5.3120  -57.9880 C   0  0  0  0  0  0  0  0  0  0  0  0
   10.3300    4.1680  -57.0490 C   0  0  0  0  0  0  0  0  0  0  0  0
    7.7440    2.2370  -57.6950 N   0  0  0  0  0  0  0  0  0  0  0  0
    6.6390    2.4890  -58.4820 C   0  0  0  0  0  0  0  0  0  0  0  0
    5.3090    2.1540  -58.0770 C   0  0  0  0  0  0  0  0  0  0  0  0
    4.2850    2.3810  -58.7160 O   0  0  0  0  0  0  0  0  0  0  0  0
    5.2200    1.5290  -56.8540 N   0  0  0  0  0  0  0  0  0  0  0  0
    6.3290    1.1880  -56.0650 C   0  0  0  0  0  0  0  0  0  0  0  0
    6.1230    0.4980  -54.8700 C   0  0  0  0  0  0  0  0  0  0  0  0
    7.2150    0.1210  -54.0790 C   0  0  0  0  0  0  0  0  0  0  0  0
    7.0030   -0.6550  -52.8120 C   0  0  0  0  0  0  0  0  0  0  0  0
    8.5120    0.4150  -54.5200 C   0  0  0  0  0  0  0  0  0  0  0  0
    8.7220    1.1110  -55.7150 C   0  0  0  0  0  0  0  0  0  0  0  0
    7.6290    1.5200  -56.4770 C   0  0  0  0  0  0  0  0  0  0  0  0
    7.0385    1.6539  -61.5452 H   0  0  0  0  0  0  0  0  0  0  0  0
    5.7334    2.5101  -62.4342 H   0  0  0  0  0  0  0  0  0  0  0  0
    7.4035    3.1715  -62.4342 H   0  0  0  0  0  0  0  0  0  0  0  0
   12.0675    2.2535  -58.0116 H   0  0  0  0  0  0  0  0  0  0  0  0
   10.8878    1.6571  -59.2588 H   0  0  0  0  0  0  0  0  0  0  0  0
   12.5708    3.3199  -60.1168 H   0  0  0  0  0  0  0  0  0  0  0  0
   10.8263    3.7839  -60.3320 H   0  0  0  0  0  0  0  0  0  0  0  0
   12.9905    4.9343  -57.0237 H   0  0  0  0  0  0  0  0  0  0  0  0
   13.7710    4.0206  -58.3589 H   0  0  0  0  0  0  0  0  0  0  0  0
   13.8064    5.8165  -58.3589 H   0  0  0  0  0  0  0  0  0  0  0  0
   11.9470    6.8470  -59.4140 H   0  0  0  0  0  0  0  0  0  0  0  0
   10.9630    6.1945  -57.3858 H   0  0  0  0  0  0  0  0  0  0  0  0
    9.8348    5.5136  -58.6353 H   0  0  0  0  0  0  0  0  0  0  0  0
   11.1549    4.0037  -56.3401 H   0  0  0  0  0  0  0  0  0  0  0  0
    9.4081    4.4409  -56.5145 H   0  0  0  0  0  0  0  0  0  0  0  0
    4.2840    1.2790  -56.5650 H   0  0  0  0  0  0  0  0  0  0  0  0
    5.1007    0.2497  -54.5487 H   0  0  0  0  0  0  0  0  0  0  0  0
    7.1819   -0.0000  -51.9466 H   0  0  0  0  0  0  0  0  0  0  0  0
    5.9694   -1.0302  -52.7804 H   0  0  0  0  0  0  0  0  0  0  0  0
    7.7022   -1.5036  -52.7804 H   0  0  0  0  0  0  0  0  0  0  0  0
    9.3758    0.0945  -53.9190 H   0  0  0  0  0  0  0  0  0  0  0  0
    9.7450    1.3345  -56.0518 H   0  0  0  0  0  0  0  0  0  0  0  0
  1  2  1  0
  2  3  1  0
  3  4  1  0
  4  5  2  0
  5  6  1  0
  6  7  1  0
  7  8  1  0
  8  9  1  0
  9 10  1  0
  9 11  1  0
  9 12  1  0
 12 13  1  0
  5 14  1  0
 14 15  1  0
 15 16  1  0
 16 17  2  0
 16 18  1  0
 18 19  1  0
 19 20  2  0
 20 21  1  0
 21 22  1  0
 21 23  2  0
 23 24  1  0
 24 25  2  0
 15  3  2  0
 25 19  1  0
 13  6  1  0
 25 14  1  0
  1 26  1  0
  1 27  1  0
  1 28  1  0
  7 29  1  0
  7 30  1  0
  8 31  1  0
  8 32  1  0
 10 33  1  0
 10 34  1  0
 10 35  1  0
 11 36  1  0
 12 37  1  0
 12 38  1  0
 13 39  1  0
 13 40  1  0
 18 41  1  0
 20 42  1  0
 22 43  1  0
 22 44  1  0
 22 45  1  0
 23 46  1  0
 24 47  1  0
M  END
>  <meeko>  (34) 
{"is_sidechain": false}

$$$$

     RDKit          3D

 48 51  0  0  0  0  0  0  0  0999 V2000
    6.2680    2.5250  -63.0190 C   0  0  0  0  0  0  0  0  0  0  0  0
    5.6640    2.8440  -61.7720 O   0  0  0  0  0  0  0  0  0  0  0  0
    6.6050    2.7640  -60.7450 C   0  0  0  0  0  0  0  0  0  0  0  0
    7.9120    3.1600  -60.8770 N   0  0  0  0  0  0  0  0  0  0  0  0
    8.5220    3.1600  -59.6940 C   0  0  0  0  0  0  0  0  0  0  0  0
    9.6960    3.7990  -59.4600 N   0  0  0  0  0  0  0  0  0  0  0  0
   10.9100    3.4000  -60.1880 C   0  0  0  0  0  0  0  0  0  0  0  0
   12.1490    3.5930  -59.3260 C   0  0  0  0  0  0  0  0  0  0  0  0
   12.2430    5.0080  -58.7380 C   0  0  0  0  0  0  0  0  0  0  0  0
   12.5790    6.0500  -59.8100 C   0  0  0  0  0  0  0  0  0  0  0  0
   13.3160    4.9870  -57.7950 O   0  0  0  0  0  0  0  0  0  0  0  0
   10.9540    5.3530  -57.9790 C   0  0  0  0  0  0  0  0  0  0  0  0
    9.7010    5.1300  -58.8170 C   0  0  0  0  0  0  0  0  0  0  0  0
    7.7140    2.5170  -58.8530 N   0  0  0  0  0  0  0  0  0  0  0  0
    6.4410    2.4000  -59.4400 C   0  0  0  0  0  0  0  0  0  0  0  0
    5.3440    1.9310  -58.6730 C   0  0  0  0  0  0  0  0  0  0  0  0
    4.1530    1.9440  -59.2840 O   0  0  0  0  0  0  0  0  0  0  0  0
    5.4260    1.5140  -57.4510 N   0  0  0  0  0  0  0  0  0  0  0  0
    6.7350    1.4770  -56.8760 C   0  0  0  0  0  0  0  0  0  0  0  0
    6.8790    0.9140  -55.6080 C   0  0  0  0  0  0  0  0  0  0  0  0
    8.1500    0.7680  -55.0270 C   0  0  0  0  0  0  0  0  0  0  0  0
    8.2830    0.1850  -53.6470 C   0  0  0  0  0  0  0  0  0  0  0  0
    9.2910    1.1970  -55.7250 C   0  0  0  0  0  0  0  0  0  0  0  0
    9.1780    1.7680  -56.9950 C   0  0  0  0  0  0  0  0  0  0  0  0
    7.9130    1.9350  -57.5300 C   0  0  0  0  0  0  0  0  0  0  0  0
    7.2281    2.0180  -62.8423 H   0  0  0  0  0  0  0  0  0  0  0  0
    5.6022    1.8609  -63.5897 H   0  0  0  0  0  0  0  0  0  0  0  0
    6.4411    3.4493  -63.5897 H   0  0  0  0  0  0  0  0  0  0  0  0
    8.2850    3.5630  -61.7240 H   0  0  0  0  0  0  0  0  0  0  0  0
   10.8289    2.3397  -60.4695 H   0  0  0  0  0  0  0  0  0  0  0  0
   11.0046    4.0298  -61.0849 H   0  0  0  0  0  0  0  0  0  0  0  0
   12.1192    2.8687  -58.4987 H   0  0  0  0  0  0  0  0  0  0  0  0
   13.0292    3.4391  -59.9676 H   0  0  0  0  0  0  0  0  0  0  0  0
   12.8821    6.9899  -59.3255 H   0  0  0  0  0  0  0  0  0  0  0  0
   13.4029    5.6784  -60.4370 H   0  0  0  0  0  0  0  0  0  0  0  0
   11.6933    6.2297  -60.4370 H   0  0  0  0  0  0  0  0  0  0  0  0
   13.5440    5.9010  -57.5470 H   0  0  0  0  0  0  0  0  0  0  0  0
   10.8942    4.7203  -57.0811 H   0  0  0  0  0  0  0  0  0  0  0  0
   10.9958    6.4216  -57.7214 H   0  0  0  0  0  0  0  0  0  0  0  0
    8.8184    5.2134  -58.1658 H   0  0  0  0  0  0  0  0  0  0  0  0
    9.6824    5.8914  -59.6107 H   0  0  0  0  0  0  0  0  0  0  0  0
    4.0330    1.0800  -59.7210 H   0  0  0  0  0  0  0  0  0  0  0  0
    5.9875    0.5805  -55.0566 H   0  0  0  0  0  0  0  0  0  0  0  0
    8.1038    0.9706  -52.8982 H   0  0  0  0  0  0  0  0  0  0  0  0
    7.5456   -0.6208  -53.5167 H   0  0  0  0  0  0  0  0  0  0  0  0
    9.2969   -0.2213  -53.5167 H   0  0  0  0  0  0  0  0  0  0  0  0
   10.2843    1.0821  -55.2666 H   0  0  0  0  0  0  0  0  0  0  0  0
   10.0725    2.0771  -57.5557 H   0  0  0  0  0  0  0  0  0  0  0  0
  1  2  1  0
  2  3  1  0
  3  4  1  0
  4  5  2  0
  5  6  1  0
  6  7  1  0
  7  8  1  0
  8  9  1  0
  9 10  1  0
  9 11  1  0
  9 12  1  0
 12 13  1  0
  5 14  1  0
 14 15  1  0
 15 16  1  0
 16 17  1  0
 16 18  2  0
 18 19  1  0
 19 20  2  0
 20 21  1  0
 21 22  1  0
 21 23  2  0
 23 24  1  0
 24 25  2  0
 15  3  2  0
 25 19  1  0
 13  6  1  0
 25 14  1  0
  1 26  1  0
  1 27  1  0
  1 28  1  0
  4 29  1  0
  7 30  1  0
  7 31  1  0
  8 32  1  0
  8 33  1  0
 10 34  1  0
 10 35  1  0
 10 36  1  0
 11 37  1  0
 12 38  1  0
 12 39  1  0
 13 40  1  0
 13 41  1  0
 17 42  1  0
 20 43  1  0
 22 44  1  0
 22 45  1  0
 22 46  1  0
 23 47  1  0
 24 48  1  0
M  CHG  1   4   1
M  END
>  <meeko>  (35) 
{"is_sidechain": false}

$$$$

     RDKit          3D

 48 51  0  0  0  0  0  0  0  0999 V2000
   10.1670    5.2810  -59.7900 C   0  0  0  0  0  0  0  0  0  0  0  0
    9.1790    5.5490  -58.8050 O   0  0  0  0  0  0  0  0  0  0  0  0
    8.4730    4.3900  -58.4840 C   0  0  0  0  0  0  0  0  0  0  0  0
    7.2220    4.1030  -58.9650 N   0  0  0  0  0  0  0  0  0  0  0  0
    6.8280    2.9030  -58.5500 C   0  0  0  0  0  0  0  0  0  0  0  0
    5.8270    2.2030  -59.1420 N   0  0  0  0  0  0  0  0  0  0  0  0
    4.4190    2.4850  -58.8300 C   0  0  0  0  0  0  0  0  0  0  0  0
    3.4940    2.4020  -60.0450 C   0  0  0  0  0  0  0  0  0  0  0  0
    4.0220    1.4800  -61.1600 C   0  0  0  0  0  0  0  0  0  0  0  0
    2.8580    0.8940  -61.9620 C   0  0  0  0  0  0  0  0  0  0  0  0
    4.8200    2.2840  -62.0380 O   0  0  0  0  0  0  0  0  0  0  0  0
    4.9140    0.3790  -60.5830 C   0  0  0  0  0  0  0  0  0  0  0  0
    6.1400    0.9770  -59.8950 C   0  0  0  0  0  0  0  0  0  0  0  0
    7.6570    2.5580  -57.5620 N   0  0  0  0  0  0  0  0  0  0  0  0
    8.7920    3.3930  -57.6020 C   0  0  0  0  0  0  0  0  0  0  0  0
    9.9790    3.2260  -56.8120 C   0  0  0  0  0  0  0  0  0  0  0  0
   11.0310    3.8600  -56.8500 O   0  0  0  0  0  0  0  0  0  0  0  0
    9.8570    2.1690  -55.9190 N   0  0  0  0  0  0  0  0  0  0  0  0
    8.6850    1.4060  -55.7080 C   0  0  0  0  0  0  0  0  0  0  0  0
    8.6550    0.4740  -54.6720 C   0  0  0  0  0  0  0  0  0  0  0  0
    7.4720   -0.2320  -54.4000 C   0  0  0  0  0  0  0  0  0  0  0  0
    7.4200   -1.2060  -53.2560 C   0  0  0  0  0  0  0  0  0  0  0  0
    6.3130    0.0380  -55.1480 C   0  0  0  0  0  0  0  0  0  0  0  0
    6.3370    0.9610  -56.1950 C   0  0  0  0  0  0  0  0  0  0  0  0
    7.5310    1.5910  -56.4900 C   0  0  0  0  0  0  0  0  0  0  0  0
   11.1160    5.0236  -59.2969 H   0  0  0  0  0  0  0  0  0  0  0  0
    9.8399    4.4391  -60.4179 H   0  0  0  0  0  0  0  0  0  0  0  0
   10.3101    6.1728  -60.4179 H   0  0  0  0  0  0  0  0  0  0  0  0
    6.7400    4.6820  -59.6370 H   0  0  0  0  0  0  0  0  0  0  0  0
    4.0759    1.7557  -58.0813 H   0  0  0  0  0  0  0  0  0  0  0  0
    4.3718    3.5194  -58.4589 H   0  0  0  0  0  0  0  0  0  0  0  0
    2.5168    2.0216  -59.7128 H   0  0  0  0  0  0  0  0  0  0  0  0
    3.4265    3.4148  -60.4689 H   0  0  0  0  0  0  0  0  0  0  0  0
    2.0936    0.5092  -61.2709 H   0  0  0  0  0  0  0  0  0  0  0  0
    2.4180    1.6780  -62.5958 H   0  0  0  0  0  0  0  0  0  0  0  0
    3.2257    0.0736  -62.5958 H   0  0  0  0  0  0  0  0  0  0  0  0
    5.0540    3.1110  -61.5760 H   0  0  0  0  0  0  0  0  0  0  0  0
    4.3378   -0.2042  -59.8496 H   0  0  0  0  0  0  0  0  0  0  0  0
    5.2526   -0.2672  -61.4062 H   0  0  0  0  0  0  0  0  0  0  0  0
    6.5514    0.2315  -59.1986 H   0  0  0  0  0  0  0  0  0  0  0  0
    6.8639    1.2441  -60.6790 H   0  0  0  0  0  0  0  0  0  0  0  0
   10.6610    2.0210  -55.3200 H   0  0  0  0  0  0  0  0  0  0  0  0
    9.5565    0.2918  -54.0685 H   0  0  0  0  0  0  0  0  0  0  0  0
    7.4494   -0.6555  -52.3041 H   0  0  0  0  0  0  0  0  0  0  0  0
    6.4894   -1.7897  -53.3134 H   0  0  0  0  0  0  0  0  0  0  0  0
    8.2831   -1.8855  -53.3134 H   0  0  0  0  0  0  0  0  0  0  0  0
    5.3758   -0.4843  -54.9054 H   0  0  0  0  0  0  0  0  0  0  0  0
    5.4267    1.1817  -56.7717 H   0  0  0  0  0  0  0  0  0  0  0  0
  1  2  1  0
  2  3  1  0
  3  4  1  0
  4  5  2  0
  5  6  1  0
  6  7  1  0
  7  8  1  0
  8  9  1  0
  9 10  1  0
  9 11  1  0
  9 12  1  0
 12 13  1  0
  5 14  1  0
 14 15  1  0
 15 16  1  0
 16 17  2  0
 16 18  1  0
 18 19  1  0
 19 20  2  0
 20 21  1  0
 21 22  1  0
 21 23  2  0
 23 24  1  0
 24 25  2  0
 15  3  2  0
 25 19  1  0
 13  6  1  0
 25 14  1  0
  1 26  1  0
  1 27  1  0
  1 28  1  0
  4 29  1  0
  7 30  1  0
  7 31  1  0
  8 32  1  0
  8 33  1  0
 10 34  1  0
 10 35  1  0
 10 36  1  0
 11 37  1  0
 12 38  1  0
 12 39  1  0
 13 40  1  0
 13 41  1  0
 18 42  1  0
 20 43  1  0
 22 44  1  0
 22 45  1  0
 22 46  1  0
 23 47  1  0
 24 48  1  0
M  CHG  1   4   1
M  END
>  <meeko>  (36) 
{"is_sidechain": false}

$$$$

     RDKit          3D

 49 52  0  0  0  0  0  0  0  0999 V2000
    5.5030   -4.1280  -50.4520 C   0  0  0  0  0  0  0  0  0  0  0  0
    5.8670   -2.9870  -51.2310 O   0  0  0  0  0  0  0  0  0  0  0  0
    7.2360   -2.8980  -51.3640 C   0  0  0  0  0  0  0  0  0  0  0  0
    7.9620   -3.5670  -50.3730 C   0  0  0  0  0  0  0  0  0  0  0  0
    9.3510   -3.6070  -50.4310 C   0  0  0  0  0  0  0  0  0  0  0  0
   10.0170   -2.9690  -51.4760 C   0  0  0  0  0  0  0  0  0  0  0  0
   11.5140   -3.0450  -51.5820 C   0  0  0  0  0  0  0  0  0  0  0  0
    9.2740   -2.2880  -52.4590 C   0  0  0  0  0  0  0  0  0  0  0  0
    7.8710   -2.1930  -52.4140 C   0  0  0  0  0  0  0  0  0  0  0  0
    7.1390   -1.4590  -53.3550 N   0  0  0  0  0  0  0  0  0  0  0  0
    7.0390    0.0040  -53.1010 C   0  0  0  0  0  0  0  0  0  0  0  0
    8.1600    0.7830  -53.8280 C   0  0  0  0  0  0  0  0  0  0  0  0
    8.2370    0.4910  -55.2880 N   0  0  0  0  0  0  0  0  0  0  0  0
    7.3480    1.1730  -56.0660 C   0  0  0  0  0  0  0  0  0  0  0  0
    6.0410    1.2040  -55.9230 N   0  0  0  0  0  0  0  0  0  0  0  0
    5.5910    1.9900  -56.9280 C   0  0  0  0  0  0  0  0  0  0  0  0
    4.2840    2.2100  -57.0930 N   0  0  0  0  0  0  0  0  0  0  0  0
    6.6070    2.5140  -57.6920 C   0  0  0  0  0  0  0  0  0  0  0  0
    6.6460    3.3650  -58.7620 N   0  0  0  0  0  0  0  0  0  0  0  0
    7.8270    3.6550  -59.1920 C   0  0  0  0  0  0  0  0  0  0  0  0
    7.9590    4.4860  -60.2390 O   0  0  0  0  0  0  0  0  0  0  0  0
    9.1180    3.1750  -58.6610 C   0  0  0  0  0  0  0  0  0  0  0  0
    9.0280    2.3330  -57.6110 C   0  0  0  0  0  0  0  0  0  0  0  0
   10.2250    1.8250  -57.0370 C   0  0  0  0  0  0  0  0  0  0  0  0
   11.2430    1.4300  -56.6440 N   0  0  0  0  0  0  0  0  0  0  0  0
    7.7630    1.9880  -57.1190 N   0  0  0  0  0  0  0  0  0  0  0  0
    8.3090   -0.9770  -55.5330 C   0  0  0  0  0  0  0  0  0  0  0  0
    7.1990   -1.7670  -54.7990 C   0  0  0  0  0  0  0  0  0  0  0  0
    5.5814   -3.8821  -49.3827 H   0  0  0  0  0  0  0  0  0  0  0  0
    4.4680   -4.4172  -50.6868 H   0  0  0  0  0  0  0  0  0  0  0  0
    6.1793   -4.9632  -50.6868 H   0  0  0  0  0  0  0  0  0  0  0  0
    7.4330   -4.0627  -49.5457 H   0  0  0  0  0  0  0  0  0  0  0  0
    9.9213   -4.1397  -49.6558 H   0  0  0  0  0  0  0  0  0  0  0  0
   11.9523   -3.0673  -50.5734 H   0  0  0  0  0  0  0  0  0  0  0  0
   11.7972   -3.9587  -52.1251 H   0  0  0  0  0  0  0  0  0  0  0  0
   11.8883   -2.1647  -52.1251 H   0  0  0  0  0  0  0  0  0  0  0  0
    9.8104   -1.8125  -53.2933 H   0  0  0  0  0  0  0  0  0  0  0  0
    6.0633    0.3633  -53.4600 H   0  0  0  0  0  0  0  0  0  0  0  0
    7.1453    0.1748  -52.0195 H   0  0  0  0  0  0  0  0  0  0  0  0
    7.9766    1.8597  -53.6975 H   0  0  0  0  0  0  0  0  0  0  0  0
    9.1149    0.4654  -53.3839 H   0  0  0  0  0  0  0  0  0  0  0  0
    3.9830    2.6580  -57.9510 H   0  0  0  0  0  0  0  0  0  0  0  0
    3.6250    1.5350  -56.7180 H   0  0  0  0  0  0  0  0  0  0  0  0
    8.8440    4.5180  -60.6280 H   0  0  0  0  0  0  0  0  0  0  0  0
   10.0832    3.4816  -59.0903 H   0  0  0  0  0  0  0  0  0  0  0  0
    8.2116   -1.1573  -56.6137 H   0  0  0  0  0  0  0  0  0  0  0  0
    9.2759   -1.3288  -55.1439 H   0  0  0  0  0  0  0  0  0  0  0  0
    6.2292   -1.5154  -55.2530 H   0  0  0  0  0  0  0  0  0  0  0  0
    7.4306   -2.8375  -54.9009 H   0  0  0  0  0  0  0  0  0  0  0  0
  1  2  1  0
  2  3  1  0
  3  4  1  0
  4  5  2  0
  5  6  1  0
  6  7  1  0
  6  8  2  0
  8  9  1  0
  9 10  1  0
 10 11  1  0
 11 12  1  0
 12 13  1  0
 13 14  1  0
 14 15  2  0
 15 16  1  0
 16 17  1  0
 16 18  2  0
 18 19  1  0
 19 20  2  0
 20 21  1  0
 20 22  1  0
 22 23  2  0
 23 24  1  0
 24 25  3  0
 23 26  1  0
 13 27  1  0
 27 28  1  0
  9  3  2  0
 28 10  1  0
 26 14  1  0
 26 18  1  0
  1 29  1  0
  1 30  1  0
  1 31  1  0
  4 32  1  0
  5 33  1  0
  7 34  1  0
  7 35  1  0
  7 36  1  0
  8 37  1  0
 11 38  1  0
 11 39  1  0
 12 40  1  0
 12 41  1  0
 17 42  1  0
 17 43  1  0
 21 44  1  0
 22 45  1  0
 27 46  1  0
 27 47  1  0
 28 48  1  0
 28 49  1  0
M  END
>  <meeko>  (37) 
{"is_sidechain": false}

$$$$

     RDKit          3D

 49 52  0  0  0  0  0  0  0  0999 V2000
    7.6240    2.7880  -59.2260 C   0  0  0  0  0  0  0  0  0  0  0  0
    8.7020    1.9010  -58.9190 O   0  0  0  0  0  0  0  0  0  0  0  0
    9.8470    2.6330  -58.6880 C   0  0  0  0  0  0  0  0  0  0  0  0
   10.1710    3.5820  -59.6650 C   0  0  0  0  0  0  0  0  0  0  0  0
   11.3320    4.3360  -59.5450 C   0  0  0  0  0  0  0  0  0  0  0  0
   12.1750    4.1420  -58.4500 C   0  0  0  0  0  0  0  0  0  0  0  0
   13.4180    4.9670  -58.2930 C   0  0  0  0  0  0  0  0  0  0  0  0
   11.8130    3.2110  -57.4570 C   0  0  0  0  0  0  0  0  0  0  0  0
   10.6340    2.4460  -57.5290 C   0  0  0  0  0  0  0  0  0  0  0  0
   10.2840    1.5510  -56.5180 N   0  0  0  0  0  0  0  0  0  0  0  0
    8.9330    1.5420  -55.9330 C   0  0  0  0  0  0  0  0  0  0  0  0
    8.9060    0.6560  -54.6700 C   0  0  0  0  0  0  0  0  0  0  0  0
    9.2240   -0.7710  -54.9710 N   0  0  0  0  0  0  0  0  0  0  0  0
    9.6550   -1.4810  -53.8880 C   0  0  0  0  0  0  0  0  0  0  0  0
   10.9050   -1.7660  -53.5830 N   0  0  0  0  0  0  0  0  0  0  0  0
   10.8430   -2.4740  -52.4310 C   0  0  0  0  0  0  0  0  0  0  0  0
   11.9590   -2.9030  -51.8370 N   0  0  0  0  0  0  0  0  0  0  0  0
    9.5540   -2.6570  -52.0170 C   0  0  0  0  0  0  0  0  0  0  0  0
    8.9840   -3.3060  -50.9440 N   0  0  0  0  0  0  0  0  0  0  0  0
    7.6210   -3.3600  -50.7950 C   0  0  0  0  0  0  0  0  0  0  0  0
    7.0840   -3.9320  -49.8550 O   0  0  0  0  0  0  0  0  0  0  0  0
    6.7920   -2.6860  -51.8340 C   0  0  0  0  0  0  0  0  0  0  0  0
    7.3740   -2.0550  -52.8730 C   0  0  0  0  0  0  0  0  0  0  0  0
    6.5490   -1.4320  -53.8500 C   0  0  0  0  0  0  0  0  0  0  0  0
    5.8310   -0.9190  -54.6050 N   0  0  0  0  0  0  0  0  0  0  0  0
    8.7670   -2.0290  -52.9640 N   0  0  0  0  0  0  0  0  0  0  0  0
   10.0800   -0.9240  -56.1830 C   0  0  0  0  0  0  0  0  0  0  0  0
   11.0300    0.2720  -56.4220 C   0  0  0  0  0  0  0  0  0  0  0  0
    7.1755    3.1571  -58.2919 H   0  0  0  0  0  0  0  0  0  0  0  0
    8.0041    3.6383  -59.8112 H   0  0  0  0  0  0  0  0  0  0  0  0
    6.8628    2.2512  -59.8112 H   0  0  0  0  0  0  0  0  0  0  0  0
    9.5059    3.7309  -60.5284 H   0  0  0  0  0  0  0  0  0  0  0  0
   11.5858    5.0836  -60.3109 H   0  0  0  0  0  0  0  0  0  0  0  0
   13.6314    5.1086  -57.2232 H   0  0  0  0  0  0  0  0  0  0  0  0
   14.2637    4.4503  -58.7703 H   0  0  0  0  0  0  0  0  0  0  0  0
   13.2704    5.9470  -58.7703 H   0  0  0  0  0  0  0  0  0  0  0  0
   12.4780    3.0766  -56.5912 H   0  0  0  0  0  0  0  0  0  0  0  0
    8.6471    2.5692  -55.6626 H   0  0  0  0  0  0  0  0  0  0  0  0
    8.2247    1.1374  -56.6709 H   0  0  0  0  0  0  0  0  0  0  0  0
    9.6468    1.0397  -53.9531 H   0  0  0  0  0  0  0  0  0  0  0  0
    7.8879    0.6932  -54.2551 H   0  0  0  0  0  0  0  0  0  0  0  0
   12.4560   -2.3170  -51.1780 H   0  0  0  0  0  0  0  0  0  0  0  0
   12.5790   -3.4730  -52.4050 H   0  0  0  0  0  0  0  0  0  0  0  0
    9.5610   -3.7860  -50.2640 H   0  0  0  0  0  0  0  0  0  0  0  0
    5.6952   -2.7037  -51.7521 H   0  0  0  0  0  0  0  0  0  0  0  0
   10.6876   -1.8336  -56.0675 H   0  0  0  0  0  0  0  0  0  0  0  0
    9.4058   -0.9800  -57.0503 H   0  0  0  0  0  0  0  0  0  0  0  0
   11.7415    0.3356  -55.5855 H   0  0  0  0  0  0  0  0  0  0  0  0
   11.5566    0.1084  -57.3738 H   0  0  0  0  0  0  0  0  0  0  0  0
  1  2  1  0
  2  3  1  0
  3  4  1  0
  4  5  2  0
  5  6  1  0
  6  7  1  0
  6  8  2  0
  8  9  1  0
  9 10  1  0
 10 11  1  0
 11 12  1  0
 12 13  1  0
 13 14  1  0
 14 15  2  0
 15 16  1  0
 16 17  1  0
 16 18  2  0
 18 19  1  0
 19 20  1  0
 20 21  2  0
 20 22  1  0
 22 23  2  0
 23 24  1  0
 24 25  3  0
 23 26  1  0
 13 27  1  0
 27 28  1  0
  9  3  2  0
 28 10  1  0
 26 14  1  0
 26 18  1  0
  1 29  1  0
  1 30  1  0
  1 31  1  0
  4 32  1  0
  5 33  1  0
  7 34  1  0
  7 35  1  0
  7 36  1  0
  8 37  1  0
 11 38  1  0
 11 39  1  0
 12 40  1  0
 12 41  1  0
 17 42  1  0
 17 43  1  0
 19 44  1  0
 22 45  1  0
 27 46  1  0
 27 47  1  0
 28 48  1  0
 28 49  1  0
M  END
>  <meeko>  (38) 
{"is_sidechain": false}

$$$$

     RDKit          3D

 50 53  0  0  0  0  0  0  0  0999 V2000
   11.9600    2.1650  -56.8580 C   0  0  0  0  0  0  0  0  0  0  0  0
   11.5560    2.3600  -58.2090 O   0  0  0  0  0  0  0  0  0  0  0  0
   11.8510    3.5680  -58.7940 C   0  0  0  0  0  0  0  0  0  0  0  0
   13.1560    4.0210  -59.0230 C   0  0  0  0  0  0  0  0  0  0  0  0
   13.3860    5.2780  -59.5860 C   0  0  0  0  0  0  0  0  0  0  0  0
   12.3200    6.1130  -59.9180 C   0  0  0  0  0  0  0  0  0  0  0  0
   12.5700    7.4540  -60.5440 C   0  0  0  0  0  0  0  0  0  0  0  0
   11.0140    5.6570  -59.7070 C   0  0  0  0  0  0  0  0  0  0  0  0
   10.7550    4.3880  -59.1560 C   0  0  0  0  0  0  0  0  0  0  0  0
    9.3850    4.0430  -58.9870 N   0  0  0  0  0  0  0  0  0  0  0  0
    8.5290    5.2630  -59.0730 C   0  0  0  0  0  0  0  0  0  0  0  0
    7.0810    4.9300  -58.6400 C   0  0  0  0  0  0  0  0  0  0  0  0
    6.8170    3.4610  -58.7490 N   0  0  0  0  0  0  0  0  0  0  0  0
    6.5840    3.0130  -60.0040 C   0  0  0  0  0  0  0  0  0  0  0  0
    7.4780    3.0540  -60.9750 N   0  0  0  0  0  0  0  0  0  0  0  0
    6.9690    2.5570  -62.1300 C   0  0  0  0  0  0  0  0  0  0  0  0
    7.7820    2.5390  -63.2230 N   0  0  0  0  0  0  0  0  0  0  0  0
    5.6530    2.1890  -61.8280 C   0  0  0  0  0  0  0  0  0  0  0  0
    4.7060    1.6400  -62.6270 N   0  0  0  0  0  0  0  0  0  0  0  0
    3.6220    1.4400  -61.9750 C   0  0  0  0  0  0  0  0  0  0  0  0
    2.5730    0.9010  -62.6090 O   0  0  0  0  0  0  0  0  0  0  0  0
    3.2770    1.7000  -60.5800 C   0  0  0  0  0  0  0  0  0  0  0  0
    4.2510    2.2470  -59.8440 C   0  0  0  0  0  0  0  0  0  0  0  0
    4.0230    2.5430  -58.4630 C   0  0  0  0  0  0  0  0  0  0  0  0
    3.8800    2.8170  -57.3450 N   0  0  0  0  0  0  0  0  0  0  0  0
    5.4520    2.5000  -60.4860 N   0  0  0  0  0  0  0  0  0  0  0  0
    7.7220    2.6140  -57.9020 C   0  0  0  0  0  0  0  0  0  0  0  0
    9.1180    3.2550  -57.7560 C   0  0  0  0  0  0  0  0  0  0  0  0
   11.1777    2.5426  -56.1832 H   0  0  0  0  0  0  0  0  0  0  0  0
   12.1168    1.0920  -56.6734 H   0  0  0  0  0  0  0  0  0  0  0  0
   12.8977    2.7097  -56.6734 H   0  0  0  0  0  0  0  0  0  0  0  0
   14.0091    3.3798  -58.7565 H   0  0  0  0  0  0  0  0  0  0  0  0
   14.4178    5.6125  -59.7692 H   0  0  0  0  0  0  0  0  0  0  0  0
   12.7103    8.2068  -59.7544 H   0  0  0  0  0  0  0  0  0  0  0  0
   13.4744    7.4044  -61.1682 H   0  0  0  0  0  0  0  0  0  0  0  0
   11.7085    7.7336  -61.1682 H   0  0  0  0  0  0  0  0  0  0  0  0
   10.1687    6.3065  -59.9785 H   0  0  0  0  0  0  0  0  0  0  0  0
    8.9368    6.0407  -58.4106 H   0  0  0  0  0  0  0  0  0  0  0  0
    8.5196    5.6229  -60.1124 H   0  0  0  0  0  0  0  0  0  0  0  0
    6.9352    5.2459  -57.5965 H   0  0  0  0  0  0  0  0  0  0  0  0
    6.3838    5.4632  -59.3031 H   0  0  0  0  0  0  0  0  0  0  0  0
    8.3900    3.4830  -60.8360 H   0  0  0  0  0  0  0  0  0  0  0  0
    7.4530    2.8010  -64.1520 H   0  0  0  0  0  0  0  0  0  0  0  0
    8.7330    2.1830  -63.2450 H   0  0  0  0  0  0  0  0  0  0  0  0
    2.1040    0.3010  -62.0020 H   0  0  0  0  0  0  0  0  0  0  0  0
    2.2867    1.4629  -60.1640 H   0  0  0  0  0  0  0  0  0  0  0  0
    7.2744    2.4995  -56.9037 H   0  0  0  0  0  0  0  0  0  0  0  0
    7.8393    1.6358  -58.3913 H   0  0  0  0  0  0  0  0  0  0  0  0
    9.1366    3.9159  -56.8769 H   0  0  0  0  0  0  0  0  0  0  0  0
    9.8858    2.4789  -57.6216 H   0  0  0  0  0  0  0  0  0  0  0  0
  1  2  1  0
  2  3  1  0
  3  4  1  0
  4  5  2  0
  5  6  1  0
  6  7  1  0
  6  8  2  0
  8  9  1  0
  9 10  1  0
 10 11  1  0
 11 12  1  0
 12 13  1  0
 13 14  1  0
 14 15  2  0
 15 16  1  0
 16 17  1  0
 16 18  2  0
 18 19  1  0
 19 20  2  0
 20 21  1  0
 20 22  1  0
 22 23  2  0
 23 24  1  0
 24 25  3  0
 23 26  1  0
 13 27  1  0
 27 28  1  0
  9  3  2  0
 28 10  1  0
 26 14  1  0
 26 18  1  0
  1 29  1  0
  1 30  1  0
  1 31  1  0
  4 32  1  0
  5 33  1  0
  7 34  1  0
  7 35  1  0
  7 36  1  0
  8 37  1  0
 11 38  1  0
 11 39  1  0
 12 40  1  0
 12 41  1  0
 15 42  1  0
 17 43  1  0
 17 44  1  0
 21 45  1  0
 22 46  1  0
 27 47  1  0
 27 48  1  0
 28 49  1  0
 28 50  1  0
M  CHG  1  15   1
M  END
>  <meeko>  (39) 
{"is_sidechain": false}

$$$$

     RDKit          3D

 50 53  0  0  0  0  0  0  0  0999 V2000
    4.0170    2.6010  -58.9640 C   0  0  0  0  0  0  0  0  0  0  0  0
    5.2090    1.8610  -58.7260 O   0  0  0  0  0  0  0  0  0  0  0  0
    6.3360    2.2510  -59.4110 C   0  0  0  0  0  0  0  0  0  0  0  0
    6.3430    2.6010  -60.7670 C   0  0  0  0  0  0  0  0  0  0  0  0
    7.5270    2.9930  -61.4000 C   0  0  0  0  0  0  0  0  0  0  0  0
    8.7240    3.0550  -60.6890 C   0  0  0  0  0  0  0  0  0  0  0  0
   10.0020    3.4430  -61.3750 C   0  0  0  0  0  0  0  0  0  0  0  0
    8.7260    2.6940  -59.3370 C   0  0  0  0  0  0  0  0  0  0  0  0
    7.5480    2.2970  -58.6800 C   0  0  0  0  0  0  0  0  0  0  0  0
    7.6840    1.9660  -57.3070 N   0  0  0  0  0  0  0  0  0  0  0  0
    6.8490    0.8130  -56.9270 C   0  0  0  0  0  0  0  0  0  0  0  0
    6.9010    0.6290  -55.4010 C   0  0  0  0  0  0  0  0  0  0  0  0
    8.3030    0.5870  -54.9050 N   0  0  0  0  0  0  0  0  0  0  0  0
    8.8620   -0.5780  -54.5160 C   0  0  0  0  0  0  0  0  0  0  0  0
    9.7450   -1.2540  -55.2450 N   0  0  0  0  0  0  0  0  0  0  0  0
   10.2850   -2.2910  -54.5470 C   0  0  0  0  0  0  0  0  0  0  0  0
   11.2630   -3.0240  -55.1460 N   0  0  0  0  0  0  0  0  0  0  0  0
    9.6090   -2.2720  -53.3450 C   0  0  0  0  0  0  0  0  0  0  0  0
    9.7140   -3.1250  -52.2010 N   0  0  0  0  0  0  0  0  0  0  0  0
    8.8760   -2.9600  -51.1440 C   0  0  0  0  0  0  0  0  0  0  0  0
    8.9450   -3.6480  -50.1350 O   0  0  0  0  0  0  0  0  0  0  0  0
    7.8390   -1.9150  -51.2780 C   0  0  0  0  0  0  0  0  0  0  0  0
    7.7510   -1.1080  -52.3470 C   0  0  0  0  0  0  0  0  0  0  0  0
    6.6660   -0.1760  -52.4090 C   0  0  0  0  0  0  0  0  0  0  0  0
    5.8060    0.5980  -52.4890 N   0  0  0  0  0  0  0  0  0  0  0  0
    8.6900   -1.2490  -53.3680 N   0  0  0  0  0  0  0  0  0  0  0  0
    9.1670    1.7160  -55.3610 C   0  0  0  0  0  0  0  0  0  0  0  0
    9.0960    1.8730  -56.8910 C   0  0  0  0  0  0  0  0  0  0  0  0
    3.5625    2.8831  -58.0028 H   0  0  0  0  0  0  0  0  0  0  0  0
    4.2573    3.5090  -59.5366 H   0  0  0  0  0  0  0  0  0  0  0  0
    3.3098    1.9829  -59.5366 H   0  0  0  0  0  0  0  0  0  0  0  0
    5.4055    2.5672  -61.3415 H   0  0  0  0  0  0  0  0  0  0  0  0
    7.5133    3.2546  -62.4683 H   0  0  0  0  0  0  0  0  0  0  0  0
   10.7675    3.6754  -60.6200 H   0  0  0  0  0  0  0  0  0  0  0  0
   10.3483    2.6095  -62.0038 H   0  0  0  0  0  0  0  0  0  0  0  0
    9.8265    4.3283  -62.0038 H   0  0  0  0  0  0  0  0  0  0  0  0
    9.6713    2.7215  -58.7751 H   0  0  0  0  0  0  0  0  0  0  0  0
    5.8100    0.9926  -57.2403 H   0  0  0  0  0  0  0  0  0  0  0  0
    7.2269   -0.0944  -57.4207 H   0  0  0  0  0  0  0  0  0  0  0  0
    6.3771    1.4690  -54.9215 H   0  0  0  0  0  0  0  0  0  0  0  0
    6.4176   -0.3271  -55.1517 H   0  0  0  0  0  0  0  0  0  0  0  0
   10.0570   -0.9700  -56.1620 H   0  0  0  0  0  0  0  0  0  0  0  0
   11.4160   -4.0200  -55.0080 H   0  0  0  0  0  0  0  0  0  0  0  0
   11.9920   -2.6280  -55.7350 H   0  0  0  0  0  0  0  0  0  0  0  0
   10.3990   -3.8690  -52.1440 H   0  0  0  0  0  0  0  0  0  0  0  0
    7.1072   -1.7934  -50.4658 H   0  0  0  0  0  0  0  0  0  0  0  0
    8.8244    2.6473  -54.8863 H   0  0  0  0  0  0  0  0  0  0  0  0
   10.2076    1.5022  -55.0756 H   0  0  0  0  0  0  0  0  0  0  0  0
    9.6285    2.7874  -57.1916 H   0  0  0  0  0  0  0  0  0  0  0  0
    9.5653    1.0025  -57.3727 H   0  0  0  0  0  0  0  0  0  0  0  0
  1  2  1  0
  2  3  1  0
  3  4  1  0
  4  5  2  0
  5  6  1  0
  6  7  1  0
  6  8  2  0
  8  9  1  0
  9 10  1  0
 10 11  1  0
 11 12  1  0
 12 13  1  0
 13 14  1  0
 14 15  2  0
 15 16  1  0
 16 17  1  0
 16 18  2  0
 18 19  1  0
 19 20  1  0
 20 21  2  0
 20 22  1  0
 22 23  2  0
 23 24  1  0
 24 25  3  0
 23 26  1  0
 13 27  1  0
 27 28  1  0
  9  3  2  0
 28 10  1  0
 26 14  1  0
 26 18  1  0
  1 29  1  0
  1 30  1  0
  1 31  1  0
  4 32  1  0
  5 33  1  0
  7 34  1  0
  7 35  1  0
  7 36  1  0
  8 37  1  0
 11 38  1  0
 11 39  1  0
 12 40  1  0
 12 41  1  0
 15 42  1  0
 17 43  1  0
 17 44  1  0
 19 45  1  0
 22 46  1  0
 27 47  1  0
 27 48  1  0
 28 49  1  0
 28 50  1  0
M  CHG  1  15   1
M  END
>  <meeko>  (40) 
{"is_sidechain": false}

$$$$

     RDKit          3D

 49 53  0  0  0  0  0  0  0  0999 V2000
    5.7190    2.2130  -56.5460 O   0  0  0  0  0  0  0  0  0  0  0  0
    7.0490    2.1440  -56.6410 C   0  0  0  0  0  0  0  0  0  0  0  0
    7.6880    2.9970  -57.3580 N   0  0  0  0  0  0  0  0  0  0  0  0
    9.1050    2.8890  -57.4150 C   0  0  0  0  0  0  0  0  0  0  0  0
    9.8470    3.8310  -58.1480 C   0  0  0  0  0  0  0  0  0  0  0  0
    9.0680    5.1080  -59.0160 Cl  0  0  0  0  0  0  0  0  0  0  0  0
   11.2430    3.7650  -58.1950 C   0  0  0  0  0  0  0  0  0  0  0  0
   11.9200    2.7630  -57.5020 C   0  0  0  0  0  0  0  0  0  0  0  0
   11.2090    1.8130  -56.7690 C   0  0  0  0  0  0  0  0  0  0  0  0
    9.8130    1.8630  -56.7400 C   0  0  0  0  0  0  0  0  0  0  0  0
    9.0250    0.9290  -56.0200 N   0  0  0  0  0  0  0  0  0  0  0  0
    9.3340   -0.2290  -55.3140 C   0  0  0  0  0  0  0  0  0  0  0  0
   10.5650   -0.8220  -55.2910 N   0  0  0  0  0  0  0  0  0  0  0  0
   11.2130   -0.8250  -53.9580 C   0  0  0  0  0  0  0  0  0  0  0  0
   10.6630   -1.9220  -53.0180 C   0  0  0  0  0  0  0  0  0  0  0  0
   10.4460   -3.2620  -53.7330 N   0  0  0  0  0  0  0  0  0  0  0  0
    8.9910   -3.6850  -53.7750 C   0  0  0  0  0  0  0  0  0  0  0  0
    8.2950   -3.5140  -52.4520 C   0  0  0  0  0  0  0  0  0  0  0  0
    9.0360   -3.2560  -51.2880 C   0  0  0  0  0  0  0  0  0  0  0  0
    8.3940   -3.1220  -50.0570 C   0  0  0  0  0  0  0  0  0  0  0  0
    7.0080   -3.2410  -49.9750 C   0  0  0  0  0  0  0  0  0  0  0  0
    6.2610   -3.4910  -51.1230 C   0  0  0  0  0  0  0  0  0  0  0  0
    6.8990   -3.6260  -52.3580 C   0  0  0  0  0  0  0  0  0  0  0  0
   11.1020   -3.2940  -55.1000 C   0  0  0  0  0  0  0  0  0  0  0  0
   10.6370   -2.1280  -56.0010 C   0  0  0  0  0  0  0  0  0  0  0  0
    8.2680   -0.7130  -54.7170 N   0  0  0  0  0  0  0  0  0  0  0  0
    7.2190    0.0920  -55.0950 C   0  0  0  0  0  0  0  0  0  0  0  0
    5.6380   -0.2340  -54.5640 Cl  0  0  0  0  0  0  0  0  0  0  0  0
    7.6600    1.0860  -55.9320 C   0  0  0  0  0  0  0  0  0  0  0  0
    5.3460    1.5270  -57.1290 H   0  0  0  0  0  0  0  0  0  0  0  0
   11.8081    4.5055  -58.7802 H   0  0  0  0  0  0  0  0  0  0  0  0
   13.0188    2.7213  -57.5333 H   0  0  0  0  0  0  0  0  0  0  0  0
   11.7451    1.0276  -56.2160 H   0  0  0  0  0  0  0  0  0  0  0  0
   12.2921   -0.9894  -54.0939 H   0  0  0  0  0  0  0  0  0  0  0  0
   10.9999    0.1464  -53.4879 H   0  0  0  0  0  0  0  0  0  0  0  0
   11.3794   -2.0734  -52.1971 H   0  0  0  0  0  0  0  0  0  0  0  0
    9.6848   -1.5815  -52.6475 H   0  0  0  0  0  0  0  0  0  0  0  0
   10.9110   -3.9710  -53.1550 H   0  0  0  0  0  0  0  0  0  0  0  0
    8.4695   -3.0755  -54.5277 H   0  0  0  0  0  0  0  0  0  0  0  0
    8.9647   -4.7555  -54.0268 H   0  0  0  0  0  0  0  0  0  0  0  0
   10.1301   -3.1589  -51.3471 H   0  0  0  0  0  0  0  0  0  0  0  0
    8.9827   -2.9221  -49.1495 H   0  0  0  0  0  0  0  0  0  0  0  0
    6.5039   -3.1374  -49.0028 H   0  0  0  0  0  0  0  0  0  0  0  0
    5.1668   -3.5823  -51.0572 H   0  0  0  0  0  0  0  0  0  0  0  0
    6.3040   -3.8212  -53.2624 H   0  0  0  0  0  0  0  0  0  0  0  0
   12.1924   -3.2281  -54.9707 H   0  0  0  0  0  0  0  0  0  0  0  0
   10.8118   -4.2348  -55.5906 H   0  0  0  0  0  0  0  0  0  0  0  0
   11.3444   -2.0310  -56.8378 H   0  0  0  0  0  0  0  0  0  0  0  0
    9.6189   -2.3680  -56.3414 H   0  0  0  0  0  0  0  0  0  0  0  0
  1  2  1  0
  2  3  2  0
  3  4  1  0
  4  5  2  0
  5  6  1  0
  5  7  1  0
  7  8  2  0
  8  9  1  0
  9 10  2  0
 10 11  1  0
 11 12  1  0
 12 13  1  0
 13 14  1  0
 14 15  1  0
 15 16  1  0
 16 17  1  0
 17 18  1  0
 18 19  2  0
 19 20  1  0
 20 21  2  0
 21 22  1  0
 22 23  2  0
 16 24  1  0
 24 25  1  0
 12 26  2  0
 26 27  1  0
 27 28  1  0
 27 29  2  0
 29  2  1  0
 10  4  1  0
 29 11  1  0
 25 13  1  0
 23 18  1  0
  1 30  1  0
  7 31  1  0
  8 32  1  0
  9 33  1  0
 14 34  1  0
 14 35  1  0
 15 36  1  0
 15 37  1  0
 16 38  1  0
 17 39  1  0
 17 40  1  0
 19 41  1  0
 20 42  1  0
 21 43  1  0
 22 44  1  0
 23 45  1  0
 24 46  1  0
 24 47  1  0
 25 48  1  0
 25 49  1  0
M  CHG  1  16   1
M  END
>  <meeko>  (41) 
{"is_sidechain": false}

$$$$

     RDKit          3D

 49 53  0  0  0  0  0  0  0  0999 V2000
    7.5120    2.4230  -61.6400 O   0  0  0  0  0  0  0  0  0  0  0  0
    7.9710    2.6340  -60.5250 C   0  0  0  0  0  0  0  0  0  0  0  0
    9.0360    3.4830  -60.3580 N   0  0  0  0  0  0  0  0  0  0  0  0
    9.6350    3.7770  -59.1190 C   0  0  0  0  0  0  0  0  0  0  0  0
   10.7340    4.6450  -59.0550 C   0  0  0  0  0  0  0  0  0  0  0  0
   11.3740    5.3830  -60.4790 Cl  0  0  0  0  0  0  0  0  0  0  0  0
   11.3350    4.9250  -57.8290 C   0  0  0  0  0  0  0  0  0  0  0  0
   10.8430    4.3380  -56.6610 C   0  0  0  0  0  0  0  0  0  0  0  0
    9.7470    3.4730  -56.7110 C   0  0  0  0  0  0  0  0  0  0  0  0
    9.1360    3.1970  -57.9380 C   0  0  0  0  0  0  0  0  0  0  0  0
    8.0210    2.3350  -58.0780 N   0  0  0  0  0  0  0  0  0  0  0  0
    7.2610    1.6280  -57.1500 C   0  0  0  0  0  0  0  0  0  0  0  0
    7.4290    1.6910  -55.7960 N   0  0  0  0  0  0  0  0  0  0  0  0
    8.7440    1.1750  -55.3300 C   0  0  0  0  0  0  0  0  0  0  0  0
    8.8100   -0.3690  -55.2730 C   0  0  0  0  0  0  0  0  0  0  0  0
    7.6530   -0.9520  -54.4660 N   0  0  0  0  0  0  0  0  0  0  0  0
    7.8470   -0.8270  -52.9760 C   0  0  0  0  0  0  0  0  0  0  0  0
    7.6840   -2.1310  -52.2450 C   0  0  0  0  0  0  0  0  0  0  0  0
    7.3760   -3.3080  -52.9460 C   0  0  0  0  0  0  0  0  0  0  0  0
    7.2000   -4.5120  -52.2620 C   0  0  0  0  0  0  0  0  0  0  0  0
    7.3320   -4.5530  -50.8770 C   0  0  0  0  0  0  0  0  0  0  0  0
    7.6460   -3.3940  -50.1710 C   0  0  0  0  0  0  0  0  0  0  0  0
    7.8230   -2.1880  -50.8490 C   0  0  0  0  0  0  0  0  0  0  0  0
    6.3190   -0.4260  -54.9930 C   0  0  0  0  0  0  0  0  0  0  0  0
    6.2900    1.1190  -55.0300 C   0  0  0  0  0  0  0  0  0  0  0  0
    6.3290    0.9160  -57.7390 N   0  0  0  0  0  0  0  0  0  0  0  0
    6.4510    1.1700  -59.0830 C   0  0  0  0  0  0  0  0  0  0  0  0
    5.4050    0.4440  -60.2090 Cl  0  0  0  0  0  0  0  0  0  0  0  0
    7.4750    2.0560  -59.3140 C   0  0  0  0  0  0  0  0  0  0  0  0
    9.4100    3.9040  -61.2040 H   0  0  0  0  0  0  0  0  0  0  0  0
   12.1961    5.6078  -57.7813 H   0  0  0  0  0  0  0  0  0  0  0  0
   11.3216    4.5582  -55.6954 H   0  0  0  0  0  0  0  0  0  0  0  0
    9.3661    3.0107  -55.7884 H   0  0  0  0  0  0  0  0  0  0  0  0
    9.5234    1.5326  -56.0190 H   0  0  0  0  0  0  0  0  0  0  0  0
    8.8948    1.5455  -54.3053 H   0  0  0  0  0  0  0  0  0  0  0  0
    8.7661   -0.7662  -56.2979 H   0  0  0  0  0  0  0  0  0  0  0  0
    9.7511   -0.6549  -54.7806 H   0  0  0  0  0  0  0  0  0  0  0  0
    7.6450   -1.9580  -54.6690 H   0  0  0  0  0  0  0  0  0  0  0  0
    8.8608   -0.4445  -52.7865 H   0  0  0  0  0  0  0  0  0  0  0  0
    7.0704   -0.1437  -52.6018 H   0  0  0  0  0  0  0  0  0  0  0  0
    7.2728   -3.2811  -54.0408 H   0  0  0  0  0  0  0  0  0  0  0  0
    6.9567   -5.4294  -52.8181 H   0  0  0  0  0  0  0  0  0  0  0  0
    7.1882   -5.5018  -50.3393 H   0  0  0  0  0  0  0  0  0  0  0  0
    7.7546   -3.4299  -49.0770 H   0  0  0  0  0  0  0  0  0  0  0  0
    8.0730   -1.2762  -50.2867 H   0  0  0  0  0  0  0  0  0  0  0  0
    6.1612   -0.8103  -56.0115 H   0  0  0  0  0  0  0  0  0  0  0  0
    5.5228   -0.7685  -54.3156 H   0  0  0  0  0  0  0  0  0  0  0  0
    5.3500    1.4432  -55.5005 H   0  0  0  0  0  0  0  0  0  0  0  0
    6.3687    1.4800  -53.9939 H   0  0  0  0  0  0  0  0  0  0  0  0
  1  2  2  0
  2  3  1  0
  3  4  1  0
  4  5  2  0
  5  6  1  0
  5  7  1  0
  7  8  2  0
  8  9  1  0
  9 10  2  0
 10 11  1  0
 11 12  1  0
 12 13  1  0
 13 14  1  0
 14 15  1  0
 15 16  1  0
 16 17  1  0
 17 18  1  0
 18 19  2  0
 19 20  1  0
 20 21  2  0
 21 22  1  0
 22 23  2  0
 16 24  1  0
 24 25  1  0
 12 26  2  0
 26 27  1  0
 27 28  1  0
 27 29  2  0
 29  2  1  0
 10  4  1  0
 29 11  1  0
 25 13  1  0
 23 18  1  0
  3 30  1  0
  7 31  1  0
  8 32  1  0
  9 33  1  0
 14 34  1  0
 14 35  1  0
 15 36  1  0
 15 37  1  0
 16 38  1  0
 17 39  1  0
 17 40  1  0
 19 41  1  0
 20 42  1  0
 21 43  1  0
 22 44  1  0
 23 45  1  0
 24 46  1  0
 24 47  1  0
 25 48  1  0
 25 49  1  0
M  CHG  1  16   1
M  END
>  <meeko>  (42) 
{"is_sidechain": false}

$$$$

     RDKit          3D

 50 54  0  0  0  0  0  0  0  0999 V2000
   10.3850    2.6320  -60.1980 O   0  0  0  0  0  0  0  0  0  0  0  0
    9.2560    2.4350  -59.5110 C   0  0  0  0  0  0  0  0  0  0  0  0
    8.1290    2.3700  -60.1350 N   0  0  0  0  0  0  0  0  0  0  0  0
    6.9410    2.2060  -59.3450 C   0  0  0  0  0  0  0  0  0  0  0  0
    5.6790    2.3030  -59.9470 C   0  0  0  0  0  0  0  0  0  0  0  0
    5.5170    2.5170  -61.6520 Cl  0  0  0  0  0  0  0  0  0  0  0  0
    4.5110    2.2440  -59.1760 C   0  0  0  0  0  0  0  0  0  0  0  0
    4.5810    2.1140  -57.7850 C   0  0  0  0  0  0  0  0  0  0  0  0
    5.8180    2.0050  -57.1520 C   0  0  0  0  0  0  0  0  0  0  0  0
    6.9640    2.0010  -57.9350 C   0  0  0  0  0  0  0  0  0  0  0  0
    8.2920    1.8990  -57.3210 N   0  0  0  0  0  0  0  0  0  0  0  0
    8.7180    1.5820  -56.1010 C   0  0  0  0  0  0  0  0  0  0  0  0
    8.1250    0.7980  -55.1550 N   0  0  0  0  0  0  0  0  0  0  0  0
    6.9820   -0.0850  -55.5270 C   0  0  0  0  0  0  0  0  0  0  0  0
    6.9450   -1.3960  -54.7130 C   0  0  0  0  0  0  0  0  0  0  0  0
    8.3570   -1.9220  -54.5200 N   0  0  0  0  0  0  0  0  0  0  0  0
    8.3870   -3.3240  -53.9160 C   0  0  0  0  0  0  0  0  0  0  0  0
    7.8980   -3.3450  -52.4960 C   0  0  0  0  0  0  0  0  0  0  0  0
    8.7390   -2.9460  -51.4460 C   0  0  0  0  0  0  0  0  0  0  0  0
    8.2700   -2.9330  -50.1310 C   0  0  0  0  0  0  0  0  0  0  0  0
    6.9620   -3.3210  -49.8520 C   0  0  0  0  0  0  0  0  0  0  0  0
    6.1210   -3.7300  -50.8840 C   0  0  0  0  0  0  0  0  0  0  0  0
    6.5840   -3.7450  -52.2010 C   0  0  0  0  0  0  0  0  0  0  0  0
    9.2520   -0.9660  -53.7440 C   0  0  0  0  0  0  0  0  0  0  0  0
    8.8000    0.5040  -53.8710 C   0  0  0  0  0  0  0  0  0  0  0  0
    9.9450    2.0750  -55.9940 N   0  0  0  0  0  0  0  0  0  0  0  0
   10.4360    2.4340  -57.2390 C   0  0  0  0  0  0  0  0  0  0  0  0
   12.0620    2.9630  -57.5150 Cl  0  0  0  0  0  0  0  0  0  0  0  0
    9.4050    2.2660  -58.1120 C   0  0  0  0  0  0  0  0  0  0  0  0
   10.9630    3.2250  -59.6780 H   0  0  0  0  0  0  0  0  0  0  0  0
    3.5293    2.3004  -59.6691 H   0  0  0  0  0  0  0  0  0  0  0  0
    3.6568    2.0977  -57.1887 H   0  0  0  0  0  0  0  0  0  0  0  0
    5.8845    1.9240  -56.0570 H   0  0  0  0  0  0  0  0  0  0  0  0
    6.0442    0.4628  -55.3526 H   0  0  0  0  0  0  0  0  0  0  0  0
    7.1067   -0.3574  -56.5854 H   0  0  0  0  0  0  0  0  0  0  0  0
    6.4897   -1.2030  -53.7304 H   0  0  0  0  0  0  0  0  0  0  0  0
    6.3498   -2.1444  -55.2568 H   0  0  0  0  0  0  0  0  0  0  0  0
    8.7590   -2.0480  -55.4590 H   0  0  0  0  0  0  0  0  0  0  0  0
    7.7463   -3.9830  -54.5203 H   0  0  0  0  0  0  0  0  0  0  0  0
    9.4319   -3.6677  -53.9165 H   0  0  0  0  0  0  0  0  0  0  0  0
    9.7741   -2.6416  -51.6602 H   0  0  0  0  0  0  0  0  0  0  0  0
    8.9348   -2.6158  -49.3140 H   0  0  0  0  0  0  0  0  0  0  0  0
    6.5928   -3.3044  -48.8159 H   0  0  0  0  0  0  0  0  0  0  0  0
    5.0900   -4.0418  -50.6610 H   0  0  0  0  0  0  0  0  0  0  0  0
    5.9164   -4.0717  -53.0119 H   0  0  0  0  0  0  0  0  0  0  0  0
    9.2334   -1.2499  -52.6814 H   0  0  0  0  0  0  0  0  0  0  0  0
   10.2651   -1.0410  -54.1659 H   0  0  0  0  0  0  0  0  0  0  0  0
    8.1025    0.7274  -53.0503 H   0  0  0  0  0  0  0  0  0  0  0  0
    9.7042    1.1288  -53.8267 H   0  0  0  0  0  0  0  0  0  0  0  0
   10.5260    2.1370  -55.1700 H   0  0  0  0  0  0  0  0  0  0  0  0
  1  2  1  0
  2  3  2  0
  3  4  1  0
  4  5  2  0
  5  6  1  0
  5  7  1  0
  7  8  2  0
  8  9  1  0
  9 10  2  0
 10 11  1  0
 11 12  1  0
 12 13  1  0
 13 14  1  0
 14 15  1  0
 15 16  1  0
 16 17  1  0
 17 18  1  0
 18 19  2  0
 19 20  1  0
 20 21  2  0
 21 22  1  0
 22 23  2  0
 16 24  1  0
 24 25  1  0
 12 26  2  0
 26 27  1  0
 27 28  1  0
 27 29  2  0
 29  2  1  0
 10  4  1  0
 29 11  1  0
 25 13  1  0
 23 18  1  0
  1 30  1  0
  7 31  1  0
  8 32  1  0
  9 33  1  0
 14 34  1  0
 14 35  1  0
 15 36  1  0
 15 37  1  0
 16 38  1  0
 17 39  1  0
 17 40  1  0
 19 41  1  0
 20 42  1  0
 21 43  1  0
 22 44  1  0
 23 45  1  0
 24 46  1  0
 24 47  1  0
 25 48  1  0
 25 49  1  0
 26 50  1  0
M  CHG  2  16   1  26   1
M  END
>  <meeko>  (43) 
{"is_sidechain": false}

$$$$

     RDKit          3D

 50 54  0  0  0  0  0  0  0  0999 V2000
   10.3960    2.6770  -60.3530 O   0  0  0  0  0  0  0  0  0  0  0  0
    9.4550    2.4770  -59.5950 C   0  0  0  0  0  0  0  0  0  0  0  0
    8.1710    2.3700  -60.1030 N   0  0  0  0  0  0  0  0  0  0  0  0
    6.9790    2.2360  -59.3430 C   0  0  0  0  0  0  0  0  0  0  0  0
    5.7280    2.3130  -59.9600 C   0  0  0  0  0  0  0  0  0  0  0  0
    5.5890    2.4810  -61.6700 Cl  0  0  0  0  0  0  0  0  0  0  0  0
    4.5630    2.2730  -59.1880 C   0  0  0  0  0  0  0  0  0  0  0  0
    4.6410    2.1790  -57.7940 C   0  0  0  0  0  0  0  0  0  0  0  0
    5.8800    2.0840  -57.1600 C   0  0  0  0  0  0  0  0  0  0  0  0
    7.0230    2.0660  -57.9460 C   0  0  0  0  0  0  0  0  0  0  0  0
    8.3540    1.9620  -57.3680 N   0  0  0  0  0  0  0  0  0  0  0  0
    8.7820    1.6640  -56.1420 C   0  0  0  0  0  0  0  0  0  0  0  0
    8.1840    0.9070  -55.1770 N   0  0  0  0  0  0  0  0  0  0  0  0
    8.8780    0.6070  -53.9050 C   0  0  0  0  0  0  0  0  0  0  0  0
    9.3240   -0.8650  -53.7930 C   0  0  0  0  0  0  0  0  0  0  0  0
    8.4060   -1.8090  -54.5670 N   0  0  0  0  0  0  0  0  0  0  0  0
    8.4240   -3.2260  -53.9970 C   0  0  0  0  0  0  0  0  0  0  0  0
    7.9180   -3.2680  -52.5830 C   0  0  0  0  0  0  0  0  0  0  0  0
    6.6180   -3.7250  -52.3060 C   0  0  0  0  0  0  0  0  0  0  0  0
    6.1640   -3.8040  -50.9890 C   0  0  0  0  0  0  0  0  0  0  0  0
    6.9980   -3.4290  -49.9390 C   0  0  0  0  0  0  0  0  0  0  0  0
    8.2850   -2.9660  -50.2010 C   0  0  0  0  0  0  0  0  0  0  0  0
    8.7440   -2.8830  -51.5160 C   0  0  0  0  0  0  0  0  0  0  0  0
    6.9960   -1.2790  -54.7220 C   0  0  0  0  0  0  0  0  0  0  0  0
    7.0180    0.0420  -55.5230 C   0  0  0  0  0  0  0  0  0  0  0  0
   10.0140    2.1430  -56.0450 N   0  0  0  0  0  0  0  0  0  0  0  0
   10.5060    2.4710  -57.2950 C   0  0  0  0  0  0  0  0  0  0  0  0
   12.1410    2.9650  -57.5900 Cl  0  0  0  0  0  0  0  0  0  0  0  0
    9.4710    2.3010  -58.1700 C   0  0  0  0  0  0  0  0  0  0  0  0
    8.0850    2.5170  -61.1080 H   0  0  0  0  0  0  0  0  0  0  0  0
    3.5797    2.3157  -59.6791 H   0  0  0  0  0  0  0  0  0  0  0  0
    3.7190    2.1800  -57.1940 H   0  0  0  0  0  0  0  0  0  0  0  0
    5.9490    2.0248  -56.0638 H   0  0  0  0  0  0  0  0  0  0  0  0
    9.7680    1.2492  -53.8316 H   0  0  0  0  0  0  0  0  0  0  0  0
    8.1652    0.7972  -53.0891 H   0  0  0  0  0  0  0  0  0  0  0  0
   10.3445   -0.9569  -54.1931 H   0  0  0  0  0  0  0  0  0  0  0  0
    9.2818   -1.1497  -52.7313 H   0  0  0  0  0  0  0  0  0  0  0  0
    8.8060   -1.9210  -55.5080 H   0  0  0  0  0  0  0  0  0  0  0  0
    7.7866   -3.8687  -54.6220 H   0  0  0  0  0  0  0  0  0  0  0  0
    9.4655   -3.5800  -53.9968 H   0  0  0  0  0  0  0  0  0  0  0  0
    5.9550   -4.0220  -53.1319 H   0  0  0  0  0  0  0  0  0  0  0  0
    5.1455   -4.1631  -50.7799 H   0  0  0  0  0  0  0  0  0  0  0  0
    6.6399   -3.4985  -48.9013 H   0  0  0  0  0  0  0  0  0  0  0  0
    8.9404   -2.6654  -49.3703 H   0  0  0  0  0  0  0  0  0  0  0  0
    9.7602   -2.5133  -51.7176 H   0  0  0  0  0  0  0  0  0  0  0  0
    6.3841   -2.0202  -55.2570 H   0  0  0  0  0  0  0  0  0  0  0  0
    6.5667   -1.0928  -53.7265 H   0  0  0  0  0  0  0  0  0  0  0  0
    7.0639   -0.1977  -56.5956 H   0  0  0  0  0  0  0  0  0  0  0  0
    6.1043    0.5994  -55.2690 H   0  0  0  0  0  0  0  0  0  0  0  0
   10.6010    2.2080  -55.2240 H   0  0  0  0  0  0  0  0  0  0  0  0
  1  2  2  0
  2  3  1  0
  3  4  1  0
  4  5  2  0
  5  6  1  0
  5  7  1  0
  7  8  2  0
  8  9  1  0
  9 10  2  0
 10 11  1  0
 11 12  1  0
 12 13  1  0
 13 14  1  0
 14 15  1  0
 15 16  1  0
 16 17  1  0
 17 18  1  0
 18 19  2  0
 19 20  1  0
 20 21  2  0
 21 22  1  0
 22 23  2  0
 16 24  1  0
 24 25  1  0
 12 26  2  0
 26 27  1  0
 27 28  1  0
 27 29  2  0
 29  2  1  0
 10  4  1  0
 29 11  1  0
 25 13  1  0
 23 18  1  0
  3 30  1  0
  7 31  1  0
  8 32  1  0
  9 33  1  0
 14 34  1  0
 14 35  1  0
 15 36  1  0
 15 37  1  0
 16 38  1  0
 17 39  1  0
 17 40  1  0
 19 41  1  0
 20 42  1  0
 21 43  1  0
 22 44  1  0
 23 45  1  0
 24 46  1  0
 24 47  1  0
 25 48  1  0
 25 49  1  0
 26 50  1  0
M  CHG  2  16   1  26   1
M  END
>  <meeko>  (44) 
{"is_sidechain": false}

$$$$

     RDKit          3D

 43 46  0  0  0  0  0  0  0  0999 V2000
   11.8100    2.4880  -56.9990 O   0  0  0  0  0  0  0  0  0  0  0  0
   10.6200    2.1980  -57.0090 C   0  0  0  0  0  0  0  0  0  0  0  0
   10.0790    1.4530  -55.9890 N   0  0  0  0  0  0  0  0  0  0  0  0
    8.7190    1.1060  -55.8920 C   0  0  0  0  0  0  0  0  0  0  0  0
    8.2500    0.3950  -54.7790 C   0  0  0  0  0  0  0  0  0  0  0  0
    9.3210   -0.1060  -53.5210 Cl  0  0  0  0  0  0  0  0  0  0  0  0
    6.8950    0.0850  -54.6670 C   0  0  0  0  0  0  0  0  0  0  0  0
    6.0010    0.4920  -55.6590 C   0  0  0  0  0  0  0  0  0  0  0  0
    6.4590    1.1960  -56.7770 C   0  0  0  0  0  0  0  0  0  0  0  0
    7.8200    1.4840  -56.9050 C   0  0  0  0  0  0  0  0  0  0  0  0
    8.3660    2.1870  -58.0080 N   0  0  0  0  0  0  0  0  0  0  0  0
    7.8090    2.6280  -59.2060 C   0  0  0  0  0  0  0  0  0  0  0  0
    6.5610    2.2910  -59.6740 N   0  0  0  0  0  0  0  0  0  0  0  0
    6.5160    2.2620  -61.1740 C   0  0  0  0  0  0  0  0  0  0  0  0
    5.0620    2.2640  -61.7130 C   0  0  0  0  0  0  0  0  0  0  0  0
    4.1310    1.7140  -60.6390 N   0  0  0  0  0  0  0  0  0  0  0  0
    2.7900    1.2240  -61.1310 C   0  0  0  0  0  0  0  0  0  0  0  0
    2.6340    1.2450  -62.6590 C   0  0  0  0  0  0  0  0  0  0  0  0
    3.0790    0.0160  -63.2220 O   0  0  0  0  0  0  0  0  0  0  0  0
    4.0880    2.6380  -59.4330 C   0  0  0  0  0  0  0  0  0  0  0  0
    5.4990    3.1810  -59.1120 C   0  0  0  0  0  0  0  0  0  0  0  0
    8.6660    3.3680  -59.8720 N   0  0  0  0  0  0  0  0  0  0  0  0
    9.8410    3.3270  -59.1650 C   0  0  0  0  0  0  0  0  0  0  0  0
   11.2340    4.1240  -59.7260 Cl  0  0  0  0  0  0  0  0  0  0  0  0
    9.6910    2.5670  -58.0310 C   0  0  0  0  0  0  0  0  0  0  0  0
   10.7180    1.1870  -55.2450 H   0  0  0  0  0  0  0  0  0  0  0  0
    6.5305   -0.4804  -53.7967 H   0  0  0  0  0  0  0  0  0  0  0  0
    4.9308    0.2577  -55.5606 H   0  0  0  0  0  0  0  0  0  0  0  0
    5.7504    1.5218  -57.5527 H   0  0  0  0  0  0  0  0  0  0  0  0
    7.0395    3.1482  -61.5620 H   0  0  0  0  0  0  0  0  0  0  0  0
    7.0011    1.3337  -61.5100 H   0  0  0  0  0  0  0  0  0  0  0  0
    4.7647    3.2922  -61.9668 H   0  0  0  0  0  0  0  0  0  0  0  0
    5.0000    1.6361  -62.6140 H   0  0  0  0  0  0  0  0  0  0  0  0
    4.6330    0.8870  -60.2880 H   0  0  0  0  0  0  0  0  0  0  0  0
    2.6525    0.1891  -60.7844 H   0  0  0  0  0  0  0  0  0  0  0  0
    2.0339    1.9129  -60.7265 H   0  0  0  0  0  0  0  0  0  0  0  0
    1.5745    1.3969  -62.9127 H   0  0  0  0  0  0  0  0  0  0  0  0
    3.2429    2.0649  -63.0677 H   0  0  0  0  0  0  0  0  0  0  0  0
    3.9140    0.1980  -63.6980 H   0  0  0  0  0  0  0  0  0  0  0  0
    3.4163    3.4821  -59.6483 H   0  0  0  0  0  0  0  0  0  0  0  0
    3.7208    2.0707  -58.5650 H   0  0  0  0  0  0  0  0  0  0  0  0
    5.6048    4.1854  -59.5478 H   0  0  0  0  0  0  0  0  0  0  0  0
    5.6178    3.2183  -58.0191 H   0  0  0  0  0  0  0  0  0  0  0  0
  1  2  2  0
  2  3  1  0
  3  4  1  0
  4  5  2  0
  5  6  1  0
  5  7  1  0
  7  8  2  0
  8  9  1  0
  9 10  2  0
 10 11  1  0
 11 12  1  0
 12 13  1  0
 13 14  1  0
 14 15  1  0
 15 16  1  0
 16 17  1  0
 17 18  1  0
 18 19  1  0
 16 20  1  0
 20 21  1  0
 12 22  2  0
 22 23  1  0
 23 24  1  0
 23 25  2  0
 25  2  1  0
 10  4  1  0
 25 11  1  0
 21 13  1  0
  3 26  1  0
  7 27  1  0
  8 28  1  0
  9 29  1  0
 14 30  1  0
 14 31  1  0
 15 32  1  0
 15 33  1  0
 16 34  1  0
 17 35  1  0
 17 36  1  0
 18 37  1  0
 18 38  1  0
 19 39  1  0
 20 40  1  0
 20 41  1  0
 21 42  1  0
 21 43  1  0
M  CHG  1  16   1
M  END
>  <meeko>  (45) 
{"is_sidechain": false}

$$$$

     RDKit          3D

 43 46  0  0  0  0  0  0  0  0999 V2000
   12.2360   -7.0230  -57.1690 O   0  0  0  0  0  0  0  0  0  0  0  0
   12.6230   -5.8620  -56.4190 C   0  0  0  0  0  0  0  0  0  0  0  0
   11.3500   -5.2370  -55.8380 C   0  0  0  0  0  0  0  0  0  0  0  0
   11.6300   -3.7760  -55.5380 N   0  0  0  0  0  0  0  0  0  0  0  0
   11.0780   -3.3220  -54.1940 C   0  0  0  0  0  0  0  0  0  0  0  0
   11.4450   -1.8460  -53.9250 C   0  0  0  0  0  0  0  0  0  0  0  0
   11.0560   -0.9360  -55.0320 N   0  0  0  0  0  0  0  0  0  0  0  0
    9.7320   -0.5990  -55.0510 C   0  0  0  0  0  0  0  0  0  0  0  0
    8.7840   -1.2870  -54.4550 N   0  0  0  0  0  0  0  0  0  0  0  0
    7.6060   -0.6650  -54.7820 C   0  0  0  0  0  0  0  0  0  0  0  0
    6.1120   -1.2550  -54.2260 Cl  0  0  0  0  0  0  0  0  0  0  0  0
    7.8360    0.4150  -55.5960 C   0  0  0  0  0  0  0  0  0  0  0  0
    7.0210    1.3800  -56.2490 C   0  0  0  0  0  0  0  0  0  0  0  0
    5.6930    1.2580  -56.0880 O   0  0  0  0  0  0  0  0  0  0  0  0
    7.5030    2.3260  -56.9730 N   0  0  0  0  0  0  0  0  0  0  0  0
    8.9100    2.4380  -57.1130 C   0  0  0  0  0  0  0  0  0  0  0  0
    9.4560    3.4850  -57.8760 C   0  0  0  0  0  0  0  0  0  0  0  0
    8.4460    4.6370  -58.6760 Cl  0  0  0  0  0  0  0  0  0  0  0  0
   10.8400    3.6270  -58.0120 C   0  0  0  0  0  0  0  0  0  0  0  0
   11.7010    2.7300  -57.3820 C   0  0  0  0  0  0  0  0  0  0  0  0
   11.1870    1.6820  -56.6200 C   0  0  0  0  0  0  0  0  0  0  0  0
    9.8020    1.5290  -56.4950 C   0  0  0  0  0  0  0  0  0  0  0  0
    9.2050    0.4870  -55.7430 N   0  0  0  0  0  0  0  0  0  0  0  0
   11.5840   -1.3890  -56.3440 C   0  0  0  0  0  0  0  0  0  0  0  0
   11.1940   -2.8510  -56.6610 C   0  0  0  0  0  0  0  0  0  0  0  0
   13.0610   -7.4980  -57.3990 H   0  0  0  0  0  0  0  0  0  0  0  0
   13.3035   -6.1517  -55.6047 H   0  0  0  0  0  0  0  0  0  0  0  0
   13.1452   -5.1418  -57.0660 H   0  0  0  0  0  0  0  0  0  0  0  0
   10.5304   -5.3164  -56.5674 H   0  0  0  0  0  0  0  0  0  0  0  0
   11.0557   -5.7630  -54.9178 H   0  0  0  0  0  0  0  0  0  0  0  0
   12.6650   -3.7430  -55.4720 H   0  0  0  0  0  0  0  0  0  0  0  0
    9.9830   -3.4269  -54.1990 H   0  0  0  0  0  0  0  0  0  0  0  0
   11.5169   -3.9462  -53.4017 H   0  0  0  0  0  0  0  0  0  0  0  0
   10.9328   -1.5198  -53.0078 H   0  0  0  0  0  0  0  0  0  0  0  0
   12.5394   -1.7935  -53.8276 H   0  0  0  0  0  0  0  0  0  0  0  0
    5.3860    1.3420  -55.1730 H   0  0  0  0  0  0  0  0  0  0  0  0
   11.2505    4.4485  -58.6176 H   0  0  0  0  0  0  0  0  0  0  0  0
   12.7895    2.8495  -57.4864 H   0  0  0  0  0  0  0  0  0  0  0  0
   11.8677    0.9780  -56.1189 H   0  0  0  0  0  0  0  0  0  0  0  0
   11.1801   -0.7365  -57.1321 H   0  0  0  0  0  0  0  0  0  0  0  0
   12.6819   -1.3356  -56.3012 H   0  0  0  0  0  0  0  0  0  0  0  0
   10.1024   -2.9163  -56.7799 H   0  0  0  0  0  0  0  0  0  0  0  0
   11.6970   -3.1589  -57.5895 H   0  0  0  0  0  0  0  0  0  0  0  0
  1  2  1  0
  2  3  1  0
  3  4  1  0
  4  5  1  0
  5  6  1  0
  6  7  1  0
  7  8  1  0
  8  9  2  0
  9 10  1  0
 10 11  1  0
 10 12  2  0
 12 13  1  0
 13 14  1  0
 13 15  2  0
 15 16  1  0
 16 17  2  0
 17 18  1  0
 17 19  1  0
 19 20  2  0
 20 21  1  0
 21 22  2  0
 22 23  1  0
  7 24  1  0
 24 25  1  0
 25  4  1  0
 23  8  1  0
 23 12  1  0
 22 16  1  0
  1 26  1  0
  2 27  1  0
  2 28  1  0
  3 29  1  0
  3 30  1  0
  4 31  1  0
  5 32  1  0
  5 33  1  0
  6 34  1  0
  6 35  1  0
 14 36  1  0
 19 37  1  0
 20 38  1  0
 21 39  1  0
 24 40  1  0
 24 41  1  0
 25 42  1  0
 25 43  1  0
M  CHG  1   4   1
M  END
>  <meeko>  (46) 
{"is_sidechain": false}

$$$$

     RDKit          3D

 44 47  0  0  0  0  0  0  0  0999 V2000
    5.9220    0.9620  -55.9300 O   0  0  0  0  0  0  0  0  0  0  0  0
    6.5750    1.4190  -56.8610 C   0  0  0  0  0  0  0  0  0  0  0  0
    5.9540    1.6840  -58.0700 N   0  0  0  0  0  0  0  0  0  0  0  0
    6.5890    2.1300  -59.2580 C   0  0  0  0  0  0  0  0  0  0  0  0
    5.8740    2.2250  -60.4550 C   0  0  0  0  0  0  0  0  0  0  0  0
    4.1880    1.8760  -60.5140 Cl  0  0  0  0  0  0  0  0  0  0  0  0
    6.5280    2.5930  -61.6350 C   0  0  0  0  0  0  0  0  0  0  0  0
    7.9040    2.8510  -61.6330 C   0  0  0  0  0  0  0  0  0  0  0  0
    8.6330    2.7740  -60.4450 C   0  0  0  0  0  0  0  0  0  0  0  0
    7.9590    2.4540  -59.2750 C   0  0  0  0  0  0  0  0  0  0  0  0
    8.6410    2.3650  -57.9920 N   0  0  0  0  0  0  0  0  0  0  0  0
    9.8720    2.6970  -57.6040 C   0  0  0  0  0  0  0  0  0  0  0  0
   10.7380    3.5830  -58.1700 N   0  0  0  0  0  0  0  0  0  0  0  0
   10.3990    5.0230  -58.2960 C   0  0  0  0  0  0  0  0  0  0  0  0
   10.9320    5.6330  -59.6050 C   0  0  0  0  0  0  0  0  0  0  0  0
   12.4370    5.4430  -59.7490 N   0  0  0  0  0  0  0  0  0  0  0  0
   13.2320    6.6660  -59.2500 C   0  0  0  0  0  0  0  0  0  0  0  0
   13.0220    7.8950  -60.1500 C   0  0  0  0  0  0  0  0  0  0  0  0
   13.0250    7.5110  -61.5200 O   0  0  0  0  0  0  0  0  0  0  0  0
   12.9690    4.1210  -59.1770 C   0  0  0  0  0  0  0  0  0  0  0  0
   11.8560    3.0720  -59.0120 C   0  0  0  0  0  0  0  0  0  0  0  0
   10.1030    2.0620  -56.4660 N   0  0  0  0  0  0  0  0  0  0  0  0
    8.9330    1.5330  -55.9590 C   0  0  0  0  0  0  0  0  0  0  0  0
    8.8110    0.7700  -54.4080 Cl  0  0  0  0  0  0  0  0  0  0  0  0
    7.9710    1.7580  -56.9010 C   0  0  0  0  0  0  0  0  0  0  0  0
    4.9650    1.4440  -58.1150 H   0  0  0  0  0  0  0  0  0  0  0  0
    5.9573    2.6804  -62.5713 H   0  0  0  0  0  0  0  0  0  0  0  0
    8.4129    3.1155  -62.5716 H   0  0  0  0  0  0  0  0  0  0  0  0
    9.7167    2.9626  -60.4365 H   0  0  0  0  0  0  0  0  0  0  0  0
    9.3047    5.1327  -58.2738 H   0  0  0  0  0  0  0  0  0  0  0  0
   10.8716    5.5560  -57.4578 H   0  0  0  0  0  0  0  0  0  0  0  0
   10.4294    5.1471  -60.4543 H   0  0  0  0  0  0  0  0  0  0  0  0
   10.7250    6.7132  -59.5868 H   0  0  0  0  0  0  0  0  0  0  0  0
   12.6270    5.4100  -60.7630 H   0  0  0  0  0  0  0  0  0  0  0  0
   12.9020    6.9121  -58.2299 H   0  0  0  0  0  0  0  0  0  0  0  0
   14.3011    6.4081  -59.2706 H   0  0  0  0  0  0  0  0  0  0  0  0
   12.0564    8.3623  -59.9064 H   0  0  0  0  0  0  0  0  0  0  0  0
   13.8408    8.6089  -59.9770 H   0  0  0  0  0  0  0  0  0  0  0  0
   13.0050    8.3350  -62.0500 H   0  0  0  0  0  0  0  0  0  0  0  0
   13.7342    3.7219  -59.8591 H   0  0  0  0  0  0  0  0  0  0  0  0
   13.3898    4.3276  -58.1819 H   0  0  0  0  0  0  0  0  0  0  0  0
   11.4631    2.8097  -60.0054 H   0  0  0  0  0  0  0  0  0  0  0  0
   12.2862    2.1910  -58.5132 H   0  0  0  0  0  0  0  0  0  0  0  0
   10.9570    2.0450  -55.9260 H   0  0  0  0  0  0  0  0  0  0  0  0
  1  2  2  0
  2  3  1  0
  3  4  1  0
  4  5  2  0
  5  6  1  0
  5  7  1  0
  7  8  2  0
  8  9  1  0
  9 10  2  0
 10 11  1  0
 11 12  1  0
 12 13  1  0
 13 14  1  0
 14 15  1  0
 15 16  1  0
 16 17  1  0
 17 18  1  0
 18 19  1  0
 16 20  1  0
 20 21  1  0
 12 22  2  0
 22 23  1  0
 23 24  1  0
 23 25  2  0
 25  2  1  0
 10  4  1  0
 25 11  1  0
 21 13  1  0
  3 26  1  0
  7 27  1  0
  8 28  1  0
  9 29  1  0
 14 30  1  0
 14 31  1  0
 15 32  1  0
 15 33  1  0
 16 34  1  0
 17 35  1  0
 17 36  1  0
 18 37  1  0
 18 38  1  0
 19 39  1  0
 20 40  1  0
 20 41  1  0
 21 42  1  0
 21 43  1  0
 22 44  1  0
M  CHG  2  16   1  22   1
M  END
>  <meeko>  (47) 
{"is_sidechain": false}

$$$$

     RDKit          3D

 44 47  0  0  0  0  0  0  0  0999 V2000
    7.9250   -2.3220  -51.7420 O   0  0  0  0  0  0  0  0  0  0  0  0
    6.9880   -2.6100  -52.7960 C   0  0  0  0  0  0  0  0  0  0  0  0
    7.7850   -2.6800  -54.1050 C   0  0  0  0  0  0  0  0  0  0  0  0
    7.6360   -1.3280  -54.8130 N   0  0  0  0  0  0  0  0  0  0  0  0
    6.2630   -0.7150  -54.6320 C   0  0  0  0  0  0  0  0  0  0  0  0
    6.2610    0.7980  -54.9320 C   0  0  0  0  0  0  0  0  0  0  0  0
    7.3190    1.2030  -55.8870 N   0  0  0  0  0  0  0  0  0  0  0  0
    7.0110    1.5780  -57.1610 C   0  0  0  0  0  0  0  0  0  0  0  0
    5.9580    1.1280  -57.8330 N   0  0  0  0  0  0  0  0  0  0  0  0
    6.1300    1.3200  -59.1940 C   0  0  0  0  0  0  0  0  0  0  0  0
    5.0390    0.7160  -60.3970 Cl  0  0  0  0  0  0  0  0  0  0  0  0
    7.2820    2.0340  -59.3290 C   0  0  0  0  0  0  0  0  0  0  0  0
    8.0140    2.5290  -60.4370 C   0  0  0  0  0  0  0  0  0  0  0  0
    7.6250    2.0890  -61.6380 O   0  0  0  0  0  0  0  0  0  0  0  0
    9.0240    3.3260  -60.3440 N   0  0  0  0  0  0  0  0  0  0  0  0
    9.3710    3.8080  -59.0380 C   0  0  0  0  0  0  0  0  0  0  0  0
   10.3490    4.8020  -58.8920 C   0  0  0  0  0  0  0  0  0  0  0  0
   11.2260    5.3970  -60.2540 Cl  0  0  0  0  0  0  0  0  0  0  0  0
   10.6310    5.3510  -57.6350 C   0  0  0  0  0  0  0  0  0  0  0  0
    9.9250    4.9370  -56.5010 C   0  0  0  0  0  0  0  0  0  0  0  0
    8.9540    3.9430  -56.6040 C   0  0  0  0  0  0  0  0  0  0  0  0
    8.7270    3.3650  -57.8460 C   0  0  0  0  0  0  0  0  0  0  0  0
    7.7100    2.3220  -58.0140 N   0  0  0  0  0  0  0  0  0  0  0  0
    8.7170    0.7940  -55.5510 C   0  0  0  0  0  0  0  0  0  0  0  0
    8.7700   -0.3690  -54.5370 C   0  0  0  0  0  0  0  0  0  0  0  0
    7.4500   -1.7380  -51.1110 H   0  0  0  0  0  0  0  0  0  0  0  0
    6.4908   -3.5725  -52.6056 H   0  0  0  0  0  0  0  0  0  0  0  0
    6.2124   -1.8320  -52.8523 H   0  0  0  0  0  0  0  0  0  0  0  0
    8.8457   -2.8747  -53.8881 H   0  0  0  0  0  0  0  0  0  0  0  0
    7.4083   -3.4931  -54.7430 H   0  0  0  0  0  0  0  0  0  0  0  0
    7.7330   -1.6300  -55.8060 H   0  0  0  0  0  0  0  0  0  0  0  0
    5.5589   -1.2132  -55.3147 H   0  0  0  0  0  0  0  0  0  0  0  0
    5.9651   -0.8534  -53.5822 H   0  0  0  0  0  0  0  0  0  0  0  0
    5.2834    1.0693  -55.3570 H   0  0  0  0  0  0  0  0  0  0  0  0
    6.4575    1.3204  -53.9841 H   0  0  0  0  0  0  0  0  0  0  0  0
    5.1550    0.6300  -57.4760 H   0  0  0  0  0  0  0  0  0  0  0  0
    6.7090    2.3910  -61.7950 H   0  0  0  0  0  0  0  0  0  0  0  0
   11.4158    6.1157  -57.5386 H   0  0  0  0  0  0  0  0  0  0  0  0
   10.1369    5.3975  -55.5248 H   0  0  0  0  0  0  0  0  0  0  0  0
    8.3803    3.6234  -55.7215 H   0  0  0  0  0  0  0  0  0  0  0  0
    9.2231    0.4784  -56.4753 H   0  0  0  0  0  0  0  0  0  0  0  0
    9.2148    1.6598  -55.0899 H   0  0  0  0  0  0  0  0  0  0  0  0
    9.7297   -0.8977  -54.6349 H   0  0  0  0  0  0  0  0  0  0  0  0
    8.6739    0.0292  -53.5161 H   0  0  0  0  0  0  0  0  0  0  0  0
  1  2  1  0
  2  3  1  0
  3  4  1  0
  4  5  1  0
  5  6  1  0
  6  7  1  0
  7  8  1  0
  8  9  2  0
  9 10  1  0
 10 11  1  0
 10 12  2  0
 12 13  1  0
 13 14  1  0
 13 15  2  0
 15 16  1  0
 16 17  2  0
 17 18  1  0
 17 19  1  0
 19 20  2  0
 20 21  1  0
 21 22  2  0
 22 23  1  0
  7 24  1  0
 24 25  1  0
 25  4  1  0
 23  8  1  0
 23 12  1  0
 22 16  1  0
  1 26  1  0
  2 27  1  0
  2 28  1  0
  3 29  1  0
  3 30  1  0
  4 31  1  0
  5 32  1  0
  5 33  1  0
  6 34  1  0
  6 35  1  0
  9 36  1  0
 14 37  1  0
 19 38  1  0
 20 39  1  0
 21 40  1  0
 24 41  1  0
 24 42  1  0
 25 43  1  0
 25 44  1  0
M  CHG  2   4   1   9   1
M  END
>  <meeko>  (48) 
{"is_sidechain": false}

$$$$

     RDKit          3D

 40 43  0  0  0  0  0  0  0  0999 V2000
    7.6020   -1.2660  -51.9670 C   0  0  0  0  0  0  0  0  0  0  0  0
    8.2110   -1.0990  -53.3530 C   0  0  1  0  0  0  0  0  0  0  0  0
    8.4200    0.3910  -53.6950 C   0  0  0  0  0  0  0  0  0  0  0  0
    8.9870    0.5580  -55.0630 N   0  0  0  0  0  0  0  0  0  0  0  0
    8.1540    1.1410  -55.9750 C   0  0  0  0  0  0  0  0  0  0  0  0
    6.8660    0.8990  -56.0980 N   0  0  0  0  0  0  0  0  0  0  0  0
    6.3900    1.8120  -56.9970 C   0  0  0  0  0  0  0  0  0  0  0  0
    4.7370    1.8900  -57.3990 Cl  0  0  0  0  0  0  0  0  0  0  0  0
    7.4040    2.6090  -57.4670 C   0  0  0  0  0  0  0  0  0  0  0  0
    7.4960    3.7090  -58.3580 C   0  0  0  0  0  0  0  0  0  0  0  0
    6.3380    4.1850  -58.8500 O   0  0  0  0  0  0  0  0  0  0  0  0
    8.6150    4.2570  -58.6850 N   0  0  0  0  0  0  0  0  0  0  0  0
    9.8170    3.7130  -58.1650 C   0  0  0  0  0  0  0  0  0  0  0  0
   11.0560    4.2490  -58.5580 C   0  0  0  0  0  0  0  0  0  0  0  0
   11.1530    5.5950  -59.6400 Cl  0  0  0  0  0  0  0  0  0  0  0  0
   12.2560    3.7040  -58.0910 C   0  0  0  0  0  0  0  0  0  0  0  0
   12.2390    2.6060  -57.2330 C   0  0  0  0  0  0  0  0  0  0  0  0
   11.0230    2.0560  -56.8240 C   0  0  0  0  0  0  0  0  0  0  0  0
    9.8220    2.6190  -57.2660 C   0  0  0  0  0  0  0  0  0  0  0  0
    8.5530    2.1160  -56.8870 N   0  0  0  0  0  0  0  0  0  0  0  0
    9.6860   -0.6620  -55.5480 C   0  0  0  0  0  0  0  0  0  0  0  0
   10.3770   -1.3770  -54.3690 C   0  0  2  0  0  0  0  0  0  0  0  0
   11.1760   -2.5820  -54.8440 C   0  0  0  0  0  0  0  0  0  0  0  0
    9.4440   -1.8410  -53.3730 O   0  0  0  0  0  0  0  0  0  0  0  0
    8.3655   -1.0566  -51.2033 H   0  0  0  0  0  0  0  0  0  0  0  0
    6.7628   -0.5648  -51.8483 H   0  0  0  0  0  0  0  0  0  0  0  0
    7.2378   -2.2972  -51.8483 H   0  0  0  0  0  0  0  0  0  0  0  0
    7.5323   -1.4891  -54.1258 H   0  0  0  0  0  0  0  0  0  0  0  0
    7.4515    0.9099  -53.6427 H   0  0  0  0  0  0  0  0  0  0  0  0
    9.1295    0.8174  -52.9706 H   0  0  0  0  0  0  0  0  0  0  0  0
    6.1240    3.8530  -59.7350 H   0  0  0  0  0  0  0  0  0  0  0  0
   13.2156    4.1429  -58.4016 H   0  0  0  0  0  0  0  0  0  0  0  0
   13.1852    2.1721  -56.8775 H   0  0  0  0  0  0  0  0  0  0  0  0
   11.0097    1.1822  -56.1559 H   0  0  0  0  0  0  0  0  0  0  0  0
    8.9545   -1.3423  -56.0085 H   0  0  0  0  0  0  0  0  0  0  0  0
   10.4448   -0.3728  -56.2901 H   0  0  0  0  0  0  0  0  0  0  0  0
   11.0395   -0.6217  -53.9210 H   0  0  0  0  0  0  0  0  0  0  0  0
   11.5474   -3.1421  -53.9732 H   0  0  0  0  0  0  0  0  0  0  0  0
   10.5305   -3.2338  -55.4511 H   0  0  0  0  0  0  0  0  0  0  0  0
   12.0276   -2.2411  -55.4511 H   0  0  0  0  0  0  0  0  0  0  0  0
  1  2  1  0
  2  3  1  0
  3  4  1  0
  4  5  1  0
  5  6  2  0
  6  7  1  0
  7  8  1  0
  7  9  2  0
  9 10  1  0
 10 11  1  0
 10 12  2  0
 12 13  1  0
 13 14  2  0
 14 15  1  0
 14 16  1  0
 16 17  2  0
 17 18  1  0
 18 19  2  0
 19 20  1  0
  4 21  1  0
 21 22  1  0
 22 23  1  0
 22 24  1  0
 24  2  1  0
 20  5  1  0
 20  9  1  0
 19 13  1  0
  1 25  1  0
  1 26  1  0
  1 27  1  0
  2 28  1  6
  3 29  1  0
  3 30  1  0
 11 31  1  0
 16 32  1  0
 17 33  1  0
 18 34  1  0
 21 35  1  0
 21 36  1  0
 22 37  1  1
 23 38  1  0
 23 39  1  0
 23 40  1  0
M  END
>  <meeko>  (49) 
{"is_sidechain": false}

$$$$

     RDKit          3D

 40 43  0  0  0  0  0  0  0  0999 V2000
   10.0550    3.8780  -61.1540 C   0  0  0  0  0  0  0  0  0  0  0  0
   10.2360    3.6400  -59.6610 C   0  0  1  0  0  0  0  0  0  0  0  0
   10.0830    2.1460  -59.3100 C   0  0  0  0  0  0  0  0  0  0  0  0
   10.1980    1.9200  -57.8420 N   0  0  0  0  0  0  0  0  0  0  0  0
    9.0050    1.7050  -57.2100 C   0  0  0  0  0  0  0  0  0  0  0  0
    7.8790    2.3290  -57.4830 N   0  0  0  0  0  0  0  0  0  0  0  0
    6.9800    1.9270  -56.5300 C   0  0  0  0  0  0  0  0  0  0  0  0
    5.3950    2.5440  -56.4970 Cl  0  0  0  0  0  0  0  0  0  0  0  0
    7.5550    1.0190  -55.6730 C   0  0  0  0  0  0  0  0  0  0  0  0
    7.0460    0.3420  -54.5250 C   0  0  0  0  0  0  0  0  0  0  0  0
    5.9260    0.4990  -54.0480 O   0  0  0  0  0  0  0  0  0  0  0  0
    7.9220   -0.5400  -53.9440 N   0  0  0  0  0  0  0  0  0  0  0  0
    9.2120   -0.8190  -54.4330 C   0  0  0  0  0  0  0  0  0  0  0  0
   10.0170   -1.7760  -53.8010 C   0  0  0  0  0  0  0  0  0  0  0  0
    9.4680   -2.6190  -52.3950 Cl  0  0  0  0  0  0  0  0  0  0  0  0
   11.2830   -2.0750  -54.3060 C   0  0  0  0  0  0  0  0  0  0  0  0
   11.7460   -1.4230  -55.4480 C   0  0  0  0  0  0  0  0  0  0  0  0
   10.9550   -0.4630  -56.0850 C   0  0  0  0  0  0  0  0  0  0  0  0
    9.6950   -0.1460  -55.5690 C   0  0  0  0  0  0  0  0  0  0  0  0
    8.8340    0.8200  -56.1500 N   0  0  0  0  0  0  0  0  0  0  0  0
   11.0310    2.9650  -57.1770 C   0  0  0  0  0  0  0  0  0  0  0  0
   12.1020    3.5050  -58.1460 C   0  0  2  0  0  0  0  0  0  0  0  0
   13.0130    4.5120  -57.4570 C   0  0  0  0  0  0  0  0  0  0  0  0
   11.5320    4.1550  -59.2970 O   0  0  0  0  0  0  0  0  0  0  0  0
    9.3958    4.7447  -61.3099 H   0  0  0  0  0  0  0  0  0  0  0  0
   11.0341    4.0743  -61.6154 H   0  0  0  0  0  0  0  0  0  0  0  0
    9.6043    2.9869  -61.6154 H   0  0  0  0  0  0  0  0  0  0  0  0
    9.4555    4.1615  -59.0876 H   0  0  0  0  0  0  0  0  0  0  0  0
    9.0967    1.7973  -59.6500 H   0  0  0  0  0  0  0  0  0  0  0  0
   10.8874    1.5876  -59.8112 H   0  0  0  0  0  0  0  0  0  0  0  0
    7.5800   -1.0400  -53.1300 H   0  0  0  0  0  0  0  0  0  0  0  0
   11.9141   -2.8233  -53.8043 H   0  0  0  0  0  0  0  0  0  0  0  0
   12.7406   -1.6658  -55.8504 H   0  0  0  0  0  0  0  0  0  0  0  0
   11.3230    0.0420  -56.9903 H   0  0  0  0  0  0  0  0  0  0  0  0
   10.3827    3.7939  -56.8567 H   0  0  0  0  0  0  0  0  0  0  0  0
   11.5340    2.5166  -56.3076 H   0  0  0  0  0  0  0  0  0  0  0  0
   12.6718    2.6222  -58.4716 H   0  0  0  0  0  0  0  0  0  0  0  0
   12.9175    4.4065  -56.3662 H   0  0  0  0  0  0  0  0  0  0  0  0
   14.0558    4.3259  -57.7535 H   0  0  0  0  0  0  0  0  0  0  0  0
   12.7237    5.5310  -57.7535 H   0  0  0  0  0  0  0  0  0  0  0  0
  1  2  1  0
  2  3  1  0
  3  4  1  0
  4  5  1  0
  5  6  2  0
  6  7  1  0
  7  8  1  0
  7  9  2  0
  9 10  1  0
 10 11  2  0
 10 12  1  0
 12 13  1  0
 13 14  2  0
 14 15  1  0
 14 16  1  0
 16 17  2  0
 17 18  1  0
 18 19  2  0
 19 20  1  0
  4 21  1  0
 21 22  1  0
 22 23  1  0
 22 24  1  0
 24  2  1  0
 20  5  1  0
 20  9  1  0
 19 13  1  0
  1 25  1  0
  1 26  1  0
  1 27  1  0
  2 28  1  1
  3 29  1  0
  3 30  1  0
 12 31  1  0
 16 32  1  0
 17 33  1  0
 18 34  1  0
 21 35  1  0
 21 36  1  0
 22 37  1  6
 23 38  1  0
 23 39  1  0
 23 40  1  0
M  END
>  <meeko>  (50) 
{"is_sidechain": false}

$$$$

     RDKit          3D

 41 44  0  0  0  0  0  0  0  0999 V2000
    9.0250    5.3380  -56.4470 C   0  0  0  0  0  0  0  0  0  0  0  0
   10.1960    4.6980  -57.1850 C   0  0  1  0  0  0  0  0  0  0  0  0
   10.5940    3.3530  -56.5420 C   0  0  0  0  0  0  0  0  0  0  0  0
   10.0600    2.2190  -57.3360 N   0  0  0  0  0  0  0  0  0  0  0  0
    8.8590    1.7250  -56.9580 C   0  0  0  0  0  0  0  0  0  0  0  0
    7.6940    2.2040  -57.3750 N   0  0  0  0  0  0  0  0  0  0  0  0
    6.6550    1.6630  -56.6600 C   0  0  0  0  0  0  0  0  0  0  0  0
    4.9900    2.1140  -56.8450 Cl  0  0  0  0  0  0  0  0  0  0  0  0
    7.2080    0.7650  -55.7940 C   0  0  0  0  0  0  0  0  0  0  0  0
    6.6750   -0.0910  -54.7870 C   0  0  0  0  0  0  0  0  0  0  0  0
    5.3570   -0.0270  -54.5190 O   0  0  0  0  0  0  0  0  0  0  0  0
    7.4050   -0.9160  -54.1110 N   0  0  0  0  0  0  0  0  0  0  0  0
    8.8020   -1.0090  -54.4090 C   0  0  0  0  0  0  0  0  0  0  0  0
    9.6020   -1.9490  -53.7420 C   0  0  0  0  0  0  0  0  0  0  0  0
    8.9460   -2.9800  -52.5210 Cl  0  0  0  0  0  0  0  0  0  0  0  0
   10.9610   -2.0870  -54.0530 C   0  0  0  0  0  0  0  0  0  0  0  0
   11.5460   -1.2980  -55.0470 C   0  0  0  0  0  0  0  0  0  0  0  0
   10.7860   -0.3500  -55.7280 C   0  0  0  0  0  0  0  0  0  0  0  0
    9.4470   -0.2020  -55.3870 C   0  0  0  0  0  0  0  0  0  0  0  0
    8.5930    0.7780  -56.0630 N   0  0  0  0  0  0  0  0  0  0  0  0
   10.4370    2.2160  -58.7750 C   0  0  0  0  0  0  0  0  0  0  0  0
   10.5820    3.6420  -59.3330 C   0  0  2  0  0  0  0  0  0  0  0  0
   12.0300    4.1090  -59.4570 C   0  0  0  0  0  0  0  0  0  0  0  0
    9.7800    4.5420  -58.5550 O   0  0  0  0  0  0  0  0  0  0  0  0
    9.1839    5.2512  -55.3620 H   0  0  0  0  0  0  0  0  0  0  0  0
    8.9540    6.4004  -56.7233 H   0  0  0  0  0  0  0  0  0  0  0  0
    8.0925    4.8241  -56.7233 H   0  0  0  0  0  0  0  0  0  0  0  0
   11.0953    5.3288  -57.1281 H   0  0  0  0  0  0  0  0  0  0  0  0
   11.6909    3.2817  -56.5015 H   0  0  0  0  0  0  0  0  0  0  0  0
   10.1731    3.3058  -55.5268 H   0  0  0  0  0  0  0  0  0  0  0  0
    7.5910    2.9710  -58.0280 H   0  0  0  0  0  0  0  0  0  0  0  0
    4.7700   -0.5810  -55.0560 H   0  0  0  0  0  0  0  0  0  0  0  0
   11.5727   -2.8226  -53.5102 H   0  0  0  0  0  0  0  0  0  0  0  0
   12.6106   -1.4261  -55.2925 H   0  0  0  0  0  0  0  0  0  0  0  0
   11.2360    0.2682  -56.5187 H   0  0  0  0  0  0  0  0  0  0  0  0
   11.3961    1.6898  -58.8902 H   0  0  0  0  0  0  0  0  0  0  0  0
    9.6372    1.7102  -59.3358 H   0  0  0  0  0  0  0  0  0  0  0  0
   10.2108    3.6343  -60.3684 H   0  0  0  0  0  0  0  0  0  0  0  0
   12.4580    4.2470  -58.4531 H   0  0  0  0  0  0  0  0  0  0  0  0
   12.6134    3.3535  -60.0036 H   0  0  0  0  0  0  0  0  0  0  0  0
   12.0620    5.0630  -60.0036 H   0  0  0  0  0  0  0  0  0  0  0  0
  1  2  1  0
  2  3  1  0
  3  4  1  0
  4  5  1  0
  5  6  2  0
  6  7  1  0
  7  8  1  0
  7  9  2  0
  9 10  1  0
 10 11  1  0
 10 12  2  0
 12 13  1  0
 13 14  2  0
 14 15  1  0
 14 16  1  0
 16 17  2  0
 17 18  1  0
 18 19  2  0
 19 20  1  0
  4 21  1  0
 21 22  1  0
 22 23  1  0
 22 24  1  0
 24  2  1  0
 20  5  1  0
 20  9  1  0
 19 13  1  0
  1 25  1  0
  1 26  1  0
  1 27  1  0
  2 28  1  6
  3 29  1  0
  3 30  1  0
  6 31  1  0
 11 32  1  0
 16 33  1  0
 17 34  1  0
 18 35  1  0
 21 36  1  0
 21 37  1  0
 22 38  1  6
 23 39  1  0
 23 40  1  0
 23 41  1  0
M  CHG  1   6   1
M  END
>  <meeko>  (51) 
{"is_sidechain": false}

$$$$

     RDKit          3D

 41 44  0  0  0  0  0  0  0  0999 V2000
    9.0090   -2.2160  -52.5510 C   0  0  0  0  0  0  0  0  0  0  0  0
    8.7380   -1.5230  -53.8790 C   0  0  1  0  0  0  0  0  0  0  0  0
    9.1990   -0.0520  -53.8600 C   0  0  0  0  0  0  0  0  0  0  0  0
    9.5100    0.4240  -55.2280 N   0  0  0  0  0  0  0  0  0  0  0  0
    8.5910    1.1320  -55.9300 C   0  0  0  0  0  0  0  0  0  0  0  0
    7.2860    1.1120  -55.6890 N   0  0  0  0  0  0  0  0  0  0  0  0
    6.5860    1.6160  -56.7600 C   0  0  0  0  0  0  0  0  0  0  0  0
    4.8560    1.5970  -56.8860 Cl  0  0  0  0  0  0  0  0  0  0  0  0
    7.5190    2.0880  -57.6400 C   0  0  0  0  0  0  0  0  0  0  0  0
    7.3210    2.7000  -58.9240 C   0  0  0  0  0  0  0  0  0  0  0  0
    6.2800    2.8520  -59.5560 O   0  0  0  0  0  0  0  0  0  0  0  0
    8.5170    3.1490  -59.4630 N   0  0  0  0  0  0  0  0  0  0  0  0
    9.7840    3.1260  -58.8240 C   0  0  0  0  0  0  0  0  0  0  0  0
   10.8930    3.7300  -59.4220 C   0  0  0  0  0  0  0  0  0  0  0  0
   10.7780    4.4610  -60.9800 Cl  0  0  0  0  0  0  0  0  0  0  0  0
   12.1190    3.7680  -58.7510 C   0  0  0  0  0  0  0  0  0  0  0  0
   12.2400    3.2190  -57.4690 C   0  0  0  0  0  0  0  0  0  0  0  0
   11.1470    2.6020  -56.8600 C   0  0  0  0  0  0  0  0  0  0  0  0
    9.9530    2.5290  -57.5610 C   0  0  0  0  0  0  0  0  0  0  0  0
    8.7680    1.8980  -57.0080 N   0  0  0  0  0  0  0  0  0  0  0  0
   10.4760   -0.4270  -55.9890 C   0  0  0  0  0  0  0  0  0  0  0  0
   10.6280   -1.8150  -55.3380 C   0  0  2  0  0  0  0  0  0  0  0  0
   11.2270   -2.8190  -56.3110 C   0  0  0  0  0  0  0  0  0  0  0  0
    9.3320   -2.2820  -54.9450 O   0  0  0  0  0  0  0  0  0  0  0  0
    8.7448   -1.5403  -51.7242 H   0  0  0  0  0  0  0  0  0  0  0  0
    8.4026   -3.1313  -52.4846 H   0  0  0  0  0  0  0  0  0  0  0  0
   10.0755   -2.4771  -52.4846 H   0  0  0  0  0  0  0  0  0  0  0  0
    7.6525   -1.4874  -54.0533 H   0  0  0  0  0  0  0  0  0  0  0  0
    8.3976    0.5708  -53.4358 H   0  0  0  0  0  0  0  0  0  0  0  0
   10.1096    0.0223  -53.2473 H   0  0  0  0  0  0  0  0  0  0  0  0
    6.8300    0.6470  -54.9160 H   0  0  0  0  0  0  0  0  0  0  0  0
    8.4430    3.6090  -60.3680 H   0  0  0  0  0  0  0  0  0  0  0  0
   12.9926    4.2315  -59.2327 H   0  0  0  0  0  0  0  0  0  0  0  0
   13.2022    3.2744  -56.9389 H   0  0  0  0  0  0  0  0  0  0  0  0
   11.2306    2.1828  -55.8464 H   0  0  0  0  0  0  0  0  0  0  0  0
   10.1103   -0.5518  -57.0189 H   0  0  0  0  0  0  0  0  0  0  0  0
   11.4574    0.0698  -55.9836 H   0  0  0  0  0  0  0  0  0  0  0  0
   11.2986   -1.7213  -54.4711 H   0  0  0  0  0  0  0  0  0  0  0  0
   11.7113   -3.6308  -55.7484 H   0  0  0  0  0  0  0  0  0  0  0  0
   10.4301   -3.2363  -56.9441 H   0  0  0  0  0  0  0  0  0  0  0  0
   11.9727   -2.3160  -56.9441 H   0  0  0  0  0  0  0  0  0  0  0  0
  1  2  1  0
  2  3  1  0
  3  4  1  0
  4  5  1  0
  5  6  2  0
  6  7  1  0
  7  8  1  0
  7  9  2  0
  9 10  1  0
 10 11  2  0
 10 12  1  0
 12 13  1  0
 13 14  2  0
 14 15  1  0
 14 16  1  0
 16 17  2  0
 17 18  1  0
 18 19  2  0
 19 20  1  0
  4 21  1  0
 21 22  1  0
 22 23  1  0
 22 24  1  0
 24  2  1  0
 20  5  1  0
 20  9  1  0
 19 13  1  0
  1 25  1  0
  1 26  1  0
  1 27  1  0
  2 28  1  6
  3 29  1  0
  3 30  1  0
  6 31  1  0
 12 32  1  0
 16 33  1  0
 17 34  1  0
 18 35  1  0
 21 36  1  0
 21 37  1  0
 22 38  1  1
 23 39  1  0
 23 40  1  0
 23 41  1  0
M  CHG  1   6   1
M  END
>  <meeko>  (52) 
{"is_sidechain": false}

$$$$

     RDKit          3D

 41 44  0  0  0  0  0  0  0  0999 V2000
   12.1240    2.0400  -56.8550 O   0  0  0  0  0  0  0  0  0  0  0  0
   10.7960    2.0870  -57.0580 C   0  0  0  0  0  0  0  0  0  0  0  0
    9.9970    1.5250  -56.2270 N   0  0  0  0  0  0  0  0  0  0  0  0
    8.6020    1.5870  -56.4630 C   0  0  0  0  0  0  0  0  0  0  0  0
    7.7260    0.9680  -55.5510 C   0  0  0  0  0  0  0  0  0  0  0  0
    8.3180    0.1400  -54.1520 Cl  0  0  0  0  0  0  0  0  0  0  0  0
    6.3450    1.0050  -55.7440 C   0  0  0  0  0  0  0  0  0  0  0  0
    5.8190    1.6590  -56.8550 C   0  0  0  0  0  0  0  0  0  0  0  0
    6.6660    2.2810  -57.7750 C   0  0  0  0  0  0  0  0  0  0  0  0
    8.0530    2.2500  -57.5900 C   0  0  0  0  0  0  0  0  0  0  0  0
    8.9880    2.8570  -58.4790 N   0  0  0  0  0  0  0  0  0  0  0  0
    8.8840    3.5800  -59.6590 C   0  0  0  0  0  0  0  0  0  0  0  0
    7.4290    4.0150  -60.5050 S   0  0  0  0  0  0  0  0  0  0  0  0
    7.1900    2.5290  -61.5270 C   0  0  0  0  0  0  0  0  0  0  0  0
    5.9620    2.6940  -62.4220 C   0  0  0  0  0  0  0  0  0  0  0  0
    4.9140    1.6450  -62.1080 N   0  0  0  0  0  0  0  0  0  0  0  0
    4.3110    1.7850  -60.7160 C   0  0  0  0  0  0  0  0  0  0  0  0
    2.8100    1.8360  -60.9390 C   0  0  0  0  0  0  0  0  0  0  0  0
    2.6040    1.0880  -62.2390 C   0  0  0  0  0  0  0  0  0  0  0  0
    3.7580    1.5790  -63.0880 C   0  0  0  0  0  0  0  0  0  0  0  0
   10.0610    3.9390  -60.1240 N   0  0  0  0  0  0  0  0  0  0  0  0
   10.9730    3.4460  -59.2380 C   0  0  0  0  0  0  0  0  0  0  0  0
   12.6420    3.6880  -59.4630 Cl  0  0  0  0  0  0  0  0  0  0  0  0
   10.3470    2.7760  -58.2160 C   0  0  0  0  0  0  0  0  0  0  0  0
   12.3870    1.8620  -55.9400 H   0  0  0  0  0  0  0  0  0  0  0  0
    5.6736    0.5190  -55.0208 H   0  0  0  0  0  0  0  0  0  0  0  0
    4.7302    1.6859  -57.0090 H   0  0  0  0  0  0  0  0  0  0  0  0
    6.2413    2.7973  -58.6485 H   0  0  0  0  0  0  0  0  0  0  0  0
    8.0792    2.3738  -62.1556 H   0  0  0  0  0  0  0  0  0  0  0  0
    7.0390    1.6613  -60.8679 H   0  0  0  0  0  0  0  0  0  0  0  0
    5.5306    3.6928  -62.2598 H   0  0  0  0  0  0  0  0  0  0  0  0
    6.2743    2.5737  -63.4699 H   0  0  0  0  0  0  0  0  0  0  0  0
    5.3780    0.7250  -62.1280 H   0  0  0  0  0  0  0  0  0  0  0  0
    4.5794    0.9211  -60.0901 H   0  0  0  0  0  0  0  0  0  0  0  0
    4.6810    2.6800  -60.1944 H   0  0  0  0  0  0  0  0  0  0  0  0
    2.2758    1.3408  -60.1147 H   0  0  0  0  0  0  0  0  0  0  0  0
    2.4239    2.8652  -60.9785 H   0  0  0  0  0  0  0  0  0  0  0  0
    2.6591    0.0003  -62.0845 H   0  0  0  0  0  0  0  0  0  0  0  0
    1.6187    1.2652  -62.6947 H   0  0  0  0  0  0  0  0  0  0  0  0
    3.9739    0.8738  -63.9041 H   0  0  0  0  0  0  0  0  0  0  0  0
    3.5525    2.5439  -63.5745 H   0  0  0  0  0  0  0  0  0  0  0  0
  1  2  1  0
  2  3  2  0
  3  4  1  0
  4  5  2  0
  5  6  1  0
  5  7  1  0
  7  8  2  0
  8  9  1  0
  9 10  2  0
 10 11  1  0
 11 12  1  0
 12 13  1  0
 13 14  1  0
 14 15  1  0
 15 16  1  0
 16 17  1  0
 17 18  1  0
 18 19  1  0
 19 20  1  0
 12 21  2  0
 21 22  1  0
 22 23  1  0
 22 24  2  0
 24  2  1  0
 10  4  1  0
 24 11  1  0
 20 16  1  0
  1 25  1  0
  7 26  1  0
  8 27  1  0
  9 28  1  0
 14 29  1  0
 14 30  1  0
 15 31  1  0
 15 32  1  0
 16 33  1  0
 17 34  1  0
 17 35  1  0
 18 36  1  0
 18 37  1  0
 19 38  1  0
 19 39  1  0
 20 40  1  0
 20 41  1  0
M  CHG  1  16   1
M  END
>  <meeko>  (53) 
{"is_sidechain": false}

$$$$

     RDKit          3D

 41 44  0  0  0  0  0  0  0  0999 V2000
   12.1690    2.1170  -56.8470 O   0  0  0  0  0  0  0  0  0  0  0  0
   10.9710    2.1680  -57.0970 C   0  0  0  0  0  0  0  0  0  0  0  0
   10.0560    1.5860  -56.2630 N   0  0  0  0  0  0  0  0  0  0  0  0
    8.6650    1.5940  -56.4750 C   0  0  0  0  0  0  0  0  0  0  0  0
    7.8240    0.9580  -55.5470 C   0  0  0  0  0  0  0  0  0  0  0  0
    8.4660    0.1700  -54.1510 Cl  0  0  0  0  0  0  0  0  0  0  0  0
    6.4460    0.9520  -55.7420 C   0  0  0  0  0  0  0  0  0  0  0  0
    5.9050    1.5800  -56.8620 C   0  0  0  0  0  0  0  0  0  0  0  0
    6.7350    2.2170  -57.7930 C   0  0  0  0  0  0  0  0  0  0  0  0
    8.1200    2.2310  -57.6080 C   0  0  0  0  0  0  0  0  0  0  0  0
    9.0450    2.8520  -58.4970 N   0  0  0  0  0  0  0  0  0  0  0  0
    8.9210    3.5590  -59.6880 C   0  0  0  0  0  0  0  0  0  0  0  0
    7.4570    3.9780  -60.5100 S   0  0  0  0  0  0  0  0  0  0  0  0
    7.2260    2.5940  -61.6800 C   0  0  0  0  0  0  0  0  0  0  0  0
    5.9210    2.6810  -62.4850 C   0  0  0  0  0  0  0  0  0  0  0  0
    4.9000    1.6780  -62.0260 N   0  0  0  0  0  0  0  0  0  0  0  0
    4.2570    1.9460  -60.6800 C   0  0  0  0  0  0  0  0  0  0  0  0
    2.7640    1.8170  -60.9240 C   0  0  0  0  0  0  0  0  0  0  0  0
    2.6600    0.9200  -62.1410 C   0  0  0  0  0  0  0  0  0  0  0  0
    3.7930    1.4140  -63.0130 C   0  0  0  0  0  0  0  0  0  0  0  0
   10.0830    3.9580  -60.1580 N   0  0  0  0  0  0  0  0  0  0  0  0
   11.0160    3.4900  -59.2680 C   0  0  0  0  0  0  0  0  0  0  0  0
   12.6710    3.7880  -59.5200 Cl  0  0  0  0  0  0  0  0  0  0  0  0
   10.4070    2.8140  -58.2410 C   0  0  0  0  0  0  0  0  0  0  0  0
   10.4290    1.1210  -55.4410 H   0  0  0  0  0  0  0  0  0  0  0  0
    5.7872    0.4539  -55.0155 H   0  0  0  0  0  0  0  0  0  0  0  0
    4.8159    1.5754  -57.0164 H   0  0  0  0  0  0  0  0  0  0  0  0
    6.2949    2.7082  -58.6733 H   0  0  0  0  0  0  0  0  0  0  0  0
    8.0701    2.5903  -62.3853 H   0  0  0  0  0  0  0  0  0  0  0  0
    7.1758    1.6716  -61.0828 H   0  0  0  0  0  0  0  0  0  0  0  0
    5.5011    3.6912  -62.3701 H   0  0  0  0  0  0  0  0  0  0  0  0
    6.1588    2.4622  -63.5364 H   0  0  0  0  0  0  0  0  0  0  0  0
    5.4050    0.7730  -61.9140 H   0  0  0  0  0  0  0  0  0  0  0  0
    4.5925    1.2070  -59.9375 H   0  0  0  0  0  0  0  0  0  0  0  0
    4.5265    2.9361  -60.2836 H   0  0  0  0  0  0  0  0  0  0  0  0
    2.2658    1.3576  -60.0575 H   0  0  0  0  0  0  0  0  0  0  0  0
    2.2773    2.7915  -61.0772 H   0  0  0  0  0  0  0  0  0  0  0  0
    2.8001   -0.1365  -61.8687 H   0  0  0  0  0  0  0  0  0  0  0  0
    1.6776    0.9636  -62.6339 H   0  0  0  0  0  0  0  0  0  0  0  0
    4.0910    0.6476  -63.7436 H   0  0  0  0  0  0  0  0  0  0  0  0
    3.5246    2.3006  -63.6062 H   0  0  0  0  0  0  0  0  0  0  0  0
  1  2  2  0
  2  3  1  0
  3  4  1  0
  4  5  2  0
  5  6  1  0
  5  7  1  0
  7  8  2  0
  8  9  1  0
  9 10  2  0
 10 11  1  0
 11 12  1  0
 12 13  1  0
 13 14  1  0
 14 15  1  0
 15 16  1  0
 16 17  1  0
 17 18  1  0
 18 19  1  0
 19 20  1  0
 12 21  2  0
 21 22  1  0
 22 23  1  0
 22 24  2  0
 24  2  1  0
 10  4  1  0
 24 11  1  0
 20 16  1  0
  3 25  1  0
  7 26  1  0
  8 27  1  0
  9 28  1  0
 14 29  1  0
 14 30  1  0
 15 31  1  0
 15 32  1  0
 16 33  1  0
 17 34  1  0
 17 35  1  0
 18 36  1  0
 18 37  1  0
 19 38  1  0
 19 39  1  0
 20 40  1  0
 20 41  1  0
M  CHG  1  16   1
M  END
>  <meeko>  (54) 
{"is_sidechain": false}

$$$$

     RDKit          3D

 42 45  0  0  0  0  0  0  0  0999 V2000
    5.9310    3.3950  -59.8770 O   0  0  0  0  0  0  0  0  0  0  0  0
    7.0120    3.1070  -59.1330 C   0  0  0  0  0  0  0  0  0  0  0  0
    8.1770    3.4180  -59.5920 N   0  0  0  0  0  0  0  0  0  0  0  0
    9.3380    3.1620  -58.8030 C   0  0  0  0  0  0  0  0  0  0  0  0
   10.5960    3.5840  -59.2580 C   0  0  0  0  0  0  0  0  0  0  0  0
   10.7810    4.3570  -60.7910 Cl  0  0  0  0  0  0  0  0  0  0  0  0
   11.7430    3.3950  -58.4790 C   0  0  0  0  0  0  0  0  0  0  0  0
   11.6520    2.7910  -57.2230 C   0  0  0  0  0  0  0  0  0  0  0  0
   10.4200    2.3490  -56.7420 C   0  0  0  0  0  0  0  0  0  0  0  0
    9.2930    2.5130  -57.5380 C   0  0  0  0  0  0  0  0  0  0  0  0
    7.9600    2.0620  -57.1070 N   0  0  0  0  0  0  0  0  0  0  0  0
    7.5220    1.3390  -56.0780 C   0  0  0  0  0  0  0  0  0  0  0  0
    8.3950    0.3820  -54.8560 S   0  0  0  0  0  0  0  0  0  0  0  0
    7.2330   -1.0020  -54.5970 C   0  0  0  0  0  0  0  0  0  0  0  0
    7.9680   -2.1760  -53.9200 C   0  0  0  0  0  0  0  0  0  0  0  0
    7.3650   -2.6210  -52.6100 N   0  0  0  0  0  0  0  0  0  0  0  0
    7.4020   -4.1060  -52.2980 C   0  0  0  0  0  0  0  0  0  0  0  0
    7.3390   -4.1480  -50.7850 C   0  0  0  0  0  0  0  0  0  0  0  0
    8.1900   -2.9590  -50.3800 C   0  0  0  0  0  0  0  0  0  0  0  0
    7.7810   -1.8710  -51.3550 C   0  0  0  0  0  0  0  0  0  0  0  0
    6.1950    1.3670  -56.0830 N   0  0  0  0  0  0  0  0  0  0  0  0
    5.7310    2.0270  -57.1930 C   0  0  0  0  0  0  0  0  0  0  0  0
    4.0570    2.2170  -57.5990 Cl  0  0  0  0  0  0  0  0  0  0  0  0
    6.8350    2.4390  -57.8880 C   0  0  0  0  0  0  0  0  0  0  0  0
    5.3010    2.6830  -60.0730 H   0  0  0  0  0  0  0  0  0  0  0  0
   12.7218    3.7240  -58.8580 H   0  0  0  0  0  0  0  0  0  0  0  0
   12.5566    2.6633  -56.6102 H   0  0  0  0  0  0  0  0  0  0  0  0
   10.3418    1.8791  -55.7505 H   0  0  0  0  0  0  0  0  0  0  0  0
    6.4050   -0.6691  -53.9539 H   0  0  0  0  0  0  0  0  0  0  0  0
    6.8359   -1.3317  -55.5684 H   0  0  0  0  0  0  0  0  0  0  0  0
    7.9579   -3.0318  -54.6110 H   0  0  0  0  0  0  0  0  0  0  0  0
    8.9831   -1.8191  -53.6915 H   0  0  0  0  0  0  0  0  0  0  0  0
    6.3570   -2.4120  -52.7030 H   0  0  0  0  0  0  0  0  0  0  0  0
    6.5390   -4.6233  -52.7425 H   0  0  0  0  0  0  0  0  0  0  0  0
    8.2918   -4.6085  -52.7051 H   0  0  0  0  0  0  0  0  0  0  0  0
    6.3046   -4.0348  -50.4282 H   0  0  0  0  0  0  0  0  0  0  0  0
    7.6908   -5.1000  -50.3607 H   0  0  0  0  0  0  0  0  0  0  0  0
    7.9746   -2.6579  -49.3442 H   0  0  0  0  0  0  0  0  0  0  0  0
    9.2677   -3.1766  -50.4137 H   0  0  0  0  0  0  0  0  0  0  0  0
    6.9396   -1.2864  -50.9546 H   0  0  0  0  0  0  0  0  0  0  0  0
    8.5930   -1.1539  -51.5462 H   0  0  0  0  0  0  0  0  0  0  0  0
    5.6040    0.9600  -55.3650 H   0  0  0  0  0  0  0  0  0  0  0  0
  1  2  1  0
  2  3  2  0
  3  4  1  0
  4  5  2  0
  5  6  1  0
  5  7  1  0
  7  8  2  0
  8  9  1  0
  9 10  2  0
 10 11  1  0
 11 12  1  0
 12 13  1  0
 13 14  1  0
 14 15  1  0
 15 16  1  0
 16 17  1  0
 17 18  1  0
 18 19  1  0
 19 20  1  0
 12 21  2  0
 21 22  1  0
 22 23  1  0
 22 24  2  0
 24  2  1  0
 10  4  1  0
 24 11  1  0
 20 16  1  0
  1 25  1  0
  7 26  1  0
  8 27  1  0
  9 28  1  0
 14 29  1  0
 14 30  1  0
 15 31  1  0
 15 32  1  0
 16 33  1  0
 17 34  1  0
 17 35  1  0
 18 36  1  0
 18 37  1  0
 19 38  1  0
 19 39  1  0
 20 40  1  0
 20 41  1  0
 21 42  1  0
M  CHG  2  16   1  21   1
M  END
>  <meeko>  (55) 
{"is_sidechain": false}

$$$$

     RDKit          3D

 42 45  0  0  0  0  0  0  0  0999 V2000
    6.0990    3.6040  -59.6660 O   0  0  0  0  0  0  0  0  0  0  0  0
    7.0310    3.2280  -58.9640 C   0  0  0  0  0  0  0  0  0  0  0  0
    8.3250    3.5610  -59.3090 N   0  0  0  0  0  0  0  0  0  0  0  0
    9.5030    3.2260  -58.5970 C   0  0  0  0  0  0  0  0  0  0  0  0
   10.7450    3.6760  -59.0600 C   0  0  0  0  0  0  0  0  0  0  0  0
   10.8720    4.6160  -60.5010 Cl  0  0  0  0  0  0  0  0  0  0  0  0
   11.9100    3.3720  -58.3540 C   0  0  0  0  0  0  0  0  0  0  0  0
   11.8390    2.6220  -57.1780 C   0  0  0  0  0  0  0  0  0  0  0  0
   10.6080    2.1580  -56.7030 C   0  0  0  0  0  0  0  0  0  0  0  0
    9.4580    2.4520  -57.4200 C   0  0  0  0  0  0  0  0  0  0  0  0
    8.1190    2.0100  -57.0150 N   0  0  0  0  0  0  0  0  0  0  0  0
    7.6710    1.2410  -56.0190 C   0  0  0  0  0  0  0  0  0  0  0  0
    8.5490    0.3120  -54.7680 S   0  0  0  0  0  0  0  0  0  0  0  0
    7.3390   -1.0030  -54.4100 C   0  0  0  0  0  0  0  0  0  0  0  0
    7.0970   -1.2500  -52.9060 C   0  0  0  0  0  0  0  0  0  0  0  0
    7.4780   -2.6380  -52.4380 N   0  0  0  0  0  0  0  0  0  0  0  0
    8.8040   -2.6560  -51.6570 C   0  0  0  0  0  0  0  0  0  0  0  0
    8.5070   -3.4120  -50.3750 C   0  0  0  0  0  0  0  0  0  0  0  0
    7.3230   -4.2850  -50.7240 C   0  0  0  0  0  0  0  0  0  0  0  0
    6.4690   -3.3610  -51.5650 C   0  0  0  0  0  0  0  0  0  0  0  0
    6.3460    1.2280  -56.0530 N   0  0  0  0  0  0  0  0  0  0  0  0
    5.8840    1.9470  -57.1270 C   0  0  0  0  0  0  0  0  0  0  0  0
    4.2030    2.1310  -57.5120 Cl  0  0  0  0  0  0  0  0  0  0  0  0
    6.9910    2.4360  -57.7710 C   0  0  0  0  0  0  0  0  0  0  0  0
    8.4190    4.1320  -60.1500 H   0  0  0  0  0  0  0  0  0  0  0  0
   12.8845    3.7233  -58.7240 H   0  0  0  0  0  0  0  0  0  0  0  0
   12.7594    2.3942  -56.6204 H   0  0  0  0  0  0  0  0  0  0  0  0
   10.5530    1.5692  -55.7755 H   0  0  0  0  0  0  0  0  0  0  0  0
    6.3804   -0.7244  -54.8721 H   0  0  0  0  0  0  0  0  0  0  0  0
    7.7557   -1.9350  -54.8196 H   0  0  0  0  0  0  0  0  0  0  0  0
    7.6892   -0.5188  -52.3363 H   0  0  0  0  0  0  0  0  0  0  0  0
    6.0151   -1.1446  -52.7376 H   0  0  0  0  0  0  0  0  0  0  0  0
    7.6510   -3.2360  -53.2570 H   0  0  0  0  0  0  0  0  0  0  0  0
    9.5845   -3.1717  -52.2358 H   0  0  0  0  0  0  0  0  0  0  0  0
    9.1740   -1.6398  -51.4560 H   0  0  0  0  0  0  0  0  0  0  0  0
    9.3693   -4.0258  -50.0756 H   0  0  0  0  0  0  0  0  0  0  0  0
    8.3000   -2.7406  -49.5286 H   0  0  0  0  0  0  0  0  0  0  0  0
    7.6369   -5.1687  -51.2989 H   0  0  0  0  0  0  0  0  0  0  0  0
    6.7990   -4.6847  -49.8432 H   0  0  0  0  0  0  0  0  0  0  0  0
    5.7578   -3.9335  -52.1785 H   0  0  0  0  0  0  0  0  0  0  0  0
    5.8583   -2.6748  -50.9599 H   0  0  0  0  0  0  0  0  0  0  0  0
    5.7360    0.7920  -55.3720 H   0  0  0  0  0  0  0  0  0  0  0  0
  1  2  2  0
  2  3  1  0
  3  4  1  0
  4  5  2  0
  5  6  1  0
  5  7  1  0
  7  8  2  0
  8  9  1  0
  9 10  2  0
 10 11  1  0
 11 12  1  0
 12 13  1  0
 13 14  1  0
 14 15  1  0
 15 16  1  0
 16 17  1  0
 17 18  1  0
 18 19  1  0
 19 20  1  0
 12 21  2  0
 21 22  1  0
 22 23  1  0
 22 24  2  0
 24  2  1  0
 10  4  1  0
 24 11  1  0
 20 16  1  0
  3 25  1  0
  7 26  1  0
  8 27  1  0
  9 28  1  0
 14 29  1  0
 14 30  1  0
 15 31  1  0
 15 32  1  0
 16 33  1  0
 17 34  1  0
 17 35  1  0
 18 36  1  0
 18 37  1  0
 19 38  1  0
 19 39  1  0
 20 40  1  0
 20 41  1  0
 21 42  1  0
M  CHG  2  16   1  21   1
M  END
>  <meeko>  (56) 
{"is_sidechain": false}

$$$$

     RDKit          3D

 45 48  0  0  0  0  0  0  0  0999 V2000
    7.2680    2.6250  -62.3730 O   0  0  0  0  0  0  0  0  0  0  0  0
    7.9390    2.6570  -61.2090 C   0  0  0  0  0  0  0  0  0  0  0  0
    9.1520    3.0910  -61.1700 N   0  0  0  0  0  0  0  0  0  0  0  0
    9.8230    3.0810  -59.9280 C   0  0  0  0  0  0  0  0  0  0  0  0
   11.1570    3.4880  -59.8990 C   0  0  0  0  0  0  0  0  0  0  0  0
   11.8830    3.4610  -58.7070 C   0  0  0  0  0  0  0  0  0  0  0  0
   11.2810    3.0140  -57.5300 C   0  0  0  0  0  0  0  0  0  0  0  0
    9.9440    2.6080  -57.5360 C   0  0  0  0  0  0  0  0  0  0  0  0
    9.2160    2.6600  -58.7270 C   0  0  0  0  0  0  0  0  0  0  0  0
    7.8630    2.2680  -58.8280 N   0  0  0  0  0  0  0  0  0  0  0  0
    6.9170    1.8990  -57.8840 C   0  0  0  0  0  0  0  0  0  0  0  0
    7.0750    1.9760  -56.5340 N   0  0  0  0  0  0  0  0  0  0  0  0
    6.1460    1.1380  -55.7690 C   0  0  0  0  0  0  0  0  0  0  0  0
    6.8820   -0.1120  -55.2870 C   0  0  0  0  0  0  0  0  0  0  0  0
    8.2960    0.2390  -54.8370 C   0  0  0  0  0  0  0  0  0  0  0  0
    8.5600   -0.2970  -53.4530 N   0  0  0  0  0  0  0  0  0  0  0  0
    9.5700   -1.4390  -53.4220 C   0  0  0  0  0  0  0  0  0  0  0  0
    8.8700   -2.5660  -52.6830 C   0  0  0  0  0  0  0  0  0  0  0  0
    7.8720   -1.8570  -51.7930 C   0  0  0  0  0  0  0  0  0  0  0  0
    7.3320   -0.7730  -52.7000 C   0  0  0  0  0  0  0  0  0  0  0  0
    5.8080    1.4960  -58.4580 N   0  0  0  0  0  0  0  0  0  0  0  0
    5.9890    1.6950  -59.8020 C   0  0  0  0  0  0  0  0  0  0  0  0
    4.7600    1.3520  -60.9280 Cl  0  0  0  0  0  0  0  0  0  0  0  0
    7.2350    2.2170  -60.0550 C   0  0  0  0  0  0  0  0  0  0  0  0
    6.3410    2.9020  -62.3050 H   0  0  0  0  0  0  0  0  0  0  0  0
   11.6414    3.8335  -60.8242 H   0  0  0  0  0  0  0  0  0  0  0  0
   12.9317    3.7927  -58.6954 H   0  0  0  0  0  0  0  0  0  0  0  0
   11.8603    2.9812  -56.5955 H   0  0  0  0  0  0  0  0  0  0  0  0
    9.4688    2.2504  -56.6106 H   0  0  0  0  0  0  0  0  0  0  0  0
    8.0290    1.6750  -56.3180 H   0  0  0  0  0  0  0  0  0  0  0  0
    5.7699    1.7013  -54.9023 H   0  0  0  0  0  0  0  0  0  0  0  0
    5.2984    0.8466  -56.4067 H   0  0  0  0  0  0  0  0  0  0  0  0
    6.3323   -0.5521  -54.4419 H   0  0  0  0  0  0  0  0  0  0  0  0
    6.9419   -0.8311  -56.1173 H   0  0  0  0  0  0  0  0  0  0  0  0
    9.0189   -0.2015  -55.5394 H   0  0  0  0  0  0  0  0  0  0  0  0
    8.4015    1.3338  -54.8197 H   0  0  0  0  0  0  0  0  0  0  0  0
    8.9750    0.4650  -52.8960 H   0  0  0  0  0  0  0  0  0  0  0  0
    9.8316   -1.7511  -54.4439 H   0  0  0  0  0  0  0  0  0  0  0  0
   10.5095   -1.1452  -52.9311 H   0  0  0  0  0  0  0  0  0  0  0  0
    8.3574   -3.2367  -53.3882 H   0  0  0  0  0  0  0  0  0  0  0  0
    9.5689   -3.1979  -52.1153 H   0  0  0  0  0  0  0  0  0  0  0  0
    7.0722   -2.5399  -51.4707 H   0  0  0  0  0  0  0  0  0  0  0  0
    8.3135   -1.4694  -50.8630 H   0  0  0  0  0  0  0  0  0  0  0  0
    6.5790   -1.1783  -53.3920 H   0  0  0  0  0  0  0  0  0  0  0  0
    6.8274    0.0345  -52.1492 H   0  0  0  0  0  0  0  0  0  0  0  0
  1  2  1  0
  2  3  2  0
  3  4  1  0
  4  5  2  0
  5  6  1  0
  6  7  2  0
  7  8  1  0
  8  9  2  0
  9 10  1  0
 10 11  1  0
 11 12  1  0
 12 13  1  0
 13 14  1  0
 14 15  1  0
 15 16  1  0
 16 17  1  0
 17 18  1  0
 18 19  1  0
 19 20  1  0
 11 21  2  0
 21 22  1  0
 22 23  1  0
 22 24  2  0
 24  2  1  0
  9  4  1  0
 24 10  1  0
 20 16  1  0
  1 25  1  0
  5 26  1  0
  6 27  1  0
  7 28  1  0
  8 29  1  0
 12 30  1  0
 13 31  1  0
 13 32  1  0
 14 33  1  0
 14 34  1  0
 15 35  1  0
 15 36  1  0
 16 37  1  0
 17 38  1  0
 17 39  1  0
 18 40  1  0
 18 41  1  0
 19 42  1  0
 19 43  1  0
 20 44  1  0
 20 45  1  0
M  CHG  1  16   1
M  END
>  <meeko>  (57) 
{"is_sidechain": false}

$$$$

     RDKit          3D

 45 48  0  0  0  0  0  0  0  0999 V2000
    6.8100    3.2810  -60.9410 O   0  0  0  0  0  0  0  0  0  0  0  0
    7.6420    3.0970  -60.0590 C   0  0  0  0  0  0  0  0  0  0  0  0
    8.9640    3.4020  -60.2850 N   0  0  0  0  0  0  0  0  0  0  0  0
    9.9790    3.2460  -59.3290 C   0  0  0  0  0  0  0  0  0  0  0  0
   11.2800    3.6320  -59.6520 C   0  0  0  0  0  0  0  0  0  0  0  0
   12.2910    3.5110  -58.6990 C   0  0  0  0  0  0  0  0  0  0  0  0
   12.0020    3.0130  -57.4270 C   0  0  0  0  0  0  0  0  0  0  0  0
   10.7010    2.6190  -57.1010 C   0  0  0  0  0  0  0  0  0  0  0  0
    9.6920    2.7220  -58.0590 C   0  0  0  0  0  0  0  0  0  0  0  0
    8.3480    2.3470  -57.8210 N   0  0  0  0  0  0  0  0  0  0  0  0
    7.7260    1.7390  -56.7390 C   0  0  0  0  0  0  0  0  0  0  0  0
    8.3570    1.2340  -55.6440 N   0  0  0  0  0  0  0  0  0  0  0  0
    7.6160    0.1530  -54.9840 C   0  0  0  0  0  0  0  0  0  0  0  0
    8.1480   -0.0300  -53.5640 C   0  0  0  0  0  0  0  0  0  0  0  0
    9.1450   -1.1800  -53.5100 C   0  0  0  0  0  0  0  0  0  0  0  0
    8.6220   -2.2970  -52.6400 N   0  0  0  0  0  0  0  0  0  0  0  0
    9.6350   -2.8940  -51.6810 C   0  0  0  0  0  0  0  0  0  0  0  0
    8.7880   -3.3670  -50.5200 C   0  0  0  0  0  0  0  0  0  0  0  0
    7.7710   -2.2540  -50.3800 C   0  0  0  0  0  0  0  0  0  0  0  0
    7.4050   -1.9070  -51.8120 C   0  0  0  0  0  0  0  0  0  0  0  0
    6.4290    1.6750  -56.9060 N   0  0  0  0  0  0  0  0  0  0  0  0
    6.1880    2.1710  -58.1650 C   0  0  0  0  0  0  0  0  0  0  0  0
    4.6140    2.2240  -58.8060 Cl  0  0  0  0  0  0  0  0  0  0  0  0
    7.3640    2.5600  -58.7640 C   0  0  0  0  0  0  0  0  0  0  0  0
    9.1680    3.7940  -61.1950 H   0  0  0  0  0  0  0  0  0  0  0  0
   11.5071    4.0294  -60.6523 H   0  0  0  0  0  0  0  0  0  0  0  0
   13.3196    3.8089  -58.9503 H   0  0  0  0  0  0  0  0  0  0  0  0
   12.8026    2.9302  -56.6772 H   0  0  0  0  0  0  0  0  0  0  0  0
   10.4746    2.2308  -56.0970 H   0  0  0  0  0  0  0  0  0  0  0  0
    8.4490    2.0010  -54.9730 H   0  0  0  0  0  0  0  0  0  0  0  0
    6.5472    0.4103  -54.9456 H   0  0  0  0  0  0  0  0  0  0  0  0
    7.7460   -0.7815  -55.5495 H   0  0  0  0  0  0  0  0  0  0  0  0
    8.6466    0.8963  -53.2424 H   0  0  0  0  0  0  0  0  0  0  0  0
    7.3048   -0.2595  -52.8959 H   0  0  0  0  0  0  0  0  0  0  0  0
    9.3112   -1.5623  -54.5279 H   0  0  0  0  0  0  0  0  0  0  0  0
   10.0891   -0.8107  -53.0830 H   0  0  0  0  0  0  0  0  0  0  0  0
    8.3140   -3.0590  -53.2610 H   0  0  0  0  0  0  0  0  0  0  0  0
   10.1685   -3.7357  -52.1468 H   0  0  0  0  0  0  0  0  0  0  0  0
   10.4128   -2.1771  -51.3792 H   0  0  0  0  0  0  0  0  0  0  0  0
    8.2992   -4.3254  -50.7493 H   0  0  0  0  0  0  0  0  0  0  0  0
    9.3659   -3.5503  -49.6022 H   0  0  0  0  0  0  0  0  0  0  0  0
    6.8873   -2.5998  -49.8236 H   0  0  0  0  0  0  0  0  0  0  0  0
    8.1631   -1.3905  -49.8226 H   0  0  0  0  0  0  0  0  0  0  0  0
    6.5209   -2.4772  -52.1333 H   0  0  0  0  0  0  0  0  0  0  0  0
    7.1539   -0.8421  -51.9260 H   0  0  0  0  0  0  0  0  0  0  0  0
  1  2  2  0
  2  3  1  0
  3  4  1  0
  4  5  2  0
  5  6  1  0
  6  7  2  0
  7  8  1  0
  8  9  2  0
  9 10  1  0
 10 11  1  0
 11 12  1  0
 12 13  1  0
 13 14  1  0
 14 15  1  0
 15 16  1  0
 16 17  1  0
 17 18  1  0
 18 19  1  0
 19 20  1  0
 11 21  2  0
 21 22  1  0
 22 23  1  0
 22 24  2  0
 24  2  1  0
  9  4  1  0
 24 10  1  0
 20 16  1  0
  3 25  1  0
  5 26  1  0
  6 27  1  0
  7 28  1  0
  8 29  1  0
 12 30  1  0
 13 31  1  0
 13 32  1  0
 14 33  1  0
 14 34  1  0
 15 35  1  0
 15 36  1  0
 16 37  1  0
 17 38  1  0
 17 39  1  0
 18 40  1  0
 18 41  1  0
 19 42  1  0
 19 43  1  0
 20 44  1  0
 20 45  1  0
M  CHG  1  16   1
M  END
>  <meeko>  (58) 
{"is_sidechain": false}

$$$$

     RDKit          3D

 45 48  0  0  0  0  0  0  0  0999 V2000
    6.9990    3.5190  -60.9220 O   0  0  0  0  0  0  0  0  0  0  0  0
    7.9770    3.3000  -60.0280 C   0  0  0  0  0  0  0  0  0  0  0  0
    9.1590    3.7560  -60.2740 N   0  0  0  0  0  0  0  0  0  0  0  0
   10.1700    3.5080  -59.3110 C   0  0  0  0  0  0  0  0  0  0  0  0
   11.4490    4.0030  -59.5810 C   0  0  0  0  0  0  0  0  0  0  0  0
   12.4940    3.7980  -58.6830 C   0  0  0  0  0  0  0  0  0  0  0  0
   12.2670    3.0940  -57.5030 C   0  0  0  0  0  0  0  0  0  0  0  0
   10.9940    2.5920  -57.2160 C   0  0  0  0  0  0  0  0  0  0  0  0
    9.9300    2.7860  -58.1060 C   0  0  0  0  0  0  0  0  0  0  0  0
    8.6180    2.3010  -57.8730 N   0  0  0  0  0  0  0  0  0  0  0  0
    8.0850    1.5690  -56.7920 C   0  0  0  0  0  0  0  0  0  0  0  0
    8.6840    1.1580  -55.7330 N   0  0  0  0  0  0  0  0  0  0  0  0
    7.9180    0.4130  -54.7470 C   0  0  0  0  0  0  0  0  0  0  0  0
    8.8670   -0.6220  -54.1400 C   0  0  0  0  0  0  0  0  0  0  0  0
    8.1540   -1.9360  -53.8650 C   0  0  0  0  0  0  0  0  0  0  0  0
    7.9820   -2.1280  -52.3800 N   0  0  0  0  0  0  0  0  0  0  0  0
    6.7620   -2.9350  -51.9610 C   0  0  0  0  0  0  0  0  0  0  0  0
    7.2880   -3.9680  -50.9770 C   0  0  0  0  0  0  0  0  0  0  0  0
    8.5850   -3.3790  -50.4610 C   0  0  0  0  0  0  0  0  0  0  0  0
    9.1800   -2.7570  -51.7050 C   0  0  0  0  0  0  0  0  0  0  0  0
    6.7480    1.4020  -57.1560 N   0  0  0  0  0  0  0  0  0  0  0  0
    6.4880    1.9910  -58.3710 C   0  0  0  0  0  0  0  0  0  0  0  0
    4.9370    1.9140  -59.0080 Cl  0  0  0  0  0  0  0  0  0  0  0  0
    7.6140    2.5470  -58.8260 C   0  0  0  0  0  0  0  0  0  0  0  0
    6.3210    2.8280  -60.9620 H   0  0  0  0  0  0  0  0  0  0  0  0
   11.6321    4.5599  -60.5118 H   0  0  0  0  0  0  0  0  0  0  0  0
   13.4968    4.1915  -58.9055 H   0  0  0  0  0  0  0  0  0  0  0  0
   13.0924    2.9323  -56.7941 H   0  0  0  0  0  0  0  0  0  0  0  0
   10.8262    2.0383  -56.2804 H   0  0  0  0  0  0  0  0  0  0  0  0
    7.5468    1.0912  -53.9646 H   0  0  0  0  0  0  0  0  0  0  0  0
    7.0468   -0.0738  -55.2096 H   0  0  0  0  0  0  0  0  0  0  0  0
    9.6941   -0.8040  -54.8420 H   0  0  0  0  0  0  0  0  0  0  0  0
    9.2443   -0.2270  -53.1852 H   0  0  0  0  0  0  0  0  0  0  0  0
    7.1655   -1.9220  -54.3474 H   0  0  0  0  0  0  0  0  0  0  0  0
    8.7546   -2.7643  -54.2691 H   0  0  0  0  0  0  0  0  0  0  0  0
    7.8740   -1.1920  -51.9620 H   0  0  0  0  0  0  0  0  0  0  0  0
    6.0171   -2.2857  -51.4777 H   0  0  0  0  0  0  0  0  0  0  0  0
    6.2626   -3.4033  -52.8219 H   0  0  0  0  0  0  0  0  0  0  0  0
    6.5747   -4.1179  -50.1531 H   0  0  0  0  0  0  0  0  0  0  0  0
    7.4341   -4.9529  -51.4446 H   0  0  0  0  0  0  0  0  0  0  0  0
    8.3968   -2.6195  -49.6879 H   0  0  0  0  0  0  0  0  0  0  0  0
    9.2433   -4.1194  -49.9831 H   0  0  0  0  0  0  0  0  0  0  0  0
    9.9316   -1.9968  -51.4457 H   0  0  0  0  0  0  0  0  0  0  0  0
    9.7043   -3.4833  -52.3434 H   0  0  0  0  0  0  0  0  0  0  0  0
    6.0320    0.9240  -56.6380 H   0  0  0  0  0  0  0  0  0  0  0  0
  1  2  1  0
  2  3  2  0
  3  4  1  0
  4  5  2  0
  5  6  1  0
  6  7  2  0
  7  8  1  0
  8  9  2  0
  9 10  1  0
 10 11  1  0
 11 12  2  0
 12 13  1  0
 13 14  1  0
 14 15  1  0
 15 16  1  0
 16 17  1  0
 17 18  1  0
 18 19  1  0
 19 20  1  0
 11 21  1  0
 21 22  1  0
 22 23  1  0
 22 24  2  0
 24  2  1  0
  9  4  1  0
 24 10  1  0
 20 16  1  0
  1 25  1  0
  5 26  1  0
  6 27  1  0
  7 28  1  0
  8 29  1  0
 13 30  1  0
 13 31  1  0
 14 32  1  0
 14 33  1  0
 15 34  1  0
 15 35  1  0
 16 36  1  0
 17 37  1  0
 17 38  1  0
 18 39  1  0
 18 40  1  0
 19 41  1  0
 19 42  1  0
 20 43  1  0
 20 44  1  0
 21 45  1  0
M  CHG  1  16   1
M  END
>  <meeko>  (59) 
{"is_sidechain": false}

$$$$

     RDKit          3D

 45 48  0  0  0  0  0  0  0  0999 V2000
    6.4180    2.6120  -61.0830 O   0  0  0  0  0  0  0  0  0  0  0  0
    7.2810    2.5870  -60.0640 C   0  0  0  0  0  0  0  0  0  0  0  0
    8.5370    2.7360  -60.3130 N   0  0  0  0  0  0  0  0  0  0  0  0
    9.3990    2.7570  -59.1850 C   0  0  0  0  0  0  0  0  0  0  0  0
   10.7320    3.1170  -59.4050 C   0  0  0  0  0  0  0  0  0  0  0  0
   11.6080    3.2760  -58.3340 C   0  0  0  0  0  0  0  0  0  0  0  0
   11.1480    3.1050  -57.0320 C   0  0  0  0  0  0  0  0  0  0  0  0
    9.8210    2.7360  -56.7960 C   0  0  0  0  0  0  0  0  0  0  0  0
    8.9410    2.4990  -57.8560 C   0  0  0  0  0  0  0  0  0  0  0  0
    7.5850    2.1090  -57.6830 N   0  0  0  0  0  0  0  0  0  0  0  0
    6.8430    1.6860  -56.5610 C   0  0  0  0  0  0  0  0  0  0  0  0
    7.0540    1.0280  -55.4780 N   0  0  0  0  0  0  0  0  0  0  0  0
    8.3330    0.3940  -55.2210 C   0  0  0  0  0  0  0  0  0  0  0  0
    8.3380   -0.1500  -53.7930 C   0  0  0  0  0  0  0  0  0  0  0  0
    9.3100   -1.2900  -53.4900 C   0  0  0  0  0  0  0  0  0  0  0  0
    8.7110   -2.3660  -52.6180 N   0  0  0  0  0  0  0  0  0  0  0  0
    9.6740   -2.9780  -51.6160 C   0  0  0  0  0  0  0  0  0  0  0  0
    8.7810   -3.3770  -50.4600 C   0  0  0  0  0  0  0  0  0  0  0  0
    7.8180   -2.2140  -50.3750 C   0  0  0  0  0  0  0  0  0  0  0  0
    7.4970   -1.9000  -51.8240 C   0  0  0  0  0  0  0  0  0  0  0  0
    5.5250    1.9780  -56.9260 N   0  0  0  0  0  0  0  0  0  0  0  0
    5.4530    2.2630  -58.2750 C   0  0  0  0  0  0  0  0  0  0  0  0
    3.9440    2.3730  -58.9990 Cl  0  0  0  0  0  0  0  0  0  0  0  0
    6.6970    2.3530  -58.7500 C   0  0  0  0  0  0  0  0  0  0  0  0
    6.9350    2.6010  -61.9070 H   0  0  0  0  0  0  0  0  0  0  0  0
   11.0918    3.2759  -60.4323 H   0  0  0  0  0  0  0  0  0  0  0  0
   12.6610    3.5361  -58.5170 H   0  0  0  0  0  0  0  0  0  0  0  0
   11.8319    3.2610  -56.1847 H   0  0  0  0  0  0  0  0  0  0  0  0
    9.4637    2.6305  -55.7610 H   0  0  0  0  0  0  0  0  0  0  0  0
    8.4850   -0.4321  -55.9313 H   0  0  0  0  0  0  0  0  0  0  0  0
    9.1437    1.1274  -55.3432 H   0  0  0  0  0  0  0  0  0  0  0  0
    8.5849    0.6847  -53.1204 H   0  0  0  0  0  0  0  0  0  0  0  0
    7.3365   -0.5811  -53.6472 H   0  0  0  0  0  0  0  0  0  0  0  0
    9.6228   -1.7449  -54.4414 H   0  0  0  0  0  0  0  0  0  0  0  0
   10.1589   -0.8582  -52.9396 H   0  0  0  0  0  0  0  0  0  0  0  0
    8.3840   -3.1230  -53.2320 H   0  0  0  0  0  0  0  0  0  0  0  0
   10.1791   -3.8568  -52.0433 H   0  0  0  0  0  0  0  0  0  0  0  0
   10.4758   -2.2867  -51.3173 H   0  0  0  0  0  0  0  0  0  0  0  0
    8.2512   -4.3172  -50.6728 H   0  0  0  0  0  0  0  0  0  0  0  0
    9.3299   -3.5616  -49.5248 H   0  0  0  0  0  0  0  0  0  0  0  0
    6.9086   -2.4982  -49.8253 H   0  0  0  0  0  0  0  0  0  0  0  0
    8.2399   -1.3521  -49.8374 H   0  0  0  0  0  0  0  0  0  0  0  0
    6.5958   -2.4430  -52.1449 H   0  0  0  0  0  0  0  0  0  0  0  0
    7.2958   -0.8292  -51.9755 H   0  0  0  0  0  0  0  0  0  0  0  0
    4.7380    1.5300  -56.4810 H   0  0  0  0  0  0  0  0  0  0  0  0
  1  2  1  0
  2  3  2  0
  3  4  1  0
  4  5  2  0
  5  6  1  0
  6  7  2  0
  7  8  1  0
  8  9  2  0
  9 10  1  0
 10 11  1  0
 11 12  2  0
 12 13  1  0
 13 14  1  0
 14 15  1  0
 15 16  1  0
 16 17  1  0
 17 18  1  0
 18 19  1  0
 19 20  1  0
 11 21  1  0
 21 22  1  0
 22 23  1  0
 22 24  2  0
 24  2  1  0
  9  4  1  0
 24 10  1  0
 20 16  1  0
  1 25  1  0
  5 26  1  0
  6 27  1  0
  7 28  1  0
  8 29  1  0
 13 30  1  0
 13 31  1  0
 14 32  1  0
 14 33  1  0
 15 34  1  0
 15 35  1  0
 16 36  1  0
 17 37  1  0
 17 38  1  0
 18 39  1  0
 18 40  1  0
 19 41  1  0
 19 42  1  0
 20 43  1  0
 20 44  1  0
 21 45  1  0
M  CHG  1  16   1
M  END
>  <meeko>  (60) 
{"is_sidechain": false}

$$$$

     RDKit          3D

 45 48  0  0  0  0  0  0  0  0999 V2000
    7.0890    3.3760  -61.2290 O   0  0  0  0  0  0  0  0  0  0  0  0
    8.0140    3.2210  -60.2370 C   0  0  0  0  0  0  0  0  0  0  0  0
    9.2770    3.7380  -60.4400 N   0  0  0  0  0  0  0  0  0  0  0  0
   10.3040    3.5040  -59.4740 C   0  0  0  0  0  0  0  0  0  0  0  0
   11.5960    3.9850  -59.6990 C   0  0  0  0  0  0  0  0  0  0  0  0
   12.5810    3.8080  -58.7270 C   0  0  0  0  0  0  0  0  0  0  0  0
   12.2760    3.1690  -57.5250 C   0  0  0  0  0  0  0  0  0  0  0  0
   10.9810    2.7050  -57.2720 C   0  0  0  0  0  0  0  0  0  0  0  0
    9.9770    2.8710  -58.2300 C   0  0  0  0  0  0  0  0  0  0  0  0
    8.6380    2.4350  -58.0550 N   0  0  0  0  0  0  0  0  0  0  0  0
    8.0200    1.7400  -57.0400 C   0  0  0  0  0  0  0  0  0  0  0  0
    8.5040    1.3510  -55.9200 N   0  0  0  0  0  0  0  0  0  0  0  0
    7.7560    0.4780  -55.0200 C   0  0  0  0  0  0  0  0  0  0  0  0
    8.5960    0.0920  -53.8040 C   0  0  0  0  0  0  0  0  0  0  0  0
    8.0970   -1.1640  -53.0940 C   0  0  0  0  0  0  0  0  0  0  0  0
    9.0940   -2.2800  -53.1480 N   0  0  0  0  0  0  0  0  0  0  0  0
   10.5230   -1.8580  -53.3890 C   0  0  0  0  0  0  0  0  0  0  0  0
   11.1490   -3.1060  -53.9730 C   0  0  0  0  0  0  0  0  0  0  0  0
   10.0670   -3.6190  -54.9000 C   0  0  0  0  0  0  0  0  0  0  0  0
    8.7680   -3.3660  -54.1530 C   0  0  0  0  0  0  0  0  0  0  0  0
    6.6710    1.5060  -57.3310 N   0  0  0  0  0  0  0  0  0  0  0  0
    6.5040    1.9850  -58.5490 C   0  0  0  0  0  0  0  0  0  0  0  0
    4.9680    1.8900  -59.2630 Cl  0  0  0  0  0  0  0  0  0  0  0  0
    7.7300    2.6070  -59.0810 C   0  0  0  0  0  0  0  0  0  0  0  0
    6.6750    4.2460  -61.0980 H   0  0  0  0  0  0  0  0  0  0  0  0
    9.6030    3.8350  -61.3950 H   0  0  0  0  0  0  0  0  0  0  0  0
   11.8361    4.5018  -60.6399 H   0  0  0  0  0  0  0  0  0  0  0  0
   13.6023    4.1738  -58.9091 H   0  0  0  0  0  0  0  0  0  0  0  0
   13.0620    3.0286  -56.7684 H   0  0  0  0  0  0  0  0  0  0  0  0
   10.7524    2.2086  -56.3174 H   0  0  0  0  0  0  0  0  0  0  0  0
    6.8514    1.0032  -54.6796 H   0  0  0  0  0  0  0  0  0  0  0  0
    7.4886   -0.4392  -55.5652 H   0  0  0  0  0  0  0  0  0  0  0  0
    9.6299   -0.0832  -54.1363 H   0  0  0  0  0  0  0  0  0  0  0  0
    8.5243    0.9209  -53.0845 H   0  0  0  0  0  0  0  0  0  0  0  0
    7.8966   -0.9191  -52.0405 H   0  0  0  0  0  0  0  0  0  0  0  0
    7.1849   -1.5017  -53.6078 H   0  0  0  0  0  0  0  0  0  0  0  0
    9.0710   -2.7420  -52.2180 H   0  0  0  0  0  0  0  0  0  0  0  0
   10.5738   -1.0198  -54.0996 H   0  0  0  0  0  0  0  0  0  0  0  0
   11.0302   -1.5015  -52.4804 H   0  0  0  0  0  0  0  0  0  0  0  0
   12.0670   -2.8661  -54.5294 H   0  0  0  0  0  0  0  0  0  0  0  0
   11.4544   -3.8385  -53.2113 H   0  0  0  0  0  0  0  0  0  0  0  0
   10.0799   -3.0697  -55.8529 H   0  0  0  0  0  0  0  0  0  0  0  0
   10.2029   -4.6813  -55.1510 H   0  0  0  0  0  0  0  0  0  0  0  0
    7.9838   -3.0276  -54.8462 H   0  0  0  0  0  0  0  0  0  0  0  0
    8.3890   -4.2768  -53.6664 H   0  0  0  0  0  0  0  0  0  0  0  0
  1  2  1  0
  2  3  1  0
  3  4  1  0
  4  5  2  0
  5  6  1  0
  6  7  2  0
  7  8  1  0
  8  9  2  0
  9 10  1  0
 10 11  1  0
 11 12  2  0
 12 13  1  0
 13 14  1  0
 14 15  1  0
 15 16  1  0
 16 17  1  0
 17 18  1  0
 18 19  1  0
 19 20  1  0
 11 21  1  0
 21 22  2  0
 22 23  1  0
 22 24  1  0
 24  2  2  0
  9  4  1  0
 24 10  1  0
 20 16  1  0
  1 25  1  0
  3 26  1  0
  5 27  1  0
  6 28  1  0
  7 29  1  0
  8 30  1  0
 13 31  1  0
 13 32  1  0
 14 33  1  0
 14 34  1  0
 15 35  1  0
 15 36  1  0
 16 37  1  0
 17 38  1  0
 17 39  1  0
 18 40  1  0
 18 41  1  0
 19 42  1  0
 19 43  1  0
 20 44  1  0
 20 45  1  0
M  CHG  1  16   1
M  END
>  <meeko>  (61) 
{"is_sidechain": false}

$$$$

     RDKit          3D

 45 48  0  0  0  0  0  0  0  0999 V2000
    6.6890    2.8900  -61.1220 O   0  0  0  0  0  0  0  0  0  0  0  0
    7.5790    2.7060  -60.1050 C   0  0  0  0  0  0  0  0  0  0  0  0
    8.9240    2.8340  -60.3900 N   0  0  0  0  0  0  0  0  0  0  0  0
    9.8540    2.9090  -59.3070 C   0  0  0  0  0  0  0  0  0  0  0  0
   11.1860    3.2510  -59.5590 C   0  0  0  0  0  0  0  0  0  0  0  0
   12.0830    3.3710  -58.5010 C   0  0  0  0  0  0  0  0  0  0  0  0
   11.6500    3.1590  -57.1920 C   0  0  0  0  0  0  0  0  0  0  0  0
   10.3300    2.7800  -56.9320 C   0  0  0  0  0  0  0  0  0  0  0  0
    9.4250    2.5840  -57.9750 C   0  0  0  0  0  0  0  0  0  0  0  0
    8.0730    2.1760  -57.8060 N   0  0  0  0  0  0  0  0  0  0  0  0
    7.3290    1.7130  -56.7410 C   0  0  0  0  0  0  0  0  0  0  0  0
    7.5190    1.1040  -55.6380 N   0  0  0  0  0  0  0  0  0  0  0  0
    8.7830    0.5250  -55.2290 C   0  0  0  0  0  0  0  0  0  0  0  0
    8.5650   -0.1490  -53.8640 C   0  0  0  0  0  0  0  0  0  0  0  0
    9.4340   -1.3920  -53.6490 C   0  0  0  0  0  0  0  0  0  0  0  0
    8.8020   -2.3310  -52.6640 N   0  0  0  0  0  0  0  0  0  0  0  0
    9.7220   -2.9710  -51.6600 C   0  0  0  0  0  0  0  0  0  0  0  0
    8.7790   -3.3820  -50.5490 C   0  0  0  0  0  0  0  0  0  0  0  0
    7.8290   -2.2030  -50.4710 C   0  0  0  0  0  0  0  0  0  0  0  0
    7.6060   -1.7960  -51.9180 C   0  0  0  0  0  0  0  0  0  0  0  0
    5.9610    1.8270  -56.9910 N   0  0  0  0  0  0  0  0  0  0  0  0
    5.8680    2.1930  -58.2490 C   0  0  0  0  0  0  0  0  0  0  0  0
    4.3390    2.3840  -58.9580 Cl  0  0  0  0  0  0  0  0  0  0  0  0
    7.1970    2.3930  -58.8590 C   0  0  0  0  0  0  0  0  0  0  0  0
    6.9480    2.2910  -61.8430 H   0  0  0  0  0  0  0  0  0  0  0  0
    9.1650    3.4220  -61.1800 H   0  0  0  0  0  0  0  0  0  0  0  0
   11.5246    3.4249  -60.5910 H   0  0  0  0  0  0  0  0  0  0  0  0
   13.1332    3.6330  -58.6973 H   0  0  0  0  0  0  0  0  0  0  0  0
   12.3537    3.2913  -56.3569 H   0  0  0  0  0  0  0  0  0  0  0  0
   10.0010    2.6346  -55.8925 H   0  0  0  0  0  0  0  0  0  0  0  0
    9.1104   -0.2212  -55.9679 H   0  0  0  0  0  0  0  0  0  0  0  0
    9.5587    1.3016  -55.1572 H   0  0  0  0  0  0  0  0  0  0  0  0
    8.7995    0.5802  -53.0745 H   0  0  0  0  0  0  0  0  0  0  0  0
    7.5161   -0.4785  -53.8304 H   0  0  0  0  0  0  0  0  0  0  0  0
    9.5609   -1.9119  -54.6100 H   0  0  0  0  0  0  0  0  0  0  0  0
   10.4079   -1.0719  -53.2502 H   0  0  0  0  0  0  0  0  0  0  0  0
    8.4510   -3.1230  -53.2480 H   0  0  0  0  0  0  0  0  0  0  0  0
   10.2306   -3.8460  -52.0910 H   0  0  0  0  0  0  0  0  0  0  0  0
   10.5267   -2.3022  -51.3208 H   0  0  0  0  0  0  0  0  0  0  0  0
    8.2431   -4.3079  -50.8048 H   0  0  0  0  0  0  0  0  0  0  0  0
    9.2891   -3.5974  -49.5985 H   0  0  0  0  0  0  0  0  0  0  0  0
    6.8801   -2.4991  -50.0000 H   0  0  0  0  0  0  0  0  0  0  0  0
    8.2334   -1.3802  -49.8632 H   0  0  0  0  0  0  0  0  0  0  0  0
    6.6779   -2.2411  -52.3059 H   0  0  0  0  0  0  0  0  0  0  0  0
    7.5039   -0.7064  -52.0291 H   0  0  0  0  0  0  0  0  0  0  0  0
  1  2  1  0
  2  3  1  0
  3  4  1  0
  4  5  2  0
  5  6  1  0
  6  7  2  0
  7  8  1  0
  8  9  2  0
  9 10  1  0
 10 11  1  0
 11 12  2  0
 12 13  1  0
 13 14  1  0
 14 15  1  0
 15 16  1  0
 16 17  1  0
 17 18  1  0
 18 19  1  0
 19 20  1  0
 11 21  1  0
 21 22  2  0
 22 23  1  0
 22 24  1  0
 24  2  2  0
  9  4  1  0
 24 10  1  0
 20 16  1  0
  1 25  1  0
  3 26  1  0
  5 27  1  0
  6 28  1  0
  7 29  1  0
  8 30  1  0
 13 31  1  0
 13 32  1  0
 14 33  1  0
 14 34  1  0
 15 35  1  0
 15 36  1  0
 16 37  1  0
 17 38  1  0
 17 39  1  0
 18 40  1  0
 18 41  1  0
 19 42  1  0
 19 43  1  0
 20 44  1  0
 20 45  1  0
M  CHG  1  16   1
M  END
>  <meeko>  (62) 
{"is_sidechain": false}

$$$$

     RDKit          3D

 45 48  0  0  0  0  0  0  0  0999 V2000
    7.0130    3.5200  -60.9790 O   0  0  0  0  0  0  0  0  0  0  0  0
    7.8380    3.2780  -60.1060 C   0  0  0  0  0  0  0  0  0  0  0  0
    9.1460    3.6810  -60.2120 N   0  0  0  0  0  0  0  0  0  0  0  0
   10.1360    3.4290  -59.2430 C   0  0  0  0  0  0  0  0  0  0  0  0
   11.4330    3.8900  -59.4810 C   0  0  0  0  0  0  0  0  0  0  0  0
   12.4330    3.6510  -58.5410 C   0  0  0  0  0  0  0  0  0  0  0  0
   12.1350    2.9560  -57.3710 C   0  0  0  0  0  0  0  0  0  0  0  0
   10.8350    2.4960  -57.1330 C   0  0  0  0  0  0  0  0  0  0  0  0
    9.8120    2.7220  -58.0590 C   0  0  0  0  0  0  0  0  0  0  0  0
    8.4770    2.2880  -57.8820 N   0  0  0  0  0  0  0  0  0  0  0  0
    7.8880    1.5630  -56.8230 C   0  0  0  0  0  0  0  0  0  0  0  0
    8.4390    1.1320  -55.7450 N   0  0  0  0  0  0  0  0  0  0  0  0
    7.6190    0.4080  -54.7870 C   0  0  0  0  0  0  0  0  0  0  0  0
    8.5270    0.0280  -53.6140 C   0  0  0  0  0  0  0  0  0  0  0  0
    9.1750   -1.3410  -53.7740 C   0  0  0  0  0  0  0  0  0  0  0  0
    8.6150   -2.3370  -52.7900 N   0  0  0  0  0  0  0  0  0  0  0  0
    9.6570   -2.9030  -51.8480 C   0  0  0  0  0  0  0  0  0  0  0  0
    8.8390   -3.3290  -50.6500 C   0  0  0  0  0  0  0  0  0  0  0  0
    7.8580   -2.1850  -50.4980 C   0  0  0  0  0  0  0  0  0  0  0  0
    7.4750   -1.8170  -51.9220 C   0  0  0  0  0  0  0  0  0  0  0  0
    6.5620    1.4300  -57.2300 N   0  0  0  0  0  0  0  0  0  0  0  0
    6.3570    2.0120  -58.4610 C   0  0  0  0  0  0  0  0  0  0  0  0
    4.8250    1.9340  -59.1400 Cl  0  0  0  0  0  0  0  0  0  0  0  0
    7.5120    2.5450  -58.8710 C   0  0  0  0  0  0  0  0  0  0  0  0
    9.3830    4.1850  -61.0570 H   0  0  0  0  0  0  0  0  0  0  0  0
   11.6635    4.4389  -60.4059 H   0  0  0  0  0  0  0  0  0  0  0  0
   13.4566    4.0106  -58.7224 H   0  0  0  0  0  0  0  0  0  0  0  0
   12.9260    2.7678  -56.6301 H   0  0  0  0  0  0  0  0  0  0  0  0
   10.6148    1.9489  -56.2044 H   0  0  0  0  0  0  0  0  0  0  0  0
    6.7960    1.0475  -54.4354 H   0  0  0  0  0  0  0  0  0  0  0  0
    7.1782   -0.4885  -55.2474 H   0  0  0  0  0  0  0  0  0  0  0  0
    9.3223    0.7832  -53.5290 H   0  0  0  0  0  0  0  0  0  0  0  0
    7.8967   -0.0126  -52.7134 H   0  0  0  0  0  0  0  0  0  0  0  0
    8.9915   -1.7060  -54.7953 H   0  0  0  0  0  0  0  0  0  0  0  0
   10.2532   -1.2365  -53.5828 H   0  0  0  0  0  0  0  0  0  0  0  0
    8.2370   -3.1360  -53.3130 H   0  0  0  0  0  0  0  0  0  0  0  0
   10.1729   -3.7629  -52.3001 H   0  0  0  0  0  0  0  0  0  0  0  0
   10.4501   -2.1833  -51.5969 H   0  0  0  0  0  0  0  0  0  0  0  0
    8.3164   -4.2776  -50.8427 H   0  0  0  0  0  0  0  0  0  0  0  0
    9.4434   -3.5105  -49.7490 H   0  0  0  0  0  0  0  0  0  0  0  0
    6.9732   -2.5052  -49.9283 H   0  0  0  0  0  0  0  0  0  0  0  0
    8.2899   -1.3351  -49.9492 H   0  0  0  0  0  0  0  0  0  0  0  0
    6.5263   -2.2978  -52.2027 H   0  0  0  0  0  0  0  0  0  0  0  0
    7.3290   -0.7333  -52.0413 H   0  0  0  0  0  0  0  0  0  0  0  0
    5.8310    0.9060  -56.7840 H   0  0  0  0  0  0  0  0  0  0  0  0
  1  2  2  0
  2  3  1  0
  3  4  1  0
  4  5  2  0
  5  6  1  0
  6  7  2  0
  7  8  1  0
  8  9  2  0
  9 10  1  0
 10 11  1  0
 11 12  2  0
 12 13  1  0
 13 14  1  0
 14 15  1  0
 15 16  1  0
 16 17  1  0
 17 18  1  0
 18 19  1  0
 19 20  1  0
 11 21  1  0
 21 22  1  0
 22 23  1  0
 22 24  2  0
 24  2  1  0
  9  4  1  0
 24 10  1  0
 20 16  1  0
  3 25  1  0
  5 26  1  0
  6 27  1  0
  7 28  1  0
  8 29  1  0
 13 30  1  0
 13 31  1  0
 14 32  1  0
 14 33  1  0
 15 34  1  0
 15 35  1  0
 16 36  1  0
 17 37  1  0
 17 38  1  0
 18 39  1  0
 18 40  1  0
 19 41  1  0
 19 42  1  0
 20 43  1  0
 20 44  1  0
 21 45  1  0
M  CHG  1  16   1
M  END
>  <meeko>  (63) 
{"is_sidechain": false}

$$$$

     RDKit          3D

 45 48  0  0  0  0  0  0  0  0999 V2000
    6.4530    2.6310  -61.3180 O   0  0  0  0  0  0  0  0  0  0  0  0
    7.1070    2.5560  -60.2870 C   0  0  0  0  0  0  0  0  0  0  0  0
    8.4800    2.6450  -60.2900 N   0  0  0  0  0  0  0  0  0  0  0  0
    9.2660    2.6820  -59.1230 C   0  0  0  0  0  0  0  0  0  0  0  0
   10.6220    2.9910  -59.2400 C   0  0  0  0  0  0  0  0  0  0  0  0
   11.3910    3.1580  -58.0910 C   0  0  0  0  0  0  0  0  0  0  0  0
   10.7990    3.0400  -56.8360 C   0  0  0  0  0  0  0  0  0  0  0  0
    9.4430    2.7100  -56.7240 C   0  0  0  0  0  0  0  0  0  0  0  0
    8.6660    2.4660  -57.8590 C   0  0  0  0  0  0  0  0  0  0  0  0
    7.3020    2.0960  -57.8210 N   0  0  0  0  0  0  0  0  0  0  0  0
    6.4610    1.7060  -56.7560 C   0  0  0  0  0  0  0  0  0  0  0  0
    6.5740    1.0490  -55.6600 N   0  0  0  0  0  0  0  0  0  0  0  0
    7.8080    0.3900  -55.2850 C   0  0  0  0  0  0  0  0  0  0  0  0
    7.6760   -0.0020  -53.8090 C   0  0  0  0  0  0  0  0  0  0  0  0
    6.7580   -1.2100  -53.6520 C   0  0  0  0  0  0  0  0  0  0  0  0
    7.4170   -2.3790  -52.9610 N   0  0  0  0  0  0  0  0  0  0  0  0
    8.7360   -2.8490  -53.5490 C   0  0  0  0  0  0  0  0  0  0  0  0
    9.7280   -2.6990  -52.4130 C   0  0  0  0  0  0  0  0  0  0  0  0
    8.8920   -2.9900  -51.1830 C   0  0  0  0  0  0  0  0  0  0  0  0
    7.6020   -2.2440  -51.4600 C   0  0  0  0  0  0  0  0  0  0  0  0
    5.1860    2.0260  -57.2260 N   0  0  0  0  0  0  0  0  0  0  0  0
    5.2250    2.2940  -58.5770 C   0  0  0  0  0  0  0  0  0  0  0  0
    3.7800    2.4310  -59.4190 Cl  0  0  0  0  0  0  0  0  0  0  0  0
    6.5050    2.3460  -58.9570 C   0  0  0  0  0  0  0  0  0  0  0  0
    8.9000    2.8280  -61.1930 H   0  0  0  0  0  0  0  0  0  0  0  0
   11.0805    3.1020  -60.2337 H   0  0  0  0  0  0  0  0  0  0  0  0
   12.4645    3.3828  -58.1746 H   0  0  0  0  0  0  0  0  0  0  0  0
   11.3990    3.2067  -55.9293 H   0  0  0  0  0  0  0  0  0  0  0  0
    8.9825    2.6418  -55.7273 H   0  0  0  0  0  0  0  0  0  0  0  0
    7.9595   -0.5078  -55.9022 H   0  0  0  0  0  0  0  0  0  0  0  0
    8.6707    1.0549  -55.4390 H   0  0  0  0  0  0  0  0  0  0  0  0
    8.6709   -0.2504  -53.4110 H   0  0  0  0  0  0  0  0  0  0  0  0
    7.2440    0.8448  -53.2555 H   0  0  0  0  0  0  0  0  0  0  0  0
    5.8802   -0.9064  -53.0626 H   0  0  0  0  0  0  0  0  0  0  0  0
    6.4848   -1.5434  -54.6640 H   0  0  0  0  0  0  0  0  0  0  0  0
    6.7670   -3.1660  -53.0880 H   0  0  0  0  0  0  0  0  0  0  0  0
    8.6673   -3.8989  -53.8700 H   0  0  0  0  0  0  0  0  0  0  0  0
    9.0275   -2.2733  -54.4398 H   0  0  0  0  0  0  0  0  0  0  0  0
   10.5515   -3.4218  -52.5103 H   0  0  0  0  0  0  0  0  0  0  0  0
   10.2060   -1.7087  -52.3855 H   0  0  0  0  0  0  0  0  0  0  0  0
    8.7089   -4.0694  -51.0763 H   0  0  0  0  0  0  0  0  0  0  0  0
    9.3783   -2.6799  -50.2463 H   0  0  0  0  0  0  0  0  0  0  0  0
    6.7609   -2.7025  -50.9192 H   0  0  0  0  0  0  0  0  0  0  0  0
    7.6391   -1.1954  -51.1298 H   0  0  0  0  0  0  0  0  0  0  0  0
    4.3540    1.6350  -56.8140 H   0  0  0  0  0  0  0  0  0  0  0  0
  1  2  2  0
  2  3  1  0
  3  4  1  0
  4  5  2  0
  5  6  1  0
  6  7  2  0
  7  8  1  0
  8  9  2  0
  9 10  1  0
 10 11  1  0
 11 12  2  0
 12 13  1  0
 13 14  1  0
 14 15  1  0
 15 16  1  0
 16 17  1  0
 17 18  1  0
 18 19  1  0
 19 20  1  0
 11 21  1  0
 21 22  1  0
 22 23  1  0
 22 24  2  0
 24  2  1  0
  9  4  1  0
 24 10  1  0
 20 16  1  0
  3 25  1  0
  5 26  1  0
  6 27  1  0
  7 28  1  0
  8 29  1  0
 13 30  1  0
 13 31  1  0
 14 32  1  0
 14 33  1  0
 15 34  1  0
 15 35  1  0
 16 36  1  0
 17 37  1  0
 17 38  1  0
 18 39  1  0
 18 40  1  0
 19 41  1  0
 19 42  1  0
 20 43  1  0
 20 44  1  0
 21 45  1  0
M  CHG  1  16   1
M  END
>  <meeko>  (64) 
{"is_sidechain": false}

$$$$

     RDKit          3D

 46 49  0  0  0  0  0  0  0  0999 V2000
   10.1770    4.4000  -60.5960 O   0  0  0  0  0  0  0  0  0  0  0  0
    9.4590    3.7470  -59.6770 C   0  0  0  0  0  0  0  0  0  0  0  0
    8.1750    3.6860  -59.8000 N   0  0  0  0  0  0  0  0  0  0  0  0
    7.4600    3.0050  -58.7710 C   0  0  0  0  0  0  0  0  0  0  0  0
    6.0680    3.0170  -58.8310 C   0  0  0  0  0  0  0  0  0  0  0  0
    5.3100    2.4310  -57.8140 C   0  0  0  0  0  0  0  0  0  0  0  0
    5.9350    1.8470  -56.7100 C   0  0  0  0  0  0  0  0  0  0  0  0
    7.3290    1.8100  -56.6210 C   0  0  0  0  0  0  0  0  0  0  0  0
    8.0700    2.3480  -57.6620 C   0  0  0  0  0  0  0  0  0  0  0  0
    9.5380    2.3460  -57.6570 N   0  0  0  0  0  0  0  0  0  0  0  0
   10.4540    1.7390  -56.9150 C   0  0  0  0  0  0  0  0  0  0  0  0
   10.2840    0.6850  -56.0840 N   0  0  0  0  0  0  0  0  0  0  0  0
   11.1650   -0.4850  -56.0900 C   0  0  0  0  0  0  0  0  0  0  0  0
   10.5780   -1.6990  -55.3600 C   0  0  0  0  0  0  0  0  0  0  0  0
   11.4670   -2.9410  -55.4730 C   0  0  0  0  0  0  0  0  0  0  0  0
   11.0880   -3.7750  -56.6700 N   0  0  0  0  0  0  0  0  0  0  0  0
   11.1650   -5.2830  -56.4150 C   0  0  0  0  0  0  0  0  0  0  0  0
   12.0440   -5.8340  -57.5240 C   0  0  0  0  0  0  0  0  0  0  0  0
   11.8730   -4.8420  -58.6550 C   0  0  0  0  0  0  0  0  0  0  0  0
   11.8970   -3.5130  -57.9330 C   0  0  0  0  0  0  0  0  0  0  0  0
   11.6230    2.2880  -57.1990 N   0  0  0  0  0  0  0  0  0  0  0  0
   11.5180    3.1270  -58.2890 C   0  0  0  0  0  0  0  0  0  0  0  0
   12.8700    3.9320  -59.0180 Cl  0  0  0  0  0  0  0  0  0  0  0  0
   10.1980    3.1340  -58.6330 C   0  0  0  0  0  0  0  0  0  0  0  0
    9.5630    4.8870  -61.1770 H   0  0  0  0  0  0  0  0  0  0  0  0
    5.5622    3.4912  -59.6850 H   0  0  0  0  0  0  0  0  0  0  0  0
    4.2122    2.4296  -57.8834 H   0  0  0  0  0  0  0  0  0  0  0  0
    5.3251    1.4127  -55.9042 H   0  0  0  0  0  0  0  0  0  0  0  0
    7.8262    1.3650  -55.7465 H   0  0  0  0  0  0  0  0  0  0  0  0
    9.6100    0.8190  -55.3430 H   0  0  0  0  0  0  0  0  0  0  0  0
   11.3599   -0.7683  -57.1349 H   0  0  0  0  0  0  0  0  0  0  0  0
   12.0833   -0.2002  -55.5556 H   0  0  0  0  0  0  0  0  0  0  0  0
   10.4590   -1.4466  -54.2960 H   0  0  0  0  0  0  0  0  0  0  0  0
    9.6128   -1.9363  -55.8312 H   0  0  0  0  0  0  0  0  0  0  0  0
   12.5155   -2.6239  -55.5740 H   0  0  0  0  0  0  0  0  0  0  0  0
   11.3317   -3.5500  -54.5670 H   0  0  0  0  0  0  0  0  0  0  0  0
   10.1040   -3.5890  -56.9110 H   0  0  0  0  0  0  0  0  0  0  0  0
   11.6143   -5.4848  -55.4314 H   0  0  0  0  0  0  0  0  0  0  0  0
   10.1687   -5.7493  -56.4122 H   0  0  0  0  0  0  0  0  0  0  0  0
   13.0948   -5.8826  -57.2022 H   0  0  0  0  0  0  0  0  0  0  0  0
   11.7669   -6.8582  -57.8141 H   0  0  0  0  0  0  0  0  0  0  0  0
   12.6992   -4.9167  -59.3773 H   0  0  0  0  0  0  0  0  0  0  0  0
   10.9587   -5.0036  -59.2448 H   0  0  0  0  0  0  0  0  0  0  0  0
   12.9278   -3.2197  -57.6850 H   0  0  0  0  0  0  0  0  0  0  0  0
   11.4882   -2.6908  -58.5387 H   0  0  0  0  0  0  0  0  0  0  0  0
   12.5060    2.1140  -56.7410 H   0  0  0  0  0  0  0  0  0  0  0  0
  1  2  1  0
  2  3  2  0
  3  4  1  0
  4  5  2  0
  5  6  1  0
  6  7  2  0
  7  8  1  0
  8  9  2  0
  9 10  1  0
 10 11  1  0
 11 12  1  0
 12 13  1  0
 13 14  1  0
 14 15  1  0
 15 16  1  0
 16 17  1  0
 17 18  1  0
 18 19  1  0
 19 20  1  0
 11 21  2  0
 21 22  1  0
 22 23  1  0
 22 24  2  0
 24  2  1  0
  9  4  1  0
 24 10  1  0
 20 16  1  0
  1 25  1  0
  5 26  1  0
  6 27  1  0
  7 28  1  0
  8 29  1  0
 12 30  1  0
 13 31  1  0
 13 32  1  0
 14 33  1  0
 14 34  1  0
 15 35  1  0
 15 36  1  0
 16 37  1  0
 17 38  1  0
 17 39  1  0
 18 40  1  0
 18 41  1  0
 19 42  1  0
 19 43  1  0
 20 44  1  0
 20 45  1  0
 21 46  1  0
M  CHG  2  16   1  21   1
M  END
>  <meeko>  (65) 
{"is_sidechain": false}

$$$$

     RDKit          3D

 46 49  0  0  0  0  0  0  0  0999 V2000
    6.8290    3.1290  -61.1540 O   0  0  0  0  0  0  0  0  0  0  0  0
    7.6020    2.9670  -60.2140 C   0  0  0  0  0  0  0  0  0  0  0  0
    8.9560    3.1910  -60.3970 N   0  0  0  0  0  0  0  0  0  0  0  0
    9.9490    3.1160  -59.3950 C   0  0  0  0  0  0  0  0  0  0  0  0
   11.2580    3.4660  -59.7150 C   0  0  0  0  0  0  0  0  0  0  0  0
   12.2350    3.4590  -58.7160 C   0  0  0  0  0  0  0  0  0  0  0  0
   11.9040    3.1230  -57.3990 C   0  0  0  0  0  0  0  0  0  0  0  0
   10.5970    2.7620  -57.0660 C   0  0  0  0  0  0  0  0  0  0  0  0
    9.6470    2.7270  -58.0740 C   0  0  0  0  0  0  0  0  0  0  0  0
    8.2610    2.3440  -57.8410 N   0  0  0  0  0  0  0  0  0  0  0  0
    7.6450    1.7900  -56.8010 C   0  0  0  0  0  0  0  0  0  0  0  0
    8.2130    1.1960  -55.7320 N   0  0  0  0  0  0  0  0  0  0  0  0
    7.6080    0.0970  -54.9680 C   0  0  0  0  0  0  0  0  0  0  0  0
    8.2750   -0.0920  -53.6040 C   0  0  0  0  0  0  0  0  0  0  0  0
    9.1990   -1.3140  -53.5050 C   0  0  0  0  0  0  0  0  0  0  0  0
    8.6660   -2.3850  -52.5920 N   0  0  0  0  0  0  0  0  0  0  0  0
    9.6460   -3.0100  -51.6230 C   0  0  0  0  0  0  0  0  0  0  0  0
    8.7790   -3.4460  -50.4640 C   0  0  0  0  0  0  0  0  0  0  0  0
    7.8230   -2.2830  -50.3130 C   0  0  0  0  0  0  0  0  0  0  0  0
    7.4780   -1.8970  -51.7410 C   0  0  0  0  0  0  0  0  0  0  0  0
    6.3440    1.8640  -57.0180 N   0  0  0  0  0  0  0  0  0  0  0  0
    6.0930    2.2770  -58.3100 C   0  0  0  0  0  0  0  0  0  0  0  0
    4.5040    2.3700  -58.9980 Cl  0  0  0  0  0  0  0  0  0  0  0  0
    7.3100    2.5450  -58.8730 C   0  0  0  0  0  0  0  0  0  0  0  0
    9.2150    3.4960  -61.3320 H   0  0  0  0  0  0  0  0  0  0  0  0
   11.5210    3.7458  -60.7458 H   0  0  0  0  0  0  0  0  0  0  0  0
   13.2736    3.7200  -58.9674 H   0  0  0  0  0  0  0  0  0  0  0  0
   12.6798    3.1434  -56.6194 H   0  0  0  0  0  0  0  0  0  0  0  0
   10.3282    2.5116  -56.0292 H   0  0  0  0  0  0  0  0  0  0  0  0
    9.2010    1.3940  -55.6150 H   0  0  0  0  0  0  0  0  0  0  0  0
    6.5414    0.3175  -54.8136 H   0  0  0  0  0  0  0  0  0  0  0  0
    7.7449   -0.8306  -55.5432 H   0  0  0  0  0  0  0  0  0  0  0  0
    8.8710    0.8066  -53.3867 H   0  0  0  0  0  0  0  0  0  0  0  0
    7.4624   -0.2579  -52.8814 H   0  0  0  0  0  0  0  0  0  0  0  0
    9.3231   -1.7414  -54.5109 H   0  0  0  0  0  0  0  0  0  0  0  0
   10.1546   -0.9692  -53.0831 H   0  0  0  0  0  0  0  0  0  0  0  0
    8.2690   -3.1410  -53.1680 H   0  0  0  0  0  0  0  0  0  0  0  0
   10.1524   -3.8730  -52.0799 H   0  0  0  0  0  0  0  0  0  0  0  0
   10.4447   -2.3171  -51.3196 H   0  0  0  0  0  0  0  0  0  0  0  0
    8.2398   -4.3756  -50.6988 H   0  0  0  0  0  0  0  0  0  0  0  0
    9.3488   -3.6663  -49.5492 H   0  0  0  0  0  0  0  0  0  0  0  0
    6.9209   -2.5884  -49.7625 H   0  0  0  0  0  0  0  0  0  0  0  0
    8.2604   -1.4488  -49.7448 H   0  0  0  0  0  0  0  0  0  0  0  0
    6.5476   -2.3900  -52.0594 H   0  0  0  0  0  0  0  0  0  0  0  0
    7.3160   -0.8140  -51.8455 H   0  0  0  0  0  0  0  0  0  0  0  0
    5.6040    1.5680  -56.4040 H   0  0  0  0  0  0  0  0  0  0  0  0
  1  2  2  0
  2  3  1  0
  3  4  1  0
  4  5  2  0
  5  6  1  0
  6  7  2  0
  7  8  1  0
  8  9  2  0
  9 10  1  0
 10 11  1  0
 11 12  1  0
 12 13  1  0
 13 14  1  0
 14 15  1  0
 15 16  1  0
 16 17  1  0
 17 18  1  0
 18 19  1  0
 19 20  1  0
 11 21  2  0
 21 22  1  0
 22 23  1  0
 22 24  2  0
 24  2  1  0
  9  4  1  0
 24 10  1  0
 20 16  1  0
  3 25  1  0
  5 26  1  0
  6 27  1  0
  7 28  1  0
  8 29  1  0
 12 30  1  0
 13 31  1  0
 13 32  1  0
 14 33  1  0
 14 34  1  0
 15 35  1  0
 15 36  1  0
 16 37  1  0
 17 38  1  0
 17 39  1  0
 18 40  1  0
 18 41  1  0
 19 42  1  0
 19 43  1  0
 20 44  1  0
 20 45  1  0
 21 46  1  0
M  CHG  2  16   1  21   1
M  END
>  <meeko>  (66) 
{"is_sidechain": false}

$$$$

     RDKit          3D

 52 56  0  0  0  0  0  0  0  0999 V2000
   11.1250   -2.4300  -53.1250 C   0  0  0  0  0  0  0  0  0  0  0  0
   10.0530   -1.4880  -53.1020 O   0  0  0  0  0  0  0  0  0  0  0  0
    8.9520   -2.0600  -52.5000 C   0  0  0  0  0  0  0  0  0  0  0  0
    9.2100   -3.1420  -51.6510 C   0  0  0  0  0  0  0  0  0  0  0  0
    8.1660   -3.7540  -50.9680 C   0  0  0  0  0  0  0  0  0  0  0  0
    6.8620   -3.2830  -51.1270 C   0  0  0  0  0  0  0  0  0  0  0  0
    5.7210   -3.9520  -50.4170 C   0  0  0  0  0  0  0  0  0  0  0  0
    6.6140   -2.2190  -52.0160 C   0  0  0  0  0  0  0  0  0  0  0  0
    7.6410   -1.5880  -52.7430 C   0  0  0  0  0  0  0  0  0  0  0  0
    7.3760   -0.5500  -53.6410 N   0  0  0  0  0  0  0  0  0  0  0  0
    6.2320   -0.6230  -54.5680 C   0  0  0  0  0  0  0  0  0  0  0  0
    5.9980    0.7470  -55.2420 C   0  0  0  0  0  0  0  0  0  0  0  0
    7.1880    1.2430  -55.9940 N   0  0  0  0  0  0  0  0  0  0  0  0
    6.9840    1.4120  -57.3340 C   0  0  0  0  0  0  0  0  0  0  0  0
    6.0270    0.8490  -58.0370 N   0  0  0  0  0  0  0  0  0  0  0  0
    6.0840    1.4130  -59.2840 C   0  0  0  0  0  0  0  0  0  0  0  0
    4.9660    0.9930  -60.4960 Cl  0  0  0  0  0  0  0  0  0  0  0  0
    7.1170    2.3160  -59.3600 C   0  0  0  0  0  0  0  0  0  0  0  0
    7.5580    3.1680  -60.4160 C   0  0  0  0  0  0  0  0  0  0  0  0
    7.0180    3.2790  -61.5110 O   0  0  0  0  0  0  0  0  0  0  0  0
    8.6820    3.9050  -60.1270 N   0  0  0  0  0  0  0  0  0  0  0  0
    9.3990    3.8200  -58.9180 C   0  0  0  0  0  0  0  0  0  0  0  0
   10.5700    4.5680  -58.7390 C   0  0  0  0  0  0  0  0  0  0  0  0
   11.1480    5.6360  -59.9670 Cl  0  0  0  0  0  0  0  0  0  0  0  0
   11.2990    4.4550  -57.5540 C   0  0  0  0  0  0  0  0  0  0  0  0
   10.8680    3.5870  -56.5510 C   0  0  0  0  0  0  0  0  0  0  0  0
    9.6980    2.8400  -56.7190 C   0  0  0  0  0  0  0  0  0  0  0  0
    8.9510    2.9700  -57.8920 C   0  0  0  0  0  0  0  0  0  0  0  0
    7.7510    2.2550  -58.1360 N   0  0  0  0  0  0  0  0  0  0  0  0
    8.4400    0.5160  -55.6510 C   0  0  0  0  0  0  0  0  0  0  0  0
    8.5430    0.2220  -54.1380 C   0  0  0  0  0  0  0  0  0  0  0  0
   11.4129   -2.6830  -52.0940 H   0  0  0  0  0  0  0  0  0  0  0  0
   10.8013   -3.3412  -53.6494 H   0  0  0  0  0  0  0  0  0  0  0  0
   11.9870   -1.9918  -53.6494 H   0  0  0  0  0  0  0  0  0  0  0  0
   10.2395   -3.5082  -51.5242 H   0  0  0  0  0  0  0  0  0  0  0  0
    8.3669   -4.6075  -50.3037 H   0  0  0  0  0  0  0  0  0  0  0  0
    5.8654   -3.8673  -49.3298 H   0  0  0  0  0  0  0  0  0  0  0  0
    4.7765   -3.4647  -50.7005 H   0  0  0  0  0  0  0  0  0  0  0  0
    5.6850   -5.0142  -50.7005 H   0  0  0  0  0  0  0  0  0  0  0  0
    5.5797   -1.8682  -52.1470 H   0  0  0  0  0  0  0  0  0  0  0  0
    6.4397   -1.3769  -55.3416 H   0  0  0  0  0  0  0  0  0  0  0  0
    5.3308   -0.9012  -54.0020 H   0  0  0  0  0  0  0  0  0  0  0  0
    5.1558    0.6524  -55.9432 H   0  0  0  0  0  0  0  0  0  0  0  0
    5.7903    1.4735  -54.4426 H   0  0  0  0  0  0  0  0  0  0  0  0
    9.0200    4.5120  -60.8650 H   0  0  0  0  0  0  0  0  0  0  0  0
   12.2130    5.0502  -57.4113 H   0  0  0  0  0  0  0  0  0  0  0  0
   11.4512    3.4896  -55.6234 H   0  0  0  0  0  0  0  0  0  0  0  0
    9.3663    2.1509  -55.9284 H   0  0  0  0  0  0  0  0  0  0  0  0
    8.4589   -0.4370  -56.2000 H   0  0  0  0  0  0  0  0  0  0  0  0
    9.2909    1.1541  -55.9316 H   0  0  0  0  0  0  0  0  0  0  0  0
    9.4586   -0.3581  -53.9504 H   0  0  0  0  0  0  0  0  0  0  0  0
    8.5657    1.1843  -53.6055 H   0  0  0  0  0  0  0  0  0  0  0  0
  1  2  1  0
  2  3  1  0
  3  4  1  0
  4  5  2  0
  5  6  1  0
  6  7  1  0
  6  8  2  0
  8  9  1  0
  9 10  1  0
 10 11  1  0
 11 12  1  0
 12 13  1  0
 13 14  1  0
 14 15  2  0
 15 16  1  0
 16 17  1  0
 16 18  2  0
 18 19  1  0
 19 20  2  0
 19 21  1  0
 21 22  1  0
 22 23  2  0
 23 24  1  0
 23 25  1  0
 25 26  2  0
 26 27  1  0
 27 28  2  0
 28 29  1  0
 13 30  1  0
 30 31  1  0
  9  3  2  0
 31 10  1  0
 29 14  1  0
 29 18  1  0
 28 22  1  0
  1 32  1  0
  1 33  1  0
  1 34  1  0
  4 35  1  0
  5 36  1  0
  7 37  1  0
  7 38  1  0
  7 39  1  0
  8 40  1  0
 11 41  1  0
 11 42  1  0
 12 43  1  0
 12 44  1  0
 21 45  1  0
 25 46  1  0
 26 47  1  0
 27 48  1  0
 30 49  1  0
 30 50  1  0
 31 51  1  0
 31 52  1  0
M  END
>  <meeko>  (67) 
{"is_sidechain": false}

$$$$

     RDKit          3D

 52 56  0  0  0  0  0  0  0  0999 V2000
   11.1350   -2.6240  -52.8910 C   0  0  0  0  0  0  0  0  0  0  0  0
   10.0800   -1.6590  -52.9210 O   0  0  0  0  0  0  0  0  0  0  0  0
    8.9470   -2.1950  -52.3520 C   0  0  0  0  0  0  0  0  0  0  0  0
    9.1600   -3.0690  -51.2780 C   0  0  0  0  0  0  0  0  0  0  0  0
    8.0820   -3.6980  -50.6670 C   0  0  0  0  0  0  0  0  0  0  0  0
    6.7870   -3.4590  -51.1290 C   0  0  0  0  0  0  0  0  0  0  0  0
    5.6110   -4.1100  -50.4620 C   0  0  0  0  0  0  0  0  0  0  0  0
    6.5880   -2.5460  -52.1820 C   0  0  0  0  0  0  0  0  0  0  0  0
    7.6510   -1.8710  -52.8130 C   0  0  0  0  0  0  0  0  0  0  0  0
    7.4210   -0.9540  -53.8370 N   0  0  0  0  0  0  0  0  0  0  0  0
    8.3480   -0.9300  -54.9950 C   0  0  0  0  0  0  0  0  0  0  0  0
    8.6890    0.5170  -55.4180 C   0  0  0  0  0  0  0  0  0  0  0  0
    7.4870    1.3360  -55.7500 N   0  0  0  0  0  0  0  0  0  0  0  0
    7.2350    1.4440  -57.0890 C   0  0  0  0  0  0  0  0  0  0  0  0
    6.2670    0.8320  -57.7360 N   0  0  0  0  0  0  0  0  0  0  0  0
    6.2770    1.3390  -59.0110 C   0  0  0  0  0  0  0  0  0  0  0  0
    5.1340    0.8370  -60.1660 Cl  0  0  0  0  0  0  0  0  0  0  0  0
    7.2920    2.2520  -59.1540 C   0  0  0  0  0  0  0  0  0  0  0  0
    7.7560    3.0840  -60.1960 C   0  0  0  0  0  0  0  0  0  0  0  0
    7.0390    3.0630  -61.3230 O   0  0  0  0  0  0  0  0  0  0  0  0
    8.7890    3.8440  -60.1140 N   0  0  0  0  0  0  0  0  0  0  0  0
    9.5310    3.8190  -58.9000 C   0  0  0  0  0  0  0  0  0  0  0  0
   10.7010    4.5900  -58.7810 C   0  0  0  0  0  0  0  0  0  0  0  0
   11.2430    5.6020  -60.0760 Cl  0  0  0  0  0  0  0  0  0  0  0  0
   11.4670    4.5600  -57.6130 C   0  0  0  0  0  0  0  0  0  0  0  0
   11.0830    3.7490  -56.5470 C   0  0  0  0  0  0  0  0  0  0  0  0
    9.9260    2.9750  -56.6340 C   0  0  0  0  0  0  0  0  0  0  0  0
    9.1440    3.0240  -57.7930 C   0  0  0  0  0  0  0  0  0  0  0  0
    7.9560    2.2650  -57.9490 N   0  0  0  0  0  0  0  0  0  0  0  0
    6.2820    0.9390  -54.9570 C   0  0  0  0  0  0  0  0  0  0  0  0
    6.6500    0.2780  -53.6120 C   0  0  0  0  0  0  0  0  0  0  0  0
   11.3894   -2.8567  -51.8464 H   0  0  0  0  0  0  0  0  0  0  0  0
   10.8073   -3.5415  -53.4017 H   0  0  0  0  0  0  0  0  0  0  0  0
   12.0197   -2.2160  -53.4017 H   0  0  0  0  0  0  0  0  0  0  0  0
   10.1821   -3.2576  -50.9178 H   0  0  0  0  0  0  0  0  0  0  0  0
    8.2489   -4.3821  -49.8219 H   0  0  0  0  0  0  0  0  0  0  0  0
    5.7270   -4.0458  -49.3700 H   0  0  0  0  0  0  0  0  0  0  0  0
    4.6870   -3.5949  -50.7635 H   0  0  0  0  0  0  0  0  0  0  0  0
    5.5570   -5.1665  -50.7635 H   0  0  0  0  0  0  0  0  0  0  0  0
    5.5612   -2.3520  -52.5257 H   0  0  0  0  0  0  0  0  0  0  0  0
    9.2773   -1.4503  -54.7198 H   0  0  0  0  0  0  0  0  0  0  0  0
    7.8552   -1.4300  -55.8419 H   0  0  0  0  0  0  0  0  0  0  0  0
    9.2257    1.0048  -54.5909 H   0  0  0  0  0  0  0  0  0  0  0  0
    9.3005    0.4532  -56.3301 H   0  0  0  0  0  0  0  0  0  0  0  0
    7.2760    3.8570  -61.8310 H   0  0  0  0  0  0  0  0  0  0  0  0
   12.3742    5.1772  -57.5348 H   0  0  0  0  0  0  0  0  0  0  0  0
   11.6947    3.7191  -55.6333 H   0  0  0  0  0  0  0  0  0  0  0  0
    9.6296    2.3287  -55.7947 H   0  0  0  0  0  0  0  0  0  0  0  0
    5.6808    1.8378  -54.7553 H   0  0  0  0  0  0  0  0  0  0  0  0
    5.7209    0.2011  -55.5492 H   0  0  0  0  0  0  0  0  0  0  0  0
    7.2538    0.9793  -53.0173 H   0  0  0  0  0  0  0  0  0  0  0  0
    5.7239    0.0249  -53.0751 H   0  0  0  0  0  0  0  0  0  0  0  0
  1  2  1  0
  2  3  1  0
  3  4  1  0
  4  5  2  0
  5  6  1  0
  6  7  1  0
  6  8  2  0
  8  9  1  0
  9 10  1  0
 10 11  1  0
 11 12  1  0
 12 13  1  0
 13 14  1  0
 14 15  2  0
 15 16  1  0
 16 17  1  0
 16 18  2  0
 18 19  1  0
 19 20  1  0
 19 21  2  0
 21 22  1  0
 22 23  2  0
 23 24  1  0
 23 25  1  0
 25 26  2  0
 26 27  1  0
 27 28  2  0
 28 29  1  0
 13 30  1  0
 30 31  1  0
  9  3  2  0
 31 10  1  0
 29 14  1  0
 29 18  1  0
 28 22  1  0
  1 32  1  0
  1 33  1  0
  1 34  1  0
  4 35  1  0
  5 36  1  0
  7 37  1  0
  7 38  1  0
  7 39  1  0
  8 40  1  0
 11 41  1  0
 11 42  1  0
 12 43  1  0
 12 44  1  0
 20 45  1  0
 25 46  1  0
 26 47  1  0
 27 48  1  0
 30 49  1  0
 30 50  1  0
 31 51  1  0
 31 52  1  0
M  END
>  <meeko>  (68) 
{"is_sidechain": false}

$$$$

     RDKit          3D

 53 57  0  0  0  0  0  0  0  0999 V2000
   10.8240   -2.5720  -52.7040 C   0  0  0  0  0  0  0  0  0  0  0  0
    9.5530   -1.9310  -52.6670 O   0  0  0  0  0  0  0  0  0  0  0  0
    8.5380   -2.5950  -52.0150 C   0  0  0  0  0  0  0  0  0  0  0  0
    8.7450   -3.6230  -51.0860 C   0  0  0  0  0  0  0  0  0  0  0  0
    7.6610   -4.2640  -50.4770 C   0  0  0  0  0  0  0  0  0  0  0  0
    6.3530   -3.8860  -50.7780 C   0  0  0  0  0  0  0  0  0  0  0  0
    5.1890   -4.5960  -50.1510 C   0  0  0  0  0  0  0  0  0  0  0  0
    6.1430   -2.8700  -51.7170 C   0  0  0  0  0  0  0  0  0  0  0  0
    7.2160   -2.2060  -52.3360 C   0  0  0  0  0  0  0  0  0  0  0  0
    6.8820   -1.1960  -53.2670 N   0  0  0  0  0  0  0  0  0  0  0  0
    7.1630    0.1780  -52.8090 C   0  0  0  0  0  0  0  0  0  0  0  0
    8.1480    0.9260  -53.7210 C   0  0  0  0  0  0  0  0  0  0  0  0
    7.7840    0.8350  -55.1620 N   0  0  0  0  0  0  0  0  0  0  0  0
    8.4930    1.5320  -56.0790 C   0  0  0  0  0  0  0  0  0  0  0  0
    9.7440    1.9390  -55.8960 N   0  0  0  0  0  0  0  0  0  0  0  0
   10.3310    2.2600  -57.0980 C   0  0  0  0  0  0  0  0  0  0  0  0
   12.0090    2.6580  -57.2850 Cl  0  0  0  0  0  0  0  0  0  0  0  0
    9.3420    2.1840  -58.0380 C   0  0  0  0  0  0  0  0  0  0  0  0
    9.4240    2.4080  -59.4540 C   0  0  0  0  0  0  0  0  0  0  0  0
   10.4130    2.6130  -60.1490 O   0  0  0  0  0  0  0  0  0  0  0  0
    8.1710    2.3650  -60.0480 N   0  0  0  0  0  0  0  0  0  0  0  0
    6.9290    2.2340  -59.3730 C   0  0  0  0  0  0  0  0  0  0  0  0
    5.7230    2.3500  -60.0700 C   0  0  0  0  0  0  0  0  0  0  0  0
    5.7020    2.5810  -61.7800 Cl  0  0  0  0  0  0  0  0  0  0  0  0
    4.5070    2.3010  -59.3820 C   0  0  0  0  0  0  0  0  0  0  0  0
    4.4880    2.1570  -57.9910 C   0  0  0  0  0  0  0  0  0  0  0  0
    5.6820    2.0280  -57.2790 C   0  0  0  0  0  0  0  0  0  0  0  0
    6.8750    2.0220  -57.9830 C   0  0  0  0  0  0  0  0  0  0  0  0
    8.1610    1.8820  -57.3240 N   0  0  0  0  0  0  0  0  0  0  0  0
    7.0190   -0.3770  -55.5790 C   0  0  0  0  0  0  0  0  0  0  0  0
    7.2910   -1.5550  -54.6330 C   0  0  0  0  0  0  0  0  0  0  0  0
   11.1753   -2.7492  -51.6768 H   0  0  0  0  0  0  0  0  0  0  0  0
   10.7348   -3.5329  -53.2319 H   0  0  0  0  0  0  0  0  0  0  0  0
   11.5437   -1.9291  -53.2319 H   0  0  0  0  0  0  0  0  0  0  0  0
    9.7707   -3.9293  -50.8328 H   0  0  0  0  0  0  0  0  0  0  0  0
    7.8420   -5.0733  -49.7543 H   0  0  0  0  0  0  0  0  0  0  0  0
    5.2745   -4.5438  -49.0556 H   0  0  0  0  0  0  0  0  0  0  0  0
    4.2519   -4.1155  -50.4689 H   0  0  0  0  0  0  0  0  0  0  0  0
    5.1873   -5.6491  -50.4689 H   0  0  0  0  0  0  0  0  0  0  0  0
    5.1131   -2.5841  -51.9770 H   0  0  0  0  0  0  0  0  0  0  0  0
    6.2168    0.7384  -52.7809 H   0  0  0  0  0  0  0  0  0  0  0  0
    7.6269    0.1045  -51.8143 H   0  0  0  0  0  0  0  0  0  0  0  0
    8.1619    1.9863  -53.4284 H   0  0  0  0  0  0  0  0  0  0  0  0
    9.1348    0.4556  -53.5986 H   0  0  0  0  0  0  0  0  0  0  0  0
   10.2640    1.8770  -55.0330 H   0  0  0  0  0  0  0  0  0  0  0  0
    8.1560    2.5370  -61.0520 H   0  0  0  0  0  0  0  0  0  0  0  0
    3.5605    2.3761  -59.9374 H   0  0  0  0  0  0  0  0  0  0  0  0
    3.5274    2.1453  -57.4552 H   0  0  0  0  0  0  0  0  0  0  0  0
    5.6755    1.9332  -56.1831 H   0  0  0  0  0  0  0  0  0  0  0  0
    5.9437   -0.1456  -55.5647 H   0  0  0  0  0  0  0  0  0  0  0  0
    7.3399   -0.6612  -56.5920 H   0  0  0  0  0  0  0  0  0  0  0  0
    6.7187   -2.4328  -54.9676 H   0  0  0  0  0  0  0  0  0  0  0  0
    8.3655   -1.7902  -54.6424 H   0  0  0  0  0  0  0  0  0  0  0  0
  1  2  1  0
  2  3  1  0
  3  4  1  0
  4  5  2  0
  5  6  1  0
  6  7  1  0
  6  8  2  0
  8  9  1  0
  9 10  1  0
 10 11  1  0
 11 12  1  0
 12 13  1  0
 13 14  1  0
 14 15  2  0
 15 16  1  0
 16 17  1  0
 16 18  2  0
 18 19  1  0
 19 20  2  0
 19 21  1  0
 21 22  1  0
 22 23  2  0
 23 24  1  0
 23 25  1  0
 25 26  2  0
 26 27  1  0
 27 28  2  0
 28 29  1  0
 13 30  1  0
 30 31  1  0
  9  3  2  0
 31 10  1  0
 29 14  1  0
 29 18  1  0
 28 22  1  0
  1 32  1  0
  1 33  1  0
  1 34  1  0
  4 35  1  0
  5 36  1  0
  7 37  1  0
  7 38  1  0
  7 39  1  0
  8 40  1  0
 11 41  1  0
 11 42  1  0
 12 43  1  0
 12 44  1  0
 15 45  1  0
 21 46  1  0
 25 47  1  0
 26 48  1  0
 27 49  1  0
 30 50  1  0
 30 51  1  0
 31 52  1  0
 31 53  1  0
M  CHG  1  15   1
M  END
>  <meeko>  (69) 
{"is_sidechain": false}

$$$$

     RDKit          3D

 53 57  0  0  0  0  0  0  0  0999 V2000
   10.8890   -2.3840  -52.8910 C   0  0  0  0  0  0  0  0  0  0  0  0
    9.6630   -1.7100  -52.6240 O   0  0  0  0  0  0  0  0  0  0  0  0
    8.6710   -2.4330  -52.0040 C   0  0  0  0  0  0  0  0  0  0  0  0
    8.9120   -3.4110  -51.0300 C   0  0  0  0  0  0  0  0  0  0  0  0
    7.8540   -4.1060  -50.4360 C   0  0  0  0  0  0  0  0  0  0  0  0
    6.5340   -3.8320  -50.7940 C   0  0  0  0  0  0  0  0  0  0  0  0
    5.4020   -4.6020  -50.1830 C   0  0  0  0  0  0  0  0  0  0  0  0
    6.2890   -2.8670  -51.7770 C   0  0  0  0  0  0  0  0  0  0  0  0
    7.3370   -2.1540  -52.3880 C   0  0  0  0  0  0  0  0  0  0  0  0
    6.9530   -1.1970  -53.3630 N   0  0  0  0  0  0  0  0  0  0  0  0
    7.2700   -1.6410  -54.7330 C   0  0  0  0  0  0  0  0  0  0  0  0
    6.6410   -0.6620  -55.7410 C   0  0  0  0  0  0  0  0  0  0  0  0
    7.0240    0.7470  -55.4240 N   0  0  0  0  0  0  0  0  0  0  0  0
    7.9010    1.3950  -56.2200 C   0  0  0  0  0  0  0  0  0  0  0  0
    9.1430    1.7040  -55.8630 N   0  0  0  0  0  0  0  0  0  0  0  0
    9.8910    2.0650  -56.9560 C   0  0  0  0  0  0  0  0  0  0  0  0
   11.5930    2.3960  -56.9220 Cl  0  0  0  0  0  0  0  0  0  0  0  0
    9.0370    2.0800  -58.0210 C   0  0  0  0  0  0  0  0  0  0  0  0
    9.1930    2.3580  -59.4090 C   0  0  0  0  0  0  0  0  0  0  0  0
   10.4340    2.5490  -59.8920 O   0  0  0  0  0  0  0  0  0  0  0  0
    8.1930    2.4110  -60.2280 N   0  0  0  0  0  0  0  0  0  0  0  0
    6.8670    2.2480  -59.7110 C   0  0  0  0  0  0  0  0  0  0  0  0
    5.7580    2.4160  -60.5520 C   0  0  0  0  0  0  0  0  0  0  0  0
    5.9520    2.7550  -62.2360 Cl  0  0  0  0  0  0  0  0  0  0  0  0
    4.4530    2.3270  -60.0490 C   0  0  0  0  0  0  0  0  0  0  0  0
    4.2310    2.0860  -58.6910 C   0  0  0  0  0  0  0  0  0  0  0  0
    5.3080    1.9070  -57.8250 C   0  0  0  0  0  0  0  0  0  0  0  0
    6.5950    1.9530  -58.3470 C   0  0  0  0  0  0  0  0  0  0  0  0
    7.7680    1.7750  -57.4890 N   0  0  0  0  0  0  0  0  0  0  0  0
    6.8130    1.1630  -54.0120 C   0  0  0  0  0  0  0  0  0  0  0  0
    7.4330    0.1560  -53.0310 C   0  0  0  0  0  0  0  0  0  0  0  0
   11.3750   -2.6512  -51.9410 H   0  0  0  0  0  0  0  0  0  0  0  0
   10.6868   -3.2977  -53.4691 H   0  0  0  0  0  0  0  0  0  0  0  0
   11.5521   -1.7236  -53.4691 H   0  0  0  0  0  0  0  0  0  0  0  0
    9.9461   -3.6348  -50.7290 H   0  0  0  0  0  0  0  0  0  0  0  0
    8.0646   -4.8761  -49.6793 H   0  0  0  0  0  0  0  0  0  0  0  0
    5.4746   -4.5526  -49.0865 H   0  0  0  0  0  0  0  0  0  0  0  0
    4.4453   -4.1666  -50.5071 H   0  0  0  0  0  0  0  0  0  0  0  0
    5.4555   -5.6518  -50.5071 H   0  0  0  0  0  0  0  0  0  0  0  0
    5.2518   -2.6606  -52.0796 H   0  0  0  0  0  0  0  0  0  0  0  0
    8.3612   -1.6598  -54.8704 H   0  0  0  0  0  0  0  0  0  0  0  0
    6.8655   -2.6507  -54.8970 H   0  0  0  0  0  0  0  0  0  0  0  0
    6.9920   -0.9119  -56.7531 H   0  0  0  0  0  0  0  0  0  0  0  0
    5.5462   -0.7510  -55.6818 H   0  0  0  0  0  0  0  0  0  0  0  0
    9.5380    1.5640  -54.9420 H   0  0  0  0  0  0  0  0  0  0  0  0
   10.6890    2.0340  -60.6720 H   0  0  0  0  0  0  0  0  0  0  0  0
    3.5967    2.4479  -60.7289 H   0  0  0  0  0  0  0  0  0  0  0  0
    3.2025    2.0374  -58.3039 H   0  0  0  0  0  0  0  0  0  0  0  0
    5.1429    1.7331  -56.7515 H   0  0  0  0  0  0  0  0  0  0  0  0
    7.2783    2.1474  -53.8558 H   0  0  0  0  0  0  0  0  0  0  0  0
    5.7303    1.2080  -53.8230 H   0  0  0  0  0  0  0  0  0  0  0  0
    8.5294    0.1886  -53.1133 H   0  0  0  0  0  0  0  0  0  0  0  0
    7.1398    0.4117  -52.0021 H   0  0  0  0  0  0  0  0  0  0  0  0
  1  2  1  0
  2  3  1  0
  3  4  1  0
  4  5  2  0
  5  6  1  0
  6  7  1  0
  6  8  2  0
  8  9  1  0
  9 10  1  0
 10 11  1  0
 11 12  1  0
 12 13  1  0
 13 14  1  0
 14 15  2  0
 15 16  1  0
 16 17  1  0
 16 18  2  0
 18 19  1  0
 19 20  1  0
 19 21  2  0
 21 22  1  0
 22 23  2  0
 23 24  1  0
 23 25  1  0
 25 26  2  0
 26 27  1  0
 27 28  2  0
 28 29  1  0
 13 30  1  0
 30 31  1  0
  9  3  2  0
 31 10  1  0
 29 14  1  0
 29 18  1  0
 28 22  1  0
  1 32  1  0
  1 33  1  0
  1 34  1  0
  4 35  1  0
  5 36  1  0
  7 37  1  0
  7 38  1  0
  7 39  1  0
  8 40  1  0
 11 41  1  0
 11 42  1  0
 12 43  1  0
 12 44  1  0
 15 45  1  0
 20 46  1  0
 25 47  1  0
 26 48  1  0
 27 49  1  0
 30 50  1  0
 30 51  1  0
 31 52  1  0
 31 53  1  0
M  CHG  1  15   1
M  END
>  <meeko>  (70) 
{"is_sidechain": false}

$$$$

     RDKit          3D

 36 39  0  0  0  0  0  0  0  0999 V2000
    7.7350   -2.8320  -53.7170 N   0  0  0  0  0  0  0  0  0  0  0  0
    8.4360   -1.6500  -53.1030 C   0  0  2  0  0  0  0  0  0  0  0  0
    7.4010   -0.8140  -52.3500 C   0  0  0  0  0  0  0  0  0  0  0  0
    6.7110    0.0250  -53.4420 C   0  0  0  0  0  0  0  0  0  0  0  0
    7.5440   -0.1990  -54.6290 N   0  0  0  0  0  0  0  0  0  0  0  0
    7.4990    0.7740  -55.6100 C   0  0  0  0  0  0  0  0  0  0  0  0
    6.3180    1.0990  -56.1190 N   0  0  0  0  0  0  0  0  0  0  0  0
    6.3220    2.0190  -57.0960 C   0  0  0  0  0  0  0  0  0  0  0  0
    4.7350    2.3660  -57.6690 Cl  0  0  0  0  0  0  0  0  0  0  0  0
    7.4600    2.6350  -57.6010 C   0  0  0  0  0  0  0  0  0  0  0  0
    7.4980    3.5930  -58.6100 C   0  0  0  0  0  0  0  0  0  0  0  0
    8.6360    4.1520  -59.0580 N   0  0  0  0  0  0  0  0  0  0  0  0
    9.8110    3.7790  -58.5140 C   0  0  0  0  0  0  0  0  0  0  0  0
   11.0260    4.3340  -58.9460 C   0  0  0  0  0  0  0  0  0  0  0  0
   11.0550    5.5250  -60.2060 Cl  0  0  0  0  0  0  0  0  0  0  0  0
   12.2560    3.9620  -58.3930 C   0  0  0  0  0  0  0  0  0  0  0  0
   12.2960    3.0130  -57.3830 C   0  0  0  0  0  0  0  0  0  0  0  0
   11.1060    2.4460  -56.9330 C   0  0  0  0  0  0  0  0  0  0  0  0
    9.8550    2.8120  -57.4830 C   0  0  0  0  0  0  0  0  0  0  0  0
    8.6540    2.2330  -57.0220 C   0  0  0  0  0  0  0  0  0  0  0  0
    8.6530    1.3010  -56.0390 N   0  0  0  0  0  0  0  0  0  0  0  0
    8.8550   -0.7020  -54.2350 C   0  0  0  0  0  0  0  0  0  0  0  0
    6.8030   -2.9790  -53.3090 H   0  0  0  0  0  0  0  0  0  0  0  0
    7.6350   -2.7590  -54.7360 H   0  0  0  0  0  0  0  0  0  0  0  0
    8.2870   -3.6800  -53.5010 H   0  0  0  0  0  0  0  0  0  0  0  0
    9.2667   -2.0122  -52.4794 H   0  0  0  0  0  0  0  0  0  0  0  0
    6.6733   -1.4631  -51.8410 H   0  0  0  0  0  0  0  0  0  0  0  0
    7.8580   -0.1882  -51.5693 H   0  0  0  0  0  0  0  0  0  0  0  0
    5.6819   -0.3236  -53.6132 H   0  0  0  0  0  0  0  0  0  0  0  0
    6.6270    1.0885  -53.1739 H   0  0  0  0  0  0  0  0  0  0  0  0
    6.5476    3.9093  -59.0646 H   0  0  0  0  0  0  0  0  0  0  0  0
   13.1871    4.4203  -58.7578 H   0  0  0  0  0  0  0  0  0  0  0  0
   13.2573    2.7111  -56.9417 H   0  0  0  0  0  0  0  0  0  0  0  0
   11.1397    1.6950  -56.1300 H   0  0  0  0  0  0  0  0  0  0  0  0
    9.3519   -1.2389  -55.0565 H   0  0  0  0  0  0  0  0  0  0  0  0
    9.5856    0.0699  -53.9515 H   0  0  0  0  0  0  0  0  0  0  0  0
  1  2  1  0
  2  3  1  0
  3  4  1  0
  4  5  1  0
  5  6  1  0
  6  7  2  0
  7  8  1  0
  8  9  1  0
  8 10  2  0
 10 11  1  0
 11 12  2  0
 12 13  1  0
 13 14  2  0
 14 15  1  0
 14 16  1  0
 16 17  2  0
 17 18  1  0
 18 19  2  0
 19 20  1  0
 20 21  2  0
  5 22  1  0
 22  2  1  0
 21  6  1  0
 20 10  1  0
 19 13  1  0
  1 23  1  0
  1 24  1  0
  1 25  1  0
  2 26  1  1
  3 27  1  0
  3 28  1  0
  4 29  1  0
  4 30  1  0
 11 31  1  0
 16 32  1  0
 17 33  1  0
 18 34  1  0
 22 35  1  0
 22 36  1  0
M  CHG  1   1   1
M  END
>  <meeko>  (71) 
{"is_sidechain": false}

$$$$

     RDKit          3D

 21 22  0  0  0  0  0  0  0  0999 V2000
    9.1400    5.0870  -56.8480 C   0  0  0  0  0  0  0  0  0  0  0  0
    9.0340    5.6600  -58.1470 O   0  0  0  0  0  0  0  0  0  0  0  0
    8.8800    4.7950  -59.1950 C   0  0  0  0  0  0  0  0  0  0  0  0
   10.0580    4.5140  -59.8930 C   0  0  0  0  0  0  0  0  0  0  0  0
   10.0520    3.6480  -60.9870 C   0  0  0  0  0  0  0  0  0  0  0  0
    8.8610    3.0500  -61.3940 C   0  0  0  0  0  0  0  0  0  0  0  0
    7.6750    3.3250  -60.7010 C   0  0  0  0  0  0  0  0  0  0  0  0
    6.4620    2.7210  -61.1090 N   0  0  0  0  0  0  0  0  0  0  0  0
    5.6170    2.0900  -60.2480 N   0  0  0  0  0  0  0  0  0  0  0  0
    4.6560    1.7070  -61.0920 C   0  0  0  0  0  0  0  0  0  0  0  0
    4.8730    2.0660  -62.3830 N   0  0  0  0  0  0  0  0  0  0  0  0
    6.0290    2.7150  -62.3960 N   0  0  0  0  0  0  0  0  0  0  0  0
    7.6850    4.1990  -59.6000 C   0  0  0  0  0  0  0  0  0  0  0  0
    8.9952    5.8699  -56.0890 H   0  0  0  0  0  0  0  0  0  0  0  0
    8.3702    4.3108  -56.7257 H   0  0  0  0  0  0  0  0  0  0  0  0
   10.1365    4.6376  -56.7257 H   0  0  0  0  0  0  0  0  0  0  0  0
   11.0018    4.9816  -59.5758 H   0  0  0  0  0  0  0  0  0  0  0  0
   10.9866    3.4375  -61.5277 H   0  0  0  0  0  0  0  0  0  0  0  0
    8.8521    2.3655  -62.2550 H   0  0  0  0  0  0  0  0  0  0  0  0
    3.7650    1.1486  -60.7690 H   0  0  0  0  0  0  0  0  0  0  0  0
    6.7518    4.4129  -59.0583 H   0  0  0  0  0  0  0  0  0  0  0  0
  1  2  1  0
  2  3  1  0
  3  4  1  0
  4  5  2  0
  5  6  1  0
  6  7  2  0
  7  8  1  0
  8  9  1  0
  9 10  2  0
 10 11  1  0
 11 12  2  0
  7 13  1  0
 13  3  2  0
 12  8  1  0
  1 14  1  0
  1 15  1  0
  1 16  1  0
  4 17  1  0
  5 18  1  0
  6 19  1  0
 10 20  1  0
 13 21  1  0
M  END
>  <meeko>  (72) 
{"is_sidechain": false}

$$$$

     RDKit          3D

 55 58  0  0  0  0  0  0  0  0999 V2000
    5.5940    1.3630  -59.7630 C   0  0  0  0  0  0  0  0  0  0  0  0
    5.9130    2.3430  -58.7530 N   0  0  0  0  0  0  0  0  0  0  0  0
    7.1370    2.3920  -58.2040 C   0  0  0  0  0  0  0  0  0  0  0  0
    7.4590    1.6850  -57.0870 N   0  0  0  0  0  0  0  0  0  0  0  0
    8.7390    1.9160  -56.8750 C   0  0  0  0  0  0  0  0  0  0  0  0
    9.5070    1.2920  -55.9290 N   0  0  0  0  0  0  0  0  0  0  0  0
    8.7730    0.9740  -54.6740 C   0  0  0  0  0  0  0  0  0  0  0  0
    8.3390   -0.4970  -54.5930 C   0  0  0  0  0  0  0  0  0  0  0  0
    9.4800   -1.4100  -54.7160 N   0  0  0  0  0  0  0  0  0  0  0  0
    9.4520   -2.7190  -54.2870 C   0  0  0  0  0  0  0  0  0  0  0  0
   10.4030   -3.4820  -54.3890 O   0  0  0  0  0  0  0  0  0  0  0  0
    8.2520   -3.0480  -53.7450 O   0  0  0  0  0  0  0  0  0  0  0  0
    8.0910   -3.1940  -52.3110 C   0  0  0  0  0  0  0  0  0  0  0  0
    7.1560   -2.0430  -51.9070 C   0  0  0  0  0  0  0  0  0  0  0  0
    9.4260   -3.0160  -51.5790 C   0  0  0  0  0  0  0  0  0  0  0  0
    7.4140   -4.5220  -51.9570 C   0  0  0  0  0  0  0  0  0  0  0  0
   10.6580   -0.8900  -55.4070 C   0  0  0  0  0  0  0  0  0  0  0  0
   10.2780    0.1380  -56.4840 C   0  0  0  0  0  0  0  0  0  0  0  0
    9.2280    2.8510  -57.7820 N   0  0  0  0  0  0  0  0  0  0  0  0
    8.2060    3.1090  -58.6670 C   0  0  0  0  0  0  0  0  0  0  0  0
    8.4450    3.9790  -59.7510 C   0  0  0  0  0  0  0  0  0  0  0  0
    7.4100    4.1750  -60.5820 O   0  0  0  0  0  0  0  0  0  0  0  0
    9.5620    4.5780  -59.9750 N   0  0  0  0  0  0  0  0  0  0  0  0
   10.6160    4.3630  -59.0430 C   0  0  0  0  0  0  0  0  0  0  0  0
   11.8430    5.0280  -59.2160 C   0  0  0  0  0  0  0  0  0  0  0  0
   12.1120    6.0800  -60.5650 Cl  0  0  0  0  0  0  0  0  0  0  0  0
   12.8850    4.8680  -58.2990 C   0  0  0  0  0  0  0  0  0  0  0  0
   12.7160    4.0460  -57.1850 C   0  0  0  0  0  0  0  0  0  0  0  0
   11.5110    3.3720  -56.9880 C   0  0  0  0  0  0  0  0  0  0  0  0
   10.4760    3.5120  -57.9190 C   0  0  0  0  0  0  0  0  0  0  0  0
    5.2883    0.4237  -59.2789 H   0  0  0  0  0  0  0  0  0  0  0  0
    4.7712    1.7371  -60.3900 H   0  0  0  0  0  0  0  0  0  0  0  0
    6.4793    1.1811  -60.3900 H   0  0  0  0  0  0  0  0  0  0  0  0
    5.1240    2.7030  -58.2200 H   0  0  0  0  0  0  0  0  0  0  0  0
    9.4283    1.1944  -53.8184 H   0  0  0  0  0  0  0  0  0  0  0  0
    7.8611    1.5889  -54.6596 H   0  0  0  0  0  0  0  0  0  0  0  0
    7.8475   -0.6702  -53.6243 H   0  0  0  0  0  0  0  0  0  0  0  0
    7.6506   -0.6964  -55.4275 H   0  0  0  0  0  0  0  0  0  0  0  0
    7.1048   -1.9800  -50.8100 H   0  0  0  0  0  0  0  0  0  0  0  0
    7.5441   -1.0963  -52.3109 H   0  0  0  0  0  0  0  0  0  0  0  0
    6.1499   -2.2289  -52.3109 H   0  0  0  0  0  0  0  0  0  0  0  0
    9.2544   -3.0389  -50.4927 H   0  0  0  0  0  0  0  0  0  0  0  0
   10.1095   -3.8310  -51.8595 H   0  0  0  0  0  0  0  0  0  0  0  0
    9.8721   -2.0504  -51.8595 H   0  0  0  0  0  0  0  0  0  0  0  0
    7.3608   -4.6263  -50.8633 H   0  0  0  0  0  0  0  0  0  0  0  0
    6.3974   -4.5387  -52.3768 H   0  0  0  0  0  0  0  0  0  0  0  0
    7.9977   -5.3545  -52.3768 H   0  0  0  0  0  0  0  0  0  0  0  0
   11.3188   -0.4079  -54.6715 H   0  0  0  0  0  0  0  0  0  0  0  0
   11.1653   -1.7320  -55.9007 H   0  0  0  0  0  0  0  0  0  0  0  0
   11.1996    0.5200  -56.9475 H   0  0  0  0  0  0  0  0  0  0  0  0
    9.6357   -0.3701  -57.2184 H   0  0  0  0  0  0  0  0  0  0  0  0
    7.6500    4.9230  -61.1540 H   0  0  0  0  0  0  0  0  0  0  0  0
   13.8399    5.3910  -58.4559 H   0  0  0  0  0  0  0  0  0  0  0  0
   13.5350    3.9290  -56.4601 H   0  0  0  0  0  0  0  0  0  0  0  0
   11.3747    2.7324  -56.1035 H   0  0  0  0  0  0  0  0  0  0  0  0
  1  2  1  0
  2  3  1  0
  3  4  1  0
  4  5  2  0
  5  6  1  0
  6  7  1  0
  7  8  1  0
  8  9  1  0
  9 10  1  0
 10 11  2  0
 10 12  1  0
 12 13  1  0
 13 14  1  0
 13 15  1  0
 13 16  1  0
  9 17  1  0
 17 18  1  0
  5 19  1  0
 19 20  1  0
 20 21  1  0
 21 22  1  0
 21 23  2  0
 23 24  1  0
 24 25  2  0
 25 26  1  0
 25 27  1  0
 27 28  2  0
 28 29  1  0
 29 30  2  0
 20  3  2  0
 30 24  1  0
 18  6  1  0
 30 19  1  0
  1 31  1  0
  1 32  1  0
  1 33  1  0
  2 34  1  0
  7 35  1  0
  7 36  1  0
  8 37  1  0
  8 38  1  0
 14 39  1  0
 14 40  1  0
 14 41  1  0
 15 42  1  0
 15 43  1  0
 15 44  1  0
 16 45  1  0
 16 46  1  0
 16 47  1  0
 17 48  1  0
 17 49  1  0
 18 50  1  0
 18 51  1  0
 22 52  1  0
 27 53  1  0
 28 54  1  0
 29 55  1  0
M  END
>  <meeko>  (73) 
{"is_sidechain": false}

$$$$

     RDKit          3D

 55 58  0  0  0  0  0  0  0  0999 V2000
    5.6220    1.3330  -59.8230 C   0  0  0  0  0  0  0  0  0  0  0  0
    5.9030    2.2900  -58.7790 N   0  0  0  0  0  0  0  0  0  0  0  0
    7.1170    2.3570  -58.2140 C   0  0  0  0  0  0  0  0  0  0  0  0
    7.4380    1.6490  -57.0990 N   0  0  0  0  0  0  0  0  0  0  0  0
    8.7110    1.9020  -56.8710 C   0  0  0  0  0  0  0  0  0  0  0  0
    9.4790    1.2830  -55.9230 N   0  0  0  0  0  0  0  0  0  0  0  0
   10.2710    0.1440  -56.4770 C   0  0  0  0  0  0  0  0  0  0  0  0
   10.6580   -0.8840  -55.4030 C   0  0  0  0  0  0  0  0  0  0  0  0
    9.4830   -1.4250  -54.7240 N   0  0  0  0  0  0  0  0  0  0  0  0
    9.4740   -2.7360  -54.2970 C   0  0  0  0  0  0  0  0  0  0  0  0
   10.4400   -3.4810  -54.3930 O   0  0  0  0  0  0  0  0  0  0  0  0
    8.2760   -3.0870  -53.7670 O   0  0  0  0  0  0  0  0  0  0  0  0
    8.1000   -3.2200  -52.3340 C   0  0  0  0  0  0  0  0  0  0  0  0
    7.4530   -4.5610  -51.9720 C   0  0  0  0  0  0  0  0  0  0  0  0
    9.4210   -2.9990  -51.5880 C   0  0  0  0  0  0  0  0  0  0  0  0
    7.1300   -2.0900  -51.9560 C   0  0  0  0  0  0  0  0  0  0  0  0
    8.3250   -0.5320  -54.6080 C   0  0  0  0  0  0  0  0  0  0  0  0
    8.7360    0.9450  -54.6770 C   0  0  0  0  0  0  0  0  0  0  0  0
    9.1940    2.8560  -57.7650 N   0  0  0  0  0  0  0  0  0  0  0  0
    8.1770    3.1000  -58.6620 C   0  0  0  0  0  0  0  0  0  0  0  0
    8.3180    3.9820  -59.7760 C   0  0  0  0  0  0  0  0  0  0  0  0
    7.4360    4.2330  -60.5930 O   0  0  0  0  0  0  0  0  0  0  0  0
    9.5550    4.5710  -59.8880 N   0  0  0  0  0  0  0  0  0  0  0  0
   10.6030    4.3910  -58.9640 C   0  0  0  0  0  0  0  0  0  0  0  0
   11.8130    5.0800  -59.1280 C   0  0  0  0  0  0  0  0  0  0  0  0
   12.0670    6.1360  -60.4710 Cl  0  0  0  0  0  0  0  0  0  0  0  0
   12.8390    4.9300  -58.1940 C   0  0  0  0  0  0  0  0  0  0  0  0
   12.6570    4.0990  -57.0880 C   0  0  0  0  0  0  0  0  0  0  0  0
   11.4570    3.4040  -56.9160 C   0  0  0  0  0  0  0  0  0  0  0  0
   10.4370    3.5330  -57.8610 C   0  0  0  0  0  0  0  0  0  0  0  0
    5.3394    0.3705  -59.3717 H   0  0  0  0  0  0  0  0  0  0  0  0
    4.7945    1.7028  -60.4463 H   0  0  0  0  0  0  0  0  0  0  0  0
    6.5180    1.1967  -60.4463 H   0  0  0  0  0  0  0  0  0  0  0  0
    5.0940    2.6240  -58.2570 H   0  0  0  0  0  0  0  0  0  0  0  0
    9.6702   -0.3609  -57.2478 H   0  0  0  0  0  0  0  0  0  0  0  0
   11.2015    0.5568  -56.8938 H   0  0  0  0  0  0  0  0  0  0  0  0
   11.2052   -1.7099  -55.8809 H   0  0  0  0  0  0  0  0  0  0  0  0
   11.2840   -0.3776  -54.6536 H   0  0  0  0  0  0  0  0  0  0  0  0
    7.4046   -4.6612  -50.8776 H   0  0  0  0  0  0  0  0  0  0  0  0
    6.4360   -4.6019  -52.3892 H   0  0  0  0  0  0  0  0  0  0  0  0
    8.0539   -5.3825  -52.3892 H   0  0  0  0  0  0  0  0  0  0  0  0
    9.2392   -3.0294  -50.5036 H   0  0  0  0  0  0  0  0  0  0  0  0
   10.1340   -3.7903  -51.8626 H   0  0  0  0  0  0  0  0  0  0  0  0
    9.8376   -2.0187  -51.8626 H   0  0  0  0  0  0  0  0  0  0  0  0
    7.0647   -2.0139  -50.8606 H   0  0  0  0  0  0  0  0  0  0  0  0
    7.4969   -1.1385  -52.3684 H   0  0  0  0  0  0  0  0  0  0  0  0
    6.1339   -2.3085  -52.3684 H   0  0  0  0  0  0  0  0  0  0  0  0
    7.6263   -0.7461  -55.4302 H   0  0  0  0  0  0  0  0  0  0  0  0
    7.8519   -0.7103  -53.6311 H   0  0  0  0  0  0  0  0  0  0  0  0
    7.8281    1.5644  -54.6309 H   0  0  0  0  0  0  0  0  0  0  0  0
    9.4086    1.1402  -53.8287 H   0  0  0  0  0  0  0  0  0  0  0  0
    9.6810    5.2050  -60.6680 H   0  0  0  0  0  0  0  0  0  0  0  0
   13.7899    5.4661  -58.3295 H   0  0  0  0  0  0  0  0  0  0  0  0
   13.4628    3.9904  -56.3472 H   0  0  0  0  0  0  0  0  0  0  0  0
   11.3161    2.7566  -56.0379 H   0  0  0  0  0  0  0  0  0  0  0  0
  1  2  1  0
  2  3  1  0
  3  4  1  0
  4  5  2  0
  5  6  1  0
  6  7  1  0
  7  8  1  0
  8  9  1  0
  9 10  1  0
 10 11  2  0
 10 12  1  0
 12 13  1  0
 13 14  1  0
 13 15  1  0
 13 16  1  0
  9 17  1  0
 17 18  1  0
  5 19  1  0
 19 20  1  0
 20 21  1  0
 21 22  2  0
 21 23  1  0
 23 24  1  0
 24 25  2  0
 25 26  1  0
 25 27  1  0
 27 28  2  0
 28 29  1  0
 29 30  2  0
 20  3  2  0
 30 24  1  0
 18  6  1  0
 30 19  1  0
  1 31  1  0
  1 32  1  0
  1 33  1  0
  2 34  1  0
  7 35  1  0
  7 36  1  0
  8 37  1  0
  8 38  1  0
 14 39  1  0
 14 40  1  0
 14 41  1  0
 15 42  1  0
 15 43  1  0
 15 44  1  0
 16 45  1  0
 16 46  1  0
 16 47  1  0
 17 48  1  0
 17 49  1  0
 18 50  1  0
 18 51  1  0
 23 52  1  0
 27 53  1  0
 28 54  1  0
 29 55  1  0
M  END
>  <meeko>  (74) 
{"is_sidechain": false}

$$$$

     RDKit          3D

 55 58  0  0  0  0  0  0  0  0999 V2000
    3.6440    2.6580  -58.1190 C   0  0  0  0  0  0  0  0  0  0  0  0
    4.9390    3.3120  -58.2810 N   0  0  0  0  0  0  0  0  0  0  0  0
    5.9180    2.7130  -57.7070 C   0  0  0  0  0  0  0  0  0  0  0  0
    5.8540    1.5420  -56.9660 N   0  0  0  0  0  0  0  0  0  0  0  0
    7.0820    1.2810  -56.5560 C   0  0  0  0  0  0  0  0  0  0  0  0
    7.4070    0.2450  -55.7110 N   0  0  0  0  0  0  0  0  0  0  0  0
    6.5320   -0.9510  -55.7740 C   0  0  0  0  0  0  0  0  0  0  0  0
    7.1760   -2.1310  -55.0350 C   0  0  0  0  0  0  0  0  0  0  0  0
    7.5760   -1.7900  -53.6700 N   0  0  0  0  0  0  0  0  0  0  0  0
    7.7030   -2.8220  -52.7540 C   0  0  0  0  0  0  0  0  0  0  0  0
    7.3160   -3.9630  -52.9670 O   0  0  0  0  0  0  0  0  0  0  0  0
    8.3040   -2.4150  -51.6070 O   0  0  0  0  0  0  0  0  0  0  0  0
    8.1120   -3.1370  -50.3630 C   0  0  0  0  0  0  0  0  0  0  0  0
    7.0650   -4.2460  -50.5160 C   0  0  0  0  0  0  0  0  0  0  0  0
    7.5700   -2.0830  -49.3850 C   0  0  0  0  0  0  0  0  0  0  0  0
    9.4400   -3.6720  -49.8170 C   0  0  0  0  0  0  0  0  0  0  0  0
    8.2990   -0.5260  -53.5140 C   0  0  0  0  0  0  0  0  0  0  0  0
    7.6540    0.6280  -54.2970 C   0  0  0  0  0  0  0  0  0  0  0  0
    8.0160    2.1890  -56.9980 N   0  0  0  0  0  0  0  0  0  0  0  0
    9.4420    2.2340  -57.0100 C   0  0  0  0  0  0  0  0  0  0  0  0
   10.2610    1.2100  -56.5250 C   0  0  0  0  0  0  0  0  0  0  0  0
   11.6540    1.3320  -56.5580 C   0  0  0  0  0  0  0  0  0  0  0  0
   12.2520    2.4760  -57.0880 C   0  0  0  0  0  0  0  0  0  0  0  0
   11.4620    3.5000  -57.6110 C   0  0  0  0  0  0  0  0  0  0  0  0
   12.2450    4.8860  -58.2810 Cl  0  0  0  0  0  0  0  0  0  0  0  0
   10.0630    3.3880  -57.6060 C   0  0  0  0  0  0  0  0  0  0  0  0
    9.2370    4.4200  -58.1380 N   0  0  0  0  0  0  0  0  0  0  0  0
    7.8820    4.2320  -58.2710 C   0  0  0  0  0  0  0  0  0  0  0  0
    7.1890    5.1680  -58.9920 O   0  0  0  0  0  0  0  0  0  0  0  0
    7.3270    3.1500  -57.7060 C   0  0  0  0  0  0  0  0  0  0  0  0
    3.4215    2.5456  -57.0476 H   0  0  0  0  0  0  0  0  0  0  0  0
    2.8625    3.2695  -58.5937 H   0  0  0  0  0  0  0  0  0  0  0  0
    3.6722    1.6661  -58.5937 H   0  0  0  0  0  0  0  0  0  0  0  0
    5.5645   -0.7161  -55.3062 H   0  0  0  0  0  0  0  0  0  0  0  0
    6.3874   -1.2293  -56.8283 H   0  0  0  0  0  0  0  0  0  0  0  0
    6.4519   -2.9580  -54.9936 H   0  0  0  0  0  0  0  0  0  0  0  0
    8.0844   -2.4138  -55.5872 H   0  0  0  0  0  0  0  0  0  0  0  0
    6.7435   -4.5866  -49.5207 H   0  0  0  0  0  0  0  0  0  0  0  0
    6.1970   -3.8571  -51.0686 H   0  0  0  0  0  0  0  0  0  0  0  0
    7.5032   -5.0902  -51.0686 H   0  0  0  0  0  0  0  0  0  0  0  0
    7.7425   -2.4185  -48.3517 H   0  0  0  0  0  0  0  0  0  0  0  0
    8.0885   -1.1273  -49.5516 H   0  0  0  0  0  0  0  0  0  0  0  0
    6.4910   -1.9487  -49.5516 H   0  0  0  0  0  0  0  0  0  0  0  0
    9.4150   -3.6619  -48.7173 H   0  0  0  0  0  0  0  0  0  0  0  0
    9.5936   -4.7021  -50.1709 H   0  0  0  0  0  0  0  0  0  0  0  0
   10.2648   -3.0360  -50.1709 H   0  0  0  0  0  0  0  0  0  0  0  0
    8.3165   -0.2603  -52.4467 H   0  0  0  0  0  0  0  0  0  0  0  0
    9.3131   -0.6724  -53.9141 H   0  0  0  0  0  0  0  0  0  0  0  0
    6.6965    0.8916  -53.8240 H   0  0  0  0  0  0  0  0  0  0  0  0
    8.3422    1.4860  -54.2834 H   0  0  0  0  0  0  0  0  0  0  0  0
    9.8047    0.2980  -56.1127 H   0  0  0  0  0  0  0  0  0  0  0  0
   12.2827    0.5202  -56.1633 H   0  0  0  0  0  0  0  0  0  0  0  0
   13.3479    2.5705  -57.0934 H   0  0  0  0  0  0  0  0  0  0  0  0
    9.6590    5.1200  -58.7350 H   0  0  0  0  0  0  0  0  0  0  0  0
    6.7970    5.8000  -58.3520 H   0  0  0  0  0  0  0  0  0  0  0  0
  1  2  1  0
  2  3  2  0
  3  4  1  0
  4  5  2  0
  5  6  1  0
  6  7  1  0
  7  8  1  0
  8  9  1  0
  9 10  1  0
 10 11  2  0
 10 12  1  0
 12 13  1  0
 13 14  1  0
 13 15  1  0
 13 16  1  0
  9 17  1  0
 17 18  1  0
  5 19  1  0
 19 20  1  0
 20 21  2  0
 21 22  1  0
 22 23  2  0
 23 24  1  0
 24 25  1  0
 24 26  2  0
 26 27  1  0
 27 28  1  0
 28 29  1  0
 28 30  2  0
 30  3  1  0
 18  6  1  0
 30 19  1  0
 26 20  1  0
  1 31  1  0
  1 32  1  0
  1 33  1  0
  7 34  1  0
  7 35  1  0
  8 36  1  0
  8 37  1  0
 14 38  1  0
 14 39  1  0
 14 40  1  0
 15 41  1  0
 15 42  1  0
 15 43  1  0
 16 44  1  0
 16 45  1  0
 16 46  1  0
 17 47  1  0
 17 48  1  0
 18 49  1  0
 18 50  1  0
 21 51  1  0
 22 52  1  0
 23 53  1  0
 27 54  1  0
 29 55  1  0
M  END
>  <meeko>  (75) 
{"is_sidechain": false}

$$$$

     RDKit          3D

 55 58  0  0  0  0  0  0  0  0999 V2000
    4.5050    2.2550  -60.2690 C   0  0  0  0  0  0  0  0  0  0  0  0
    4.8430    1.5770  -59.0400 N   0  0  0  0  0  0  0  0  0  0  0  0
    5.9820    1.7400  -58.4970 C   0  0  0  0  0  0  0  0  0  0  0  0
    6.1780    1.0930  -57.2810 N   0  0  0  0  0  0  0  0  0  0  0  0
    7.3600    1.4380  -56.8240 C   0  0  0  0  0  0  0  0  0  0  0  0
    7.9240    0.8860  -55.6950 N   0  0  0  0  0  0  0  0  0  0  0  0
    6.9800    0.3960  -54.6620 C   0  0  0  0  0  0  0  0  0  0  0  0
    7.7170   -0.1960  -53.4530 C   0  0  0  0  0  0  0  0  0  0  0  0
    8.6380   -1.2680  -53.8340 N   0  0  0  0  0  0  0  0  0  0  0  0
    9.2150   -2.1210  -52.9180 C   0  0  0  0  0  0  0  0  0  0  0  0
    9.9920   -3.0150  -53.2230 O   0  0  0  0  0  0  0  0  0  0  0  0
    8.8220   -1.8370  -51.6500 O   0  0  0  0  0  0  0  0  0  0  0  0
    8.2350   -2.8560  -50.8020 C   0  0  0  0  0  0  0  0  0  0  0  0
    7.4710   -2.0700  -49.7240 C   0  0  0  0  0  0  0  0  0  0  0  0
    9.3120   -3.7020  -50.1170 C   0  0  0  0  0  0  0  0  0  0  0  0
    7.2330   -3.7180  -51.5780 C   0  0  0  0  0  0  0  0  0  0  0  0
    8.9700   -1.3690  -55.2520 C   0  0  0  0  0  0  0  0  0  0  0  0
    9.1180    0.0180  -55.8950 C   0  0  0  0  0  0  0  0  0  0  0  0
    8.0220    2.3240  -57.6350 N   0  0  0  0  0  0  0  0  0  0  0  0
    9.1850    3.1230  -57.4460 C   0  0  0  0  0  0  0  0  0  0  0  0
    9.8470    3.2700  -56.2220 C   0  0  0  0  0  0  0  0  0  0  0  0
   10.9940    4.0640  -56.1140 C   0  0  0  0  0  0  0  0  0  0  0  0
   11.4910    4.7400  -57.2280 C   0  0  0  0  0  0  0  0  0  0  0  0
   10.8250    4.6470  -58.4480 C   0  0  0  0  0  0  0  0  0  0  0  0
   11.4440    5.5290  -59.8000 Cl  0  0  0  0  0  0  0  0  0  0  0  0
    9.6580    3.8730  -58.5670 C   0  0  0  0  0  0  0  0  0  0  0  0
    8.9660    3.7660  -59.8120 N   0  0  0  0  0  0  0  0  0  0  0  0
    7.7160    3.1780  -59.8500 C   0  0  0  0  0  0  0  0  0  0  0  0
    7.0420    3.3140  -61.0280 O   0  0  0  0  0  0  0  0  0  0  0  0
    7.2520    2.4940  -58.7870 C   0  0  0  0  0  0  0  0  0  0  0  0
    4.0253    3.2173  -60.0369 H   0  0  0  0  0  0  0  0  0  0  0  0
    5.4199    2.4329  -60.8532 H   0  0  0  0  0  0  0  0  0  0  0  0
    3.8123    1.6314  -60.8532 H   0  0  0  0  0  0  0  0  0  0  0  0
    6.3559    1.2358  -54.3226 H   0  0  0  0  0  0  0  0  0  0  0  0
    6.3641   -0.3978  -55.1099 H   0  0  0  0  0  0  0  0  0  0  0  0
    8.2896    0.6042  -52.9613 H   0  0  0  0  0  0  0  0  0  0  0  0
    6.9632   -0.6248  -52.7763 H   0  0  0  0  0  0  0  0  0  0  0  0
    7.7956   -2.4040  -48.7275 H   0  0  0  0  0  0  0  0  0  0  0  0
    7.6794   -0.9958  -49.8366 H   0  0  0  0  0  0  0  0  0  0  0  0
    6.3913   -2.2478  -49.8366 H   0  0  0  0  0  0  0  0  0  0  0  0
    9.2051   -3.6180  -49.0254 H   0  0  0  0  0  0  0  0  0  0  0  0
    9.1975   -4.7542  -50.4167 H   0  0  0  0  0  0  0  0  0  0  0  0
   10.3071   -3.3416  -50.4167 H   0  0  0  0  0  0  0  0  0  0  0  0
    6.5953   -4.2666  -50.8693 H   0  0  0  0  0  0  0  0  0  0  0  0
    6.6066   -3.0721  -52.2108 H   0  0  0  0  0  0  0  0  0  0  0  0
    7.7781   -4.4339  -52.2108 H   0  0  0  0  0  0  0  0  0  0  0  0
    9.9184   -1.9158  -55.3591 H   0  0  0  0  0  0  0  0  0  0  0  0
    8.1524   -1.9003  -55.7612 H   0  0  0  0  0  0  0  0  0  0  0  0
    9.9921    0.5177  -55.4519 H   0  0  0  0  0  0  0  0  0  0  0  0
    9.2351   -0.1338  -56.9782 H   0  0  0  0  0  0  0  0  0  0  0  0
    9.4598    2.7536  -55.3313 H   0  0  0  0  0  0  0  0  0  0  0  0
   11.5066    4.1555  -55.1450 H   0  0  0  0  0  0  0  0  0  0  0  0
   12.4060    5.3447  -57.1436 H   0  0  0  0  0  0  0  0  0  0  0  0
    9.1170    4.5600  -60.4260 H   0  0  0  0  0  0  0  0  0  0  0  0
    7.4690    2.7070  -61.6540 H   0  0  0  0  0  0  0  0  0  0  0  0
  1  2  1  0
  2  3  2  0
  3  4  1  0
  4  5  2  0
  5  6  1  0
  6  7  1  0
  7  8  1  0
  8  9  1  0
  9 10  1  0
 10 11  2  0
 10 12  1  0
 12 13  1  0
 13 14  1  0
 13 15  1  0
 13 16  1  0
  9 17  1  0
 17 18  1  0
  5 19  1  0
 19 20  1  0
 20 21  2  0
 21 22  1  0
 22 23  2  0
 23 24  1  0
 24 25  1  0
 24 26  2  0
 26 27  1  0
 27 28  1  0
 28 29  1  0
 28 30  2  0
 30  3  1  0
 18  6  1  0
 30 19  1  0
 26 20  1  0
  1 31  1  0
  1 32  1  0
  1 33  1  0
  7 34  1  0
  7 35  1  0
  8 36  1  0
  8 37  1  0
 14 38  1  0
 14 39  1  0
 14 40  1  0
 15 41  1  0
 15 42  1  0
 15 43  1  0
 16 44  1  0
 16 45  1  0
 16 46  1  0
 17 47  1  0
 17 48  1  0
 18 49  1  0
 18 50  1  0
 21 51  1  0
 22 52  1  0
 23 53  1  0
 27 54  1  0
 29 55  1  0
M  END
>  <meeko>  (76) 
{"is_sidechain": false}

$$$$

     RDKit          3D

 56 59  0  0  0  0  0  0  0  0999 V2000
   13.3240    4.5250  -58.6210 C   0  0  0  0  0  0  0  0  0  0  0  0
   12.2870    4.5860  -57.5880 N   0  0  0  0  0  0  0  0  0  0  0  0
   11.1630    3.7910  -57.6660 C   0  0  0  0  0  0  0  0  0  0  0  0
   10.9260    2.9500  -56.6120 N   0  0  0  0  0  0  0  0  0  0  0  0
    9.9640    2.0770  -56.8970 C   0  0  0  0  0  0  0  0  0  0  0  0
    9.7650    0.9370  -56.1970 N   0  0  0  0  0  0  0  0  0  0  0  0
   10.9010   -0.0210  -56.0150 C   0  0  0  0  0  0  0  0  0  0  0  0
   10.4020   -1.4460  -55.7440 C   0  0  0  0  0  0  0  0  0  0  0  0
    9.3920   -1.4130  -54.6900 N   0  0  0  0  0  0  0  0  0  0  0  0
    9.8150   -1.6010  -53.3810 C   0  0  0  0  0  0  0  0  0  0  0  0
   10.9550   -1.9360  -53.0930 O   0  0  0  0  0  0  0  0  0  0  0  0
    8.8360   -1.3260  -52.4850 O   0  0  0  0  0  0  0  0  0  0  0  0
    7.9770   -2.3770  -51.9680 C   0  0  0  0  0  0  0  0  0  0  0  0
    8.1660   -3.6850  -52.7420 C   0  0  0  0  0  0  0  0  0  0  0  0
    6.5490   -1.8640  -52.2110 C   0  0  0  0  0  0  0  0  0  0  0  0
    8.1800   -2.5660  -50.4610 C   0  0  0  0  0  0  0  0  0  0  0  0
    8.2100   -0.6160  -55.0100 C   0  0  0  0  0  0  0  0  0  0  0  0
    8.6330    0.8430  -55.2320 C   0  0  0  0  0  0  0  0  0  0  0  0
    9.3600    2.5180  -57.9950 N   0  0  0  0  0  0  0  0  0  0  0  0
   10.1270    3.5600  -58.5430 C   0  0  0  0  0  0  0  0  0  0  0  0
    9.7470    4.1680  -59.7750 C   0  0  0  0  0  0  0  0  0  0  0  0
   10.4870    5.2070  -60.2090 O   0  0  0  0  0  0  0  0  0  0  0  0
    8.7250    3.7850  -60.4680 N   0  0  0  0  0  0  0  0  0  0  0  0
    7.8710    2.7750  -59.9170 C   0  0  0  0  0  0  0  0  0  0  0  0
    6.6940    2.4100  -60.5850 C   0  0  0  0  0  0  0  0  0  0  0  0
    6.2930    3.0770  -62.1270 Cl  0  0  0  0  0  0  0  0  0  0  0  0
    5.7930    1.5010  -60.0120 C   0  0  0  0  0  0  0  0  0  0  0  0
    6.0390    0.9580  -58.7490 C   0  0  0  0  0  0  0  0  0  0  0  0
    7.2020    1.2910  -58.0580 C   0  0  0  0  0  0  0  0  0  0  0  0
    8.1110    2.1510  -58.6610 C   0  0  0  0  0  0  0  0  0  0  0  0
   14.3136    4.4668  -58.1442 H   0  0  0  0  0  0  0  0  0  0  0  0
   13.1658    3.6346  -59.2472 H   0  0  0  0  0  0  0  0  0  0  0  0
   13.2713    5.4278  -59.2472 H   0  0  0  0  0  0  0  0  0  0  0  0
   12.7500    4.6990  -56.6860 H   0  0  0  0  0  0  0  0  0  0  0  0
   11.5310    2.8700  -55.8080 H   0  0  0  0  0  0  0  0  0  0  0  0
   11.5138   -0.0253  -56.9285 H   0  0  0  0  0  0  0  0  0  0  0  0
   11.4912    0.3071  -55.1467 H   0  0  0  0  0  0  0  0  0  0  0  0
    9.9611   -1.8615  -56.6621 H   0  0  0  0  0  0  0  0  0  0  0  0
   11.2452   -2.0767  -55.4258 H   0  0  0  0  0  0  0  0  0  0  0  0
    8.2862   -4.5169  -52.0324 H   0  0  0  0  0  0  0  0  0  0  0  0
    7.2849   -3.8672  -53.3748 H   0  0  0  0  0  0  0  0  0  0  0  0
    9.0627   -3.6103  -53.3748 H   0  0  0  0  0  0  0  0  0  0  0  0
    6.0539   -1.6861  -51.2449 H   0  0  0  0  0  0  0  0  0  0  0  0
    6.5891   -0.9241  -52.7810 H   0  0  0  0  0  0  0  0  0  0  0  0
    5.9818   -2.6146  -52.7810 H   0  0  0  0  0  0  0  0  0  0  0  0
    7.4821   -1.9162  -49.9127 H   0  0  0  0  0  0  0  0  0  0  0  0
    7.9898   -3.6161  -50.1942 H   0  0  0  0  0  0  0  0  0  0  0  0
    9.2138   -2.3014  -50.1942 H   0  0  0  0  0  0  0  0  0  0  0  0
    7.7391   -1.0062  -55.9243 H   0  0  0  0  0  0  0  0  0  0  0  0
    7.4901   -0.6710  -54.1801 H   0  0  0  0  0  0  0  0  0  0  0  0
    7.7765    1.4083  -55.6280 H   0  0  0  0  0  0  0  0  0  0  0  0
    8.9620    1.2599  -54.2687 H   0  0  0  0  0  0  0  0  0  0  0  0
   10.2820    5.4990  -61.1120 H   0  0  0  0  0  0  0  0  0  0  0  0
    4.8848    1.2132  -60.5619 H   0  0  0  0  0  0  0  0  0  0  0  0
    5.3126    0.2656  -58.2986 H   0  0  0  0  0  0  0  0  0  0  0  0
    7.3964    0.8814  -57.0558 H   0  0  0  0  0  0  0  0  0  0  0  0
  1  2  1  0
  2  3  1  0
  3  4  1  0
  4  5  2  0
  5  6  1  0
  6  7  1  0
  7  8  1  0
  8  9  1  0
  9 10  1  0
 10 11  2  0
 10 12  1  0
 12 13  1  0
 13 14  1  0
 13 15  1  0
 13 16  1  0
  9 17  1  0
 17 18  1  0
  5 19  1  0
 19 20  1  0
 20 21  1  0
 21 22  1  0
 21 23  2  0
 23 24  1  0
 24 25  2  0
 25 26  1  0
 25 27  1  0
 27 28  2  0
 28 29  1  0
 29 30  2  0
 20  3  2  0
 30 24  1  0
 18  6  1  0
 30 19  1  0
  1 31  1  0
  1 32  1  0
  1 33  1  0
  2 34  1  0
  4 35  1  0
  7 36  1  0
  7 37  1  0
  8 38  1  0
  8 39  1  0
 14 40  1  0
 14 41  1  0
 14 42  1  0
 15 43  1  0
 15 44  1  0
 15 45  1  0
 16 46  1  0
 16 47  1  0
 16 48  1  0
 17 49  1  0
 17 50  1  0
 18 51  1  0
 18 52  1  0
 22 53  1  0
 27 54  1  0
 28 55  1  0
 29 56  1  0
M  CHG  1   4   1
M  END
>  <meeko>  (77) 
{"is_sidechain": false}

$$$$

     RDKit          3D

 56 59  0  0  0  0  0  0  0  0999 V2000
    4.5020    2.4050  -58.5270 C   0  0  0  0  0  0  0  0  0  0  0  0
    5.6880    1.5990  -58.7150 N   0  0  0  0  0  0  0  0  0  0  0  0
    6.9470    1.8630  -58.2360 C   0  0  0  0  0  0  0  0  0  0  0  0
    7.4390    1.1190  -57.1960 N   0  0  0  0  0  0  0  0  0  0  0  0
    8.6030    1.5900  -56.7660 C   0  0  0  0  0  0  0  0  0  0  0  0
    9.1640    1.2670  -55.5730 N   0  0  0  0  0  0  0  0  0  0  0  0
   10.3890    0.4310  -55.5390 C   0  0  0  0  0  0  0  0  0  0  0  0
   10.0430   -1.0420  -55.2970 C   0  0  0  0  0  0  0  0  0  0  0  0
    8.9360   -1.2150  -54.3600 N   0  0  0  0  0  0  0  0  0  0  0  0
    8.4100   -2.4860  -54.2060 C   0  0  0  0  0  0  0  0  0  0  0  0
    8.7750   -3.4330  -54.8880 O   0  0  0  0  0  0  0  0  0  0  0  0
    7.4540   -2.5330  -53.2490 O   0  0  0  0  0  0  0  0  0  0  0  0
    7.7100   -3.1630  -51.9650 C   0  0  0  0  0  0  0  0  0  0  0  0
    7.0970   -4.5660  -51.9010 C   0  0  0  0  0  0  0  0  0  0  0  0
    9.2070   -3.1730  -51.6390 C   0  0  0  0  0  0  0  0  0  0  0  0
    6.9910   -2.2660  -50.9440 C   0  0  0  0  0  0  0  0  0  0  0  0
    8.5780   -0.0730  -53.5190 C   0  0  0  0  0  0  0  0  0  0  0  0
    8.2590    1.1570  -54.3860 C   0  0  0  0  0  0  0  0  0  0  0  0
    9.0260    2.4650  -57.6760 N   0  0  0  0  0  0  0  0  0  0  0  0
    7.9510    2.7620  -58.5330 C   0  0  0  0  0  0  0  0  0  0  0  0
    7.9460    3.7830  -59.5440 C   0  0  0  0  0  0  0  0  0  0  0  0
    7.0310    4.1200  -60.2930 O   0  0  0  0  0  0  0  0  0  0  0  0
    9.1700    4.4300  -59.6200 N   0  0  0  0  0  0  0  0  0  0  0  0
   10.3380    4.0910  -58.8870 C   0  0  0  0  0  0  0  0  0  0  0  0
   11.5520    4.7350  -59.1440 C   0  0  0  0  0  0  0  0  0  0  0  0
   11.6570    6.0070  -60.3060 Cl  0  0  0  0  0  0  0  0  0  0  0  0
   12.7120    4.3440  -58.4700 C   0  0  0  0  0  0  0  0  0  0  0  0
   12.6730    3.2930  -57.5470 C   0  0  0  0  0  0  0  0  0  0  0  0
   11.4680    2.6430  -57.2680 C   0  0  0  0  0  0  0  0  0  0  0  0
   10.3190    3.0770  -57.9110 C   0  0  0  0  0  0  0  0  0  0  0  0
    4.3128    2.5336  -57.4510 H   0  0  0  0  0  0  0  0  0  0  0  0
    4.6504    3.3901  -58.9935 H   0  0  0  0  0  0  0  0  0  0  0  0
    3.6407    1.9044  -58.9935 H   0  0  0  0  0  0  0  0  0  0  0  0
    5.5230    0.7860  -59.3150 H   0  0  0  0  0  0  0  0  0  0  0  0
    6.8990    0.4060  -56.7350 H   0  0  0  0  0  0  0  0  0  0  0  0
   10.9143    0.5236  -56.5010 H   0  0  0  0  0  0  0  0  0  0  0  0
   11.0285    0.7804  -54.7150 H   0  0  0  0  0  0  0  0  0  0  0  0
    9.7658   -1.5007  -56.2576 H   0  0  0  0  0  0  0  0  0  0  0  0
   10.9288   -1.5231  -54.8568 H   0  0  0  0  0  0  0  0  0  0  0  0
    6.9677   -4.8620  -50.8495 H   0  0  0  0  0  0  0  0  0  0  0  0
    6.1186   -4.5620  -52.4038 H   0  0  0  0  0  0  0  0  0  0  0  0
    7.7647   -5.2811  -52.4038 H   0  0  0  0  0  0  0  0  0  0  0  0
    9.3446   -3.1739  -50.5476 H   0  0  0  0  0  0  0  0  0  0  0  0
    9.6696   -4.0743  -52.0677 H   0  0  0  0  0  0  0  0  0  0  0  0
    9.6816   -2.2780  -52.0677 H   0  0  0  0  0  0  0  0  0  0  0  0
    7.2503   -2.5894  -49.9251 H   0  0  0  0  0  0  0  0  0  0  0  0
    7.3050   -1.2217  -51.0882 H   0  0  0  0  0  0  0  0  0  0  0  0
    5.9034   -2.3451  -51.0882 H   0  0  0  0  0  0  0  0  0  0  0  0
    7.6942   -0.3302  -52.9168 H   0  0  0  0  0  0  0  0  0  0  0  0
    9.4282    0.1655  -52.8631 H   0  0  0  0  0  0  0  0  0  0  0  0
    7.2201    1.0806  -54.7394 H   0  0  0  0  0  0  0  0  0  0  0  0
    8.4081    2.0531  -53.7657 H   0  0  0  0  0  0  0  0  0  0  0  0
    9.2400    5.1550  -60.3300 H   0  0  0  0  0  0  0  0  0  0  0  0
   13.6607    4.8651  -58.6660 H   0  0  0  0  0  0  0  0  0  0  0  0
   13.5957    2.9769  -57.0384 H   0  0  0  0  0  0  0  0  0  0  0  0
   11.4319    1.8064  -56.5547 H   0  0  0  0  0  0  0  0  0  0  0  0
  1  2  1  0
  2  3  1  0
  3  4  1  0
  4  5  2  0
  5  6  1  0
  6  7  1  0
  7  8  1  0
  8  9  1  0
  9 10  1  0
 10 11  2  0
 10 12  1  0
 12 13  1  0
 13 14  1  0
 13 15  1  0
 13 16  1  0
  9 17  1  0
 17 18  1  0
  5 19  1  0
 19 20  1  0
 20 21  1  0
 21 22  2  0
 21 23  1  0
 23 24  1  0
 24 25  2  0
 25 26  1  0
 25 27  1  0
 27 28  2  0
 28 29  1  0
 29 30  2  0
 20  3  2  0
 30 24  1  0
 18  6  1  0
 30 19  1  0
  1 31  1  0
  1 32  1  0
  1 33  1  0
  2 34  1  0
  4 35  1  0
  7 36  1  0
  7 37  1  0
  8 38  1  0
  8 39  1  0
 14 40  1  0
 14 41  1  0
 14 42  1  0
 15 43  1  0
 15 44  1  0
 15 45  1  0
 16 46  1  0
 16 47  1  0
 16 48  1  0
 17 49  1  0
 17 50  1  0
 18 51  1  0
 18 52  1  0
 23 53  1  0
 27 54  1  0
 28 55  1  0
 29 56  1  0
M  CHG  1   4   1
M  END
>  <meeko>  (78) 
{"is_sidechain": false}

$$$$

     RDKit          3D

 56 59  0  0  0  0  0  0  0  0999 V2000
    3.6580    1.8840  -59.0770 C   0  0  0  0  0  0  0  0  0  0  0  0
    4.9280    2.4220  -59.5420 N   0  0  0  0  0  0  0  0  0  0  0  0
    5.9180    2.3520  -58.7490 C   0  0  0  0  0  0  0  0  0  0  0  0
    5.9700    1.7970  -57.4440 N   0  0  0  0  0  0  0  0  0  0  0  0
    7.2550    1.8570  -56.9310 C   0  0  0  0  0  0  0  0  0  0  0  0
    7.6000    1.1700  -55.7980 N   0  0  0  0  0  0  0  0  0  0  0  0
    8.9380    0.5100  -55.6610 C   0  0  0  0  0  0  0  0  0  0  0  0
    8.8050   -0.9490  -55.2040 C   0  0  0  0  0  0  0  0  0  0  0  0
    8.0380   -1.0730  -53.9690 N   0  0  0  0  0  0  0  0  0  0  0  0
    8.2480   -2.1830  -53.1680 C   0  0  0  0  0  0  0  0  0  0  0  0
    9.0010   -3.0940  -53.4830 O   0  0  0  0  0  0  0  0  0  0  0  0
    7.5320   -2.1230  -52.0200 O   0  0  0  0  0  0  0  0  0  0  0  0
    7.8500   -2.9840  -50.8940 C   0  0  0  0  0  0  0  0  0  0  0  0
    6.9980   -4.2580  -50.9090 C   0  0  0  0  0  0  0  0  0  0  0  0
    7.4730   -2.1560  -49.6550 C   0  0  0  0  0  0  0  0  0  0  0  0
    9.3490   -3.2950  -50.8370 C   0  0  0  0  0  0  0  0  0  0  0  0
    7.1200    0.0060  -53.6130 C   0  0  0  0  0  0  0  0  0  0  0  0
    6.5440    0.6960  -54.8560 C   0  0  0  0  0  0  0  0  0  0  0  0
    8.0600    2.5890  -57.7800 N   0  0  0  0  0  0  0  0  0  0  0  0
    9.3380    3.2080  -57.5810 C   0  0  0  0  0  0  0  0  0  0  0  0
    9.9170    3.4080  -56.3300 C   0  0  0  0  0  0  0  0  0  0  0  0
   11.1740    4.0100  -56.2270 C   0  0  0  0  0  0  0  0  0  0  0  0
   11.8440    4.4450  -57.3710 C   0  0  0  0  0  0  0  0  0  0  0  0
   11.2390    4.3210  -58.6210 C   0  0  0  0  0  0  0  0  0  0  0  0
   12.0630    4.9310  -60.0100 Cl  0  0  0  0  0  0  0  0  0  0  0  0
    9.9690    3.7430  -58.7360 C   0  0  0  0  0  0  0  0  0  0  0  0
    9.2870    3.6530  -59.9710 N   0  0  0  0  0  0  0  0  0  0  0  0
    7.9500    3.3300  -60.0010 C   0  0  0  0  0  0  0  0  0  0  0  0
    7.3370    3.5840  -61.2050 O   0  0  0  0  0  0  0  0  0  0  0  0
    7.3120    2.8060  -58.9430 C   0  0  0  0  0  0  0  0  0  0  0  0
    3.6432    1.8777  -57.9771 H   0  0  0  0  0  0  0  0  0  0  0  0
    2.8352    2.5109  -59.4512 H   0  0  0  0  0  0  0  0  0  0  0  0
    3.5359    0.8569  -59.4512 H   0  0  0  0  0  0  0  0  0  0  0  0
    5.1960    1.3330  -57.0040 H   0  0  0  0  0  0  0  0  0  0  0  0
    9.4490    0.5337  -56.6348 H   0  0  0  0  0  0  0  0  0  0  0  0
    9.5149    1.0571  -54.9008 H   0  0  0  0  0  0  0  0  0  0  0  0
    8.2988   -1.5228  -55.9943 H   0  0  0  0  0  0  0  0  0  0  0  0
    9.8167   -1.3361  -55.0130 H   0  0  0  0  0  0  0  0  0  0  0  0
    6.7885   -4.5712  -49.8755 H   0  0  0  0  0  0  0  0  0  0  0  0
    6.0504   -4.0593  -51.4311 H   0  0  0  0  0  0  0  0  0  0  0  0
    7.5436   -5.0578  -51.4311 H   0  0  0  0  0  0  0  0  0  0  0  0
    7.7295   -2.7193  -48.7456 H   0  0  0  0  0  0  0  0  0  0  0  0
    8.0273   -1.2059  -49.6664 H   0  0  0  0  0  0  0  0  0  0  0  0
    6.3925   -1.9503  -49.6664 H   0  0  0  0  0  0  0  0  0  0  0  0
    9.6700   -3.3616  -49.7870 H   0  0  0  0  0  0  0  0  0  0  0  0
    9.5442   -4.2528  -51.3415 H   0  0  0  0  0  0  0  0  0  0  0  0
    9.9091   -2.4939  -51.3415 H   0  0  0  0  0  0  0  0  0  0  0  0
    6.2919   -0.4115  -53.0214 H   0  0  0  0  0  0  0  0  0  0  0  0
    7.6803    0.7552  -53.0343 H   0  0  0  0  0  0  0  0  0  0  0  0
    5.8960   -0.0180  -55.3854 H   0  0  0  0  0  0  0  0  0  0  0  0
    5.9852    1.5797  -54.5143 H   0  0  0  0  0  0  0  0  0  0  0  0
    9.3838    3.0915  -55.4214 H   0  0  0  0  0  0  0  0  0  0  0  0
   11.6379    4.1417  -55.2383 H   0  0  0  0  0  0  0  0  0  0  0  0
   12.8485    4.8853  -57.2868 H   0  0  0  0  0  0  0  0  0  0  0  0
    9.6350    4.2040  -60.7510 H   0  0  0  0  0  0  0  0  0  0  0  0
    7.3470    4.5390  -61.4100 H   0  0  0  0  0  0  0  0  0  0  0  0
  1  2  1  0
  2  3  2  0
  3  4  1  0
  4  5  2  0
  5  6  1  0
  6  7  1  0
  7  8  1  0
  8  9  1  0
  9 10  1  0
 10 11  2  0
 10 12  1  0
 12 13  1  0
 13 14  1  0
 13 15  1  0
 13 16  1  0
  9 17  1  0
 17 18  1  0
  5 19  1  0
 19 20  1  0
 20 21  2  0
 21 22  1  0
 22 23  2  0
 23 24  1  0
 24 25  1  0
 24 26  2  0
 26 27  1  0
 27 28  1  0
 28 29  1  0
 28 30  2  0
 30  3  1  0
 18  6  1  0
 30 19  1  0
 26 20  1  0
  1 31  1  0
  1 32  1  0
  1 33  1  0
  4 34  1  0
  7 35  1  0
  7 36  1  0
  8 37  1  0
  8 38  1  0
 14 39  1  0
 14 40  1  0
 14 41  1  0
 15 42  1  0
 15 43  1  0
 15 44  1  0
 16 45  1  0
 16 46  1  0
 16 47  1  0
 17 48  1  0
 17 49  1  0
 18 50  1  0
 18 51  1  0
 21 52  1  0
 22 53  1  0
 23 54  1  0
 27 55  1  0
 29 56  1  0
M  CHG  1   4   1
M  END
>  <meeko>  (79) 
{"is_sidechain": false}

$$$$

     RDKit          3D

 56 59  0  0  0  0  0  0  0  0999 V2000
    3.8090    2.3670  -59.7860 C   0  0  0  0  0  0  0  0  0  0  0  0
    4.1140    1.8820  -58.4520 N   0  0  0  0  0  0  0  0  0  0  0  0
    5.3020    1.9630  -58.0300 C   0  0  0  0  0  0  0  0  0  0  0  0
    5.5400    1.5050  -56.7070 N   0  0  0  0  0  0  0  0  0  0  0  0
    6.8540    1.6100  -56.3520 C   0  0  0  0  0  0  0  0  0  0  0  0
    7.3340    1.0320  -55.2160 N   0  0  0  0  0  0  0  0  0  0  0  0
    8.6380    0.3020  -55.1940 C   0  0  0  0  0  0  0  0  0  0  0  0
    8.4330   -1.1980  -54.9400 C   0  0  0  0  0  0  0  0  0  0  0  0
    7.5440   -1.4560  -53.8100 N   0  0  0  0  0  0  0  0  0  0  0  0
    7.7270   -2.6400  -53.1060 C   0  0  0  0  0  0  0  0  0  0  0  0
    8.6920   -3.3720  -53.2740 O   0  0  0  0  0  0  0  0  0  0  0  0
    6.7200   -2.8720  -52.2290 O   0  0  0  0  0  0  0  0  0  0  0  0
    6.9820   -3.4560  -50.9240 C   0  0  0  0  0  0  0  0  0  0  0  0
    7.6480   -4.8310  -51.0530 C   0  0  0  0  0  0  0  0  0  0  0  0
    5.5920   -3.6410  -50.2970 C   0  0  0  0  0  0  0  0  0  0  0  0
    7.7960   -2.5040  -50.0410 C   0  0  0  0  0  0  0  0  0  0  0  0
    6.2720   -0.7340  -53.7930 C   0  0  0  0  0  0  0  0  0  0  0  0
    6.4670    0.7650  -54.0340 C   0  0  0  0  0  0  0  0  0  0  0  0
    7.5500    2.2700  -57.3420 N   0  0  0  0  0  0  0  0  0  0  0  0
    8.8390    2.8910  -57.3010 C   0  0  0  0  0  0  0  0  0  0  0  0
    9.5410    3.1550  -56.1250 C   0  0  0  0  0  0  0  0  0  0  0  0
   10.8010    3.7600  -56.1790 C   0  0  0  0  0  0  0  0  0  0  0  0
   11.3550    4.1270  -57.4050 C   0  0  0  0  0  0  0  0  0  0  0  0
   10.6330    3.9270  -58.5800 C   0  0  0  0  0  0  0  0  0  0  0  0
   11.3140    4.4430  -60.0790 Cl  0  0  0  0  0  0  0  0  0  0  0  0
    9.3570    3.3470  -58.5370 C   0  0  0  0  0  0  0  0  0  0  0  0
    8.5760    3.1550  -59.7060 N   0  0  0  0  0  0  0  0  0  0  0  0
    7.2430    2.8240  -59.5850 C   0  0  0  0  0  0  0  0  0  0  0  0
    6.5150    2.9190  -60.7410 O   0  0  0  0  0  0  0  0  0  0  0  0
    6.6740    2.4040  -58.4390 C   0  0  0  0  0  0  0  0  0  0  0  0
    3.2247    3.2962  -59.7136 H   0  0  0  0  0  0  0  0  0  0  0  0
    4.7459    2.5643  -60.3275 H   0  0  0  0  0  0  0  0  0  0  0  0
    3.2253    1.6080  -60.3275 H   0  0  0  0  0  0  0  0  0  0  0  0
    4.8010    1.0790  -56.1780 H   0  0  0  0  0  0  0  0  0  0  0  0
    9.1401    0.4360  -56.1635 H   0  0  0  0  0  0  0  0  0  0  0  0
    9.2517    0.7117  -54.3782 H   0  0  0  0  0  0  0  0  0  0  0  0
    7.9982   -1.6527  -55.8423 H   0  0  0  0  0  0  0  0  0  0  0  0
    9.4140   -1.6344  -54.7008 H   0  0  0  0  0  0  0  0  0  0  0  0
    7.8453   -5.2384  -50.0504 H   0  0  0  0  0  0  0  0  0  0  0  0
    6.9799   -5.5121  -51.6006 H   0  0  0  0  0  0  0  0  0  0  0  0
    8.5966   -4.7290  -51.6006 H   0  0  0  0  0  0  0  0  0  0  0  0
    5.6798   -3.6293  -49.2006 H   0  0  0  0  0  0  0  0  0  0  0  0
    4.9319   -2.8228  -50.6207 H   0  0  0  0  0  0  0  0  0  0  0  0
    5.1689   -4.6034  -50.6207 H   0  0  0  0  0  0  0  0  0  0  0  0
    7.6024   -2.7304  -48.9821 H   0  0  0  0  0  0  0  0  0  0  0  0
    8.8676   -2.6328  -50.2536 H   0  0  0  0  0  0  0  0  0  0  0  0
    7.5023   -1.4655  -50.2536 H   0  0  0  0  0  0  0  0  0  0  0  0
    5.6214   -1.1399  -54.5816 H   0  0  0  0  0  0  0  0  0  0  0  0
    5.8174   -0.8648  -52.7999 H   0  0  0  0  0  0  0  0  0  0  0  0
    5.4838    1.2284  -54.2028 H   0  0  0  0  0  0  0  0  0  0  0  0
    6.9604    1.1904  -53.1476 H   0  0  0  0  0  0  0  0  0  0  0  0
    9.1026    2.8867  -55.1525 H   0  0  0  0  0  0  0  0  0  0  0  0
   11.3580    3.9473  -55.2491 H   0  0  0  0  0  0  0  0  0  0  0  0
   12.3596    4.5733  -57.4445 H   0  0  0  0  0  0  0  0  0  0  0  0
    8.8540    3.7480  -60.4860 H   0  0  0  0  0  0  0  0  0  0  0  0
    5.5740    2.9670  -60.4960 H   0  0  0  0  0  0  0  0  0  0  0  0
  1  2  1  0
  2  3  2  0
  3  4  1  0
  4  5  2  0
  5  6  1  0
  6  7  1  0
  7  8  1  0
  8  9  1  0
  9 10  1  0
 10 11  2  0
 10 12  1  0
 12 13  1  0
 13 14  1  0
 13 15  1  0
 13 16  1  0
  9 17  1  0
 17 18  1  0
  5 19  1  0
 19 20  1  0
 20 21  2  0
 21 22  1  0
 22 23  2  0
 23 24  1  0
 24 25  1  0
 24 26  2  0
 26 27  1  0
 27 28  1  0
 28 29  1  0
 28 30  2  0
 30  3  1  0
 18  6  1  0
 30 19  1  0
 26 20  1  0
  1 31  1  0
  1 32  1  0
  1 33  1  0
  4 34  1  0
  7 35  1  0
  7 36  1  0
  8 37  1  0
  8 38  1  0
 14 39  1  0
 14 40  1  0
 14 41  1  0
 15 42  1  0
 15 43  1  0
 15 44  1  0
 16 45  1  0
 16 46  1  0
 16 47  1  0
 17 48  1  0
 17 49  1  0
 18 50  1  0
 18 51  1  0
 21 52  1  0
 22 53  1  0
 23 54  1  0
 27 55  1  0
 29 56  1  0
M  CHG  1   4   1
M  END
>  <meeko>  (80) 
{"is_sidechain": false}

$$$$

     RDKit          3D

 34 37  0  0  0  0  0  0  0  0999 V2000
    5.9090    1.4130  -55.7100 O   0  0  0  0  0  0  0  0  0  0  0  0
    6.4170    1.6840  -56.9160 C   0  0  0  0  0  0  0  0  0  0  0  0
    5.6390    1.8880  -57.9210 N   0  0  0  0  0  0  0  0  0  0  0  0
    6.2590    2.1210  -59.1740 C   0  0  0  0  0  0  0  0  0  0  0  0
    5.4070    2.2780  -60.2720 C   0  0  0  0  0  0  0  0  0  0  0  0
    5.9240    2.4170  -61.5560 C   0  0  0  0  0  0  0  0  0  0  0  0
    7.3010    2.3420  -61.7540 C   0  0  0  0  0  0  0  0  0  0  0  0
    8.1780    2.1790  -60.6700 C   0  0  0  0  0  0  0  0  0  0  0  0
    9.8070    1.8090  -61.1100 Cl  0  0  0  0  0  0  0  0  0  0  0  0
    7.6660    2.1500  -59.3670 C   0  0  0  0  0  0  0  0  0  0  0  0
    8.4300    2.0910  -58.1710 N   0  0  0  0  0  0  0  0  0  0  0  0
    9.7490    2.4000  -57.8340 C   0  0  0  0  0  0  0  0  0  0  0  0
   10.5720    3.1850  -58.5840 N   0  0  0  0  0  0  0  0  0  0  0  0
   10.1130    4.5530  -58.9200 C   0  0  0  0  0  0  0  0  0  0  0  0
   11.0780    5.6140  -58.3660 C   0  0  0  0  0  0  0  0  0  0  0  0
   12.4130    5.4830  -58.8770 O   0  0  0  0  0  0  0  0  0  0  0  0
   12.7970    4.1160  -59.1080 C   0  0  0  0  0  0  0  0  0  0  0  0
   12.0130    3.1070  -58.2560 C   0  0  0  0  0  0  0  0  0  0  0  0
   10.0410    1.9180  -56.6420 N   0  0  0  0  0  0  0  0  0  0  0  0
    8.8420    1.5600  -56.1000 C   0  0  0  0  0  0  0  0  0  0  0  0
    8.6970    1.1330  -54.8400 F   0  0  0  0  0  0  0  0  0  0  0  0
    7.8190    1.7590  -56.9800 C   0  0  0  0  0  0  0  0  0  0  0  0
    5.0150    1.7910  -55.6770 H   0  0  0  0  0  0  0  0  0  0  0  0
    4.3178    2.2917  -60.1188 H   0  0  0  0  0  0  0  0  0  0  0  0
    5.2502    2.5850  -62.4091 H   0  0  0  0  0  0  0  0  0  0  0  0
    7.7067    2.4115  -62.7741 H   0  0  0  0  0  0  0  0  0  0  0  0
   10.0575    4.6545  -60.0139 H   0  0  0  0  0  0  0  0  0  0  0  0
    9.1236    4.7103  -58.4657 H   0  0  0  0  0  0  0  0  0  0  0  0
   10.6960    6.6096  -58.6359 H   0  0  0  0  0  0  0  0  0  0  0  0
   11.1289    5.4738  -57.2762 H   0  0  0  0  0  0  0  0  0  0  0  0
   12.6276    3.8814  -60.1693 H   0  0  0  0  0  0  0  0  0  0  0  0
   13.8559    4.0251  -58.8244 H   0  0  0  0  0  0  0  0  0  0  0  0
   12.3801    2.0910  -58.4635 H   0  0  0  0  0  0  0  0  0  0  0  0
   12.1559    3.3430  -57.1912 H   0  0  0  0  0  0  0  0  0  0  0  0
  1  2  1  0
  2  3  2  0
  3  4  1  0
  4  5  2  0
  5  6  1  0
  6  7  2  0
  7  8  1  0
  8  9  1  0
  8 10  2  0
 10 11  1  0
 11 12  1  0
 12 13  1  0
 13 14  1  0
 14 15  1  0
 15 16  1  0
 16 17  1  0
 17 18  1  0
 12 19  2  0
 19 20  1  0
 20 21  1  0
 20 22  2  0
 22  2  1  0
 10  4  1  0
 22 11  1  0
 18 13  1  0
  1 23  1  0
  5 24  1  0
  6 25  1  0
  7 26  1  0
 14 27  1  0
 14 28  1  0
 15 29  1  0
 15 30  1  0
 17 31  1  0
 17 32  1  0
 18 33  1  0
 18 34  1  0
M  END
>  <meeko>  (81) 
{"is_sidechain": false}

$$$$

     RDKit          3D

 34 37  0  0  0  0  0  0  0  0999 V2000
    6.3600    1.5200  -55.7910 O   0  0  0  0  0  0  0  0  0  0  0  0
    6.8750    1.8250  -56.8610 C   0  0  0  0  0  0  0  0  0  0  0  0
    6.0970    2.0160  -57.9780 N   0  0  0  0  0  0  0  0  0  0  0  0
    6.6140    2.2530  -59.2620 C   0  0  0  0  0  0  0  0  0  0  0  0
    5.7100    2.3230  -60.3240 C   0  0  0  0  0  0  0  0  0  0  0  0
    6.1830    2.4670  -61.6220 C   0  0  0  0  0  0  0  0  0  0  0  0
    7.5570    2.4890  -61.8570 C   0  0  0  0  0  0  0  0  0  0  0  0
    8.4750    2.4170  -60.7970 C   0  0  0  0  0  0  0  0  0  0  0  0
   10.1150    2.1790  -61.2850 Cl  0  0  0  0  0  0  0  0  0  0  0  0
    8.0050    2.3750  -59.4770 C   0  0  0  0  0  0  0  0  0  0  0  0
    8.7990    2.4000  -58.2980 N   0  0  0  0  0  0  0  0  0  0  0  0
   10.1030    2.8150  -58.0210 C   0  0  0  0  0  0  0  0  0  0  0  0
   10.8340    3.6410  -58.8250 N   0  0  0  0  0  0  0  0  0  0  0  0
   10.4500    5.0750  -58.7840 C   0  0  0  0  0  0  0  0  0  0  0  0
   11.5800    5.9610  -59.3290 C   0  0  0  0  0  0  0  0  0  0  0  0
   12.7910    5.8610  -58.5660 O   0  0  0  0  0  0  0  0  0  0  0  0
   12.9910    4.5560  -57.9940 C   0  0  0  0  0  0  0  0  0  0  0  0
   12.3050    3.4370  -58.7890 C   0  0  0  0  0  0  0  0  0  0  0  0
   10.4740    2.4100  -56.8230 N   0  0  0  0  0  0  0  0  0  0  0  0
    9.3330    1.9660  -56.2300 C   0  0  0  0  0  0  0  0  0  0  0  0
    9.2690    1.5680  -54.9540 F   0  0  0  0  0  0  0  0  0  0  0  0
    8.2620    2.0480  -57.0750 C   0  0  0  0  0  0  0  0  0  0  0  0
    5.1030    1.8750  -57.8370 H   0  0  0  0  0  0  0  0  0  0  0  0
    4.6282    2.2644  -60.1335 H   0  0  0  0  0  0  0  0  0  0  0  0
    5.4771    2.5632  -62.4602 H   0  0  0  0  0  0  0  0  0  0  0  0
    7.9280    2.5640  -62.8898 H   0  0  0  0  0  0  0  0  0  0  0  0
    9.5484    5.2240  -59.3963 H   0  0  0  0  0  0  0  0  0  0  0  0
   10.2556    5.3569  -57.7387 H   0  0  0  0  0  0  0  0  0  0  0  0
   11.7930    5.6590  -60.3651 H   0  0  0  0  0  0  0  0  0  0  0  0
   11.2379    7.0046  -59.2664 H   0  0  0  0  0  0  0  0  0  0  0  0
   14.0711    4.3502  -57.9612 H   0  0  0  0  0  0  0  0  0  0  0  0
   12.5422    4.5665  -56.9898 H   0  0  0  0  0  0  0  0  0  0  0  0
   12.6941    3.4349  -59.8179 H   0  0  0  0  0  0  0  0  0  0  0  0
   12.5157    2.4755  -58.2980 H   0  0  0  0  0  0  0  0  0  0  0  0
  1  2  2  0
  2  3  1  0
  3  4  1  0
  4  5  2  0
  5  6  1  0
  6  7  2  0
  7  8  1  0
  8  9  1  0
  8 10  2  0
 10 11  1  0
 11 12  1  0
 12 13  1  0
 13 14  1  0
 14 15  1  0
 15 16  1  0
 16 17  1  0
 17 18  1  0
 12 19  2  0
 19 20  1  0
 20 21  1  0
 20 22  2  0
 22  2  1  0
 10  4  1  0
 22 11  1  0
 18 13  1  0
  3 23  1  0
  5 24  1  0
  6 25  1  0
  7 26  1  0
 14 27  1  0
 14 28  1  0
 15 29  1  0
 15 30  1  0
 17 31  1  0
 17 32  1  0
 18 33  1  0
 18 34  1  0
M  END
>  <meeko>  (82) 
{"is_sidechain": false}

$$$$

     RDKit          3D

 35 38  0  0  0  0  0  0  0  0999 V2000
   11.1450    0.4330  -56.0670 O   0  0  0  0  0  0  0  0  0  0  0  0
   10.7830    1.4770  -56.8350 C   0  0  0  0  0  0  0  0  0  0  0  0
   11.6860    2.1170  -57.5060 N   0  0  0  0  0  0  0  0  0  0  0  0
   11.2850    3.2620  -58.2580 C   0  0  0  0  0  0  0  0  0  0  0  0
   12.2940    4.0090  -58.8670 C   0  0  0  0  0  0  0  0  0  0  0  0
   11.9970    5.2070  -59.5220 C   0  0  0  0  0  0  0  0  0  0  0  0
   10.6870    5.6960  -59.5340 C   0  0  0  0  0  0  0  0  0  0  0  0
    9.6520    4.9710  -58.9360 C   0  0  0  0  0  0  0  0  0  0  0  0
    8.1300    5.7670  -58.7840 Cl  0  0  0  0  0  0  0  0  0  0  0  0
    9.9420    3.7250  -58.3720 C   0  0  0  0  0  0  0  0  0  0  0  0
    8.9480    2.8310  -57.7570 N   0  0  0  0  0  0  0  0  0  0  0  0
    7.6250    2.7170  -57.8750 C   0  0  0  0  0  0  0  0  0  0  0  0
    6.8250    3.0710  -58.9080 N   0  0  0  0  0  0  0  0  0  0  0  0
    5.3930    3.3590  -58.7010 C   0  0  0  0  0  0  0  0  0  0  0  0
    4.5190    2.1930  -59.1810 C   0  0  0  0  0  0  0  0  0  0  0  0
    5.1110    1.4330  -60.2440 O   0  0  0  0  0  0  0  0  0  0  0  0
    5.9580    2.2210  -61.0850 C   0  0  0  0  0  0  0  0  0  0  0  0
    7.1980    2.6380  -60.2870 C   0  0  0  0  0  0  0  0  0  0  0  0
    7.2220    2.0080  -56.8220 N   0  0  0  0  0  0  0  0  0  0  0  0
    8.2940    1.3590  -56.2620 C   0  0  0  0  0  0  0  0  0  0  0  0
    8.2350    0.4180  -55.3190 F   0  0  0  0  0  0  0  0  0  0  0  0
    9.4040    1.8140  -56.9010 C   0  0  0  0  0  0  0  0  0  0  0  0
   12.0340    0.4600  -55.6820 H   0  0  0  0  0  0  0  0  0  0  0  0
   13.3336    3.6512  -58.8311 H   0  0  0  0  0  0  0  0  0  0  0  0
   12.7961    5.7671  -60.0297 H   0  0  0  0  0  0  0  0  0  0  0  0
   10.4690    6.6594  -60.0181 H   0  0  0  0  0  0  0  0  0  0  0  0
    5.2117    3.5261  -57.6290 H   0  0  0  0  0  0  0  0  0  0  0  0
    5.1297    4.2549  -59.2824 H   0  0  0  0  0  0  0  0  0  0  0  0
    4.3391    1.5196  -58.3300 H   0  0  0  0  0  0  0  0  0  0  0  0
    3.5879    2.6274  -59.5739 H   0  0  0  0  0  0  0  0  0  0  0  0
    6.2637    1.6290  -61.9603 H   0  0  0  0  0  0  0  0  0  0  0  0
    5.4164    3.1151  -61.4276 H   0  0  0  0  0  0  0  0  0  0  0  0
    7.8880    1.7838  -60.2217 H   0  0  0  0  0  0  0  0  0  0  0  0
    7.6788    3.4828  -60.8019 H   0  0  0  0  0  0  0  0  0  0  0  0
    6.2620    1.8030  -56.5810 H   0  0  0  0  0  0  0  0  0  0  0  0
  1  2  1  0
  2  3  2  0
  3  4  1  0
  4  5  2  0
  5  6  1  0
  6  7  2  0
  7  8  1  0
  8  9  1  0
  8 10  2  0
 10 11  1  0
 11 12  1  0
 12 13  1  0
 13 14  1  0
 14 15  1  0
 15 16  1  0
 16 17  1  0
 17 18  1  0
 12 19  2  0
 19 20  1  0
 20 21  1  0
 20 22  2  0
 22  2  1  0
 10  4  1  0
 22 11  1  0
 18 13  1  0
  1 23  1  0
  5 24  1  0
  6 25  1  0
  7 26  1  0
 14 27  1  0
 14 28  1  0
 15 29  1  0
 15 30  1  0
 17 31  1  0
 17 32  1  0
 18 33  1  0
 18 34  1  0
 19 35  1  0
M  CHG  1  19   1
M  END
>  <meeko>  (83) 
{"is_sidechain": false}

$$$$

     RDKit          3D

 35 38  0  0  0  0  0  0  0  0999 V2000
    5.1380    2.2300  -61.4230 O   0  0  0  0  0  0  0  0  0  0  0  0
    5.9870    2.2620  -60.5390 C   0  0  0  0  0  0  0  0  0  0  0  0
    5.5970    2.1530  -59.2090 N   0  0  0  0  0  0  0  0  0  0  0  0
    6.4710    2.0280  -58.0990 C   0  0  0  0  0  0  0  0  0  0  0  0
    5.9260    1.7490  -56.8470 C   0  0  0  0  0  0  0  0  0  0  0  0
    6.7720    1.5020  -55.7640 C   0  0  0  0  0  0  0  0  0  0  0  0
    8.1610    1.4870  -55.9390 C   0  0  0  0  0  0  0  0  0  0  0  0
    8.7240    1.7730  -57.1880 C   0  0  0  0  0  0  0  0  0  0  0  0
   10.4120    1.4850  -57.3750 Cl  0  0  0  0  0  0  0  0  0  0  0  0
    7.8730    2.1210  -58.2380 C   0  0  0  0  0  0  0  0  0  0  0  0
    8.3070    2.5120  -59.5760 N   0  0  0  0  0  0  0  0  0  0  0  0
    9.4560    3.0020  -60.0460 C   0  0  0  0  0  0  0  0  0  0  0  0
   10.4000    3.7430  -59.4210 N   0  0  0  0  0  0  0  0  0  0  0  0
   10.1380    5.1520  -59.0290 C   0  0  0  0  0  0  0  0  0  0  0  0
   11.3100    6.0390  -59.4650 C   0  0  0  0  0  0  0  0  0  0  0  0
   12.5740    5.6250  -58.9360 O   0  0  0  0  0  0  0  0  0  0  0  0
   12.6540    4.2510  -58.5420 C   0  0  0  0  0  0  0  0  0  0  0  0
   11.8230    3.3330  -59.4400 C   0  0  0  0  0  0  0  0  0  0  0  0
    9.4570    2.7520  -61.3520 N   0  0  0  0  0  0  0  0  0  0  0  0
    8.1730    2.5040  -61.7740 C   0  0  0  0  0  0  0  0  0  0  0  0
    7.7850    2.4100  -63.0460 F   0  0  0  0  0  0  0  0  0  0  0  0
    7.4020    2.4290  -60.6520 C   0  0  0  0  0  0  0  0  0  0  0  0
    4.5980    2.0290  -59.0710 H   0  0  0  0  0  0  0  0  0  0  0  0
    4.8345    1.7235  -56.7127 H   0  0  0  0  0  0  0  0  0  0  0  0
    6.3446    1.3181  -54.7673 H   0  0  0  0  0  0  0  0  0  0  0  0
    8.8154    1.2484  -55.0876 H   0  0  0  0  0  0  0  0  0  0  0  0
    9.2153    5.5009  -59.5157 H   0  0  0  0  0  0  0  0  0  0  0  0
   10.0256    5.2100  -57.9363 H   0  0  0  0  0  0  0  0  0  0  0  0
   11.3702    6.0196  -60.5632 H   0  0  0  0  0  0  0  0  0  0  0  0
   11.1126    7.0475  -59.0727 H   0  0  0  0  0  0  0  0  0  0  0  0
   13.7056    3.9317  -58.5884 H   0  0  0  0  0  0  0  0  0  0  0  0
   12.2513    4.1728  -57.5213 H   0  0  0  0  0  0  0  0  0  0  0  0
   12.2036    3.3923  -60.4703 H   0  0  0  0  0  0  0  0  0  0  0  0
   11.9023    2.3013  -59.0668 H   0  0  0  0  0  0  0  0  0  0  0  0
   10.2250    2.9120  -61.9890 H   0  0  0  0  0  0  0  0  0  0  0  0
  1  2  2  0
  2  3  1  0
  3  4  1  0
  4  5  2  0
  5  6  1  0
  6  7  2  0
  7  8  1  0
  8  9  1  0
  8 10  2  0
 10 11  1  0
 11 12  1  0
 12 13  1  0
 13 14  1  0
 14 15  1  0
 15 16  1  0
 16 17  1  0
 17 18  1  0
 12 19  2  0
 19 20  1  0
 20 21  1  0
 20 22  2  0
 22  2  1  0
 10  4  1  0
 22 11  1  0
 18 13  1  0
  3 23  1  0
  5 24  1  0
  6 25  1  0
  7 26  1  0
 14 27  1  0
 14 28  1  0
 15 29  1  0
 15 30  1  0
 17 31  1  0
 17 32  1  0
 18 33  1  0
 18 34  1  0
 19 35  1  0
M  CHG  1  19   1
M  END
>  <meeko>  (84) 
{"is_sidechain": false}

$$$$

     RDKit          3D

 43 47  0  0  0  0  0  0  0  0999 V2000
    6.1780    2.9110  -59.5080 O   0  0  0  0  0  0  0  0  0  0  0  0
    7.3770    2.8230  -58.9030 C   0  0  0  0  0  0  0  0  0  0  0  0
    8.4300    3.2830  -59.4830 N   0  0  0  0  0  0  0  0  0  0  0  0
    9.6740    3.1930  -58.8060 C   0  0  0  0  0  0  0  0  0  0  0  0
   10.8290    3.7420  -59.3910 C   0  0  0  0  0  0  0  0  0  0  0  0
   10.7760    4.5030  -60.9440 Cl  0  0  0  0  0  0  0  0  0  0  0  0
   12.0610    3.6960  -58.7320 C   0  0  0  0  0  0  0  0  0  0  0  0
   12.1570    3.1110  -57.4720 C   0  0  0  0  0  0  0  0  0  0  0  0
   11.0270    2.5570  -56.8690 C   0  0  0  0  0  0  0  0  0  0  0  0
    9.8000    2.5760  -57.5380 C   0  0  0  0  0  0  0  0  0  0  0  0
    8.6140    2.0240  -56.9900 N   0  0  0  0  0  0  0  0  0  0  0  0
    8.3470    1.2780  -55.8480 C   0  0  0  0  0  0  0  0  0  0  0  0
    9.2810    0.7670  -55.0080 N   0  0  0  0  0  0  0  0  0  0  0  0
    9.3540   -0.6130  -54.6490 C   0  0  0  0  0  0  0  0  0  0  0  0
    8.5690   -1.2020  -53.6510 C   0  0  0  0  0  0  0  0  0  0  0  0
    8.6580   -2.5700  -53.3930 C   0  0  0  0  0  0  0  0  0  0  0  0
    9.5240   -3.3710  -54.1380 C   0  0  0  0  0  0  0  0  0  0  0  0
   10.3140   -2.8200  -55.1560 C   0  0  0  0  0  0  0  0  0  0  0  0
   11.2230   -3.6630  -55.9510 C   0  0  0  0  0  0  0  0  0  0  0  0
   11.5210   -3.3440  -57.2870 C   0  0  0  0  0  0  0  0  0  0  0  0
   12.3820   -4.1440  -58.0430 C   0  0  0  0  0  0  0  0  0  0  0  0
   12.9610   -5.2760  -57.4760 C   0  0  0  0  0  0  0  0  0  0  0  0
   12.6790   -5.6100  -56.1540 C   0  0  0  0  0  0  0  0  0  0  0  0
   11.8170   -4.8100  -55.3980 C   0  0  0  0  0  0  0  0  0  0  0  0
   10.2100   -1.4390  -55.3990 C   0  0  0  0  0  0  0  0  0  0  0  0
    7.0500    1.1590  -55.6600 N   0  0  0  0  0  0  0  0  0  0  0  0
    6.4600    1.6890  -56.7730 C   0  0  0  0  0  0  0  0  0  0  0  0
    4.7700    1.6690  -56.9820 Cl  0  0  0  0  0  0  0  0  0  0  0  0
    7.4030    2.1960  -57.6310 C   0  0  0  0  0  0  0  0  0  0  0  0
    5.5390    2.2460  -59.2120 H   0  0  0  0  0  0  0  0  0  0  0  0
   12.9556    4.1224  -59.2093 H   0  0  0  0  0  0  0  0  0  0  0  0
   13.1254    3.0855  -56.9510 H   0  0  0  0  0  0  0  0  0  0  0  0
   11.1019    2.1060  -55.8685 H   0  0  0  0  0  0  0  0  0  0  0  0
    9.3210    1.2930  -54.1330 H   0  0  0  0  0  0  0  0  0  0  0  0
    7.8758   -0.5807  -53.0650 H   0  0  0  0  0  0  0  0  0  0  0  0
    8.0430   -3.0190  -52.5991 H   0  0  0  0  0  0  0  0  0  0  0  0
    9.5875   -4.4481  -53.9237 H   0  0  0  0  0  0  0  0  0  0  0  0
   11.0697   -2.4512  -57.7444 H   0  0  0  0  0  0  0  0  0  0  0  0
   12.6026   -3.8789  -59.0876 H   0  0  0  0  0  0  0  0  0  0  0  0
   13.6396   -5.9050  -58.0709 H   0  0  0  0  0  0  0  0  0  0  0  0
   13.1349   -6.5042  -55.7040 H   0  0  0  0  0  0  0  0  0  0  0  0
   11.6005   -5.0826  -54.3545 H   0  0  0  0  0  0  0  0  0  0  0  0
   10.8166   -0.9912  -56.2000 H   0  0  0  0  0  0  0  0  0  0  0  0
  1  2  1  0
  2  3  2  0
  3  4  1  0
  4  5  2  0
  5  6  1  0
  5  7  1  0
  7  8  2  0
  8  9  1  0
  9 10  2  0
 10 11  1  0
 11 12  1  0
 12 13  1  0
 13 14  1  0
 14 15  2  0
 15 16  1  0
 16 17  2  0
 17 18  1  0
 18 19  1  0
 19 20  2  0
 20 21  1  0
 21 22  2  0
 22 23  1  0
 23 24  2  0
 18 25  2  0
 12 26  2  0
 26 27  1  0
 27 28  1  0
 27 29  2  0
 29  2  1  0
 10  4  1  0
 29 11  1  0
 25 14  1  0
 24 19  1  0
  1 30  1  0
  7 31  1  0
  8 32  1  0
  9 33  1  0
 13 34  1  0
 15 35  1  0
 16 36  1  0
 17 37  1  0
 20 38  1  0
 21 39  1  0
 22 40  1  0
 23 41  1  0
 24 42  1  0
 25 43  1  0
M  END
>  <meeko>  (85) 
{"is_sidechain": false}

$$$$

     RDKit          3D

 43 47  0  0  0  0  0  0  0  0999 V2000
    6.3850    4.0130  -59.1240 O   0  0  0  0  0  0  0  0  0  0  0  0
    7.3980    3.6080  -58.5640 C   0  0  0  0  0  0  0  0  0  0  0  0
    8.6280    4.0990  -58.9290 N   0  0  0  0  0  0  0  0  0  0  0  0
    9.8510    3.6700  -58.3810 C   0  0  0  0  0  0  0  0  0  0  0  0
   11.0610    4.1870  -58.8660 C   0  0  0  0  0  0  0  0  0  0  0  0
   11.0860    5.3790  -60.1170 Cl  0  0  0  0  0  0  0  0  0  0  0  0
   12.2750    3.7360  -58.3480 C   0  0  0  0  0  0  0  0  0  0  0  0
   12.2840    2.7610  -57.3510 C   0  0  0  0  0  0  0  0  0  0  0  0
   11.0840    2.2410  -56.8580 C   0  0  0  0  0  0  0  0  0  0  0  0
    9.8650    2.7100  -57.3540 C   0  0  0  0  0  0  0  0  0  0  0  0
    8.6030    2.2470  -56.8970 N   0  0  0  0  0  0  0  0  0  0  0  0
    8.2290    1.3970  -55.8620 C   0  0  0  0  0  0  0  0  0  0  0  0
    9.0620    0.9070  -54.9110 N   0  0  0  0  0  0  0  0  0  0  0  0
    9.1450   -0.4770  -54.5720 C   0  0  0  0  0  0  0  0  0  0  0  0
    8.4400   -1.0650  -53.5160 C   0  0  0  0  0  0  0  0  0  0  0  0
    8.6110   -2.4160  -53.2140 C   0  0  0  0  0  0  0  0  0  0  0  0
    9.4980   -3.1960  -53.9560 C   0  0  0  0  0  0  0  0  0  0  0  0
   10.2290   -2.6400  -55.0160 C   0  0  0  0  0  0  0  0  0  0  0  0
   11.1710   -3.4570  -55.7990 C   0  0  0  0  0  0  0  0  0  0  0  0
   11.5530   -3.0780  -57.0970 C   0  0  0  0  0  0  0  0  0  0  0  0
   12.4480   -3.8520  -57.8390 C   0  0  0  0  0  0  0  0  0  0  0  0
   12.9780   -5.0190  -57.2960 C   0  0  0  0  0  0  0  0  0  0  0  0
   12.6130   -5.4130  -56.0120 C   0  0  0  0  0  0  0  0  0  0  0  0
   11.7170   -4.6380  -55.2700 C   0  0  0  0  0  0  0  0  0  0  0  0
   10.0390   -1.2770  -55.3060 C   0  0  0  0  0  0  0  0  0  0  0  0
    6.9510    1.0980  -55.9390 N   0  0  0  0  0  0  0  0  0  0  0  0
    6.4390    1.8880  -56.9350 C   0  0  0  0  0  0  0  0  0  0  0  0
    4.7790    1.8690  -57.3120 Cl  0  0  0  0  0  0  0  0  0  0  0  0
    7.4330    2.6370  -57.5180 C   0  0  0  0  0  0  0  0  0  0  0  0
    8.6310    4.7850  -59.6780 H   0  0  0  0  0  0  0  0  0  0  0  0
   13.2226    4.1482  -58.7249 H   0  0  0  0  0  0  0  0  0  0  0  0
   13.2420    2.3987  -56.9499 H   0  0  0  0  0  0  0  0  0  0  0  0
   11.0993    1.4633  -56.0803 H   0  0  0  0  0  0  0  0  0  0  0  0
   10.0220    1.2230  -55.0650 H   0  0  0  0  0  0  0  0  0  0  0  0
    7.7449   -0.4566  -52.9188 H   0  0  0  0  0  0  0  0  0  0  0  0
    8.0439   -2.8683  -52.3871 H   0  0  0  0  0  0  0  0  0  0  0  0
    9.6257   -4.2598  -53.7068 H   0  0  0  0  0  0  0  0  0  0  0  0
   11.1407   -2.1573  -57.5356 H   0  0  0  0  0  0  0  0  0  0  0  0
   12.7345   -3.5390  -58.8539 H   0  0  0  0  0  0  0  0  0  0  0  0
   13.6834   -5.6282  -57.8802 H   0  0  0  0  0  0  0  0  0  0  0  0
   13.0300   -6.3350  -55.5807 H   0  0  0  0  0  0  0  0  0  0  0  0
   11.4352   -4.9580  -54.2560 H   0  0  0  0  0  0  0  0  0  0  0  0
   10.6066   -0.8230  -56.1317 H   0  0  0  0  0  0  0  0  0  0  0  0
  1  2  2  0
  2  3  1  0
  3  4  1  0
  4  5  2  0
  5  6  1  0
  5  7  1  0
  7  8  2  0
  8  9  1  0
  9 10  2  0
 10 11  1  0
 11 12  1  0
 12 13  1  0
 13 14  1  0
 14 15  2  0
 15 16  1  0
 16 17  2  0
 17 18  1  0
 18 19  1  0
 19 20  2  0
 20 21  1  0
 21 22  2  0
 22 23  1  0
 23 24  2  0
 18 25  2  0
 12 26  2  0
 26 27  1  0
 27 28  1  0
 27 29  2  0
 29  2  1  0
 10  4  1  0
 29 11  1  0
 25 14  1  0
 24 19  1  0
  3 30  1  0
  7 31  1  0
  8 32  1  0
  9 33  1  0
 13 34  1  0
 15 35  1  0
 16 36  1  0
 17 37  1  0
 20 38  1  0
 21 39  1  0
 22 40  1  0
 23 41  1  0
 24 42  1  0
 25 43  1  0
M  END
>  <meeko>  (86) 
{"is_sidechain": false}

$$$$

     RDKit          3D

 43 47  0  0  0  0  0  0  0  0999 V2000
    7.0920    3.7870  -61.0660 O   0  0  0  0  0  0  0  0  0  0  0  0
    7.9880    3.6020  -60.0830 C   0  0  0  0  0  0  0  0  0  0  0  0
    9.1440    4.1640  -60.1810 N   0  0  0  0  0  0  0  0  0  0  0  0
   10.0840    3.9550  -59.1270 C   0  0  0  0  0  0  0  0  0  0  0  0
   11.3550    4.5550  -59.2070 C   0  0  0  0  0  0  0  0  0  0  0  0
   11.8040    5.5430  -60.5560 Cl  0  0  0  0  0  0  0  0  0  0  0  0
   12.3010    4.3730  -58.1960 C   0  0  0  0  0  0  0  0  0  0  0  0
   11.9940    3.5900  -57.0890 C   0  0  0  0  0  0  0  0  0  0  0  0
   10.7400    2.9840  -56.9860 C   0  0  0  0  0  0  0  0  0  0  0  0
    9.7730    3.1510  -57.9880 C   0  0  0  0  0  0  0  0  0  0  0  0
    8.4870    2.5520  -57.9220 N   0  0  0  0  0  0  0  0  0  0  0  0
    7.9110    1.7210  -56.9380 C   0  0  0  0  0  0  0  0  0  0  0  0
    8.4270    1.2920  -55.8350 N   0  0  0  0  0  0  0  0  0  0  0  0
    7.6460    0.4660  -55.0170 C   0  0  0  0  0  0  0  0  0  0  0  0
    6.2620    0.4280  -55.1800 C   0  0  0  0  0  0  0  0  0  0  0  0
    5.4820   -0.3980  -54.3720 C   0  0  0  0  0  0  0  0  0  0  0  0
    6.0890   -1.1840  -53.3900 C   0  0  0  0  0  0  0  0  0  0  0  0
    7.4790   -1.1520  -53.1910 C   0  0  0  0  0  0  0  0  0  0  0  0
    8.1180   -1.9720  -52.1460 C   0  0  0  0  0  0  0  0  0  0  0  0
    7.4650   -2.2340  -50.9300 C   0  0  0  0  0  0  0  0  0  0  0  0
    8.0690   -3.0150  -49.9410 C   0  0  0  0  0  0  0  0  0  0  0  0
    9.3390   -3.5490  -50.1520 C   0  0  0  0  0  0  0  0  0  0  0  0
   10.0030   -3.3020  -51.3500 C   0  0  0  0  0  0  0  0  0  0  0  0
    9.3970   -2.5200  -52.3380 C   0  0  0  0  0  0  0  0  0  0  0  0
    8.2430   -0.3090  -54.0170 C   0  0  0  0  0  0  0  0  0  0  0  0
    6.6350    1.4690  -57.4510 N   0  0  0  0  0  0  0  0  0  0  0  0
    6.4520    2.0950  -58.6570 C   0  0  0  0  0  0  0  0  0  0  0  0
    4.9900    1.9280  -59.4660 Cl  0  0  0  0  0  0  0  0  0  0  0  0
    7.5690    2.7620  -58.9630 C   0  0  0  0  0  0  0  0  0  0  0  0
    7.3440    4.4580  -61.7190 H   0  0  0  0  0  0  0  0  0  0  0  0
   13.2893    4.8493  -58.2755 H   0  0  0  0  0  0  0  0  0  0  0  0
   12.7399    3.4476  -56.2931 H   0  0  0  0  0  0  0  0  0  0  0  0
   10.5073    2.3665  -56.1059 H   0  0  0  0  0  0  0  0  0  0  0  0
    5.7836    1.0522  -55.9491 H   0  0  0  0  0  0  0  0  0  0  0  0
    4.3909   -0.4306  -54.5076 H   0  0  0  0  0  0  0  0  0  0  0  0
    5.4679   -1.8393  -52.7617 H   0  0  0  0  0  0  0  0  0  0  0  0
    6.4622   -1.8177  -50.7536 H   0  0  0  0  0  0  0  0  0  0  0  0
    7.5417   -3.2085  -48.9952 H   0  0  0  0  0  0  0  0  0  0  0  0
    9.8151   -4.1638  -49.3740 H   0  0  0  0  0  0  0  0  0  0  0  0
   11.0053   -3.7223  -51.5197 H   0  0  0  0  0  0  0  0  0  0  0  0
    9.9306   -2.3308  -53.2811 H   0  0  0  0  0  0  0  0  0  0  0  0
    9.3325   -0.2578  -53.8740 H   0  0  0  0  0  0  0  0  0  0  0  0
    5.9350    0.8910  -57.0150 H   0  0  0  0  0  0  0  0  0  0  0  0
  1  2  1  0
  2  3  2  0
  3  4  1  0
  4  5  2  0
  5  6  1  0
  5  7  1  0
  7  8  2  0
  8  9  1  0
  9 10  2  0
 10 11  1  0
 11 12  1  0
 12 13  2  0
 13 14  1  0
 14 15  1  0
 15 16  2  0
 16 17  1  0
 17 18  2  0
 18 19  1  0
 19 20  2  0
 20 21  1  0
 21 22  2  0
 22 23  1  0
 23 24  2  0
 18 25  1  0
 12 26  1  0
 26 27  1  0
 27 28  1  0
 27 29  2  0
 29  2  1  0
 10  4  1  0
 29 11  1  0
 25 14  2  0
 24 19  1  0
  1 30  1  0
  7 31  1  0
  8 32  1  0
  9 33  1  0
 15 34  1  0
 16 35  1  0
 17 36  1  0
 20 37  1  0
 21 38  1  0
 22 39  1  0
 23 40  1  0
 24 41  1  0
 25 42  1  0
 26 43  1  0
M  END
>  <meeko>  (87) 
{"is_sidechain": false}

$$$$

     RDKit          3D

 43 47  0  0  0  0  0  0  0  0999 V2000
    9.1270    3.6640  -59.2590 O   0  0  0  0  0  0  0  0  0  0  0  0
    8.9690    2.7960  -58.2460 C   0  0  0  0  0  0  0  0  0  0  0  0
    7.7780    2.4090  -57.9370 N   0  0  0  0  0  0  0  0  0  0  0  0
    7.6320    1.5320  -56.8210 C   0  0  0  0  0  0  0  0  0  0  0  0
    6.3400    1.2130  -56.3620 C   0  0  0  0  0  0  0  0  0  0  0  0
    4.9250    1.7710  -57.1870 Cl  0  0  0  0  0  0  0  0  0  0  0  0
    6.1560    0.4500  -55.2070 C   0  0  0  0  0  0  0  0  0  0  0  0
    7.2600    0.0230  -54.4770 C   0  0  0  0  0  0  0  0  0  0  0  0
    8.5490    0.3230  -54.9210 C   0  0  0  0  0  0  0  0  0  0  0  0
    8.7650    1.0180  -56.1160 C   0  0  0  0  0  0  0  0  0  0  0  0
   10.0600    1.3120  -56.6200 N   0  0  0  0  0  0  0  0  0  0  0  0
   11.3530    0.8460  -56.2810 C   0  0  0  0  0  0  0  0  0  0  0  0
   11.8970   -0.2120  -55.7780 N   0  0  0  0  0  0  0  0  0  0  0  0
   11.1750   -1.3730  -55.4930 C   0  0  0  0  0  0  0  0  0  0  0  0
   11.1150   -2.3830  -56.4550 C   0  0  0  0  0  0  0  0  0  0  0  0
   10.3910   -3.5500  -56.2150 C   0  0  0  0  0  0  0  0  0  0  0  0
    9.7050   -3.7070  -55.0100 C   0  0  0  0  0  0  0  0  0  0  0  0
    9.7130   -2.6930  -54.0400 C   0  0  0  0  0  0  0  0  0  0  0  0
    8.9880   -2.8530  -52.7720 C   0  0  0  0  0  0  0  0  0  0  0  0
    9.6790   -3.0410  -51.5630 C   0  0  0  0  0  0  0  0  0  0  0  0
    8.9880   -3.2010  -50.3590 C   0  0  0  0  0  0  0  0  0  0  0  0
    7.5950   -3.1760  -50.3450 C   0  0  0  0  0  0  0  0  0  0  0  0
    6.8930   -2.9910  -51.5340 C   0  0  0  0  0  0  0  0  0  0  0  0
    7.5850   -2.8300  -52.7370 C   0  0  0  0  0  0  0  0  0  0  0  0
   10.4380   -1.5200  -54.3100 C   0  0  0  0  0  0  0  0  0  0  0  0
   12.1930    1.8170  -56.8410 N   0  0  0  0  0  0  0  0  0  0  0  0
   11.4830    2.6200  -57.7020 C   0  0  0  0  0  0  0  0  0  0  0  0
   12.3040    3.6730  -58.7200 Cl  0  0  0  0  0  0  0  0  0  0  0  0
   10.1840    2.3340  -57.5780 C   0  0  0  0  0  0  0  0  0  0  0  0
    9.9530    4.1710  -59.2290 H   0  0  0  0  0  0  0  0  0  0  0  0
    5.1405    0.1874  -54.8755 H   0  0  0  0  0  0  0  0  0  0  0  0
    7.1175   -0.5512  -53.5496 H   0  0  0  0  0  0  0  0  0  0  0  0
    9.4132    0.0063  -54.3186 H   0  0  0  0  0  0  0  0  0  0  0  0
   11.6439   -2.2568  -57.4112 H   0  0  0  0  0  0  0  0  0  0  0  0
   10.3606   -4.3455  -56.9741 H   0  0  0  0  0  0  0  0  0  0  0  0
    9.1508   -4.6376  -54.8180 H   0  0  0  0  0  0  0  0  0  0  0  0
   10.7788   -3.0625  -51.5644 H   0  0  0  0  0  0  0  0  0  0  0  0
    9.5444   -3.3468  -49.4214 H   0  0  0  0  0  0  0  0  0  0  0  0
    7.0508   -3.3020  -49.3974 H   0  0  0  0  0  0  0  0  0  0  0  0
    5.7932   -2.9717  -51.5257 H   0  0  0  0  0  0  0  0  0  0  0  0
    7.0220   -2.6830  -53.6705 H   0  0  0  0  0  0  0  0  0  0  0  0
   10.4269   -0.6996  -53.5773 H   0  0  0  0  0  0  0  0  0  0  0  0
   13.1630    1.6000  -57.0180 H   0  0  0  0  0  0  0  0  0  0  0  0
  1  2  1  0
  2  3  2  0
  3  4  1  0
  4  5  2  0
  5  6  1  0
  5  7  1  0
  7  8  2  0
  8  9  1  0
  9 10  2  0
 10 11  1  0
 11 12  1  0
 12 13  2  0
 13 14  1  0
 14 15  1  0
 15 16  2  0
 16 17  1  0
 17 18  2  0
 18 19  1  0
 19 20  2  0
 20 21  1  0
 21 22  2  0
 22 23  1  0
 23 24  2  0
 18 25  1  0
 12 26  1  0
 26 27  1  0
 27 28  1  0
 27 29  2  0
 29  2  1  0
 10  4  1  0
 29 11  1  0
 25 14  2  0
 24 19  1  0
  1 30  1  0
  7 31  1  0
  8 32  1  0
  9 33  1  0
 15 34  1  0
 16 35  1  0
 17 36  1  0
 20 37  1  0
 21 38  1  0
 22 39  1  0
 23 40  1  0
 24 41  1  0
 25 42  1  0
 26 43  1  0
M  END
>  <meeko>  (88) 
{"is_sidechain": false}

$$$$

     RDKit          3D

 43 47  0  0  0  0  0  0  0  0999 V2000
    7.1630    3.7710  -61.1590 O   0  0  0  0  0  0  0  0  0  0  0  0
    8.0490    3.5630  -60.1430 C   0  0  0  0  0  0  0  0  0  0  0  0
    9.2980    4.1340  -60.2540 N   0  0  0  0  0  0  0  0  0  0  0  0
   10.2350    4.0430  -59.1760 C   0  0  0  0  0  0  0  0  0  0  0  0
   11.4900    4.6660  -59.2480 C   0  0  0  0  0  0  0  0  0  0  0  0
   11.9120    5.6490  -60.6050 Cl  0  0  0  0  0  0  0  0  0  0  0  0
   12.4170    4.5110  -58.2180 C   0  0  0  0  0  0  0  0  0  0  0  0
   12.1060    3.7190  -57.1120 C   0  0  0  0  0  0  0  0  0  0  0  0
   10.8670    3.0750  -57.0260 C   0  0  0  0  0  0  0  0  0  0  0  0
    9.9200    3.2170  -58.0450 C   0  0  0  0  0  0  0  0  0  0  0  0
    8.6390    2.6030  -58.0250 N   0  0  0  0  0  0  0  0  0  0  0  0
    8.0130    1.8000  -57.0880 C   0  0  0  0  0  0  0  0  0  0  0  0
    8.4980    1.3730  -55.9650 N   0  0  0  0  0  0  0  0  0  0  0  0
    7.7040    0.5600  -55.1460 C   0  0  0  0  0  0  0  0  0  0  0  0
    6.3140    0.5800  -55.2680 C   0  0  0  0  0  0  0  0  0  0  0  0
    5.5220   -0.2050  -54.4310 C   0  0  0  0  0  0  0  0  0  0  0  0
    6.1210   -1.0070  -53.4570 C   0  0  0  0  0  0  0  0  0  0  0  0
    7.5160   -1.0340  -53.2990 C   0  0  0  0  0  0  0  0  0  0  0  0
    8.1470   -1.8730  -52.2670 C   0  0  0  0  0  0  0  0  0  0  0  0
    7.4850   -2.1570  -51.0610 C   0  0  0  0  0  0  0  0  0  0  0  0
    8.0830   -2.9550  -50.0810 C   0  0  0  0  0  0  0  0  0  0  0  0
    9.3550   -3.4810  -50.2910 C   0  0  0  0  0  0  0  0  0  0  0  0
   10.0300   -3.2090  -51.4790 C   0  0  0  0  0  0  0  0  0  0  0  0
    9.4300   -2.4130  -52.4580 C   0  0  0  0  0  0  0  0  0  0  0  0
    8.2930   -0.2340  -54.1550 C   0  0  0  0  0  0  0  0  0  0  0  0
    6.7170    1.4750  -57.4950 N   0  0  0  0  0  0  0  0  0  0  0  0
    6.5550    2.0690  -58.6520 C   0  0  0  0  0  0  0  0  0  0  0  0
    5.0850    1.9160  -59.4890 Cl  0  0  0  0  0  0  0  0  0  0  0  0
    7.7580    2.8210  -59.0660 C   0  0  0  0  0  0  0  0  0  0  0  0
    6.7240    2.9200  -61.3240 H   0  0  0  0  0  0  0  0  0  0  0  0
    9.4200    4.9390  -60.8590 H   0  0  0  0  0  0  0  0  0  0  0  0
   13.3938    5.0132  -58.2773 H   0  0  0  0  0  0  0  0  0  0  0  0
   12.8405    3.6002  -56.3018 H   0  0  0  0  0  0  0  0  0  0  0  0
   10.6359    2.4518  -56.1495 H   0  0  0  0  0  0  0  0  0  0  0  0
    5.8407    1.2184  -56.0285 H   0  0  0  0  0  0  0  0  0  0  0  0
    4.4272   -0.1927  -54.5376 H   0  0  0  0  0  0  0  0  0  0  0  0
    5.4900   -1.6272  -52.8034 H   0  0  0  0  0  0  0  0  0  0  0  0
    6.4804   -1.7451  -50.8849 H   0  0  0  0  0  0  0  0  0  0  0  0
    7.5483   -3.1674  -49.1435 H   0  0  0  0  0  0  0  0  0  0  0  0
    9.8257   -4.1097  -49.5209 H   0  0  0  0  0  0  0  0  0  0  0  0
   11.0360   -3.6212  -51.6463 H   0  0  0  0  0  0  0  0  0  0  0  0
    9.9707   -2.2058  -53.3933 H   0  0  0  0  0  0  0  0  0  0  0  0
    9.3873   -0.2320  -54.0436 H   0  0  0  0  0  0  0  0  0  0  0  0
  1  2  1  0
  2  3  1  0
  3  4  1  0
  4  5  2  0
  5  6  1  0
  5  7  1  0
  7  8  2  0
  8  9  1  0
  9 10  2  0
 10 11  1  0
 11 12  1  0
 12 13  2  0
 13 14  1  0
 14 15  1  0
 15 16  2  0
 16 17  1  0
 17 18  2  0
 18 19  1  0
 19 20  2  0
 20 21  1  0
 21 22  2  0
 22 23  1  0
 23 24  2  0
 18 25  1  0
 12 26  1  0
 26 27  2  0
 27 28  1  0
 27 29  1  0
 29  2  2  0
 10  4  1  0
 29 11  1  0
 25 14  2  0
 24 19  1  0
  1 30  1  0
  3 31  1  0
  7 32  1  0
  8 33  1  0
  9 34  1  0
 15 35  1  0
 16 36  1  0
 17 37  1  0
 20 38  1  0
 21 39  1  0
 22 40  1  0
 23 41  1  0
 24 42  1  0
 25 43  1  0
M  END
>  <meeko>  (89) 
{"is_sidechain": false}

$$$$

     RDKit          3D

 43 47  0  0  0  0  0  0  0  0999 V2000
    9.1300    3.9300  -59.0430 O   0  0  0  0  0  0  0  0  0  0  0  0
    9.0660    2.8980  -58.1470 C   0  0  0  0  0  0  0  0  0  0  0  0
    7.8060    2.4120  -57.8890 N   0  0  0  0  0  0  0  0  0  0  0  0
    7.5740    1.5570  -56.7730 C   0  0  0  0  0  0  0  0  0  0  0  0
    6.2720    1.2450  -56.3510 C   0  0  0  0  0  0  0  0  0  0  0  0
    4.8930    1.8630  -57.1880 Cl  0  0  0  0  0  0  0  0  0  0  0  0
    6.0700    0.4520  -55.2240 C   0  0  0  0  0  0  0  0  0  0  0  0
    7.1650   -0.0150  -54.4990 C   0  0  0  0  0  0  0  0  0  0  0  0
    8.4680    0.2700  -54.9200 C   0  0  0  0  0  0  0  0  0  0  0  0
    8.7040    0.9970  -56.0880 C   0  0  0  0  0  0  0  0  0  0  0  0
    9.9990    1.2970  -56.6020 N   0  0  0  0  0  0  0  0  0  0  0  0
   11.2890    0.8680  -56.3040 C   0  0  0  0  0  0  0  0  0  0  0  0
   11.8380   -0.1780  -55.7940 N   0  0  0  0  0  0  0  0  0  0  0  0
   11.1420   -1.3520  -55.5030 C   0  0  0  0  0  0  0  0  0  0  0  0
   11.1030   -2.3650  -56.4630 C   0  0  0  0  0  0  0  0  0  0  0  0
   10.4000   -3.5450  -56.2200 C   0  0  0  0  0  0  0  0  0  0  0  0
    9.7130   -3.7100  -55.0170 C   0  0  0  0  0  0  0  0  0  0  0  0
    9.6980   -2.6920  -54.0490 C   0  0  0  0  0  0  0  0  0  0  0  0
    8.9680   -2.8600  -52.7840 C   0  0  0  0  0  0  0  0  0  0  0  0
    7.5640   -2.8640  -52.7560 C   0  0  0  0  0  0  0  0  0  0  0  0
    6.8700   -3.0320  -51.5550 C   0  0  0  0  0  0  0  0  0  0  0  0
    7.5690   -3.1960  -50.3620 C   0  0  0  0  0  0  0  0  0  0  0  0
    8.9610   -3.1960  -50.3680 C   0  0  0  0  0  0  0  0  0  0  0  0
    9.6550   -3.0300  -51.5700 C   0  0  0  0  0  0  0  0  0  0  0  0
   10.4050   -1.5080  -54.3220 C   0  0  0  0  0  0  0  0  0  0  0  0
   12.2330    1.7750  -56.8050 N   0  0  0  0  0  0  0  0  0  0  0  0
   11.5550    2.6070  -57.5480 C   0  0  0  0  0  0  0  0  0  0  0  0
   12.3310    3.8510  -58.4060 Cl  0  0  0  0  0  0  0  0  0  0  0  0
   10.1080    2.3390  -57.5130 C   0  0  0  0  0  0  0  0  0  0  0  0
    8.2920    4.4260  -59.0420 H   0  0  0  0  0  0  0  0  0  0  0  0
    7.0250    2.9630  -58.2320 H   0  0  0  0  0  0  0  0  0  0  0  0
    5.0486    0.1948  -54.9068 H   0  0  0  0  0  0  0  0  0  0  0  0
    7.0033   -0.6119  -53.5893 H   0  0  0  0  0  0  0  0  0  0  0  0
    9.3201   -0.0843  -54.3213 H   0  0  0  0  0  0  0  0  0  0  0  0
   11.6309   -2.2315  -57.4187 H   0  0  0  0  0  0  0  0  0  0  0  0
   10.3873   -4.3442  -56.9757 H   0  0  0  0  0  0  0  0  0  0  0  0
    9.1757   -4.6502  -54.8238 H   0  0  0  0  0  0  0  0  0  0  0  0
    7.0026   -2.7330  -53.6929 H   0  0  0  0  0  0  0  0  0  0  0  0
    5.7700   -3.0347  -51.5520 H   0  0  0  0  0  0  0  0  0  0  0  0
    7.0221   -3.3253  -49.4164 H   0  0  0  0  0  0  0  0  0  0  0  0
    9.5150   -3.3267  -49.4267 H   0  0  0  0  0  0  0  0  0  0  0  0
   10.7550   -3.0325  -51.5655 H   0  0  0  0  0  0  0  0  0  0  0  0
   10.3789   -0.6856  -53.5919 H   0  0  0  0  0  0  0  0  0  0  0  0
  1  2  1  0
  2  3  1  0
  3  4  1  0
  4  5  2  0
  5  6  1  0
  5  7  1  0
  7  8  2  0
  8  9  1  0
  9 10  2  0
 10 11  1  0
 11 12  1  0
 12 13  2  0
 13 14  1  0
 14 15  1  0
 15 16  2  0
 16 17  1  0
 17 18  2  0
 18 19  1  0
 19 20  2  0
 20 21  1  0
 21 22  2  0
 22 23  1  0
 23 24  2  0
 18 25  1  0
 12 26  1  0
 26 27  2  0
 27 28  1  0
 27 29  1  0
 29  2  2  0
 10  4  1  0
 29 11  1  0
 25 14  2  0
 24 19  1  0
  1 30  1  0
  3 31  1  0
  7 32  1  0
  8 33  1  0
  9 34  1  0
 15 35  1  0
 16 36  1  0
 17 37  1  0
 20 38  1  0
 21 39  1  0
 22 40  1  0
 23 41  1  0
 24 42  1  0
 25 43  1  0
M  END
>  <meeko>  (90) 
{"is_sidechain": false}

$$$$

     RDKit          3D

 43 47  0  0  0  0  0  0  0  0999 V2000
    7.0820    3.7920  -61.0010 O   0  0  0  0  0  0  0  0  0  0  0  0
    7.8770    3.5720  -60.0960 C   0  0  0  0  0  0  0  0  0  0  0  0
    9.1460    4.0950  -60.1050 N   0  0  0  0  0  0  0  0  0  0  0  0
   10.1150    3.8820  -59.0970 C   0  0  0  0  0  0  0  0  0  0  0  0
   11.3850    4.4690  -59.2150 C   0  0  0  0  0  0  0  0  0  0  0  0
   11.7930    5.4540  -60.5750 Cl  0  0  0  0  0  0  0  0  0  0  0  0
   12.3470    4.2670  -58.2280 C   0  0  0  0  0  0  0  0  0  0  0  0
   12.0430    3.4770  -57.1210 C   0  0  0  0  0  0  0  0  0  0  0  0
   10.7810    2.8900  -56.9970 C   0  0  0  0  0  0  0  0  0  0  0  0
    9.7960    3.0790  -57.9760 C   0  0  0  0  0  0  0  0  0  0  0  0
    8.5020    2.5110  -57.9040 N   0  0  0  0  0  0  0  0  0  0  0  0
    7.9280    1.6840  -56.9120 C   0  0  0  0  0  0  0  0  0  0  0  0
    8.4590    1.2500  -55.8160 N   0  0  0  0  0  0  0  0  0  0  0  0
    7.6810    0.4320  -54.9870 C   0  0  0  0  0  0  0  0  0  0  0  0
    6.2940    0.4070  -55.1290 C   0  0  0  0  0  0  0  0  0  0  0  0
    5.5190   -0.4100  -54.3080 C   0  0  0  0  0  0  0  0  0  0  0  0
    6.1330   -1.1970  -53.3310 C   0  0  0  0  0  0  0  0  0  0  0  0
    7.5270   -1.1770  -53.1520 C   0  0  0  0  0  0  0  0  0  0  0  0
    8.1720   -2.0000  -52.1160 C   0  0  0  0  0  0  0  0  0  0  0  0
    9.4430   -2.5620  -52.3240 C   0  0  0  0  0  0  0  0  0  0  0  0
   10.0560   -3.3450  -51.3400 C   0  0  0  0  0  0  0  0  0  0  0  0
    9.4070   -3.5770  -50.1300 C   0  0  0  0  0  0  0  0  0  0  0  0
    8.1480   -3.0290  -49.9030 C   0  0  0  0  0  0  0  0  0  0  0  0
    7.5370   -2.2480  -50.8880 C   0  0  0  0  0  0  0  0  0  0  0  0
    8.2860   -0.3450  -53.9930 C   0  0  0  0  0  0  0  0  0  0  0  0
    6.6430    1.4490  -57.4010 N   0  0  0  0  0  0  0  0  0  0  0  0
    6.4390    2.0880  -58.6000 C   0  0  0  0  0  0  0  0  0  0  0  0
    4.9480    1.9370  -59.3550 Cl  0  0  0  0  0  0  0  0  0  0  0  0
    7.5610    2.7380  -58.9240 C   0  0  0  0  0  0  0  0  0  0  0  0
    9.3890    4.6720  -60.9020 H   0  0  0  0  0  0  0  0  0  0  0  0
   13.3411    4.7285  -58.3219 H   0  0  0  0  0  0  0  0  0  0  0  0
   12.8008    3.3146  -56.3404 H   0  0  0  0  0  0  0  0  0  0  0  0
   10.5570    2.2695  -56.1168 H   0  0  0  0  0  0  0  0  0  0  0  0
    5.8098    1.0344  -55.8918 H   0  0  0  0  0  0  0  0  0  0  0  0
    4.4260   -0.4350  -54.4292 H   0  0  0  0  0  0  0  0  0  0  0  0
    5.5150   -1.8436  -52.6907 H   0  0  0  0  0  0  0  0  0  0  0  0
    9.9644   -2.3834  -53.2760 H   0  0  0  0  0  0  0  0  0  0  0  0
   11.0509   -3.7775  -51.5221 H   0  0  0  0  0  0  0  0  0  0  0  0
    9.8883   -4.1920  -49.3554 H   0  0  0  0  0  0  0  0  0  0  0  0
    7.6335   -3.2106  -48.9479 H   0  0  0  0  0  0  0  0  0  0  0  0
    6.5416   -1.8201  -50.6982 H   0  0  0  0  0  0  0  0  0  0  0  0
    9.3780   -0.3039  -53.8672 H   0  0  0  0  0  0  0  0  0  0  0  0
    5.9300    0.9050  -56.9450 H   0  0  0  0  0  0  0  0  0  0  0  0
  1  2  2  0
  2  3  1  0
  3  4  1  0
  4  5  2  0
  5  6  1  0
  5  7  1  0
  7  8  2  0
  8  9  1  0
  9 10  2  0
 10 11  1  0
 11 12  1  0
 12 13  2  0
 13 14  1  0
 14 15  1  0
 15 16  2  0
 16 17  1  0
 17 18  2  0
 18 19  1  0
 19 20  2  0
 20 21  1  0
 21 22  2  0
 22 23  1  0
 23 24  2  0
 18 25  1  0
 12 26  1  0
 26 27  1  0
 27 28  1  0
 27 29  2  0
 29  2  1  0
 10  4  1  0
 29 11  1  0
 25 14  2  0
 24 19  1  0
  3 30  1  0
  7 31  1  0
  8 32  1  0
  9 33  1  0
 15 34  1  0
 16 35  1  0
 17 36  1  0
 20 37  1  0
 21 38  1  0
 22 39  1  0
 23 40  1  0
 24 41  1  0
 25 42  1  0
 26 43  1  0
M  END
>  <meeko>  (91) 
{"is_sidechain": false}

$$$$

     RDKit          3D

 43 47  0  0  0  0  0  0  0  0999 V2000
    9.1470    3.7220  -59.1420 O   0  0  0  0  0  0  0  0  0  0  0  0
    9.0640    2.8870  -58.2490 C   0  0  0  0  0  0  0  0  0  0  0  0
    7.8550    2.3690  -57.8540 N   0  0  0  0  0  0  0  0  0  0  0  0
    7.6820    1.4960  -56.7550 C   0  0  0  0  0  0  0  0  0  0  0  0
    6.3880    1.1660  -56.3250 C   0  0  0  0  0  0  0  0  0  0  0  0
    4.9910    1.7230  -57.1760 Cl  0  0  0  0  0  0  0  0  0  0  0  0
    6.2060    0.3980  -55.1780 C   0  0  0  0  0  0  0  0  0  0  0  0
    7.3130   -0.0140  -54.4430 C   0  0  0  0  0  0  0  0  0  0  0  0
    8.6040    0.3050  -54.8780 C   0  0  0  0  0  0  0  0  0  0  0  0
    8.8190    1.0080  -56.0680 C   0  0  0  0  0  0  0  0  0  0  0  0
   10.1010    1.3120  -56.5840 N   0  0  0  0  0  0  0  0  0  0  0  0
   11.3940    0.8400  -56.2540 C   0  0  0  0  0  0  0  0  0  0  0  0
   11.9300   -0.2330  -55.7720 N   0  0  0  0  0  0  0  0  0  0  0  0
   11.2000   -1.3980  -55.5180 C   0  0  0  0  0  0  0  0  0  0  0  0
   11.1440   -2.3850  -56.5030 C   0  0  0  0  0  0  0  0  0  0  0  0
   10.4140   -3.5550  -56.2940 C   0  0  0  0  0  0  0  0  0  0  0  0
    9.7200   -3.7360  -55.0960 C   0  0  0  0  0  0  0  0  0  0  0  0
    9.7260   -2.7450  -54.1010 C   0  0  0  0  0  0  0  0  0  0  0  0
    8.9970   -2.9310  -52.8380 C   0  0  0  0  0  0  0  0  0  0  0  0
    9.6780   -2.9960  -51.6120 C   0  0  0  0  0  0  0  0  0  0  0  0
    8.9830   -3.1810  -50.4130 C   0  0  0  0  0  0  0  0  0  0  0  0
    7.5970   -3.3080  -50.4220 C   0  0  0  0  0  0  0  0  0  0  0  0
    6.9030   -3.2490  -51.6290 C   0  0  0  0  0  0  0  0  0  0  0  0
    7.5980   -3.0620  -52.8260 C   0  0  0  0  0  0  0  0  0  0  0  0
   10.4580   -1.5690  -54.3420 C   0  0  0  0  0  0  0  0  0  0  0  0
   12.2360    1.8200  -56.7910 N   0  0  0  0  0  0  0  0  0  0  0  0
   11.5300    2.6380  -57.6450 C   0  0  0  0  0  0  0  0  0  0  0  0
   12.3750    3.7010  -58.6320 Cl  0  0  0  0  0  0  0  0  0  0  0  0
   10.2300    2.3500  -57.5280 C   0  0  0  0  0  0  0  0  0  0  0  0
    7.0340    2.7340  -58.3240 H   0  0  0  0  0  0  0  0  0  0  0  0
    5.1924    0.1185  -54.8547 H   0  0  0  0  0  0  0  0  0  0  0  0
    7.1730   -0.5920  -53.5176 H   0  0  0  0  0  0  0  0  0  0  0  0
    9.4681   -0.0036  -54.2713 H   0  0  0  0  0  0  0  0  0  0  0  0
   11.6801   -2.2390  -57.4523 H   0  0  0  0  0  0  0  0  0  0  0  0
   10.3851   -4.3331  -57.0710 H   0  0  0  0  0  0  0  0  0  0  0  0
    9.1605   -4.6683  -54.9292 H   0  0  0  0  0  0  0  0  0  0  0  0
   10.7737   -2.9000  -51.5945 H   0  0  0  0  0  0  0  0  0  0  0  0
    9.5324   -3.2262  -49.4611 H   0  0  0  0  0  0  0  0  0  0  0  0
    7.0507   -3.4546  -49.4786 H   0  0  0  0  0  0  0  0  0  0  0  0
    5.8077   -3.3497  -51.6390 H   0  0  0  0  0  0  0  0  0  0  0  0
    7.0417   -3.0166  -53.7739 H   0  0  0  0  0  0  0  0  0  0  0  0
   10.4479   -0.7656  -53.5907 H   0  0  0  0  0  0  0  0  0  0  0  0
   13.2030    1.6060  -56.9830 H   0  0  0  0  0  0  0  0  0  0  0  0
  1  2  2  0
  2  3  1  0
  3  4  1  0
  4  5  2  0
  5  6  1  0
  5  7  1  0
  7  8  2  0
  8  9  1  0
  9 10  2  0
 10 11  1  0
 11 12  1  0
 12 13  2  0
 13 14  1  0
 14 15  1  0
 15 16  2  0
 16 17  1  0
 17 18  2  0
 18 19  1  0
 19 20  2  0
 20 21  1  0
 21 22  2  0
 22 23  1  0
 23 24  2  0
 18 25  1  0
 12 26  1  0
 26 27  1  0
 27 28  1  0
 27 29  2  0
 29  2  1  0
 10  4  1  0
 29 11  1  0
 25 14  2  0
 24 19  1  0
  3 30  1  0
  7 31  1  0
  8 32  1  0
  9 33  1  0
 15 34  1  0
 16 35  1  0
 17 36  1  0
 20 37  1  0
 21 38  1  0
 22 39  1  0
 23 40  1  0
 24 41  1  0
 25 42  1  0
 26 43  1  0
M  END
>  <meeko>  (92) 
{"is_sidechain": false}

$$$$

     RDKit          3D

 44 48  0  0  0  0  0  0  0  0999 V2000
    6.3620    4.1380  -59.0890 O   0  0  0  0  0  0  0  0  0  0  0  0
    7.5090    3.7080  -58.5300 C   0  0  0  0  0  0  0  0  0  0  0  0
    8.6210    4.2560  -58.8990 N   0  0  0  0  0  0  0  0  0  0  0  0
    9.8470    3.7840  -58.3340 C   0  0  0  0  0  0  0  0  0  0  0  0
   11.0700    4.3070  -58.7760 C   0  0  0  0  0  0  0  0  0  0  0  0
   11.1330    5.5650  -59.9600 Cl  0  0  0  0  0  0  0  0  0  0  0  0
   12.2850    3.8180  -58.2790 C   0  0  0  0  0  0  0  0  0  0  0  0
   12.3020    2.7810  -57.3430 C   0  0  0  0  0  0  0  0  0  0  0  0
   11.1070    2.2380  -56.8740 C   0  0  0  0  0  0  0  0  0  0  0  0
    9.9090    2.7640  -57.3450 C   0  0  0  0  0  0  0  0  0  0  0  0
    8.6160    2.2460  -56.8860 N   0  0  0  0  0  0  0  0  0  0  0  0
    8.2830    1.3900  -55.9250 C   0  0  0  0  0  0  0  0  0  0  0  0
    9.0590    0.9590  -54.9150 N   0  0  0  0  0  0  0  0  0  0  0  0
    9.2420   -0.3890  -54.4950 C   0  0  0  0  0  0  0  0  0  0  0  0
    8.6050   -0.9200  -53.3730 C   0  0  0  0  0  0  0  0  0  0  0  0
    8.8170   -2.2520  -53.0180 C   0  0  0  0  0  0  0  0  0  0  0  0
    9.6570   -3.0570  -53.7900 C   0  0  0  0  0  0  0  0  0  0  0  0
   10.2850   -2.5510  -54.9380 C   0  0  0  0  0  0  0  0  0  0  0  0
   11.1620   -3.4000  -55.7570 C   0  0  0  0  0  0  0  0  0  0  0  0
   11.6730   -4.6090  -55.2570 C   0  0  0  0  0  0  0  0  0  0  0  0
   12.5030   -5.4160  -56.0380 C   0  0  0  0  0  0  0  0  0  0  0  0
   12.8360   -5.0280  -57.3330 C   0  0  0  0  0  0  0  0  0  0  0  0
   12.3420   -3.8310  -57.8470 C   0  0  0  0  0  0  0  0  0  0  0  0
   11.5120   -3.0230  -57.0640 C   0  0  0  0  0  0  0  0  0  0  0  0
   10.0570   -1.2070  -55.2820 C   0  0  0  0  0  0  0  0  0  0  0  0
    6.9900    1.1370  -56.0590 N   0  0  0  0  0  0  0  0  0  0  0  0
    6.4290    1.9330  -57.0250 C   0  0  0  0  0  0  0  0  0  0  0  0
    4.7410    1.9700  -57.4170 Cl  0  0  0  0  0  0  0  0  0  0  0  0
    7.4450    2.6820  -57.5440 C   0  0  0  0  0  0  0  0  0  0  0  0
    5.6390    4.3730  -58.4880 H   0  0  0  0  0  0  0  0  0  0  0  0
   13.2327    4.2537  -58.6283 H   0  0  0  0  0  0  0  0  0  0  0  0
   13.2625    2.3914  -56.9746 H   0  0  0  0  0  0  0  0  0  0  0  0
   11.1115    1.4120  -56.1476 H   0  0  0  0  0  0  0  0  0  0  0  0
    9.4760    1.6860  -54.3480 H   0  0  0  0  0  0  0  0  0  0  0  0
    7.9364   -0.2889  -52.7691 H   0  0  0  0  0  0  0  0  0  0  0  0
    8.3218   -2.6689  -52.1286 H   0  0  0  0  0  0  0  0  0  0  0  0
    9.8288   -4.1024  -53.4940 H   0  0  0  0  0  0  0  0  0  0  0  0
   11.4156   -4.9248  -54.2352 H   0  0  0  0  0  0  0  0  0  0  0  0
   12.8942   -6.3595  -55.6295 H   0  0  0  0  0  0  0  0  0  0  0  0
   13.4877   -5.6651  -57.9489 H   0  0  0  0  0  0  0  0  0  0  0  0
   12.6051   -3.5215  -58.8693 H   0  0  0  0  0  0  0  0  0  0  0  0
   11.1277   -2.0788  -57.4773 H   0  0  0  0  0  0  0  0  0  0  0  0
   10.5279   -0.7925  -56.1856 H   0  0  0  0  0  0  0  0  0  0  0  0
    6.4490    0.5490  -55.4360 H   0  0  0  0  0  0  0  0  0  0  0  0
  1  2  1  0
  2  3  2  0
  3  4  1  0
  4  5  2  0
  5  6  1  0
  5  7  1  0
  7  8  2  0
  8  9  1  0
  9 10  2  0
 10 11  1  0
 11 12  1  0
 12 13  1  0
 13 14  1  0
 14 15  2  0
 15 16  1  0
 16 17  2  0
 17 18  1  0
 18 19  1  0
 19 20  2  0
 20 21  1  0
 21 22  2  0
 22 23  1  0
 23 24  2  0
 18 25  2  0
 12 26  2  0
 26 27  1  0
 27 28  1  0
 27 29  2  0
 29  2  1  0
 10  4  1  0
 29 11  1  0
 25 14  1  0
 24 19  1  0
  1 30  1  0
  7 31  1  0
  8 32  1  0
  9 33  1  0
 13 34  1  0
 15 35  1  0
 16 36  1  0
 17 37  1  0
 20 38  1  0
 21 39  1  0
 22 40  1  0
 23 41  1  0
 24 42  1  0
 25 43  1  0
 26 44  1  0
M  CHG  1  26   1
M  END
>  <meeko>  (93) 
{"is_sidechain": false}

$$$$

     RDKit          3D

 44 48  0  0  0  0  0  0  0  0999 V2000
    6.3870    4.1870  -59.0630 O   0  0  0  0  0  0  0  0  0  0  0  0
    7.3640    3.7200  -58.4860 C   0  0  0  0  0  0  0  0  0  0  0  0
    8.6220    4.2340  -58.7560 N   0  0  0  0  0  0  0  0  0  0  0  0
    9.8530    3.7650  -58.2290 C   0  0  0  0  0  0  0  0  0  0  0  0
   11.0630    4.3190  -58.6570 C   0  0  0  0  0  0  0  0  0  0  0  0
   11.0970    5.6180  -59.7920 Cl  0  0  0  0  0  0  0  0  0  0  0  0
   12.2750    3.8130  -58.1790 C   0  0  0  0  0  0  0  0  0  0  0  0
   12.2880    2.7400  -57.2820 C   0  0  0  0  0  0  0  0  0  0  0  0
   11.0910    2.1770  -56.8350 C   0  0  0  0  0  0  0  0  0  0  0  0
    9.8940    2.7180  -57.2880 C   0  0  0  0  0  0  0  0  0  0  0  0
    8.5980    2.2100  -56.8650 N   0  0  0  0  0  0  0  0  0  0  0  0
    8.2540    1.3250  -55.9320 C   0  0  0  0  0  0  0  0  0  0  0  0
    9.0240    0.8580  -54.9340 N   0  0  0  0  0  0  0  0  0  0  0  0
    9.1960   -0.5020  -54.5530 C   0  0  0  0  0  0  0  0  0  0  0  0
    8.4890   -1.0860  -53.5020 C   0  0  0  0  0  0  0  0  0  0  0  0
    8.6840   -2.4310  -53.1940 C   0  0  0  0  0  0  0  0  0  0  0  0
    9.5750   -3.1990  -53.9430 C   0  0  0  0  0  0  0  0  0  0  0  0
   10.2800   -2.6400  -55.0200 C   0  0  0  0  0  0  0  0  0  0  0  0
   11.2060   -3.4520  -55.8230 C   0  0  0  0  0  0  0  0  0  0  0  0
   11.7220   -4.6610  -55.3260 C   0  0  0  0  0  0  0  0  0  0  0  0
   12.5960   -5.4370  -56.0890 C   0  0  0  0  0  0  0  0  0  0  0  0
   12.9720   -5.0170  -57.3620 C   0  0  0  0  0  0  0  0  0  0  0  0
   12.4740   -3.8210  -57.8720 C   0  0  0  0  0  0  0  0  0  0  0  0
   11.5980   -3.0450  -57.1090 C   0  0  0  0  0  0  0  0  0  0  0  0
   10.0710   -1.2820  -55.3160 C   0  0  0  0  0  0  0  0  0  0  0  0
    6.9630    1.0760  -56.0760 N   0  0  0  0  0  0  0  0  0  0  0  0
    6.4020    1.9040  -57.0160 C   0  0  0  0  0  0  0  0  0  0  0  0
    4.7110    1.9370  -57.3980 Cl  0  0  0  0  0  0  0  0  0  0  0  0
    7.4230    2.6680  -57.5100 C   0  0  0  0  0  0  0  0  0  0  0  0
    8.6490    4.9810  -59.4460 H   0  0  0  0  0  0  0  0  0  0  0  0
   13.2236    4.2610  -58.5100 H   0  0  0  0  0  0  0  0  0  0  0  0
   13.2477    2.3369  -56.9263 H   0  0  0  0  0  0  0  0  0  0  0  0
   11.0955    1.3244  -56.1399 H   0  0  0  0  0  0  0  0  0  0  0  0
    9.4510    1.5650  -54.3490 H   0  0  0  0  0  0  0  0  0  0  0  0
    7.7777   -0.4850  -52.9164 H   0  0  0  0  0  0  0  0  0  0  0  0
    8.1339   -2.8879  -52.3582 H   0  0  0  0  0  0  0  0  0  0  0  0
    9.7273   -4.2577  -53.6861 H   0  0  0  0  0  0  0  0  0  0  0  0
   11.4328   -5.0009  -54.3206 H   0  0  0  0  0  0  0  0  0  0  0  0
   12.9882   -6.3816  -55.6840 H   0  0  0  0  0  0  0  0  0  0  0  0
   13.6608   -5.6285  -57.9633 H   0  0  0  0  0  0  0  0  0  0  0  0
   12.7707   -3.4866  -58.8771 H   0  0  0  0  0  0  0  0  0  0  0  0
   11.2097   -2.1019  -57.5211 H   0  0  0  0  0  0  0  0  0  0  0  0
   10.6047   -0.8248  -56.1622 H   0  0  0  0  0  0  0  0  0  0  0  0
    6.4150    0.4720  -55.4770 H   0  0  0  0  0  0  0  0  0  0  0  0
  1  2  2  0
  2  3  1  0
  3  4  1  0
  4  5  2  0
  5  6  1  0
  5  7  1  0
  7  8  2  0
  8  9  1  0
  9 10  2  0
 10 11  1  0
 11 12  1  0
 12 13  1  0
 13 14  1  0
 14 15  2  0
 15 16  1  0
 16 17  2  0
 17 18  1  0
 18 19  1  0
 19 20  2  0
 20 21  1  0
 21 22  2  0
 22 23  1  0
 23 24  2  0
 18 25  2  0
 12 26  2  0
 26 27  1  0
 27 28  1  0
 27 29  2  0
 29  2  1  0
 10  4  1  0
 29 11  1  0
 25 14  1  0
 24 19  1  0
  3 30  1  0
  7 31  1  0
  8 32  1  0
  9 33  1  0
 13 34  1  0
 15 35  1  0
 16 36  1  0
 17 37  1  0
 20 38  1  0
 21 39  1  0
 22 40  1  0
 23 41  1  0
 24 42  1  0
 25 43  1  0
 26 44  1  0
M  CHG  1  26   1
M  END
>  <meeko>  (94) 
{"is_sidechain": false}

$$$$

     RDKit          3D

 38 41  0  0  0  0  0  0  0  0999 V2000
    9.3470    5.4690  -57.0040 O   0  0  0  0  0  0  0  0  0  0  0  0
   10.4010    5.2600  -57.9420 C   0  0  0  0  0  0  0  0  0  0  0  0
   11.1270    3.9150  -57.6970 C   0  0  2  0  0  0  0  0  0  0  0  0
   12.6660    4.0270  -57.7980 C   0  0  2  0  0  0  0  0  0  0  0  0
   13.2250    5.2160  -57.2610 O   0  0  0  0  0  0  0  0  0  0  0  0
   12.8930    3.9540  -59.2980 C   0  0  0  0  0  0  0  0  0  0  0  0
   11.8570    2.9390  -59.7750 C   0  0  0  0  0  0  0  0  0  0  0  0
   10.8260    2.8750  -58.7180 N   0  0  0  0  0  0  0  0  0  0  0  0
    9.5340    2.7220  -59.1150 C   0  0  0  0  0  0  0  0  0  0  0  0
    9.0450    3.0950  -60.2790 N   0  0  0  0  0  0  0  0  0  0  0  0
    7.6910    2.9280  -60.1960 C   0  0  0  0  0  0  0  0  0  0  0  0
    6.6600    3.3500  -61.4820 Cl  0  0  0  0  0  0  0  0  0  0  0  0
    7.3380    2.4160  -58.9720 C   0  0  0  0  0  0  0  0  0  0  0  0
    6.1180    2.0780  -58.3310 C   0  0  0  0  0  0  0  0  0  0  0  0
    4.9860    2.3580  -59.0020 O   0  0  0  0  0  0  0  0  0  0  0  0
    6.0630    1.5400  -57.1630 N   0  0  0  0  0  0  0  0  0  0  0  0
    7.2780    1.2390  -56.4940 C   0  0  0  0  0  0  0  0  0  0  0  0
    7.2470    0.5970  -55.2440 C   0  0  0  0  0  0  0  0  0  0  0  0
    5.7520    0.1930  -54.4730 Cl  0  0  0  0  0  0  0  0  0  0  0  0
    8.4310    0.2540  -54.5830 C   0  0  0  0  0  0  0  0  0  0  0  0
    9.6650    0.5380  -55.1650 C   0  0  0  0  0  0  0  0  0  0  0  0
    9.7250    1.1770  -56.4030 C   0  0  0  0  0  0  0  0  0  0  0  0
    8.5410    1.5450  -57.0520 C   0  0  0  0  0  0  0  0  0  0  0  0
    8.5270    2.2000  -58.3090 N   0  0  0  0  0  0  0  0  0  0  0  0
    9.1070    4.5780  -56.6730 H   0  0  0  0  0  0  0  0  0  0  0  0
    9.9789    5.2574  -58.9578 H   0  0  0  0  0  0  0  0  0  0  0  0
   11.1333    6.0719  -57.8215 H   0  0  0  0  0  0  0  0  0  0  0  0
   10.7691    3.6471  -56.6920 H   0  0  0  0  0  0  0  0  0  0  0  0
   13.1596    3.2437  -57.2040 H   0  0  0  0  0  0  0  0  0  0  0  0
   12.6120    5.9430  -57.4830 H   0  0  0  0  0  0  0  0  0  0  0  0
   12.7259    4.9346  -59.7677 H   0  0  0  0  0  0  0  0  0  0  0  0
   13.9220    3.6656  -59.5586 H   0  0  0  0  0  0  0  0  0  0  0  0
   11.4098    3.2680  -60.7246 H   0  0  0  0  0  0  0  0  0  0  0  0
   12.3127    1.9534  -59.9509 H   0  0  0  0  0  0  0  0  0  0  0  0
    4.1860    1.9990  -58.5890 H   0  0  0  0  0  0  0  0  0  0  0  0
    8.3880   -0.2410  -53.6016 H   0  0  0  0  0  0  0  0  0  0  0  0
   10.5938    0.2575  -54.6467 H   0  0  0  0  0  0  0  0  0  0  0  0
   10.6989    1.3909  -56.8675 H   0  0  0  0  0  0  0  0  0  0  0  0
  1  2  1  0
  2  3  1  0
  3  4  1  0
  4  5  1  0
  4  6  1  0
  6  7  1  0
  7  8  1  0
  8  9  1  0
  9 10  2  0
 10 11  1  0
 11 12  1  0
 11 13  2  0
 13 14  1  0
 14 15  1  0
 14 16  2  0
 16 17  1  0
 17 18  2  0
 18 19  1  0
 18 20  1  0
 20 21  2  0
 21 22  1  0
 22 23  2  0
 23 24  1  0
  8  3  1  0
 24  9  1  0
 24 13  1  0
 23 17  1  0
  1 25  1  0
  2 26  1  0
  2 27  1  0
  3 28  1  1
  4 29  1  1
  5 30  1  0
  6 31  1  0
  6 32  1  0
  7 33  1  0
  7 34  1  0
 15 35  1  0
 20 36  1  0
 21 37  1  0
 22 38  1  0
M  END
>  <meeko>  (95) 
{"is_sidechain": false}

$$$$

     RDKit          3D

 38 41  0  0  0  0  0  0  0  0999 V2000
    9.3240    1.2630  -55.0040 O   0  0  0  0  0  0  0  0  0  0  0  0
    9.0380    1.7040  -56.1120 C   0  0  0  0  0  0  0  0  0  0  0  0
    9.9950    2.3340  -56.8680 N   0  0  0  0  0  0  0  0  0  0  0  0
    9.7710    2.8720  -58.1500 C   0  0  0  0  0  0  0  0  0  0  0  0
   10.8190    3.4910  -58.8460 C   0  0  0  0  0  0  0  0  0  0  0  0
   12.4000    3.6160  -58.1600 Cl  0  0  0  0  0  0  0  0  0  0  0  0
   10.5990    4.0200  -60.1180 C   0  0  0  0  0  0  0  0  0  0  0  0
    9.3340    3.9320  -60.6980 C   0  0  0  0  0  0  0  0  0  0  0  0
    8.2820    3.3190  -60.0110 C   0  0  0  0  0  0  0  0  0  0  0  0
    8.4950    2.7900  -58.7360 C   0  0  0  0  0  0  0  0  0  0  0  0
    7.4850    2.1510  -57.9730 N   0  0  0  0  0  0  0  0  0  0  0  0
    6.1400    1.9030  -58.2250 C   0  0  0  0  0  0  0  0  0  0  0  0
    5.4930    2.3030  -59.3570 N   0  0  0  0  0  0  0  0  0  0  0  0
    4.0820    2.6910  -59.1290 C   0  0  0  0  0  0  0  0  0  0  0  0
    3.3560    2.3260  -60.4110 C   0  0  0  0  0  0  0  0  0  0  0  0
    4.0330    1.0260  -60.8020 C   0  0  1  0  0  0  0  0  0  0  0  0
    3.7830    0.7180  -62.1680 O   0  0  0  0  0  0  0  0  0  0  0  0
    5.5180    1.3030  -60.4710 C   0  0  1  0  0  0  0  0  0  0  0  0
    6.3170    1.8770  -61.6570 C   0  0  0  0  0  0  0  0  0  0  0  0
    5.5340    2.7560  -62.4600 O   0  0  0  0  0  0  0  0  0  0  0  0
    5.5820    1.2570  -57.2260 N   0  0  0  0  0  0  0  0  0  0  0  0
    6.5670    1.0790  -56.2910 C   0  0  0  0  0  0  0  0  0  0  0  0
    6.2550    0.2790  -54.8220 Cl  0  0  0  0  0  0  0  0  0  0  0  0
    7.7500    1.6280  -56.7230 C   0  0  0  0  0  0  0  0  0  0  0  0
   10.9200    2.3970  -56.4570 H   0  0  0  0  0  0  0  0  0  0  0  0
   11.4221    4.5057  -60.6625 H   0  0  0  0  0  0  0  0  0  0  0  0
    9.1628    4.3474  -61.7021 H   0  0  0  0  0  0  0  0  0  0  0  0
    7.2866    3.2533  -60.4745 H   0  0  0  0  0  0  0  0  0  0  0  0
    3.6624    2.1362  -58.2769 H   0  0  0  0  0  0  0  0  0  0  0  0
    3.9833    3.7604  -58.8912 H   0  0  0  0  0  0  0  0  0  0  0  0
    2.2807    2.1780  -60.2324 H   0  0  0  0  0  0  0  0  0  0  0  0
    3.4108    3.1038  -61.1869 H   0  0  0  0  0  0  0  0  0  0  0  0
    3.6655    0.1354  -60.2711 H   0  0  0  0  0  0  0  0  0  0  0  0
    3.1400    1.3740  -62.4960 H   0  0  0  0  0  0  0  0  0  0  0  0
    6.0199    0.3600  -60.2086 H   0  0  0  0  0  0  0  0  0  0  0  0
    7.1824    2.4317  -61.2654 H   0  0  0  0  0  0  0  0  0  0  0  0
    6.6335    1.0345  -62.2895 H   0  0  0  0  0  0  0  0  0  0  0  0
    5.7400    2.5180  -63.3900 H   0  0  0  0  0  0  0  0  0  0  0  0
  1  2  2  0
  2  3  1  0
  3  4  1  0
  4  5  2  0
  5  6  1  0
  5  7  1  0
  7  8  2  0
  8  9  1  0
  9 10  2  0
 10 11  1  0
 11 12  1  0
 12 13  1  0
 13 14  1  0
 14 15  1  0
 15 16  1  0
 16 17  1  0
 16 18  1  0
 18 19  1  0
 19 20  1  0
 12 21  2  0
 21 22  1  0
 22 23  1  0
 22 24  2  0
 24  2  1  0
 10  4  1  0
 24 11  1  0
 18 13  1  0
  3 25  1  0
  7 26  1  0
  8 27  1  0
  9 28  1  0
 14 29  1  0
 14 30  1  0
 15 31  1  0
 15 32  1  0
 16 33  1  1
 17 34  1  0
 18 35  1  1
 19 36  1  0
 19 37  1  0
 20 38  1  0
M  END
>  <meeko>  (96) 
{"is_sidechain": false}

$$$$

     RDKit          3D

 39 42  0  0  0  0  0  0  0  0999 V2000
    8.8550    5.7220  -58.1010 O   0  0  0  0  0  0  0  0  0  0  0  0
    9.7300    5.2590  -57.0820 C   0  0  0  0  0  0  0  0  0  0  0  0
   10.9160    4.5440  -57.7350 C   0  0  2  0  0  0  0  0  0  0  0  0
   11.6050    5.3470  -58.8500 C   0  0  2  0  0  0  0  0  0  0  0  0
   10.6390    5.7210  -59.8480 O   0  0  0  0  0  0  0  0  0  0  0  0
   12.5340    4.2960  -59.4530 C   0  0  0  0  0  0  0  0  0  0  0  0
   11.6930    3.0140  -59.4380 C   0  0  0  0  0  0  0  0  0  0  0  0
   10.6160    3.2350  -58.4130 N   0  0  0  0  0  0  0  0  0  0  0  0
    9.3550    2.9960  -58.8360 C   0  0  0  0  0  0  0  0  0  0  0  0
    8.8920    3.3850  -60.0140 N   0  0  0  0  0  0  0  0  0  0  0  0
    7.6080    2.9590  -60.2070 C   0  0  0  0  0  0  0  0  0  0  0  0
    6.6680    3.2550  -61.6340 Cl  0  0  0  0  0  0  0  0  0  0  0  0
    7.2570    2.2760  -59.0750 C   0  0  0  0  0  0  0  0  0  0  0  0
    6.0750    1.5960  -58.6600 C   0  0  0  0  0  0  0  0  0  0  0  0
    5.0250    1.5600  -59.5000 O   0  0  0  0  0  0  0  0  0  0  0  0
    5.9700    1.0120  -57.5100 N   0  0  0  0  0  0  0  0  0  0  0  0
    7.0820    1.0490  -56.6100 C   0  0  0  0  0  0  0  0  0  0  0  0
    6.9890    0.4310  -55.3530 C   0  0  0  0  0  0  0  0  0  0  0  0
    5.5510   -0.3900  -54.8630 Cl  0  0  0  0  0  0  0  0  0  0  0  0
    8.0640    0.4630  -54.4550 C   0  0  0  0  0  0  0  0  0  0  0  0
    9.2530    1.1150  -54.7910 C   0  0  0  0  0  0  0  0  0  0  0  0
    9.3850    1.7400  -56.0300 C   0  0  0  0  0  0  0  0  0  0  0  0
    8.3120    1.6950  -56.9120 C   0  0  0  0  0  0  0  0  0  0  0  0
    8.3830    2.3320  -58.2270 N   0  0  0  0  0  0  0  0  0  0  0  0
    9.3960    6.1060  -58.8160 H   0  0  0  0  0  0  0  0  0  0  0  0
   10.0932    6.1127  -56.4910 H   0  0  0  0  0  0  0  0  0  0  0  0
    9.1949    4.5640  -56.4182 H   0  0  0  0  0  0  0  0  0  0  0  0
   11.5424    4.4019  -56.8420 H   0  0  0  0  0  0  0  0  0  0  0  0
   12.0988    6.2651  -58.4991 H   0  0  0  0  0  0  0  0  0  0  0  0
   10.7920    6.6740  -60.0240 H   0  0  0  0  0  0  0  0  0  0  0  0
   12.8176    4.5668  -60.4807 H   0  0  0  0  0  0  0  0  0  0  0  0
   13.4776    4.1927  -58.8972 H   0  0  0  0  0  0  0  0  0  0  0  0
   11.2475    2.8379  -60.4282 H   0  0  0  0  0  0  0  0  0  0  0  0
   12.3059    2.1337  -59.1941 H   0  0  0  0  0  0  0  0  0  0  0  0
    9.4670    3.9070  -60.6810 H   0  0  0  0  0  0  0  0  0  0  0  0
    5.2190    1.4770  -60.4460 H   0  0  0  0  0  0  0  0  0  0  0  0
    7.9709   -0.0300  -53.4761 H   0  0  0  0  0  0  0  0  0  0  0  0
   10.0881    1.1353  -54.0753 H   0  0  0  0  0  0  0  0  0  0  0  0
   10.3168    2.2568  -56.3032 H   0  0  0  0  0  0  0  0  0  0  0  0
  1  2  1  0
  2  3  1  0
  3  4  1  0
  4  5  1  0
  4  6  1  0
  6  7  1  0
  7  8  1  0
  8  9  1  0
  9 10  2  0
 10 11  1  0
 11 12  1  0
 11 13  2  0
 13 14  1  0
 14 15  1  0
 14 16  2  0
 16 17  1  0
 17 18  2  0
 18 19  1  0
 18 20  1  0
 20 21  2  0
 21 22  1  0
 22 23  2  0
 23 24  1  0
  8  3  1  0
 24  9  1  0
 24 13  1  0
 23 17  1  0
  1 25  1  0
  2 26  1  0
  2 27  1  0
  3 28  1  1
  4 29  1  1
  5 30  1  0
  6 31  1  0
  6 32  1  0
  7 33  1  0
  7 34  1  0
 10 35  1  0
 15 36  1  0
 20 37  1  0
 21 38  1  0
 22 39  1  0
M  CHG  1  10   1
M  END
>  <meeko>  (97) 
{"is_sidechain": false}

$$$$

     RDKit          3D

 39 42  0  0  0  0  0  0  0  0999 V2000
    5.8220    1.2970  -56.0060 O   0  0  0  0  0  0  0  0  0  0  0  0
    6.5590    1.6390  -56.9260 C   0  0  0  0  0  0  0  0  0  0  0  0
    6.0090    1.9070  -58.1720 N   0  0  0  0  0  0  0  0  0  0  0  0
    6.7350    2.1980  -59.3580 C   0  0  0  0  0  0  0  0  0  0  0  0
    6.0860    2.2690  -60.5930 C   0  0  0  0  0  0  0  0  0  0  0  0
    4.3720    2.1020  -60.7090 Cl  0  0  0  0  0  0  0  0  0  0  0  0
    6.8250    2.4520  -61.7650 C   0  0  0  0  0  0  0  0  0  0  0  0
    8.2210    2.5410  -61.7140 C   0  0  0  0  0  0  0  0  0  0  0  0
    8.8850    2.4870  -60.4870 C   0  0  0  0  0  0  0  0  0  0  0  0
    8.1300    2.3740  -59.3310 C   0  0  0  0  0  0  0  0  0  0  0  0
    8.7390    2.3160  -58.0180 N   0  0  0  0  0  0  0  0  0  0  0  0
    9.9680    2.6070  -57.5750 C   0  0  0  0  0  0  0  0  0  0  0  0
   10.8810    3.4740  -58.0750 N   0  0  0  0  0  0  0  0  0  0  0  0
   11.9830    3.0580  -58.9710 C   0  0  0  0  0  0  0  0  0  0  0  0
   12.3530    4.3110  -59.7530 C   0  0  0  0  0  0  0  0  0  0  0  0
   12.0540    5.4350  -58.7610 C   0  0  1  0  0  0  0  0  0  0  0  0
   11.9560    6.6760  -59.4240 O   0  0  0  0  0  0  0  0  0  0  0  0
   10.7310    4.9710  -58.0980 C   0  0  1  0  0  0  0  0  0  0  0  0
    9.5010    5.4760  -58.8780 C   0  0  0  0  0  0  0  0  0  0  0  0
    8.3960    5.6900  -57.9930 O   0  0  0  0  0  0  0  0  0  0  0  0
   10.1070    1.9200  -56.4530 N   0  0  0  0  0  0  0  0  0  0  0  0
    8.8930    1.5310  -55.9550 C   0  0  0  0  0  0  0  0  0  0  0  0
    8.6510    0.8270  -54.3900 Cl  0  0  0  0  0  0  0  0  0  0  0  0
    7.9820    1.8270  -56.9270 C   0  0  0  0  0  0  0  0  0  0  0  0
    5.0050    1.7660  -58.2460 H   0  0  0  0  0  0  0  0  0  0  0  0
    6.3069    2.5265  -62.7325 H   0  0  0  0  0  0  0  0  0  0  0  0
    8.7971    2.6539  -62.6442 H   0  0  0  0  0  0  0  0  0  0  0  0
    9.9830    2.5331  -60.4393 H   0  0  0  0  0  0  0  0  0  0  0  0
   12.8427    2.7003  -58.3854 H   0  0  0  0  0  0  0  0  0  0  0  0
   11.6859    2.2315  -59.6334 H   0  0  0  0  0  0  0  0  0  0  0  0
   13.4168    4.3029  -60.0327 H   0  0  0  0  0  0  0  0  0  0  0  0
   11.8020    4.4100  -60.6999 H   0  0  0  0  0  0  0  0  0  0  0  0
   12.8417    5.6025  -58.0117 H   0  0  0  0  0  0  0  0  0  0  0  0
   12.1920    7.3850  -58.7970 H   0  0  0  0  0  0  0  0  0  0  0  0
   10.5609    5.3754  -57.0893 H   0  0  0  0  0  0  0  0  0  0  0  0
    9.7533    6.4233  -59.3769 H   0  0  0  0  0  0  0  0  0  0  0  0
    9.2173    4.7176  -59.6225 H   0  0  0  0  0  0  0  0  0  0  0  0
    8.1580    6.6390  -58.0840 H   0  0  0  0  0  0  0  0  0  0  0  0
   10.9780    1.8870  -55.9200 H   0  0  0  0  0  0  0  0  0  0  0  0
  1  2  2  0
  2  3  1  0
  3  4  1  0
  4  5  2  0
  5  6  1  0
  5  7  1  0
  7  8  2  0
  8  9  1  0
  9 10  2  0
 10 11  1  0
 11 12  1  0
 12 13  1  0
 13 14  1  0
 14 15  1  0
 15 16  1  0
 16 17  1  0
 16 18  1  0
 18 19  1  0
 19 20  1  0
 12 21  2  0
 21 22  1  0
 22 23  1  0
 22 24  2  0
 24  2  1  0
 10  4  1  0
 24 11  1  0
 18 13  1  0
  3 25  1  0
  7 26  1  0
  8 27  1  0
  9 28  1  0
 14 29  1  0
 14 30  1  0
 15 31  1  0
 15 32  1  0
 16 33  1  1
 17 34  1  0
 18 35  1  1
 19 36  1  0
 19 37  1  0
 20 38  1  0
 21 39  1  0
M  CHG  1  21   1
M  END
>  <meeko>  (98) 
{"is_sidechain": false}

$$$$

     RDKit          3D

 49 52  0  0  0  0  0  0  0  0999 V2000
    7.7920   -2.8050  -50.0810 C   0  0  0  0  0  0  0  0  0  0  0  0
    8.0980   -2.2010  -51.3890 C   0  0  0  0  0  0  0  0  0  0  0  0
    7.4040   -1.3490  -52.1060 N   0  0  0  0  0  0  0  0  0  0  0  0
    8.2070   -1.1610  -53.2100 C   0  0  0  0  0  0  0  0  0  0  0  0
    7.8310   -0.2720  -54.3010 C   0  0  0  0  0  0  0  0  0  0  0  0
    6.4950   -0.1180  -54.6780 C   0  0  0  0  0  0  0  0  0  0  0  0
    6.1970    0.7370  -55.7240 C   0  0  0  0  0  0  0  0  0  0  0  0
    7.1240    1.4420  -56.4040 N   0  0  0  0  0  0  0  0  0  0  0  0
    8.4180    1.2930  -56.0250 C   0  0  0  0  0  0  0  0  0  0  0  0
    9.4820    2.0270  -56.7870 C   0  0  0  0  0  0  0  0  0  0  0  0
   10.6540    1.6810  -56.6080 O   0  0  0  0  0  0  0  0  0  0  0  0
    9.1670    3.0680  -57.6570 N   0  0  0  0  0  0  0  0  0  0  0  0
    9.4890    2.9240  -59.0670 C   0  0  0  0  0  0  0  0  0  0  0  0
    9.2220    4.2840  -59.7090 C   0  0  2  0  0  0  0  0  0  0  0  0
   10.5100    5.1130  -59.8280 C   0  0  0  0  0  0  0  0  0  0  0  0
   11.7340    4.3250  -59.4490 C   0  0  2  0  0  0  0  0  0  0  0  0
   12.4350    4.5890  -58.1380 C   0  0  0  0  0  0  0  0  0  0  0  0
   13.1190    4.9380  -59.4360 C   0  0  2  0  0  0  0  0  0  0  0  0
   13.3760    6.3620  -59.7960 C   0  0  0  0  0  0  0  0  0  0  0  0
    8.1450    4.8790  -58.7940 C   0  0  0  0  0  0  0  0  0  0  0  0
    8.4060    4.2910  -57.3980 C   0  0  2  0  0  0  0  0  0  0  0  0
    9.1450    5.2730  -56.4900 C   0  0  0  0  0  0  0  0  0  0  0  0
    8.8100    0.4450  -54.9940 C   0  0  0  0  0  0  0  0  0  0  0  0
    9.3460   -1.8720  -53.1800 N   0  0  0  0  0  0  0  0  0  0  0  0
    9.2760   -2.5610  -51.9700 O   0  0  0  0  0  0  0  0  0  0  0  0
    8.1321   -2.1338  -49.2786 H   0  0  0  0  0  0  0  0  0  0  0  0
    6.7065   -2.9603  -49.9938 H   0  0  0  0  0  0  0  0  0  0  0  0
    8.3089   -3.7721  -49.9938 H   0  0  0  0  0  0  0  0  0  0  0  0
    5.6969   -0.6648  -54.1545 H   0  0  0  0  0  0  0  0  0  0  0  0
    5.1429    0.8482  -56.0181 H   0  0  0  0  0  0  0  0  0  0  0  0
   10.5462    2.6459  -59.1898 H   0  0  0  0  0  0  0  0  0  0  0  0
    8.8838    2.1346  -59.5366 H   0  0  0  0  0  0  0  0  0  0  0  0
    8.8768    4.2426  -60.7526 H   0  0  0  0  0  0  0  0  0  0  0  0
   10.6167    5.4532  -60.8686 H   0  0  0  0  0  0  0  0  0  0  0  0
   10.4286    5.9623  -59.1336 H   0  0  0  0  0  0  0  0  0  0  0  0
   11.2863    3.4507  -59.9442 H   0  0  0  0  0  0  0  0  0  0  0  0
   12.0754    5.3890  -57.4742 H   0  0  0  0  0  0  0  0  0  0  0  0
   12.6980    3.9786  -57.2615 H   0  0  0  0  0  0  0  0  0  0  0  0
   14.0721    4.6838  -59.9228 H   0  0  0  0  0  0  0  0  0  0  0  0
   13.4837    6.9586  -58.8781 H   0  0  0  0  0  0  0  0  0  0  0  0
   14.3008    6.4294  -60.3877 H   0  0  0  0  0  0  0  0  0  0  0  0
   12.5331    6.7485  -60.3877 H   0  0  0  0  0  0  0  0  0  0  0  0
    8.2276    5.9756  -58.7688 H   0  0  0  0  0  0  0  0  0  0  0  0
    7.1331    4.6372  -59.1512 H   0  0  0  0  0  0  0  0  0  0  0  0
    7.4758    4.0795  -56.8503 H   0  0  0  0  0  0  0  0  0  0  0  0
    8.9518    5.0162  -55.4380 H   0  0  0  0  0  0  0  0  0  0  0  0
   10.2252    5.2148  -56.6892 H   0  0  0  0  0  0  0  0  0  0  0  0
    8.7900    6.2949  -56.6892 H   0  0  0  0  0  0  0  0  0  0  0  0
    9.8725    0.3407  -54.7289 H   0  0  0  0  0  0  0  0  0  0  0  0
  1  2  1  0
  2  3  2  0
  3  4  1  0
  4  5  1  0
  5  6  2  0
  6  7  1  0
  7  8  2  0
  8  9  1  0
  9 10  1  0
 10 11  2  0
 10 12  1  0
 12 13  1  0
 13 14  1  0
 14 15  1  0
 15 16  1  0
 16 17  1  0
 17 18  1  0
 18 19  1  0
 14 20  1  0
 20 21  1  0
 21 22  1  0
  9 23  2  0
  4 24  2  0
 24 25  1  0
 25  2  1  0
 23  5  1  0
 21 12  1  0
 18 16  1  0
  1 26  1  0
  1 27  1  0
  1 28  1  0
  6 29  1  0
  7 30  1  0
 13 31  1  0
 13 32  1  0
 14 33  1  6
 15 34  1  0
 15 35  1  0
 16 36  1  6
 17 37  1  0
 17 38  1  0
 18 39  1  6
 19 40  1  0
 19 41  1  0
 19 42  1  0
 20 43  1  0
 20 44  1  0
 21 45  1  1
 22 46  1  0
 22 47  1  0
 22 48  1  0
 23 49  1  0
M  END
>  <meeko>  (99) 
{"is_sidechain": false}

$$$$

     RDKit          3D

 48 51  0  0  0  0  0  0  0  0999 V2000
   12.1140   -3.5630  -57.9180 C   0  0  0  0  0  0  0  0  0  0  0  0
   11.1230   -4.5710  -57.4460 C   0  0  1  0  0  0  0  0  0  0  0  0
   11.5830   -5.8080  -56.7150 C   0  0  0  0  0  0  0  0  0  0  0  0
   10.7810   -4.7600  -55.9820 C   0  0  1  0  0  0  0  0  0  0  0  0
   11.4170   -3.9420  -54.8960 C   0  0  0  0  0  0  0  0  0  0  0  0
   10.3890   -3.1090  -54.1300 C   0  0  2  0  0  0  0  0  0  0  0  0
    8.9700   -3.6810  -54.1450 C   0  0  0  0  0  0  0  0  0  0  0  0
    8.0840   -2.4670  -53.8110 C   0  0  2  0  0  0  0  0  0  0  0  0
    6.7340   -2.5990  -54.5090 C   0  0  0  0  0  0  0  0  0  0  0  0
    8.8740   -1.3170  -54.2590 N   0  0  0  0  0  0  0  0  0  0  0  0
    8.5620    0.0440  -54.2010 C   0  0  0  0  0  0  0  0  0  0  0  0
    8.5180    0.6330  -53.1170 O   0  0  0  0  0  0  0  0  0  0  0  0
    8.2530    0.8050  -55.4660 C   0  0  0  0  0  0  0  0  0  0  0  0
    6.9600    0.9140  -55.8370 N   0  0  0  0  0  0  0  0  0  0  0  0
    6.7300    1.6460  -56.9370 C   0  0  0  0  0  0  0  0  0  0  0  0
    7.7240    2.2540  -57.6670 C   0  0  0  0  0  0  0  0  0  0  0  0
    9.0270    2.0900  -57.2190 C   0  0  0  0  0  0  0  0  0  0  0  0
   10.1750    2.7010  -57.9360 C   0  0  0  0  0  0  0  0  0  0  0  0
   11.3340    2.8550  -57.2530 N   0  0  0  0  0  0  0  0  0  0  0  0
   12.3610    3.4090  -57.9260 C   0  0  0  0  0  0  0  0  0  0  0  0
   12.2830    3.8160  -59.2350 C   0  0  0  0  0  0  0  0  0  0  0  0
   11.0650    3.6240  -59.8420 C   0  0  0  0  0  0  0  0  0  0  0  0
   10.0060    3.0780  -59.2200 N   0  0  0  0  0  0  0  0  0  0  0  0
    9.2970    1.3630  -56.1070 N   0  0  0  0  0  0  0  0  0  0  0  0
   10.1760   -1.7310  -54.7510 C   0  0  0  0  0  0  0  0  0  0  0  0
   12.5881   -3.0808  -57.0504 H   0  0  0  0  0  0  0  0  0  0  0  0
   12.8831   -4.0618  -58.5260 H   0  0  0  0  0  0  0  0  0  0  0  0
   11.6022   -2.8024  -58.5260 H   0  0  0  0  0  0  0  0  0  0  0  0
   10.5310   -4.3576  -58.3482 H   0  0  0  0  0  0  0  0  0  0  0  0
   11.1303   -6.7833  -56.9470 H   0  0  0  0  0  0  0  0  0  0  0  0
   12.5548   -6.2967  -56.5515 H   0  0  0  0  0  0  0  0  0  0  0  0
    9.8449   -4.7405  -55.4046 H   0  0  0  0  0  0  0  0  0  0  0  0
   11.9220   -4.6188  -54.1911 H   0  0  0  0  0  0  0  0  0  0  0  0
   12.1323   -3.2509  -55.3658 H   0  0  0  0  0  0  0  0  0  0  0  0
   10.8235   -3.0915  -53.1196 H   0  0  0  0  0  0  0  0  0  0  0  0
    8.7212   -4.0873  -55.1365 H   0  0  0  0  0  0  0  0  0  0  0  0
    8.8380   -4.5128  -53.4374 H   0  0  0  0  0  0  0  0  0  0  0  0
    7.8341   -2.3688  -52.7443 H   0  0  0  0  0  0  0  0  0  0  0  0
    5.9372   -2.6769  -53.7546 H   0  0  0  0  0  0  0  0  0  0  0  0
    6.5582   -1.7138  -55.1379 H   0  0  0  0  0  0  0  0  0  0  0  0
    6.7331   -3.5015  -55.1379 H   0  0  0  0  0  0  0  0  0  0  0  0
    5.6897    1.7665  -57.2735 H   0  0  0  0  0  0  0  0  0  0  0  0
    7.4963    2.8445  -58.5667 H   0  0  0  0  0  0  0  0  0  0  0  0
   13.3161    3.5429  -57.3970 H   0  0  0  0  0  0  0  0  0  0  0  0
   13.1375    4.2653  -59.7622 H   0  0  0  0  0  0  0  0  0  0  0  0
   10.9509    3.9333  -60.8914 H   0  0  0  0  0  0  0  0  0  0  0  0
   10.1764   -1.7935  -55.8492 H   0  0  0  0  0  0  0  0  0  0  0  0
   10.9727   -1.0208  -54.4849 H   0  0  0  0  0  0  0  0  0  0  0  0
  1  2  1  0
  2  3  1  0
  3  4  1  0
  4  5  1  0
  5  6  1  0
  6  7  1  0
  7  8  1  0
  8  9  1  0
  8 10  1  0
 10 11  1  0
 11 12  2  0
 11 13  1  0
 13 14  2  0
 14 15  1  0
 15 16  2  0
 16 17  1  0
 17 18  1  0
 18 19  2  0
 19 20  1  0
 20 21  2  0
 21 22  1  0
 22 23  2  0
 17 24  2  0
 10 25  1  0
  4  2  1  0
 25  6  1  0
 24 13  1  0
 23 18  1  0
  1 26  1  0
  1 27  1  0
  1 28  1  0
  2 29  1  6
  3 30  1  0
  3 31  1  0
  4 32  1  6
  5 33  1  0
  5 34  1  0
  6 35  1  1
  7 36  1  0
  7 37  1  0
  8 38  1  1
  9 39  1  0
  9 40  1  0
  9 41  1  0
 15 42  1  0
 16 43  1  0
 20 44  1  0
 21 45  1  0
 22 46  1  0
 25 47  1  0
 25 48  1  0
M  END
>  <meeko>  (100) 
{"is_sidechain": false}

$$$$

     RDKit          3D

 44 47  0  0  0  0  0  0  0  0999 V2000
   11.9930   -3.5960  -58.0010 C   0  0  0  0  0  0  0  0  0  0  0  0
   11.0400   -4.6140  -57.4730 C   0  0  1  0  0  0  0  0  0  0  0  0
   11.5490   -5.8190  -56.7240 C   0  0  0  0  0  0  0  0  0  0  0  0
   10.7450   -4.7710  -55.9950 C   0  0  1  0  0  0  0  0  0  0  0  0
   11.3930   -3.9090  -54.9490 C   0  0  0  0  0  0  0  0  0  0  0  0
   10.3690   -3.0770  -54.1790 C   0  0  2  0  0  0  0  0  0  0  0  0
    8.9510   -3.6530  -54.1820 C   0  0  0  0  0  0  0  0  0  0  0  0
    8.0650   -2.4400  -53.8450 C   0  0  2  0  0  0  0  0  0  0  0  0
    6.7130   -2.5760  -54.5410 C   0  0  0  0  0  0  0  0  0  0  0  0
    8.8500   -1.2860  -54.2960 N   0  0  0  0  0  0  0  0  0  0  0  0
    8.5440    0.0690  -54.2380 C   0  0  0  0  0  0  0  0  0  0  0  0
    8.5550    0.6820  -53.1680 O   0  0  0  0  0  0  0  0  0  0  0  0
    8.1880    0.8330  -55.4800 C   0  0  0  0  0  0  0  0  0  0  0  0
    6.8570    0.7900  -55.9080 C   0  0  0  0  0  0  0  0  0  0  0  0
    6.4830    1.4570  -57.0780 C   0  0  0  0  0  0  0  0  0  0  0  0
    7.4940    2.1340  -57.7720 C   0  0  0  0  0  0  0  0  0  0  0  0
    7.6160    2.9120  -58.9440 C   0  0  0  0  0  0  0  0  0  0  0  0
    8.8690    3.3310  -59.1600 N   0  0  0  0  0  0  0  0  0  0  0  0
    9.5530    2.8090  -58.1200 N   0  0  0  0  0  0  0  0  0  0  0  0
    8.7790    2.0910  -57.2550 C   0  0  0  0  0  0  0  0  0  0  0  0
    9.1970    1.4710  -56.1360 N   0  0  0  0  0  0  0  0  0  0  0  0
   10.1470   -1.7020  -54.8020 C   0  0  0  0  0  0  0  0  0  0  0  0
   12.4783   -3.0776  -57.1609 H   0  0  0  0  0  0  0  0  0  0  0  0
   12.7575   -4.0935  -58.6158 H   0  0  0  0  0  0  0  0  0  0  0  0
   11.4462   -2.8659  -58.6158 H   0  0  0  0  0  0  0  0  0  0  0  0
   10.4176   -4.4387  -58.3629 H   0  0  0  0  0  0  0  0  0  0  0  0
   11.1126   -6.8101  -56.9169 H   0  0  0  0  0  0  0  0  0  0  0  0
   12.5363   -6.2810  -56.5767 H   0  0  0  0  0  0  0  0  0  0  0  0
    9.8261   -4.7573  -55.3905 H   0  0  0  0  0  0  0  0  0  0  0  0
   11.9313   -4.5550  -54.2399 H   0  0  0  0  0  0  0  0  0  0  0  0
   12.0805   -3.2168  -55.4571 H   0  0  0  0  0  0  0  0  0  0  0  0
   10.8113   -3.0552  -53.1721 H   0  0  0  0  0  0  0  0  0  0  0  0
    8.6959   -4.0628  -55.1704 H   0  0  0  0  0  0  0  0  0  0  0  0
    8.8261   -4.4833  -53.4713 H   0  0  0  0  0  0  0  0  0  0  0  0
    7.8202   -2.3419  -52.7771 H   0  0  0  0  0  0  0  0  0  0  0  0
    5.9179   -2.6560  -53.7851 H   0  0  0  0  0  0  0  0  0  0  0  0
    6.5336   -1.6914  -55.1697 H   0  0  0  0  0  0  0  0  0  0  0  0
    6.7134   -3.4786  -55.1697 H   0  0  0  0  0  0  0  0  0  0  0  0
    6.1076    0.2334  -55.3261 H   0  0  0  0  0  0  0  0  0  0  0  0
    5.4433    1.4506  -57.4370 H   0  0  0  0  0  0  0  0  0  0  0  0
    6.7718    3.1485  -59.6084 H   0  0  0  0  0  0  0  0  0  0  0  0
   10.5490    2.9760  -58.0500 H   0  0  0  0  0  0  0  0  0  0  0  0
   10.1342   -1.7687  -55.8999 H   0  0  0  0  0  0  0  0  0  0  0  0
   10.9463   -0.9904  -54.5475 H   0  0  0  0  0  0  0  0  0  0  0  0
  1  2  1  0
  2  3  1  0
  3  4  1  0
  4  5  1  0
  5  6  1  0
  6  7  1  0
  7  8  1  0
  8  9  1  0
  8 10  1  0
 10 11  1  0
 11 12  2  0
 11 13  1  0
 13 14  1  0
 14 15  2  0
 15 16  1  0
 16 17  1  0
 17 18  2  0
 18 19  1  0
 19 20  1  0
 20 21  1  0
 10 22  1  0
  4  2  1  0
 22  6  1  0
 21 13  2  0
 20 16  2  0
  1 23  1  0
  1 24  1  0
  1 25  1  0
  2 26  1  6
  3 27  1  0
  3 28  1  0
  4 29  1  6
  5 30  1  0
  5 31  1  0
  6 32  1  1
  7 33  1  0
  7 34  1  0
  8 35  1  1
  9 36  1  0
  9 37  1  0
  9 38  1  0
 14 39  1  0
 15 40  1  0
 17 41  1  0
 19 42  1  0
 22 43  1  0
 22 44  1  0
M  END
>  <meeko>  (101) 
{"is_sidechain": false}

$$$$

     RDKit          3D

 44 47  0  0  0  0  0  0  0  0999 V2000
   11.9280   -3.7160  -58.1660 C   0  0  0  0  0  0  0  0  0  0  0  0
   11.1150   -4.7820  -57.5130 C   0  0  1  0  0  0  0  0  0  0  0  0
   11.7970   -5.8260  -56.6720 C   0  0  0  0  0  0  0  0  0  0  0  0
   10.8480   -4.8490  -56.0220 C   0  0  1  0  0  0  0  0  0  0  0  0
   11.3900   -3.8580  -55.0300 C   0  0  0  0  0  0  0  0  0  0  0  0
   10.3380   -3.0360  -54.2870 C   0  0  2  0  0  0  0  0  0  0  0  0
    8.9390   -3.6520  -54.2210 C   0  0  0  0  0  0  0  0  0  0  0  0
    8.0470   -2.4720  -53.7890 C   0  0  2  0  0  0  0  0  0  0  0  0
    6.6600   -2.6070  -54.4120 C   0  0  0  0  0  0  0  0  0  0  0  0
    8.7890   -1.2810  -54.2260 N   0  0  0  0  0  0  0  0  0  0  0  0
    8.4400    0.0490  -54.1520 C   0  0  0  0  0  0  0  0  0  0  0  0
    8.5050    0.6990  -53.1090 O   0  0  0  0  0  0  0  0  0  0  0  0
    8.0030    0.7490  -55.4000 C   0  0  0  0  0  0  0  0  0  0  0  0
    6.7080    0.7350  -55.7930 C   0  0  0  0  0  0  0  0  0  0  0  0
    6.2910    1.4860  -56.9800 C   0  0  0  0  0  0  0  0  0  0  0  0
    7.1920    2.2240  -57.6380 C   0  0  0  0  0  0  0  0  0  0  0  0
    7.2270    3.1070  -58.7790 C   0  0  0  0  0  0  0  0  0  0  0  0
    8.4200    3.5930  -58.9600 N   0  0  0  0  0  0  0  0  0  0  0  0
    9.2940    3.0480  -57.9210 N   0  0  0  0  0  0  0  0  0  0  0  0
    8.5840    2.2530  -57.1670 C   0  0  0  0  0  0  0  0  0  0  0  0
    8.9460    1.5080  -56.0800 N   0  0  0  0  0  0  0  0  0  0  0  0
   10.0460   -1.6540  -54.8570 C   0  0  0  0  0  0  0  0  0  0  0  0
   12.4033   -3.0928  -57.3942 H   0  0  0  0  0  0  0  0  0  0  0  0
   12.7044   -4.1791  -58.7927 H   0  0  0  0  0  0  0  0  0  0  0  0
   11.2761   -3.0898  -58.7927 H   0  0  0  0  0  0  0  0  0  0  0  0
   10.4581   -4.7633  -58.3951 H   0  0  0  0  0  0  0  0  0  0  0  0
   11.5121   -6.8837  -56.7724 H   0  0  0  0  0  0  0  0  0  0  0  0
   12.8425   -6.1221  -56.5007 H   0  0  0  0  0  0  0  0  0  0  0  0
    9.9253   -4.8934  -55.4249 H   0  0  0  0  0  0  0  0  0  0  0  0
   11.9783   -4.4116  -54.2834 H   0  0  0  0  0  0  0  0  0  0  0  0
   11.9831   -3.1377  -55.6126 H   0  0  0  0  0  0  0  0  0  0  0  0
   10.8381   -2.9961  -53.3080 H   0  0  0  0  0  0  0  0  0  0  0  0
    8.6322   -4.0374  -55.2045 H   0  0  0  0  0  0  0  0  0  0  0  0
    8.8797   -4.5084  -53.5332 H   0  0  0  0  0  0  0  0  0  0  0  0
    7.8548   -2.4239  -52.7070 H   0  0  0  0  0  0  0  0  0  0  0  0
    5.9056   -2.6804  -53.6149 H   0  0  0  0  0  0  0  0  0  0  0  0
    6.4505   -1.7250  -55.0350 H   0  0  0  0  0  0  0  0  0  0  0  0
    6.6245   -3.5128  -55.0350 H   0  0  0  0  0  0  0  0  0  0  0  0
    5.9668    0.1585  -55.2200 H   0  0  0  0  0  0  0  0  0  0  0  0
    5.2479    1.4434  -57.3265 H   0  0  0  0  0  0  0  0  0  0  0  0
    6.3584    3.3388  -59.4128 H   0  0  0  0  0  0  0  0  0  0  0  0
    9.8560    1.6300  -55.6520 H   0  0  0  0  0  0  0  0  0  0  0  0
    9.9390   -1.6952  -55.9510 H   0  0  0  0  0  0  0  0  0  0  0  0
   10.8527   -0.9322  -54.6613 H   0  0  0  0  0  0  0  0  0  0  0  0
  1  2  1  0
  2  3  1  0
  3  4  1  0
  4  5  1  0
  5  6  1  0
  6  7  1  0
  7  8  1  0
  8  9  1  0
  8 10  1  0
 10 11  1  0
 11 12  2  0
 11 13  1  0
 13 14  2  0
 14 15  1  0
 15 16  2  0
 16 17  1  0
 17 18  2  0
 18 19  1  0
 19 20  2  0
 20 21  1  0
 10 22  1  0
  4  2  1  0
 22  6  1  0
 21 13  1  0
 20 16  1  0
  1 23  1  0
  1 24  1  0
  1 25  1  0
  2 26  1  6
  3 27  1  0
  3 28  1  0
  4 29  1  6
  5 30  1  0
  5 31  1  0
  6 32  1  1
  7 33  1  0
  7 34  1  0
  8 35  1  1
  9 36  1  0
  9 37  1  0
  9 38  1  0
 14 39  1  0
 15 40  1  0
 17 41  1  0
 21 42  1  0
 22 43  1  0
 22 44  1  0
M  END
>  <meeko>  (102) 
{"is_sidechain": false}

$$$$

     RDKit          3D

 44 47  0  0  0  0  0  0  0  0999 V2000
   12.0110   -3.6820  -57.9960 C   0  0  0  0  0  0  0  0  0  0  0  0
   11.0280   -4.6900  -57.5040 C   0  0  1  0  0  0  0  0  0  0  0  0
   11.5010   -5.9370  -56.8000 C   0  0  0  0  0  0  0  0  0  0  0  0
   10.7300   -4.8900  -56.0320 C   0  0  1  0  0  0  0  0  0  0  0  0
   11.4040   -4.0870  -54.9580 C   0  0  0  0  0  0  0  0  0  0  0  0
   10.4200   -3.1830  -54.2170 C   0  0  2  0  0  0  0  0  0  0  0  0
    8.9800   -3.6990  -54.1900 C   0  0  0  0  0  0  0  0  0  0  0  0
    8.1640   -2.4390  -53.8760 C   0  0  2  0  0  0  0  0  0  0  0  0
    6.7520   -2.5520  -54.4440 C   0  0  0  0  0  0  0  0  0  0  0  0
    8.9460   -1.3490  -54.4570 N   0  0  0  0  0  0  0  0  0  0  0  0
    8.5750   -0.0180  -54.2890 C   0  0  0  0  0  0  0  0  0  0  0  0
    8.5440    0.5080  -53.1740 O   0  0  0  0  0  0  0  0  0  0  0  0
    8.2040    0.8260  -55.4830 C   0  0  0  0  0  0  0  0  0  0  0  0
    6.8290    0.8240  -55.8700 C   0  0  0  0  0  0  0  0  0  0  0  0
    6.3600    1.5450  -56.9780 C   0  0  0  0  0  0  0  0  0  0  0  0
    7.4230    2.2000  -57.5740 C   0  0  0  0  0  0  0  0  0  0  0  0
    7.3510    3.0010  -58.6810 C   0  0  0  0  0  0  0  0  0  0  0  0
    8.6380    3.4190  -58.8930 N   0  0  0  0  0  0  0  0  0  0  0  0
    9.5310    2.9490  -57.9980 N   0  0  0  0  0  0  0  0  0  0  0  0
    8.7960    2.1900  -57.1840 C   0  0  0  0  0  0  0  0  0  0  0  0
    9.2310    1.4860  -56.1120 N   0  0  0  0  0  0  0  0  0  0  0  0
   10.2560   -1.8210  -54.8950 C   0  0  0  0  0  0  0  0  0  0  0  0
   12.4915   -3.1893  -57.1379 H   0  0  0  0  0  0  0  0  0  0  0  0
   12.7762   -4.1837  -58.6065 H   0  0  0  0  0  0  0  0  0  0  0  0
   11.4902   -2.9296  -58.6065 H   0  0  0  0  0  0  0  0  0  0  0  0
   10.4105   -4.4648  -58.3860 H   0  0  0  0  0  0  0  0  0  0  0  0
   11.0339   -6.9067  -57.0271 H   0  0  0  0  0  0  0  0  0  0  0  0
   12.4737   -6.4344  -56.6717 H   0  0  0  0  0  0  0  0  0  0  0  0
    9.8126   -4.8691  -55.4254 H   0  0  0  0  0  0  0  0  0  0  0  0
   11.8659   -4.7765  -54.2360 H   0  0  0  0  0  0  0  0  0  0  0  0
   12.1600   -3.4467  -55.4361 H   0  0  0  0  0  0  0  0  0  0  0  0
   10.8662   -3.1401  -53.2125 H   0  0  0  0  0  0  0  0  0  0  0  0
    8.6939   -4.1220  -55.1643 H   0  0  0  0  0  0  0  0  0  0  0  0
    8.8243   -4.5075  -53.4605 H   0  0  0  0  0  0  0  0  0  0  0  0
    8.0074   -2.2733  -52.7999 H   0  0  0  0  0  0  0  0  0  0  0  0
    6.0280   -2.6099  -53.6179 H   0  0  0  0  0  0  0  0  0  0  0  0
    6.5335   -1.6685  -55.0618 H   0  0  0  0  0  0  0  0  0  0  0  0
    6.6768   -3.4590  -55.0618 H   0  0  0  0  0  0  0  0  0  0  0  0
    6.1123    0.2360  -55.2779 H   0  0  0  0  0  0  0  0  0  0  0  0
    5.3147    1.5835  -57.3185 H   0  0  0  0  0  0  0  0  0  0  0  0
    6.4572    3.2534  -59.2704 H   0  0  0  0  0  0  0  0  0  0  0  0
    8.9810    4.0270  -59.6290 H   0  0  0  0  0  0  0  0  0  0  0  0
   10.2853   -1.9257  -55.9896 H   0  0  0  0  0  0  0  0  0  0  0  0
   11.0625   -1.1219  -54.6289 H   0  0  0  0  0  0  0  0  0  0  0  0
  1  2  1  0
  2  3  1  0
  3  4  1  0
  4  5  1  0
  5  6  1  0
  6  7  1  0
  7  8  1  0
  8  9  1  0
  8 10  1  0
 10 11  1  0
 11 12  2  0
 11 13  1  0
 13 14  1  0
 14 15  2  0
 15 16  1  0
 16 17  2  0
 17 18  1  0
 18 19  1  0
 19 20  2  0
 20 21  1  0
 10 22  1  0
  4  2  1  0
 22  6  1  0
 21 13  2  0
 20 16  1  0
  1 23  1  0
  1 24  1  0
  1 25  1  0
  2 26  1  6
  3 27  1  0
  3 28  1  0
  4 29  1  6
  5 30  1  0
  5 31  1  0
  6 32  1  1
  7 33  1  0
  7 34  1  0
  8 35  1  1
  9 36  1  0
  9 37  1  0
  9 38  1  0
 14 39  1  0
 15 40  1  0
 17 41  1  0
 18 42  1  0
 22 43  1  0
 22 44  1  0
M  END
>  <meeko>  (103) 
{"is_sidechain": false}

$$$$

     RDKit          3D

 42 44  0  0  0  0  0  0  0  0999 V2000
   11.9910   -3.5990  -57.9990 C   0  0  0  0  0  0  0  0  0  0  0  0
   11.0470   -4.6350  -57.4880 C   0  0  1  0  0  0  0  0  0  0  0  0
   11.5680   -5.8660  -56.7960 C   0  0  0  0  0  0  0  0  0  0  0  0
   10.7850   -4.8420  -56.0120 C   0  0  1  0  0  0  0  0  0  0  0  0
   11.4560   -4.0100  -54.9570 C   0  0  0  0  0  0  0  0  0  0  0  0
   10.4610   -3.1110  -54.2250 C   0  0  2  0  0  0  0  0  0  0  0  0
    9.0420   -3.6800  -54.2100 C   0  0  0  0  0  0  0  0  0  0  0  0
    8.1800   -2.4550  -53.8860 C   0  0  2  0  0  0  0  0  0  0  0  0
    6.7720   -2.6150  -54.4490 C   0  0  0  0  0  0  0  0  0  0  0  0
    8.9210   -1.3340  -54.4600 N   0  0  0  0  0  0  0  0  0  0  0  0
    8.5060   -0.0180  -54.2790 C   0  0  0  0  0  0  0  0  0  0  0  0
    8.4460    0.4930  -53.1580 O   0  0  0  0  0  0  0  0  0  0  0  0
    8.1150    0.8230  -55.4650 C   0  0  0  0  0  0  0  0  0  0  0  0
    6.7880    0.7980  -55.8910 C   0  0  0  0  0  0  0  0  0  0  0  0
    6.4280    1.5500  -57.0070 C   0  0  0  0  0  0  0  0  0  0  0  0
    7.3980    2.2880  -57.6640 C   0  0  0  0  0  0  0  0  0  0  0  0
    7.0290    3.0150  -58.7540 O   0  0  0  0  0  0  0  0  0  0  0  0
    8.6990    2.2530  -57.1850 C   0  0  0  0  0  0  0  0  0  0  0  0
    9.0830    1.5380  -56.1020 N   0  0  0  0  0  0  0  0  0  0  0  0
   10.2520   -1.7480  -54.8870 C   0  0  0  0  0  0  0  0  0  0  0  0
   12.4623   -3.0818  -57.1502 H   0  0  0  0  0  0  0  0  0  0  0  0
   12.7673   -4.0806  -58.6118 H   0  0  0  0  0  0  0  0  0  0  0  0
   11.4395   -2.8707  -58.6118 H   0  0  0  0  0  0  0  0  0  0  0  0
   10.4058   -4.4280  -58.3575 H   0  0  0  0  0  0  0  0  0  0  0  0
   11.1234   -6.8483  -57.0140 H   0  0  0  0  0  0  0  0  0  0  0  0
   12.5566   -6.3361  -56.6883 H   0  0  0  0  0  0  0  0  0  0  0  0
    9.8821   -4.8516  -55.3837 H   0  0  0  0  0  0  0  0  0  0  0  0
   11.9349   -4.6792  -54.2271 H   0  0  0  0  0  0  0  0  0  0  0  0
   12.1991   -3.3664  -55.4506 H   0  0  0  0  0  0  0  0  0  0  0  0
   10.9182   -3.0341  -53.2275 H   0  0  0  0  0  0  0  0  0  0  0  0
    8.7755   -4.1024  -55.1901 H   0  0  0  0  0  0  0  0  0  0  0  0
    8.9132   -4.5020  -53.4904 H   0  0  0  0  0  0  0  0  0  0  0  0
    8.0182   -2.3033  -52.8086 H   0  0  0  0  0  0  0  0  0  0  0  0
    6.0530   -2.6967  -53.6206 H   0  0  0  0  0  0  0  0  0  0  0  0
    6.5222   -1.7395  -55.0663 H   0  0  0  0  0  0  0  0  0  0  0  0
    6.7251   -3.5243  -55.0663 H   0  0  0  0  0  0  0  0  0  0  0  0
    6.0391    0.1957  -55.3559 H   0  0  0  0  0  0  0  0  0  0  0  0
    5.3868    1.5574  -57.3616 H   0  0  0  0  0  0  0  0  0  0  0  0
    6.1830    3.4580  -58.5770 H   0  0  0  0  0  0  0  0  0  0  0  0
    9.4628    2.8402  -57.7159 H   0  0  0  0  0  0  0  0  0  0  0  0
   10.2986   -1.8367  -55.9824 H   0  0  0  0  0  0  0  0  0  0  0  0
   11.0272   -1.0216  -54.6017 H   0  0  0  0  0  0  0  0  0  0  0  0
  1  2  1  0
  2  3  1  0
  3  4  1  0
  4  5  1  0
  5  6  1  0
  6  7  1  0
  7  8  1  0
  8  9  1  0
  8 10  1  0
 10 11  1  0
 11 12  2  0
 11 13  1  0
 13 14  2  0
 14 15  1  0
 15 16  2  0
 16 17  1  0
 16 18  1  0
 18 19  2  0
 10 20  1  0
  4  2  1  0
 20  6  1  0
 19 13  1  0
  1 21  1  0
  1 22  1  0
  1 23  1  0
  2 24  1  6
  3 25  1  0
  3 26  1  0
  4 27  1  6
  5 28  1  0
  5 29  1  0
  6 30  1  1
  7 31  1  0
  7 32  1  0
  8 33  1  1
  9 34  1  0
  9 35  1  0
  9 36  1  0
 14 37  1  0
 15 38  1  0
 17 39  1  0
 18 40  1  0
 20 41  1  0
 20 42  1  0
M  END
>  <meeko>  (104) 
{"is_sidechain": false}

$$$$

     RDKit          3D

 42 44  0  0  0  0  0  0  0  0999 V2000
   13.1580    4.1550  -59.1580 C   0  0  0  0  0  0  0  0  0  0  0  0
   12.1490    5.2430  -59.0360 C   0  0  1  0  0  0  0  0  0  0  0  0
   11.9680    6.2170  -60.1710 C   0  0  0  0  0  0  0  0  0  0  0  0
   10.8430    5.2810  -59.8050 C   0  0  1  0  0  0  0  0  0  0  0  0
   10.4090    4.2360  -60.7910 C   0  0  0  0  0  0  0  0  0  0  0  0
    8.9670    3.7890  -60.5590 C   0  0  1  0  0  0  0  0  0  0  0  0
    8.7290    2.3230  -60.9330 C   0  0  0  0  0  0  0  0  0  0  0  0
    7.4350    1.9760  -60.1920 C   0  0  2  0  0  0  0  0  0  0  0  0
    6.1940    2.2810  -61.0310 C   0  0  0  0  0  0  0  0  0  0  0  0
    7.4920    2.8010  -58.9870 N   0  0  0  0  0  0  0  0  0  0  0  0
    6.6910    2.5120  -57.8860 C   0  0  0  0  0  0  0  0  0  0  0  0
    5.5250    2.9120  -57.8280 O   0  0  0  0  0  0  0  0  0  0  0  0
    7.2180    1.7080  -56.7240 C   0  0  0  0  0  0  0  0  0  0  0  0
    6.3180    0.9210  -56.0040 C   0  0  0  0  0  0  0  0  0  0  0  0
    6.7910    0.1590  -54.9380 C   0  0  0  0  0  0  0  0  0  0  0  0
    8.1400    0.2000  -54.6260 C   0  0  0  0  0  0  0  0  0  0  0  0
    8.5850   -0.5510  -53.5840 O   0  0  0  0  0  0  0  0  0  0  0  0
    8.9730    1.0010  -55.3920 C   0  0  0  0  0  0  0  0  0  0  0  0
    8.5460    1.7530  -56.4330 N   0  0  0  0  0  0  0  0  0  0  0  0
    8.5320    3.8190  -59.0920 C   0  0  0  0  0  0  0  0  0  0  0  0
   13.4643    3.8247  -58.1544 H   0  0  0  0  0  0  0  0  0  0  0  0
   12.7191    3.3075  -59.7048 H   0  0  0  0  0  0  0  0  0  0  0  0
   14.0361    4.5289  -59.7048 H   0  0  0  0  0  0  0  0  0  0  0  0
   12.3916    5.2902  -57.9641 H   0  0  0  0  0  0  0  0  0  0  0  0
   11.8769    7.2931  -59.9617 H   0  0  0  0  0  0  0  0  0  0  0  0
   12.5201    6.4420  -61.0954 H   0  0  0  0  0  0  0  0  0  0  0  0
    9.7915    5.3615  -59.4920 H   0  0  0  0  0  0  0  0  0  0  0  0
   10.4926    4.6504  -61.8065 H   0  0  0  0  0  0  0  0  0  0  0  0
   11.0599    3.3586  -60.6624 H   0  0  0  0  0  0  0  0  0  0  0  0
    8.4084    4.5032  -61.1818 H   0  0  0  0  0  0  0  0  0  0  0  0
    8.6034    2.2090  -62.0198 H   0  0  0  0  0  0  0  0  0  0  0  0
    9.5696    1.6676  -60.6613 H   0  0  0  0  0  0  0  0  0  0  0  0
    7.3565    0.9023  -59.9662 H   0  0  0  0  0  0  0  0  0  0  0  0
    5.3436    2.4900  -60.3653 H   0  0  0  0  0  0  0  0  0  0  0  0
    6.3871    3.1584  -61.6657 H   0  0  0  0  0  0  0  0  0  0  0  0
    5.9583    1.4140  -61.6657 H   0  0  0  0  0  0  0  0  0  0  0  0
    5.2518    0.9027  -56.2740 H   0  0  0  0  0  0  0  0  0  0  0  0
    6.1023   -0.4670  -54.3517 H   0  0  0  0  0  0  0  0  0  0  0  0
    9.5540   -0.4880  -53.5290 H   0  0  0  0  0  0  0  0  0  0  0  0
   10.0432    1.0268  -55.1389 H   0  0  0  0  0  0  0  0  0  0  0  0
    8.1324    4.8090  -58.8272 H   0  0  0  0  0  0  0  0  0  0  0  0
    9.3711    3.6253  -58.4076 H   0  0  0  0  0  0  0  0  0  0  0  0
  1  2  1  0
  2  3  1  0
  3  4  1  0
  4  5  1  0
  5  6  1  0
  6  7  1  0
  7  8  1  0
  8  9  1  0
  8 10  1  0
 10 11  1  0
 11 12  2  0
 11 13  1  0
 13 14  2  0
 14 15  1  0
 15 16  2  0
 16 17  1  0
 16 18  1  0
 18 19  2  0
 10 20  1  0
  4  2  1  0
 20  6  1  0
 19 13  1  0
  1 21  1  0
  1 22  1  0
  1 23  1  0
  2 24  1  1
  3 25  1  0
  3 26  1  0
  4 27  1  1
  5 28  1  0
  5 29  1  0
  6 30  1  6
  7 31  1  0
  7 32  1  0
  8 33  1  1
  9 34  1  0
  9 35  1  0
  9 36  1  0
 14 37  1  0
 15 38  1  0
 17 39  1  0
 18 40  1  0
 20 41  1  0
 20 42  1  0
M  END
>  <meeko>  (105) 
{"is_sidechain": false}

$$$$

     RDKit          3D

 51 54  0  0  0  0  0  0  0  0999 V2000
    5.2670   -4.3880  -50.3630 C   0  0  0  0  0  0  0  0  0  0  0  0
    6.4900   -3.7240  -50.8780 C   0  0  0  0  0  0  0  0  0  0  0  0
    7.7860   -3.9230  -50.4400 C   0  0  0  0  0  0  0  0  0  0  0  0
    8.8670   -2.9340  -51.3300 S   0  0  0  0  0  0  0  0  0  0  0  0
    7.5420   -2.3130  -52.2270 C   0  0  0  0  0  0  0  0  0  0  0  0
    7.7030   -1.2380  -53.3640 C   0  0  0  0  0  0  0  0  0  0  0  0
    6.6490   -0.7300  -54.1500 C   0  0  0  0  0  0  0  0  0  0  0  0
    7.2260    0.1820  -55.0180 C   0  0  0  0  0  0  0  0  0  0  0  0
    6.6730    1.0000  -56.0390 C   0  0  0  0  0  0  0  0  0  0  0  0
    7.4280    1.7410  -56.8610 C   0  0  0  0  0  0  0  0  0  0  0  0
    6.7780    2.5370  -57.9200 C   0  0  0  0  0  0  0  0  0  0  0  0
    5.6630    3.0050  -57.7010 O   0  0  0  0  0  0  0  0  0  0  0  0
    7.4540    2.7000  -59.1040 N   0  0  0  0  0  0  0  0  0  0  0  0
    8.5870    3.6110  -59.1580 C   0  0  0  0  0  0  0  0  0  0  0  0
    9.4270    3.0910  -60.3220 C   0  0  2  0  0  0  0  0  0  0  0  0
   10.3750    4.1510  -60.8820 C   0  0  0  0  0  0  0  0  0  0  0  0
   10.7600    5.1690  -59.8480 C   0  0  2  0  0  0  0  0  0  0  0  0
   11.9000    6.1140  -60.1360 C   0  0  0  0  0  0  0  0  0  0  0  0
   12.0300    5.1080  -59.0240 C   0  0  2  0  0  0  0  0  0  0  0  0
   13.0430    4.0200  -59.1330 C   0  0  0  0  0  0  0  0  0  0  0  0
    8.3490    2.6220  -61.2980 C   0  0  0  0  0  0  0  0  0  0  0  0
    7.2800    1.9990  -60.3840 C   0  0  2  0  0  0  0  0  0  0  0  0
    5.8970    2.1640  -61.0050 C   0  0  0  0  0  0  0  0  0  0  0  0
    8.5740    0.1910  -54.7320 O   0  0  0  0  0  0  0  0  0  0  0  0
    8.8690   -0.6890  -53.7120 N   0  0  0  0  0  0  0  0  0  0  0  0
    6.3600   -2.8020  -51.9030 N   0  0  0  0  0  0  0  0  0  0  0  0
    5.2811   -4.3803  -49.2631 H   0  0  0  0  0  0  0  0  0  0  0  0
    4.3781   -3.8486  -50.7221 H   0  0  0  0  0  0  0  0  0  0  0  0
    5.2352   -5.4273  -50.7221 H   0  0  0  0  0  0  0  0  0  0  0  0
    8.0807   -4.6151  -49.6374 H   0  0  0  0  0  0  0  0  0  0  0  0
    5.5851   -1.0024  -54.0869 H   0  0  0  0  0  0  0  0  0  0  0  0
    5.5800    1.0262  -56.1598 H   0  0  0  0  0  0  0  0  0  0  0  0
    8.5220    1.7559  -56.7476 H   0  0  0  0  0  0  0  0  0  0  0  0
    8.2512    4.6411  -59.3482 H   0  0  0  0  0  0  0  0  0  0  0  0
    9.1488    3.6429  -58.2128 H   0  0  0  0  0  0  0  0  0  0  0  0
   10.1290    2.2877  -60.0538 H   0  0  0  0  0  0  0  0  0  0  0  0
   11.2861    3.6544  -61.2470 H   0  0  0  0  0  0  0  0  0  0  0  0
    9.8527    4.6760  -61.6954 H   0  0  0  0  0  0  0  0  0  0  0  0
    9.6955    5.2422  -59.5807 H   0  0  0  0  0  0  0  0  0  0  0  0
   12.4923    5.9957  -61.0554 H   0  0  0  0  0  0  0  0  0  0  0  0
   12.0020    7.2068  -60.2092 H   0  0  0  0  0  0  0  0  0  0  0  0
   12.2256    5.1250  -57.9417 H   0  0  0  0  0  0  0  0  0  0  0  0
   13.3439    3.6969  -58.1255 H   0  0  0  0  0  0  0  0  0  0  0  0
   12.6090    3.1681  -59.6770 H   0  0  0  0  0  0  0  0  0  0  0  0
   13.9237    4.3921  -59.6770 H   0  0  0  0  0  0  0  0  0  0  0  0
    7.9360    3.4699  -61.8641 H   0  0  0  0  0  0  0  0  0  0  0  0
    8.7314    1.9169  -62.0508 H   0  0  0  0  0  0  0  0  0  0  0  0
    7.3826    0.9132  -60.2409 H   0  0  0  0  0  0  0  0  0  0  0  0
    5.1451    2.2537  -60.2071 H   0  0  0  0  0  0  0  0  0  0  0  0
    5.8805    3.0705  -61.6279 H   0  0  0  0  0  0  0  0  0  0  0  0
    5.6677    1.2868  -61.6279 H   0  0  0  0  0  0  0  0  0  0  0  0
  1  2  1  0
  2  3  2  0
  3  4  1  0
  4  5  1  0
  5  6  1  0
  6  7  1  0
  7  8  2  0
  8  9  1  0
  9 10  2  0
 10 11  1  0
 11 12  2  0
 11 13  1  0
 13 14  1  0
 14 15  1  0
 15 16  1  0
 16 17  1  0
 17 18  1  0
 18 19  1  0
 19 20  1  0
 15 21  1  0
 21 22  1  0
 22 23  1  0
  8 24  1  0
 24 25  1  0
  5 26  2  0
 26  2  1  0
 25  6  2  0
 22 13  1  0
 19 17  1  0
  1 27  1  0
  1 28  1  0
  1 29  1  0
  3 30  1  0
  7 31  1  0
  9 32  1  0
 10 33  1  0
 14 34  1  0
 14 35  1  0
 15 36  1  1
 16 37  1  0
 16 38  1  0
 17 39  1  1
 18 40  1  0
 18 41  1  0
 19 42  1  1
 20 43  1  0
 20 44  1  0
 20 45  1  0
 21 46  1  0
 21 47  1  0
 22 48  1  1
 23 49  1  0
 23 50  1  0
 23 51  1  0
M  END
>  <meeko>  (106) 
{"is_sidechain": false}

$$$$

     RDKit          3D

 56 59  0  0  0  0  0  0  0  0999 V2000
    6.8250   -2.6270  -54.9150 C   0  0  0  0  0  0  0  0  0  0  0  0
    7.9770   -2.4450  -53.9300 C   0  0  1  0  0  0  0  0  0  0  0  0
    8.9830   -3.6030  -54.0800 C   0  0  0  0  0  0  0  0  0  0  0  0
   10.3320   -2.9600  -53.7570 C   0  0  1  0  0  0  0  0  0  0  0  0
   11.5470   -3.7110  -54.3000 C   0  0  0  0  0  0  0  0  0  0  0  0
   11.3800   -4.0660  -55.7730 C   0  0  1  0  0  0  0  0  0  0  0  0
   11.9400   -3.0830  -56.8370 C   0  0  0  0  0  0  0  0  0  0  0  0
   12.4380   -4.3100  -57.6390 C   0  0  2  0  0  0  0  0  0  0  0  0
   11.5180   -4.8050  -58.7440 C   0  0  0  0  0  0  0  0  0  0  0  0
   12.3980   -5.1050  -56.3120 C   0  0  0  0  0  0  0  0  0  0  0  0
   10.1740   -1.5780  -54.3920 C   0  0  0  0  0  0  0  0  0  0  0  0
    8.7790   -1.2420  -54.1750 N   0  0  0  0  0  0  0  0  0  0  0  0
    8.3930    0.0920  -54.1540 C   0  0  0  0  0  0  0  0  0  0  0  0
    8.3110    0.7240  -53.0980 O   0  0  0  0  0  0  0  0  0  0  0  0
    8.0530    0.8120  -55.4220 C   0  0  0  0  0  0  0  0  0  0  0  0
    9.0860    1.3700  -56.1660 C   0  0  0  0  0  0  0  0  0  0  0  0
    8.7680    2.0960  -57.3130 C   0  0  0  0  0  0  0  0  0  0  0  0
    9.8400    2.6750  -58.1160 C   0  0  0  0  0  0  0  0  0  0  0  0
   10.8680    3.3530  -57.6440 N   0  0  0  0  0  0  0  0  0  0  0  0
   11.6160    3.6820  -58.7630 C   0  0  0  0  0  0  0  0  0  0  0  0
   12.9160    4.4540  -58.6890 C   0  0  0  0  0  0  0  0  0  0  0  0
   12.7670    5.7700  -59.0090 F   0  0  0  0  0  0  0  0  0  0  0  0
   13.8630    3.9610  -59.5350 F   0  0  0  0  0  0  0  0  0  0  0  0
   13.4610    4.4260  -57.4390 F   0  0  0  0  0  0  0  0  0  0  0  0
   11.0700    3.2390  -59.9140 N   0  0  0  0  0  0  0  0  0  0  0  0
    9.9420    2.6430  -59.4840 N   0  0  0  0  0  0  0  0  0  0  0  0
    9.0060    2.1140  -60.4440 C   0  0  0  0  0  0  0  0  0  0  0  0
    7.4280    2.2220  -57.6840 C   0  0  0  0  0  0  0  0  0  0  0  0
    6.4640    1.6380  -56.8790 C   0  0  0  0  0  0  0  0  0  0  0  0
    6.7430    0.9500  -55.7550 N   0  0  0  0  0  0  0  0  0  0  0  0
    5.8873   -2.7751  -54.3593 H   0  0  0  0  0  0  0  0  0  0  0  0
    6.7386   -1.7314  -55.5477 H   0  0  0  0  0  0  0  0  0  0  0  0
    7.0189   -3.5056  -55.5477 H   0  0  0  0  0  0  0  0  0  0  0  0
    7.4942   -2.3905  -52.9431 H   0  0  0  0  0  0  0  0  0  0  0  0
    8.7558   -4.4134  -53.3717 H   0  0  0  0  0  0  0  0  0  0  0  0
    8.9588   -4.0600  -55.0803 H   0  0  0  0  0  0  0  0  0  0  0  0
   10.5416   -2.9510  -52.6772 H   0  0  0  0  0  0  0  0  0  0  0  0
   12.4384   -3.0767  -54.1853 H   0  0  0  0  0  0  0  0  0  0  0  0
   11.6527   -4.6471  -53.7321 H   0  0  0  0  0  0  0  0  0  0  0  0
   10.2981   -4.2543  -55.7094 H   0  0  0  0  0  0  0  0  0  0  0  0
   11.1747   -2.4826  -57.3506 H   0  0  0  0  0  0  0  0  0  0  0  0
   12.6221   -2.2662  -56.5586 H   0  0  0  0  0  0  0  0  0  0  0  0
   13.3463   -4.2655  -58.2578 H   0  0  0  0  0  0  0  0  0  0  0  0
   10.6325   -5.2814  -58.2979 H   0  0  0  0  0  0  0  0  0  0  0  0
   11.2024   -3.9549  -59.3667 H   0  0  0  0  0  0  0  0  0  0  0  0
   12.0535   -5.5368  -59.3667 H   0  0  0  0  0  0  0  0  0  0  0  0
   12.0006   -6.1265  -56.4047 H   0  0  0  0  0  0  0  0  0  0  0  0
   13.3194   -5.3418  -55.7598 H   0  0  0  0  0  0  0  0  0  0  0  0
   10.8322   -0.8459  -53.9012 H   0  0  0  0  0  0  0  0  0  0  0  0
   10.4476   -1.5709  -55.4574 H   0  0  0  0  0  0  0  0  0  0  0  0
   10.1335    1.2414  -55.8560 H   0  0  0  0  0  0  0  0  0  0  0  0
    8.1666    1.6396  -59.9146 H   0  0  0  0  0  0  0  0  0  0  0  0
    8.6267    2.9313  -61.0750 H   0  0  0  0  0  0  0  0  0  0  0  0
    9.5105    1.3675  -61.0750 H   0  0  0  0  0  0  0  0  0  0  0  0
    7.1447    2.7718  -58.5936 H   0  0  0  0  0  0  0  0  0  0  0  0
    5.4096    1.7420  -57.1746 H   0  0  0  0  0  0  0  0  0  0  0  0
  1  2  1  0
  2  3  1  0
  3  4  1  0
  4  5  1  0
  5  6  1  0
  6  7  1  0
  7  8  1  0
  8  9  1  0
  8 10  1  0
  4 11  1  0
 11 12  1  0
 12 13  1  0
 13 14  2  0
 13 15  1  0
 15 16  2  0
 16 17  1  0
 17 18  1  0
 18 19  2  0
 19 20  1  0
 20 21  1  0
 21 22  1  0
 21 23  1  0
 21 24  1  0
 20 25  2  0
 25 26  1  0
 26 27  1  0
 17 28  2  0
 28 29  1  0
 29 30  2  0
 12  2  1  0
 30 15  1  0
 10  6  1  0
 26 18  1  0
  1 31  1  0
  1 32  1  0
  1 33  1  0
  2 34  1  1
  3 35  1  0
  3 36  1  0
  4 37  1  1
  5 38  1  0
  5 39  1  0
  6 40  1  6
  7 41  1  0
  7 42  1  0
  8 43  1  6
  9 44  1  0
  9 45  1  0
  9 46  1  0
 10 47  1  0
 10 48  1  0
 11 49  1  0
 11 50  1  0
 16 51  1  0
 27 52  1  0
 27 53  1  0
 27 54  1  0
 28 55  1  0
 29 56  1  0
M  END
>  <meeko>  (107) 
{"is_sidechain": false}

$$$$

     RDKit          3D

 60 62  0  0  0  0  0  0  0  0999 V2000
    5.3450    2.5230  -58.6420 C   0  0  0  0  0  0  0  0  0  0  0  0
    5.4140    1.9020  -57.3620 O   0  0  0  0  0  0  0  0  0  0  0  0
    6.7040    1.7400  -56.8990 C   0  0  0  0  0  0  0  0  0  0  0  0
    7.6900    2.3960  -57.6250 C   0  0  0  0  0  0  0  0  0  0  0  0
    9.0180    2.2800  -57.2130 C   0  0  0  0  0  0  0  0  0  0  0  0
   10.1320    2.9750  -57.9540 C   0  0  0  0  0  0  0  0  0  0  0  0
   10.0380    4.4970  -57.7980 C   0  0  0  0  0  0  0  0  0  0  0  0
    9.6380    5.2100  -59.0760 N   0  0  0  0  0  0  0  0  0  0  0  0
    8.2020    5.6590  -59.1020 C   0  0  0  0  0  0  0  0  0  0  0  0
   10.0320    4.4880  -60.3330 C   0  0  0  0  0  0  0  0  0  0  0  0
    9.2890    1.4930  -56.0910 C   0  0  0  0  0  0  0  0  0  0  0  0
    8.2360    0.8540  -55.4290 C   0  0  0  0  0  0  0  0  0  0  0  0
    8.5640    0.0560  -54.2000 C   0  0  0  0  0  0  0  0  0  0  0  0
    8.5710    0.6620  -53.1240 O   0  0  0  0  0  0  0  0  0  0  0  0
    8.8460   -1.3020  -54.2620 N   0  0  0  0  0  0  0  0  0  0  0  0
   10.1280   -1.7370  -54.7940 C   0  0  0  0  0  0  0  0  0  0  0  0
   10.3660   -3.0920  -54.1340 C   0  0  2  0  0  0  0  0  0  0  0  0
   11.3750   -3.9470  -54.9000 C   0  0  0  0  0  0  0  0  0  0  0  0
   10.7190   -4.7550  -55.9830 C   0  0  2  0  0  0  0  0  0  0  0  0
   11.5080   -5.7900  -56.7450 C   0  0  0  0  0  0  0  0  0  0  0  0
   11.0310   -4.5470  -57.4500 C   0  0  2  0  0  0  0  0  0  0  0  0
   12.0100   -3.5320  -57.9330 C   0  0  0  0  0  0  0  0  0  0  0  0
    8.9500   -3.6680  -54.0890 C   0  0  0  0  0  0  0  0  0  0  0  0
    8.0670   -2.4460  -53.7750 C   0  0  2  0  0  0  0  0  0  0  0  0
    6.7120   -2.5980  -54.4630 C   0  0  0  0  0  0  0  0  0  0  0  0
    6.9460    0.9730  -55.8180 N   0  0  0  0  0  0  0  0  0  0  0  0
    5.2243    3.6091  -58.5166 H   0  0  0  0  0  0  0  0  0  0  0  0
    6.2713    2.3189  -59.1990 H   0  0  0  0  0  0  0  0  0  0  0  0
    4.4860    2.1205  -59.1990 H   0  0  0  0  0  0  0  0  0  0  0  0
    7.4285    2.9962  -58.5089 H   0  0  0  0  0  0  0  0  0  0  0  0
   11.0975    2.6324  -57.5534 H   0  0  0  0  0  0  0  0  0  0  0  0
   10.0455    2.7289  -59.0226 H   0  0  0  0  0  0  0  0  0  0  0  0
    9.2897    4.7226  -57.0240 H   0  0  0  0  0  0  0  0  0  0  0  0
   11.0405    4.8580  -57.5248 H   0  0  0  0  0  0  0  0  0  0  0  0
   10.1930    6.0780  -59.0750 H   0  0  0  0  0  0  0  0  0  0  0  0
    7.8350    5.7738  -58.0714 H   0  0  0  0  0  0  0  0  0  0  0  0
    8.1287    6.6230  -59.6268 H   0  0  0  0  0  0  0  0  0  0  0  0
    7.5926    4.9085  -59.6268 H   0  0  0  0  0  0  0  0  0  0  0  0
   10.5439    3.5500  -60.0720 H   0  0  0  0  0  0  0  0  0  0  0  0
    9.1319    4.2624  -60.9237 H   0  0  0  0  0  0  0  0  0  0  0  0
   10.7087    5.1229  -60.9237 H   0  0  0  0  0  0  0  0  0  0  0  0
   10.3220    1.3770  -55.7313 H   0  0  0  0  0  0  0  0  0  0  0  0
   10.0822   -1.8386  -55.8883 H   0  0  0  0  0  0  0  0  0  0  0  0
   10.9357   -1.0195  -54.5870 H   0  0  0  0  0  0  0  0  0  0  0  0
   10.8303   -3.0391  -53.1382 H   0  0  0  0  0  0  0  0  0  0  0  0
   12.1271   -3.2862  -55.3558 H   0  0  0  0  0  0  0  0  0  0  0  0
   11.8389   -4.6455  -54.1880 H   0  0  0  0  0  0  0  0  0  0  0  0
    9.7950   -4.7463  -55.3862 H   0  0  0  0  0  0  0  0  0  0  0  0
   12.5795   -5.9265  -56.5371 H   0  0  0  0  0  0  0  0  0  0  0  0
   11.4034   -6.8707  -56.9213 H   0  0  0  0  0  0  0  0  0  0  0  0
   10.4197   -4.3227  -58.3365 H   0  0  0  0  0  0  0  0  0  0  0  0
   12.4841   -3.0405  -57.0707 H   0  0  0  0  0  0  0  0  0  0  0  0
   12.7806   -4.0268  -58.5424 H   0  0  0  0  0  0  0  0  0  0  0  0
   11.4877   -2.7797  -58.5424 H   0  0  0  0  0  0  0  0  0  0  0  0
    8.6760   -4.1110  -55.0579 H   0  0  0  0  0  0  0  0  0  0  0  0
    8.8414   -4.4734  -53.3477 H   0  0  0  0  0  0  0  0  0  0  0  0
    7.8320   -2.3233  -52.7074 H   0  0  0  0  0  0  0  0  0  0  0  0
    5.9224   -2.6866  -53.7023 H   0  0  0  0  0  0  0  0  0  0  0  0
    6.5187   -1.7159  -55.0911 H   0  0  0  0  0  0  0  0  0  0  0  0
    6.7189   -3.5010  -55.0911 H   0  0  0  0  0  0  0  0  0  0  0  0
  1  2  1  0
  2  3  1  0
  3  4  1  0
  4  5  2  0
  5  6  1  0
  6  7  1  0
  7  8  1  0
  8  9  1  0
  8 10  1  0
  5 11  1  0
 11 12  2  0
 12 13  1  0
 13 14  2  0
 13 15  1  0
 15 16  1  0
 16 17  1  0
 17 18  1  0
 18 19  1  0
 19 20  1  0
 20 21  1  0
 21 22  1  0
 17 23  1  0
 23 24  1  0
 24 25  1  0
 12 26  1  0
 26  3  2  0
 24 15  1  0
 21 19  1  0
  1 27  1  0
  1 28  1  0
  1 29  1  0
  4 30  1  0
  6 31  1  0
  6 32  1  0
  7 33  1  0
  7 34  1  0
  8 35  1  0
  9 36  1  0
  9 37  1  0
  9 38  1  0
 10 39  1  0
 10 40  1  0
 10 41  1  0
 11 42  1  0
 16 43  1  0
 16 44  1  0
 17 45  1  1
 18 46  1  0
 18 47  1  0
 19 48  1  6
 20 49  1  0
 20 50  1  0
 21 51  1  6
 22 52  1  0
 22 53  1  0
 22 54  1  0
 23 55  1  0
 23 56  1  0
 24 57  1  1
 25 58  1  0
 25 59  1  0
 25 60  1  0
M  CHG  1   8   1
M  END
>  <meeko>  (108) 
{"is_sidechain": false}

$$$$

     RDKit          3D

 42 45  0  0  0  0  0  0  0  0999 V2000
   11.9880   -3.4500  -57.9620 C   0  0  0  0  0  0  0  0  0  0  0  0
   11.1980   -4.5140  -57.2790 C   0  0  1  0  0  0  0  0  0  0  0  0
   11.7120   -5.1550  -56.0150 C   0  0  0  0  0  0  0  0  0  0  0  0
   10.4800   -4.2860  -55.9650 C   0  0  1  0  0  0  0  0  0  0  0  0
   10.5130   -2.9620  -55.2530 C   0  0  0  0  0  0  0  0  0  0  0  0
    9.9170   -3.0550  -53.8360 C   0  0  2  0  0  0  0  0  0  0  0  0
    8.5320   -3.7160  -53.7970 C   0  0  0  0  0  0  0  0  0  0  0  0
    7.5820   -2.5820  -54.1520 C   0  0  0  0  0  0  0  0  0  0  0  0
    8.2350   -1.3880  -53.6460 N   0  0  0  0  0  0  0  0  0  0  0  0
    7.6210   -0.1560  -53.7760 C   0  0  0  0  0  0  0  0  0  0  0  0
    6.9620    0.3630  -52.8800 O   0  0  0  0  0  0  0  0  0  0  0  0
    7.7380    0.5710  -55.0500 C   0  0  0  0  0  0  0  0  0  0  0  0
    6.6020    0.7930  -55.8040 C   0  0  0  0  0  0  0  0  0  0  0  0
    6.6060    1.4570  -56.9840 N   0  0  0  0  0  0  0  0  0  0  0  0
    7.7660    1.9520  -57.4280 C   0  0  0  0  0  0  0  0  0  0  0  0
    7.7740    2.6080  -58.5920 N   0  0  0  0  0  0  0  0  0  0  0  0
    8.9540    3.1090  -59.0210 C   0  0  0  0  0  0  0  0  0  0  0  0
   10.1230    2.9590  -58.3060 C   0  0  0  0  0  0  0  0  0  0  0  0
   10.1590    2.2970  -57.1320 N   0  0  0  0  0  0  0  0  0  0  0  0
    8.9790    1.8000  -56.7020 C   0  0  0  0  0  0  0  0  0  0  0  0
    8.9380    1.1080  -55.5030 C   0  0  0  0  0  0  0  0  0  0  0  0
    9.6170   -1.6630  -53.2670 C   0  0  0  0  0  0  0  0  0  0  0  0
   12.4655   -2.8069  -57.2081 H   0  0  0  0  0  0  0  0  0  0  0  0
   12.7618   -3.9145  -58.5909 H   0  0  0  0  0  0  0  0  0  0  0  0
   11.3196   -2.8436  -58.5909 H   0  0  0  0  0  0  0  0  0  0  0  0
   10.8820   -4.8637  -58.2729 H   0  0  0  0  0  0  0  0  0  0  0  0
   11.6231   -6.2425  -55.8753 H   0  0  0  0  0  0  0  0  0  0  0  0
   12.6768   -5.1649  -55.4867 H   0  0  0  0  0  0  0  0  0  0  0  0
    9.4404   -4.4079  -55.6267 H   0  0  0  0  0  0  0  0  0  0  0  0
   11.5574   -2.6250  -55.1778 H   0  0  0  0  0  0  0  0  0  0  0  0
    9.9062   -2.2496  -55.8312 H   0  0  0  0  0  0  0  0  0  0  0  0
   10.6735   -3.6271  -53.2788 H   0  0  0  0  0  0  0  0  0  0  0  0
    8.4646   -4.5296  -54.5342 H   0  0  0  0  0  0  0  0  0  0  0  0
    8.3049   -4.1736  -52.8228 H   0  0  0  0  0  0  0  0  0  0  0  0
    7.4437   -2.5174  -55.2414 H   0  0  0  0  0  0  0  0  0  0  0  0
    6.5803   -2.7253  -53.7206 H   0  0  0  0  0  0  0  0  0  0  0  0
    5.6429    0.4098  -55.4255 H   0  0  0  0  0  0  0  0  0  0  0  0
    8.9824    3.6560  -59.9749 H   0  0  0  0  0  0  0  0  0  0  0  0
   11.0526    3.3916  -58.7045 H   0  0  0  0  0  0  0  0  0  0  0  0
    9.8552    0.9831  -54.9087 H   0  0  0  0  0  0  0  0  0  0  0  0
   10.2936   -0.9134  -53.7031 H   0  0  0  0  0  0  0  0  0  0  0  0
    9.7616   -1.6229  -52.1773 H   0  0  0  0  0  0  0  0  0  0  0  0
  1  2  1  0
  2  3  1  0
  3  4  1  0
  4  5  1  0
  5  6  1  0
  6  7  1  0
  7  8  1  0
  8  9  1  0
  9 10  1  0
 10 11  2  0
 10 12  1  0
 12 13  2  0
 13 14  1  0
 14 15  2  0
 15 16  1  0
 16 17  2  0
 17 18  1  0
 18 19  2  0
 19 20  1  0
 20 21  2  0
  9 22  1  0
  4  2  1  0
 22  6  1  0
 21 12  1  0
 20 15  1  0
  1 23  1  0
  1 24  1  0
  1 25  1  0
  2 26  1  6
  3 27  1  0
  3 28  1  0
  4 29  1  6
  5 30  1  0
  5 31  1  0
  6 32  1  1
  7 33  1  0
  7 34  1  0
  8 35  1  0
  8 36  1  0
 13 37  1  0
 17 38  1  0
 18 39  1  0
 21 40  1  0
 22 41  1  0
 22 42  1  0
M  END
>  <meeko>  (109) 
{"is_sidechain": false}

$$$$

     RDKit          3D

 42 45  0  0  0  0  0  0  0  0999 V2000
   12.0550    6.1360  -59.8910 C   0  0  0  0  0  0  0  0  0  0  0  0
   13.0520    5.0950  -59.5100 C   0  0  1  0  0  0  0  0  0  0  0  0
   13.3330    4.8080  -58.0590 C   0  0  0  0  0  0  0  0  0  0  0  0
   12.6520    3.7630  -58.9100 C   0  0  1  0  0  0  0  0  0  0  0  0
   11.2110    3.4050  -58.6790 C   0  0  0  0  0  0  0  0  0  0  0  0
   10.9350    3.0150  -57.2160 C   0  0  1  0  0  0  0  0  0  0  0  0
   10.2870    4.1360  -56.3940 C   0  0  0  0  0  0  0  0  0  0  0  0
    8.8110    4.0280  -56.7460 C   0  0  0  0  0  0  0  0  0  0  0  0
    8.6020    2.6150  -57.0110 N   0  0  0  0  0  0  0  0  0  0  0  0
    7.3420    2.1520  -57.3370 C   0  0  0  0  0  0  0  0  0  0  0  0
    6.5600    1.6910  -56.5100 O   0  0  0  0  0  0  0  0  0  0  0  0
    6.8940    2.2220  -58.7370 C   0  0  0  0  0  0  0  0  0  0  0  0
    7.6060    2.9990  -59.6320 C   0  0  0  0  0  0  0  0  0  0  0  0
    7.2700    3.1320  -60.9370 N   0  0  0  0  0  0  0  0  0  0  0  0
    6.1730    2.5040  -61.3780 C   0  0  0  0  0  0  0  0  0  0  0  0
    5.8390    2.6350  -62.6650 N   0  0  0  0  0  0  0  0  0  0  0  0
    4.7230    2.0010  -63.0870 C   0  0  0  0  0  0  0  0  0  0  0  0
    3.9420    1.2380  -62.2460 C   0  0  0  0  0  0  0  0  0  0  0  0
    4.2500    1.0770  -60.9440 N   0  0  0  0  0  0  0  0  0  0  0  0
    5.3630    1.7120  -60.5180 C   0  0  0  0  0  0  0  0  0  0  0  0
    5.7410    1.5920  -59.1920 C   0  0  0  0  0  0  0  0  0  0  0  0
    9.8740    1.9090  -57.1340 C   0  0  0  0  0  0  0  0  0  0  0  0
   11.6265    6.5834  -58.9820 H   0  0  0  0  0  0  0  0  0  0  0  0
   12.5501    6.9175  -60.4860 H   0  0  0  0  0  0  0  0  0  0  0  0
   11.2528    5.6751  -60.4860 H   0  0  0  0  0  0  0  0  0  0  0  0
   13.6452    5.3906  -60.3879 H   0  0  0  0  0  0  0  0  0  0  0  0
   14.3679    4.6515  -57.7206 H   0  0  0  0  0  0  0  0  0  0  0  0
   13.0968    5.3095  -57.1089 H   0  0  0  0  0  0  0  0  0  0  0  0
   12.8446    2.7101  -59.1637 H   0  0  0  0  0  0  0  0  0  0  0  0
   10.5850    4.2714  -58.9386 H   0  0  0  0  0  0  0  0  0  0  0  0
   10.9741    2.5358  -59.3101 H   0  0  0  0  0  0  0  0  0  0  0  0
   11.9272    2.7350  -56.8325 H   0  0  0  0  0  0  0  0  0  0  0  0
   10.4470    3.9768  -55.3174 H   0  0  0  0  0  0  0  0  0  0  0  0
   10.7084    5.1276  -56.6154 H   0  0  0  0  0  0  0  0  0  0  0  0
    8.1854    4.3625  -55.9053 H   0  0  0  0  0  0  0  0  0  0  0  0
    8.5388    4.6591  -57.6049 H   0  0  0  0  0  0  0  0  0  0  0  0
    8.4920    3.5375  -59.2646 H   0  0  0  0  0  0  0  0  0  0  0  0
    4.4265    2.0975  -64.1419 H   0  0  0  0  0  0  0  0  0  0  0  0
    3.0434    0.7474  -62.6482 H   0  0  0  0  0  0  0  0  0  0  0  0
    5.1288    0.9978  -58.4976 H   0  0  0  0  0  0  0  0  0  0  0  0
   10.0483    1.2702  -56.2556 H   0  0  0  0  0  0  0  0  0  0  0  0
    9.8968    1.2482  -58.0131 H   0  0  0  0  0  0  0  0  0  0  0  0
  1  2  1  0
  2  3  1  0
  3  4  1  0
  4  5  1  0
  5  6  1  0
  6  7  1  0
  7  8  1  0
  8  9  1  0
  9 10  1  0
 10 11  2  0
 10 12  1  0
 12 13  2  0
 13 14  1  0
 14 15  2  0
 15 16  1  0
 16 17  2  0
 17 18  1  0
 18 19  2  0
 19 20  1  0
 20 21  2  0
  9 22  1  0
  4  2  1  0
 22  6  1  0
 21 12  1  0
 20 15  1  0
  1 23  1  0
  1 24  1  0
  1 25  1  0
  2 26  1  6
  3 27  1  0
  3 28  1  0
  4 29  1  6
  5 30  1  0
  5 31  1  0
  6 32  1  1
  7 33  1  0
  7 34  1  0
  8 35  1  0
  8 36  1  0
 13 37  1  0
 17 38  1  0
 18 39  1  0
 21 40  1  0
 22 41  1  0
 22 42  1  0
M  END
>  <meeko>  (110) 
{"is_sidechain": false}

$$$$

     RDKit          3D

 46 49  0  0  0  0  0  0  0  0999 V2000
   12.0790   -3.6420  -57.9820 C   0  0  0  0  0  0  0  0  0  0  0  0
   11.0690   -4.6300  -57.5060 C   0  0  1  0  0  0  0  0  0  0  0  0
   11.5060   -5.8750  -56.7790 C   0  0  0  0  0  0  0  0  0  0  0  0
   10.7270   -4.8140  -56.0430 C   0  0  1  0  0  0  0  0  0  0  0  0
   11.3820   -4.0080  -54.9580 C   0  0  0  0  0  0  0  0  0  0  0  0
   10.3800   -3.1190  -54.2220 C   0  0  2  0  0  0  0  0  0  0  0  0
    8.9510   -3.6630  -54.1930 C   0  0  0  0  0  0  0  0  0  0  0  0
    8.0900   -2.4200  -53.9070 C   0  0  2  0  0  0  0  0  0  0  0  0
    6.7240   -2.5740  -54.5620 C   0  0  0  0  0  0  0  0  0  0  0  0
    8.8950   -1.3060  -54.4190 N   0  0  0  0  0  0  0  0  0  0  0  0
    8.6720    0.0590  -54.2870 C   0  0  0  0  0  0  0  0  0  0  0  0
    8.5860    0.6260  -53.1990 O   0  0  0  0  0  0  0  0  0  0  0  0
    8.4360    0.8650  -55.5090 C   0  0  0  0  0  0  0  0  0  0  0  0
    9.5290    1.4060  -56.1670 C   0  0  0  0  0  0  0  0  0  0  0  0
    9.2800    2.1230  -57.3390 C   0  0  0  0  0  0  0  0  0  0  0  0
   10.3480    2.7070  -58.0540 N   0  0  0  0  0  0  0  0  0  0  0  0
   10.1960    3.2780  -59.2780 N   0  0  0  0  0  0  0  0  0  0  0  0
   11.4490    3.6750  -59.5120 C   0  0  0  0  0  0  0  0  0  0  0  0
   12.3210    3.3870  -58.5110 N   0  0  0  0  0  0  0  0  0  0  0  0
   11.6140    2.7690  -57.5750 N   0  0  0  0  0  0  0  0  0  0  0  0
    7.9680    2.2580  -57.8060 C   0  0  0  0  0  0  0  0  0  0  0  0
    6.9510    1.6670  -57.0760 C   0  0  0  0  0  0  0  0  0  0  0  0
    7.1520    0.9770  -55.9350 N   0  0  0  0  0  0  0  0  0  0  0  0
   10.1840   -1.7700  -54.9070 C   0  0  0  0  0  0  0  0  0  0  0  0
   12.5641   -3.1675  -57.1162 H   0  0  0  0  0  0  0  0  0  0  0  0
   12.8371   -4.1568  -58.5905 H   0  0  0  0  0  0  0  0  0  0  0  0
   11.5810   -2.8727  -58.5905 H   0  0  0  0  0  0  0  0  0  0  0  0
   10.4784   -4.4028  -58.4058 H   0  0  0  0  0  0  0  0  0  0  0  0
   11.0339   -6.8410  -57.0114 H   0  0  0  0  0  0  0  0  0  0  0  0
   12.4686   -6.3827  -56.6187 H   0  0  0  0  0  0  0  0  0  0  0  0
    9.7931   -4.7781  -55.4628 H   0  0  0  0  0  0  0  0  0  0  0  0
   11.8450   -4.6956  -54.2349 H   0  0  0  0  0  0  0  0  0  0  0  0
   12.1351   -3.3567  -55.4256 H   0  0  0  0  0  0  0  0  0  0  0  0
   10.8281   -3.0606  -53.2191 H   0  0  0  0  0  0  0  0  0  0  0  0
    8.6827   -4.1111  -55.1611 H   0  0  0  0  0  0  0  0  0  0  0  0
    8.8135   -4.4569  -53.4441 H   0  0  0  0  0  0  0  0  0  0  0  0
    7.8574   -2.2556  -52.8445 H   0  0  0  0  0  0  0  0  0  0  0  0
    5.9518   -2.6611  -53.7835 H   0  0  0  0  0  0  0  0  0  0  0  0
    6.5161   -1.6936  -55.1878 H   0  0  0  0  0  0  0  0  0  0  0  0
    6.7173   -3.4786  -55.1878 H   0  0  0  0  0  0  0  0  0  0  0  0
   10.5511    1.2759  -55.7817 H   0  0  0  0  0  0  0  0  0  0  0  0
   11.7494    4.1909  -60.4359 H   0  0  0  0  0  0  0  0  0  0  0  0
    7.7507    2.8181  -58.7275 H   0  0  0  0  0  0  0  0  0  0  0  0
    5.9205    1.7659  -57.4478 H   0  0  0  0  0  0  0  0  0  0  0  0
   10.1682   -1.8865  -56.0007 H   0  0  0  0  0  0  0  0  0  0  0  0
   10.9974   -1.0632  -54.6861 H   0  0  0  0  0  0  0  0  0  0  0  0
  1  2  1  0
  2  3  1  0
  3  4  1  0
  4  5  1  0
  5  6  1  0
  6  7  1  0
  7  8  1  0
  8  9  1  0
  8 10  1  0
 10 11  1  0
 11 12  2  0
 11 13  1  0
 13 14  2  0
 14 15  1  0
 15 16  1  0
 16 17  1  0
 17 18  2  0
 18 19  1  0
 19 20  2  0
 15 21  2  0
 21 22  1  0
 22 23  2  0
 10 24  1  0
  4  2  1  0
 24  6  1  0
 23 13  1  0
 20 16  1  0
  1 25  1  0
  1 26  1  0
  1 27  1  0
  2 28  1  6
  3 29  1  0
  3 30  1  0
  4 31  1  6
  5 32  1  0
  5 33  1  0
  6 34  1  1
  7 35  1  0
  7 36  1  0
  8 37  1  1
  9 38  1  0
  9 39  1  0
  9 40  1  0
 14 41  1  0
 18 42  1  0
 21 43  1  0
 22 44  1  0
 24 45  1  0
 24 46  1  0
M  END
>  <meeko>  (111) 
{"is_sidechain": false}

$$$$

     RDKit          3D

 43 45  0  0  0  0  0  0  0  0999 V2000
   12.0520   -3.6430  -57.9800 C   0  0  0  0  0  0  0  0  0  0  0  0
   11.0410   -4.6190  -57.4830 C   0  0  1  0  0  0  0  0  0  0  0  0
   11.4790   -5.8590  -56.7460 C   0  0  0  0  0  0  0  0  0  0  0  0
   10.7190   -4.7810  -56.0120 C   0  0  1  0  0  0  0  0  0  0  0  0
   11.3940   -3.9610  -54.9510 C   0  0  0  0  0  0  0  0  0  0  0  0
   10.3990   -3.0950  -54.1820 C   0  0  2  0  0  0  0  0  0  0  0  0
    8.9800   -3.6640  -54.1940 C   0  0  0  0  0  0  0  0  0  0  0  0
    8.0980   -2.4540  -53.8390 C   0  0  2  0  0  0  0  0  0  0  0  0
    6.7400   -2.5830  -54.5250 C   0  0  0  0  0  0  0  0  0  0  0  0
    8.8850   -1.3020  -54.2870 N   0  0  0  0  0  0  0  0  0  0  0  0
    8.5730    0.0550  -54.2160 C   0  0  0  0  0  0  0  0  0  0  0  0
    8.5600    0.6470  -53.1340 O   0  0  0  0  0  0  0  0  0  0  0  0
    8.2400    0.8120  -55.4650 C   0  0  0  0  0  0  0  0  0  0  0  0
    9.2460    1.5140  -56.1170 C   0  0  0  0  0  0  0  0  0  0  0  0
    8.9320    2.2190  -57.2860 C   0  0  0  0  0  0  0  0  0  0  0  0
    9.9900    2.9670  -58.0610 C   0  0  0  0  0  0  0  0  0  0  0  0
    9.5870    3.8300  -58.8990 O   0  0  0  0  0  0  0  0  0  0  0  0
   11.1990    2.6770  -57.8020 O   0  0  0  0  0  0  0  0  0  0  0  0
    7.6030    2.2050  -57.7230 C   0  0  0  0  0  0  0  0  0  0  0  0
    6.6610    1.4950  -56.9980 C   0  0  0  0  0  0  0  0  0  0  0  0
    6.9420    0.7910  -55.8810 N   0  0  0  0  0  0  0  0  0  0  0  0
   10.1860   -1.7100  -54.7870 C   0  0  0  0  0  0  0  0  0  0  0  0
   12.5495   -3.1627  -57.1245 H   0  0  0  0  0  0  0  0  0  0  0  0
   12.8001   -4.1692  -58.5911 H   0  0  0  0  0  0  0  0  0  0  0  0
   11.5525   -2.8768  -58.5911 H   0  0  0  0  0  0  0  0  0  0  0  0
   10.4402   -4.4007  -58.3782 H   0  0  0  0  0  0  0  0  0  0  0  0
   10.9957   -6.8240  -56.9588 H   0  0  0  0  0  0  0  0  0  0  0  0
   12.4397   -6.3726  -56.5933 H   0  0  0  0  0  0  0  0  0  0  0  0
    9.7951   -4.7327  -55.4170 H   0  0  0  0  0  0  0  0  0  0  0  0
   11.8967   -4.6378  -54.2445 H   0  0  0  0  0  0  0  0  0  0  0  0
   12.1168   -3.2941  -55.4438 H   0  0  0  0  0  0  0  0  0  0  0  0
   10.8570   -3.0599  -53.1825 H   0  0  0  0  0  0  0  0  0  0  0  0
    8.7238   -4.0577  -55.1887 H   0  0  0  0  0  0  0  0  0  0  0  0
    8.8520   -4.5041  -53.4955 H   0  0  0  0  0  0  0  0  0  0  0  0
    7.8583   -2.3622  -52.7694 H   0  0  0  0  0  0  0  0  0  0  0  0
    5.9500   -2.6580  -53.7632 H   0  0  0  0  0  0  0  0  0  0  0  0
    6.5609   -1.6978  -55.1530 H   0  0  0  0  0  0  0  0  0  0  0  0
    6.7308   -3.4861  -55.1530 H   0  0  0  0  0  0  0  0  0  0  0  0
   10.2725    1.5162  -55.7217 H   0  0  0  0  0  0  0  0  0  0  0  0
    7.3100    2.7515  -58.6316 H   0  0  0  0  0  0  0  0  0  0  0  0
    5.6202    1.5052  -57.3539 H   0  0  0  0  0  0  0  0  0  0  0  0
   10.1841   -1.7599  -55.8859 H   0  0  0  0  0  0  0  0  0  0  0  0
   10.9837   -1.0031  -54.5152 H   0  0  0  0  0  0  0  0  0  0  0  0
  1  2  1  0
  2  3  1  0
  3  4  1  0
  4  5  1  0
  5  6  1  0
  6  7  1  0
  7  8  1  0
  8  9  1  0
  8 10  1  0
 10 11  1  0
 11 12  2  0
 11 13  1  0
 13 14  2  0
 14 15  1  0
 15 16  1  0
 16 17  2  0
 16 18  1  0
 15 19  2  0
 19 20  1  0
 20 21  2  0
 10 22  1  0
  4  2  1  0
 22  6  1  0
 21 13  1  0
  1 23  1  0
  1 24  1  0
  1 25  1  0
  2 26  1  6
  3 27  1  0
  3 28  1  0
  4 29  1  6
  5 30  1  0
  5 31  1  0
  6 32  1  1
  7 33  1  0
  7 34  1  0
  8 35  1  1
  9 36  1  0
  9 37  1  0
  9 38  1  0
 14 39  1  0
 19 40  1  0
 20 41  1  0
 22 42  1  0
 22 43  1  0
M  CHG  1  18  -1
M  END
>  <meeko>  (112) 
{"is_sidechain": false}

$$$$

     RDKit          3D

 44 46  0  0  0  0  0  0  0  0999 V2000
   12.2340    3.4390  -57.4510 C   0  0  0  0  0  0  0  0  0  0  0  0
   11.0630    3.3660  -58.4280 C   0  0  2  0  0  0  0  0  0  0  0  0
   11.5330    3.6300  -59.8630 C   0  0  0  0  0  0  0  0  0  0  0  0
   10.3680    4.3550  -60.5370 C   0  0  1  0  0  0  0  0  0  0  0  0
    9.4020    3.4430  -61.3120 C   0  0  0  0  0  0  0  0  0  0  0  0
    8.0520    3.2320  -60.6890 C   0  0  2  0  0  0  0  0  0  0  0  0
    7.5180    1.8390  -60.4510 C   0  0  0  0  0  0  0  0  0  0  0  0
    6.8790    2.7150  -61.4970 C   0  0  2  0  0  0  0  0  0  0  0  0
    6.9880    2.3630  -62.9420 C   0  0  0  0  0  0  0  0  0  0  0  0
    9.7250    5.1300  -59.3860 C   0  0  0  0  0  0  0  0  0  0  0  0
   10.0380    4.3760  -58.1800 N   0  0  0  0  0  0  0  0  0  0  0  0
    9.2790    4.3620  -57.0120 C   0  0  0  0  0  0  0  0  0  0  0  0
    9.3290    5.2840  -56.1950 O   0  0  0  0  0  0  0  0  0  0  0  0
    8.3690    3.2030  -56.7080 C   0  0  0  0  0  0  0  0  0  0  0  0
    8.8680    2.1450  -55.9520 C   0  0  0  0  0  0  0  0  0  0  0  0
    8.0190    1.0790  -55.6300 C   0  0  0  0  0  0  0  0  0  0  0  0
    8.5330   -0.0930  -54.8370 C   0  0  0  0  0  0  0  0  0  0  0  0
    9.7410   -0.5450  -55.2750 F   0  0  0  0  0  0  0  0  0  0  0  0
    8.7020    0.2120  -53.5220 F   0  0  0  0  0  0  0  0  0  0  0  0
    7.6980   -1.1670  -54.8730 F   0  0  0  0  0  0  0  0  0  0  0  0
    6.6980    1.1170  -56.0890 C   0  0  0  0  0  0  0  0  0  0  0  0
    6.2830    2.2120  -56.8260 C   0  0  0  0  0  0  0  0  0  0  0  0
    7.0840    3.2510  -57.1420 N   0  0  0  0  0  0  0  0  0  0  0  0
   11.8529    3.4152  -56.4194 H   0  0  0  0  0  0  0  0  0  0  0  0
   12.9023    2.5808  -57.6148 H   0  0  0  0  0  0  0  0  0  0  0  0
   12.7905    4.3736  -57.6148 H   0  0  0  0  0  0  0  0  0  0  0  0
   10.6512    2.3557  -58.2879 H   0  0  0  0  0  0  0  0  0  0  0  0
   12.4335    4.2617  -59.8643 H   0  0  0  0  0  0  0  0  0  0  0  0
   11.7983    2.7001  -60.3873 H   0  0  0  0  0  0  0  0  0  0  0  0
   10.7055    5.0153  -61.3495 H   0  0  0  0  0  0  0  0  0  0  0  0
    9.2477    3.8850  -62.3074 H   0  0  0  0  0  0  0  0  0  0  0  0
    9.8790    2.4519  -61.3280 H   0  0  0  0  0  0  0  0  0  0  0  0
    8.2327    4.1192  -60.0643 H   0  0  0  0  0  0  0  0  0  0  0  0
    8.1112    0.9640  -60.7551 H   0  0  0  0  0  0  0  0  0  0  0  0
    7.1530    1.2874  -59.5721 H   0  0  0  0  0  0  0  0  0  0  0  0
    5.8671    3.0941  -61.7028 H   0  0  0  0  0  0  0  0  0  0  0  0
    7.3121    1.3165  -63.0410 H   0  0  0  0  0  0  0  0  0  0  0  0
    6.0082    2.4908  -63.4254 H   0  0  0  0  0  0  0  0  0  0  0  0
    7.7241    3.0221  -63.4254 H   0  0  0  0  0  0  0  0  0  0  0  0
   10.1460    6.1444  -59.3242 H   0  0  0  0  0  0  0  0  0  0  0  0
    8.6395    5.2391  -59.5264 H   0  0  0  0  0  0  0  0  0  0  0  0
    9.9143    2.1468  -55.6126 H   0  0  0  0  0  0  0  0  0  0  0  0
    6.0034    0.2931  -55.8685 H   0  0  0  0  0  0  0  0  0  0  0  0
    5.2399    2.2370  -57.1744 H   0  0  0  0  0  0  0  0  0  0  0  0
  1  2  1  0
  2  3  1  0
  3  4  1  0
  4  5  1  0
  5  6  1  0
  6  7  1  0
  7  8  1  0
  8  9  1  0
  4 10  1  0
 10 11  1  0
 11 12  1  0
 12 13  2  0
 12 14  1  0
 14 15  2  0
 15 16  1  0
 16 17  1  0
 17 18  1  0
 17 19  1  0
 17 20  1  0
 16 21  2  0
 21 22  1  0
 22 23  2  0
 11  2  1  0
 23 14  1  0
  8  6  1  0
  1 24  1  0
  1 25  1  0
  1 26  1  0
  2 27  1  6
  3 28  1  0
  3 29  1  0
  4 30  1  6
  5 31  1  0
  5 32  1  0
  6 33  1  1
  7 34  1  0
  7 35  1  0
  8 36  1  1
  9 37  1  0
  9 38  1  0
  9 39  1  0
 10 40  1  0
 10 41  1  0
 15 42  1  0
 21 43  1  0
 22 44  1  0
M  END
>  <meeko>  (113) 
{"is_sidechain": false}

$$$$

     RDKit          3D

 50 53  0  0  0  0  0  0  0  0999 V2000
    7.7830   -2.5650  -50.0630 C   0  0  0  0  0  0  0  0  0  0  0  0
    8.2450   -2.2580  -51.4370 C   0  0  0  0  0  0  0  0  0  0  0  0
    9.2570   -2.9410  -51.9760 N   0  0  0  0  0  0  0  0  0  0  0  0
    9.4850   -2.3150  -53.5040 S   0  0  0  0  0  0  0  0  0  0  0  0
    8.2060   -1.1680  -53.3560 C   0  0  0  0  0  0  0  0  0  0  0  0
    7.8320   -0.2200  -54.4190 C   0  0  0  0  0  0  0  0  0  0  0  0
    8.7540    0.6140  -55.0750 C   0  0  0  0  0  0  0  0  0  0  0  0
    8.3410    1.4950  -56.0840 C   0  0  0  0  0  0  0  0  0  0  0  0
    6.9980    1.5390  -56.4610 C   0  0  0  0  0  0  0  0  0  0  0  0
    6.5320    2.4790  -57.5000 C   0  0  0  0  0  0  0  0  0  0  0  0
    5.3540    2.8270  -57.4650 O   0  0  0  0  0  0  0  0  0  0  0  0
    7.4260    2.9330  -58.4540 N   0  0  0  0  0  0  0  0  0  0  0  0
    8.1560    4.1660  -58.2120 C   0  0  0  0  0  0  0  0  0  0  0  0
    9.3760    4.0620  -59.1210 C   0  0  2  0  0  0  0  0  0  0  0  0
   10.0030    5.4220  -59.4200 C   0  0  0  0  0  0  0  0  0  0  0  0
   11.3530    5.2890  -60.0620 C   0  0  1  0  0  0  0  0  0  0  0  0
   12.2570    6.4930  -60.1760 C   0  0  0  0  0  0  0  0  0  0  0  0
   12.6050    5.3780  -59.2230 C   0  0  2  0  0  0  0  0  0  0  0  0
   13.7600    4.4790  -59.5070 C   0  0  0  0  0  0  0  0  0  0  0  0
    8.7930    3.3520  -60.3450 C   0  0  0  0  0  0  0  0  0  0  0  0
    7.8050    2.3390  -59.7420 C   0  0  2  0  0  0  0  0  0  0  0  0
    6.6360    2.1130  -60.6970 C   0  0  0  0  0  0  0  0  0  0  0  0
    6.0600    0.7410  -55.8050 C   0  0  0  0  0  0  0  0  0  0  0  0
    6.4790   -0.1370  -54.8010 C   0  0  0  0  0  0  0  0  0  0  0  0
    7.6250   -1.2560  -52.1730 N   0  0  0  0  0  0  0  0  0  0  0  0
    8.4696   -2.1087  -49.3348 H   0  0  0  0  0  0  0  0  0  0  0  0
    6.7711   -2.1590  -49.9171 H   0  0  0  0  0  0  0  0  0  0  0  0
    7.7653   -3.6551  -49.9171 H   0  0  0  0  0  0  0  0  0  0  0  0
    9.8163    0.5746  -54.7921 H   0  0  0  0  0  0  0  0  0  0  0  0
    9.0738    2.1502  -56.5776 H   0  0  0  0  0  0  0  0  0  0  0  0
    7.5442    5.0405  -58.4785 H   0  0  0  0  0  0  0  0  0  0  0  0
    8.4282    4.2941  -57.1539 H   0  0  0  0  0  0  0  0  0  0  0  0
   10.2243    3.5171  -58.6811 H   0  0  0  0  0  0  0  0  0  0  0  0
    9.3397    5.9774  -60.0994 H   0  0  0  0  0  0  0  0  0  0  0  0
   10.1311    5.9545  -58.4661 H   0  0  0  0  0  0  0  0  0  0  0  0
   10.9416    4.5534  -60.7688 H   0  0  0  0  0  0  0  0  0  0  0  0
   12.8566    6.6463  -61.0854 H   0  0  0  0  0  0  0  0  0  0  0  0
   12.1191    7.5804  -60.0834 H   0  0  0  0  0  0  0  0  0  0  0  0
   12.8277    5.3174  -58.1475 H   0  0  0  0  0  0  0  0  0  0  0  0
   14.1999    4.1366  -58.5587 H   0  0  0  0  0  0  0  0  0  0  0  0
   13.4144    3.6098  -60.0859 H   0  0  0  0  0  0  0  0  0  0  0  0
   14.5178    5.0273  -60.0859 H   0  0  0  0  0  0  0  0  0  0  0  0
    8.2723    4.0650  -61.0011 H   0  0  0  0  0  0  0  0  0  0  0  0
    9.5636    2.8763  -60.9694 H   0  0  0  0  0  0  0  0  0  0  0  0
    8.2243    1.3338  -59.5878 H   0  0  0  0  0  0  0  0  0  0  0  0
    5.7181    1.9355  -60.1174 H   0  0  0  0  0  0  0  0  0  0  0  0
    6.5032    3.0021  -61.3309 H   0  0  0  0  0  0  0  0  0  0  0  0
    6.8442    1.2385  -61.3309 H   0  0  0  0  0  0  0  0  0  0  0  0
    4.9958    0.8025  -56.0766 H   0  0  0  0  0  0  0  0  0  0  0  0
    5.7371   -0.7757  -54.2994 H   0  0  0  0  0  0  0  0  0  0  0  0
  1  2  1  0
  2  3  2  0
  3  4  1  0
  4  5  1  0
  5  6  1  0
  6  7  1  0
  7  8  2  0
  8  9  1  0
  9 10  1  0
 10 11  2  0
 10 12  1  0
 12 13  1  0
 13 14  1  0
 14 15  1  0
 15 16  1  0
 16 17  1  0
 17 18  1  0
 18 19  1  0
 14 20  1  0
 20 21  1  0
 21 22  1  0
  9 23  2  0
 23 24  1  0
  5 25  2  0
 25  2  1  0
 24  6  2  0
 21 12  1  0
 18 16  1  0
  1 26  1  0
  1 27  1  0
  1 28  1  0
  7 29  1  0
  8 30  1  0
 13 31  1  0
 13 32  1  0
 14 33  1  1
 15 34  1  0
 15 35  1  0
 16 36  1  6
 17 37  1  0
 17 38  1  0
 18 39  1  1
 19 40  1  0
 19 41  1  0
 19 42  1  0
 20 43  1  0
 20 44  1  0
 21 45  1  1
 22 46  1  0
 22 47  1  0
 22 48  1  0
 23 49  1  0
 24 50  1  0
M  END
>  <meeko>  (114) 
{"is_sidechain": false}

$$$$

     RDKit          3D

 46 49  0  0  0  0  0  0  0  0999 V2000
   12.0870   -3.7180  -57.9780 C   0  0  0  0  0  0  0  0  0  0  0  0
   11.0780   -4.6860  -57.4610 C   0  0  1  0  0  0  0  0  0  0  0  0
   11.5170   -5.9490  -56.7650 C   0  0  0  0  0  0  0  0  0  0  0  0
   10.8010   -4.8750  -55.9850 C   0  0  1  0  0  0  0  0  0  0  0  0
   11.5260   -4.0950  -54.9260 C   0  0  0  0  0  0  0  0  0  0  0  0
   10.6770   -2.9450  -54.3840 C   0  0  2  0  0  0  0  0  0  0  0  0
   10.4940   -2.9530  -52.8650 C   0  0  0  0  0  0  0  0  0  0  0  0
    9.2650   -2.0590  -52.6620 C   0  0  2  0  0  0  0  0  0  0  0  0
    8.5230   -2.4210  -51.3820 C   0  0  0  0  0  0  0  0  0  0  0  0
    8.4690   -2.2630  -53.8730 N   0  0  0  0  0  0  0  0  0  0  0  0
    7.3660   -1.4640  -54.1360 C   0  0  0  0  0  0  0  0  0  0  0  0
    6.2410   -1.6980  -53.7020 O   0  0  0  0  0  0  0  0  0  0  0  0
    7.5400   -0.2630  -54.9740 C   0  0  0  0  0  0  0  0  0  0  0  0
    8.7740    0.3820  -55.0250 C   0  0  0  0  0  0  0  0  0  0  0  0
    8.9130    1.5320  -55.8030 C   0  0  0  0  0  0  0  0  0  0  0  0
    7.8070    2.0130  -56.5050 C   0  0  0  0  0  0  0  0  0  0  0  0
    7.8730    3.2050  -57.3480 C   0  0  0  0  0  0  0  0  0  0  0  0
    7.1450    3.5700  -58.3880 N   0  0  0  0  0  0  0  0  0  0  0  0
    7.6370    4.7880  -58.8130 N   0  0  0  0  0  0  0  0  0  0  0  0
    8.6260    5.0780  -58.0040 C   0  0  0  0  0  0  0  0  0  0  0  0
    8.8470    4.1330  -57.0500 O   0  0  0  0  0  0  0  0  0  0  0  0
    6.5930    1.4050  -56.4460 N   0  0  0  0  0  0  0  0  0  0  0  0
    6.4820    0.2960  -55.6720 C   0  0  0  0  0  0  0  0  0  0  0  0
    9.2300   -3.0030  -54.8770 C   0  0  0  0  0  0  0  0  0  0  0  0
   12.5947   -3.2309  -57.1324 H   0  0  0  0  0  0  0  0  0  0  0  0
   12.8272   -4.2525  -58.5915 H   0  0  0  0  0  0  0  0  0  0  0  0
   11.5836   -2.9563  -58.5915 H   0  0  0  0  0  0  0  0  0  0  0  0
   10.4520   -4.4361  -58.3303 H   0  0  0  0  0  0  0  0  0  0  0  0
   11.0099   -6.9006  -56.9823 H   0  0  0  0  0  0  0  0  0  0  0  0
   12.4726   -6.4824  -56.6543 H   0  0  0  0  0  0  0  0  0  0  0  0
    9.8968   -4.8212  -55.3609 H   0  0  0  0  0  0  0  0  0  0  0  0
   11.7794   -4.7717  -54.0966 H   0  0  0  0  0  0  0  0  0  0  0  0
   12.4322   -3.6661  -55.3786 H   0  0  0  0  0  0  0  0  0  0  0  0
   11.2402   -2.0669  -54.7329 H   0  0  0  0  0  0  0  0  0  0  0  0
   10.3076   -3.9718  -52.4944 H   0  0  0  0  0  0  0  0  0  0  0  0
   11.3817   -2.6007  -52.3192 H   0  0  0  0  0  0  0  0  0  0  0  0
    9.5189   -0.9969  -52.5298 H   0  0  0  0  0  0  0  0  0  0  0  0
    9.1277   -2.1260  -50.5117 H   0  0  0  0  0  0  0  0  0  0  0  0
    7.5589   -1.8920  -51.3549 H   0  0  0  0  0  0  0  0  0  0  0  0
    8.3465   -3.5064  -51.3549 H   0  0  0  0  0  0  0  0  0  0  0  0
    9.6302   -0.0115  -54.4575 H   0  0  0  0  0  0  0  0  0  0  0  0
    9.8805    2.0520  -55.8621 H   0  0  0  0  0  0  0  0  0  0  0  0
    9.2218    5.9989  -58.0880 H   0  0  0  0  0  0  0  0  0  0  0  0
    5.4964   -0.1863  -55.5944 H   0  0  0  0  0  0  0  0  0  0  0  0
    8.8820   -4.0447  -54.9382 H   0  0  0  0  0  0  0  0  0  0  0  0
    9.1152   -2.5776  -55.8849 H   0  0  0  0  0  0  0  0  0  0  0  0
  1  2  1  0
  2  3  1  0
  3  4  1  0
  4  5  1  0
  5  6  1  0
  6  7  1  0
  7  8  1  0
  8  9  1  0
  8 10  1  0
 10 11  1  0
 11 12  2  0
 11 13  1  0
 13 14  2  0
 14 15  1  0
 15 16  2  0
 16 17  1  0
 17 18  2  0
 18 19  1  0
 19 20  2  0
 20 21  1  0
 16 22  1  0
 22 23  2  0
 10 24  1  0
  4  2  1  0
 24  6  1  0
 23 13  1  0
 21 17  1  0
  1 25  1  0
  1 26  1  0
  1 27  1  0
  2 28  1  6
  3 29  1  0
  3 30  1  0
  4 31  1  6
  5 32  1  0
  5 33  1  0
  6 34  1  1
  7 35  1  0
  7 36  1  0
  8 37  1  1
  9 38  1  0
  9 39  1  0
  9 40  1  0
 14 41  1  0
 15 42  1  0
 20 43  1  0
 23 44  1  0
 24 45  1  0
 24 46  1  0
M  END
>  <meeko>  (115) 
{"is_sidechain": false}

$$$$

     RDKit          3D

 50 53  0  0  0  0  0  0  0  0999 V2000
   11.9920   -3.7070  -57.9790 C   0  0  0  0  0  0  0  0  0  0  0  0
   10.9030   -4.4750  -57.3130 C   0  0  1  0  0  0  0  0  0  0  0  0
   11.2250   -5.6880  -56.4790 C   0  0  0  0  0  0  0  0  0  0  0  0
   10.6810   -4.4480  -55.8150 C   0  0  1  0  0  0  0  0  0  0  0  0
   11.5440   -3.6310  -54.8980 C   0  0  0  0  0  0  0  0  0  0  0  0
   10.7410   -2.5490  -54.1760 C   0  0  2  0  0  0  0  0  0  0  0  0
   10.5310   -2.8550  -52.6910 C   0  0  0  0  0  0  0  0  0  0  0  0
    9.3200   -1.9860  -52.2910 C   0  0  2  0  0  0  0  0  0  0  0  0
    8.5160   -2.7080  -51.1930 C   0  0  0  0  0  0  0  0  0  0  0  0
    7.7590   -1.8820  -50.4450 F   0  0  0  0  0  0  0  0  0  0  0  0
    9.3560   -3.3550  -50.3450 F   0  0  0  0  0  0  0  0  0  0  0  0
    7.6880   -3.6420  -51.7190 F   0  0  0  0  0  0  0  0  0  0  0  0
    8.6240   -1.7470  -53.5770 N   0  0  0  0  0  0  0  0  0  0  0  0
    7.4810   -0.9980  -53.8270 C   0  0  0  0  0  0  0  0  0  0  0  0
    6.4510   -1.1630  -53.1690 O   0  0  0  0  0  0  0  0  0  0  0  0
    7.4560    0.0110  -54.9320 C   0  0  0  0  0  0  0  0  0  0  0  0
    8.6370    0.6520  -55.2830 C   0  0  0  0  0  0  0  0  0  0  0  0
    8.5980    1.6310  -56.2750 C   0  0  0  0  0  0  0  0  0  0  0  0
    9.8340    2.3020  -56.6680 C   0  0  0  0  0  0  0  0  0  0  0  0
   10.9810    1.7010  -56.9260 N   0  0  0  0  0  0  0  0  0  0  0  0
   11.8200    2.7250  -57.2570 C   0  0  0  0  0  0  0  0  0  0  0  0
   11.2780    3.9410  -57.2040 N   0  0  0  0  0  0  0  0  0  0  0  0
   10.0250    3.6580  -56.7960 N   0  0  0  0  0  0  0  0  0  0  0  0
    9.1110    4.7330  -56.5080 C   0  0  0  0  0  0  0  0  0  0  0  0
    7.3790    1.9150  -56.8940 C   0  0  0  0  0  0  0  0  0  0  0  0
    6.2490    1.2310  -56.4750 C   0  0  0  0  0  0  0  0  0  0  0  0
    6.2540    0.2990  -55.4990 N   0  0  0  0  0  0  0  0  0  0  0  0
    9.3080   -2.4070  -54.6760 C   0  0  0  0  0  0  0  0  0  0  0  0
   12.6389   -3.2508  -57.2152 H   0  0  0  0  0  0  0  0  0  0  0  0
   12.5882   -4.3856  -58.6068 H   0  0  0  0  0  0  0  0  0  0  0  0
   11.5530   -2.9176  -58.6068 H   0  0  0  0  0  0  0  0  0  0  0  0
   10.2679   -4.2588  -58.1847 H   0  0  0  0  0  0  0  0  0  0  0  0
   10.5991   -6.5893  -56.5560 H   0  0  0  0  0  0  0  0  0  0  0  0
   12.1158   -6.3174  -56.3363 H   0  0  0  0  0  0  0  0  0  0  0  0
    9.8238   -4.2137  -55.1667 H   0  0  0  0  0  0  0  0  0  0  0  0
   11.9977   -4.2968  -54.1491 H   0  0  0  0  0  0  0  0  0  0  0  0
   12.3153   -3.1356  -55.5060 H   0  0  0  0  0  0  0  0  0  0  0  0
   11.3491   -1.6516  -54.3631 H   0  0  0  0  0  0  0  0  0  0  0  0
   10.3117   -3.9223  -52.5402 H   0  0  0  0  0  0  0  0  0  0  0  0
   11.4235   -2.6366  -52.0862 H   0  0  0  0  0  0  0  0  0  0  0  0
    9.5509   -1.0149  -51.8287 H   0  0  0  0  0  0  0  0  0  0  0  0
    9.5845    0.3924  -54.7881 H   0  0  0  0  0  0  0  0  0  0  0  0
   12.8680    2.5586  -57.5466 H   0  0  0  0  0  0  0  0  0  0  0  0
    9.0126    4.8487  -55.4185 H   0  0  0  0  0  0  0  0  0  0  0  0
    9.4954    5.6675  -56.9427 H   0  0  0  0  0  0  0  0  0  0  0  0
    8.1269    4.5039  -56.9427 H   0  0  0  0  0  0  0  0  0  0  0  0
    7.3171    2.6650  -57.6963 H   0  0  0  0  0  0  0  0  0  0  0  0
    5.2922    1.4611  -56.9666 H   0  0  0  0  0  0  0  0  0  0  0  0
    8.8639   -3.3926  -54.8792 H   0  0  0  0  0  0  0  0  0  0  0  0
    9.2392   -1.8459  -55.6196 H   0  0  0  0  0  0  0  0  0  0  0  0
  1  2  1  0
  2  3  1  0
  3  4  1  0
  4  5  1  0
  5  6  1  0
  6  7  1  0
  7  8  1  0
  8  9  1  0
  9 10  1  0
  9 11  1  0
  9 12  1  0
  8 13  1  0
 13 14  1  0
 14 15  2  0
 14 16  1  0
 16 17  2  0
 17 18  1  0
 18 19  1  0
 19 20  2  0
 20 21  1  0
 21 22  2  0
 22 23  1  0
 23 24  1  0
 18 25  2  0
 25 26  1  0
 26 27  2  0
 13 28  1  0
  4  2  1  0
 28  6  1  0
 27 16  1  0
 23 19  1  0
  1 29  1  0
  1 30  1  0
  1 31  1  0
  2 32  1  6
  3 33  1  0
  3 34  1  0
  4 35  1  6
  5 36  1  0
  5 37  1  0
  6 38  1  1
  7 39  1  0
  7 40  1  0
  8 41  1  1
 17 42  1  0
 21 43  1  0
 24 44  1  0
 24 45  1  0
 24 46  1  0
 25 47  1  0
 26 48  1  0
 28 49  1  0
 28 50  1  0
M  END
>  <meeko>  (116) 
{"is_sidechain": false}

$$$$

     RDKit          3D

 55 58  0  0  0  0  0  0  0  0999 V2000
   12.8390    3.8120  -59.1320 C   0  0  0  0  0  0  0  0  0  0  0  0
   11.5070    3.9680  -58.5050 C   0  0  0  0  0  0  0  0  0  0  0  0
   10.9800    5.1820  -58.3380 N   0  0  0  0  0  0  0  0  0  0  0  0
    9.4960    4.9630  -57.6180 S   0  0  0  0  0  0  0  0  0  0  0  0
    9.6450    3.2480  -57.5640 C   0  0  0  0  0  0  0  0  0  0  0  0
    8.6190    2.3490  -57.0150 C   0  0  0  0  0  0  0  0  0  0  0  0
    7.3430    2.1950  -57.5690 C   0  0  0  0  0  0  0  0  0  0  0  0
    6.4460    1.3280  -56.9630 C   0  0  0  0  0  0  0  0  0  0  0  0
    6.7280    0.6070  -55.8590 N   0  0  0  0  0  0  0  0  0  0  0  0
    7.9700    0.7510  -55.3390 C   0  0  0  0  0  0  0  0  0  0  0  0
    8.2810   -0.0100  -54.0830 C   0  0  0  0  0  0  0  0  0  0  0  0
    8.1340    0.5380  -52.9840 O   0  0  0  0  0  0  0  0  0  0  0  0
    8.6910   -1.3420  -54.1600 N   0  0  0  0  0  0  0  0  0  0  0  0
    9.8570   -1.7650  -54.9430 C   0  0  0  0  0  0  0  0  0  0  0  0
   10.5900   -2.7420  -54.0250 C   0  0  2  0  0  0  0  0  0  0  0  0
   11.5170   -3.6830  -54.7930 C   0  0  0  0  0  0  0  0  0  0  0  0
   10.7590   -4.5650  -55.7420 C   0  0  2  0  0  0  0  0  0  0  0  0
   11.4590   -5.6930  -56.4580 C   0  0  0  0  0  0  0  0  0  0  0  0
   10.9640   -4.5040  -57.2410 C   0  0  2  0  0  0  0  0  0  0  0  0
   11.9310   -3.5730  -57.8900 C   0  0  0  0  0  0  0  0  0  0  0  0
    9.4290   -3.4350  -53.3130 C   0  0  0  0  0  0  0  0  0  0  0  0
    8.4120   -2.3000  -53.0890 C   0  0  2  0  0  0  0  0  0  0  0  0
    6.9850   -2.8790  -53.0860 C   0  0  0  0  0  0  0  0  0  0  0  0
    6.6230   -3.8990  -52.0140 C   0  0  0  0  0  0  0  0  0  0  0  0
    6.9030   -3.4040  -50.6530 N   0  0  0  0  0  0  0  0  0  0  0  0
    8.9260    1.6070  -55.8670 C   0  0  0  0  0  0  0  0  0  0  0  0
   10.7940    2.8500  -58.0820 N   0  0  0  0  0  0  0  0  0  0  0  0
   13.6052    3.7223  -58.3478 H   0  0  0  0  0  0  0  0  0  0  0  0
   12.8463    2.9069  -59.7570 H   0  0  0  0  0  0  0  0  0  0  0  0
   13.0553    4.6910  -59.7570 H   0  0  0  0  0  0  0  0  0  0  0  0
    7.0557    2.7536  -58.4720 H   0  0  0  0  0  0  0  0  0  0  0  0
    5.4461    1.2224  -57.4091 H   0  0  0  0  0  0  0  0  0  0  0  0
    9.5432   -2.2632  -55.8721 H   0  0  0  0  0  0  0  0  0  0  0  0
   10.4894   -0.9183  -55.2484 H   0  0  0  0  0  0  0  0  0  0  0  0
   11.2890   -2.2671  -53.3208 H   0  0  0  0  0  0  0  0  0  0  0  0
   12.2386   -3.0820  -55.3657 H   0  0  0  0  0  0  0  0  0  0  0  0
   12.0284   -4.3279  -54.0632 H   0  0  0  0  0  0  0  0  0  0  0  0
    9.8839   -4.4699  -55.0824 H   0  0  0  0  0  0  0  0  0  0  0  0
   12.5390   -5.8467  -56.3169 H   0  0  0  0  0  0  0  0  0  0  0  0
   11.3115   -6.7811  -56.5230 H   0  0  0  0  0  0  0  0  0  0  0  0
   10.2931   -4.3408  -58.0973 H   0  0  0  0  0  0  0  0  0  0  0  0
   12.4940   -3.0310  -57.1159 H   0  0  0  0  0  0  0  0  0  0  0  0
   12.6291   -4.1476  -58.5164 H   0  0  0  0  0  0  0  0  0  0  0  0
   11.3833   -2.8536  -58.5164 H   0  0  0  0  0  0  0  0  0  0  0  0
    8.9997   -4.2284  -53.9424 H   0  0  0  0  0  0  0  0  0  0  0  0
    9.7337   -3.9266  -52.3773 H   0  0  0  0  0  0  0  0  0  0  0  0
    8.4961   -1.7911  -52.1174 H   0  0  0  0  0  0  0  0  0  0  0  0
    6.2902   -2.0330  -52.9787 H   0  0  0  0  0  0  0  0  0  0  0  0
    6.9173   -3.4404  -54.0295 H   0  0  0  0  0  0  0  0  0  0  0  0
    5.5503   -4.1295  -52.0929 H   0  0  0  0  0  0  0  0  0  0  0  0
    7.2396   -4.7947  -52.1798 H   0  0  0  0  0  0  0  0  0  0  0  0
    7.8840   -3.6660  -50.4080 H   0  0  0  0  0  0  0  0  0  0  0  0
    6.2830   -3.7770  -49.9280 H   0  0  0  0  0  0  0  0  0  0  0  0
    6.8840   -2.3790  -50.6100 H   0  0  0  0  0  0  0  0  0  0  0  0
    9.9127    1.7018  -55.3901 H   0  0  0  0  0  0  0  0  0  0  0  0
  1  2  1  0
  2  3  2  0
  3  4  1  0
  4  5  1  0
  5  6  1  0
  6  7  2  0
  7  8  1  0
  8  9  2  0
  9 10  1  0
 10 11  1  0
 11 12  2  0
 11 13  1  0
 13 14  1  0
 14 15  1  0
 15 16  1  0
 16 17  1  0
 17 18  1  0
 18 19  1  0
 19 20  1  0
 15 21  1  0
 21 22  1  0
 22 23  1  0
 23 24  1  0
 24 25  1  0
 10 26  2  0
  5 27  2  0
 27  2  1  0
 26  6  1  0
 22 13  1  0
 19 17  1  0
  1 28  1  0
  1 29  1  0
  1 30  1  0
  7 31  1  0
  8 32  1  0
 14 33  1  0
 14 34  1  0
 15 35  1  1
 16 36  1  0
 16 37  1  0
 17 38  1  6
 18 39  1  0
 18 40  1  0
 19 41  1  6
 20 42  1  0
 20 43  1  0
 20 44  1  0
 21 45  1  0
 21 46  1  0
 22 47  1  1
 23 48  1  0
 23 49  1  0
 24 50  1  0
 24 51  1  0
 25 52  1  0
 25 53  1  0
 25 54  1  0
 26 55  1  0
M  CHG  1  25   1
M  END
>  <meeko>  (117) 
{"is_sidechain": false}

$$$$

     RDKit          3D

 43 45  0  0  0  0  0  0  0  0999 V2000
    7.8520   -2.6080  -49.7610 C   0  0  0  0  0  0  0  0  0  0  0  0
    7.4790   -3.4970  -50.9130 N   0  0  0  0  0  0  0  0  0  0  0  0
    7.4630   -4.9470  -50.5060 C   0  0  0  0  0  0  0  0  0  0  0  0
    8.3430   -3.2230  -52.1300 C   0  0  0  0  0  0  0  0  0  0  0  0
    7.8390   -2.1000  -52.9820 C   0  0  0  0  0  0  0  0  0  0  0  0
    8.5680   -0.9180  -53.1390 C   0  0  0  0  0  0  0  0  0  0  0  0
    8.1120    0.0630  -54.0150 C   0  0  0  0  0  0  0  0  0  0  0  0
    6.9300   -0.1550  -54.7150 C   0  0  0  0  0  0  0  0  0  0  0  0
    6.4650    0.8420  -55.7560 C   0  0  0  0  0  0  0  0  0  0  0  0
    7.5860    1.4290  -56.4620 N   0  0  0  0  0  0  0  0  0  0  0  0
    7.4110    2.5970  -57.1850 C   0  0  0  0  0  0  0  0  0  0  0  0
    6.3000    3.0920  -57.3580 O   0  0  0  0  0  0  0  0  0  0  0  0
    8.6600    3.2100  -57.6820 C   0  0  0  0  0  0  0  0  0  0  0  0
    9.9920    2.9300  -57.2760 C   0  0  0  0  0  0  0  0  0  0  0  0
   10.7840    3.7400  -58.0500 C   0  0  0  0  0  0  0  0  0  0  0  0
   12.1780    3.9670  -58.1800 C   0  0  0  0  0  0  0  0  0  0  0  0
   13.0170    3.2890  -57.3710 F   0  0  0  0  0  0  0  0  0  0  0  0
   12.6420    4.8410  -59.0880 C   0  0  0  0  0  0  0  0  0  0  0  0
   13.9640    5.0690  -59.2180 F   0  0  0  0  0  0  0  0  0  0  0  0
   11.7430    5.5760  -59.9580 C   0  0  0  0  0  0  0  0  0  0  0  0
   10.4200    5.3700  -59.8340 C   0  0  0  0  0  0  0  0  0  0  0  0
    9.9350    4.4610  -58.8860 N   0  0  0  0  0  0  0  0  0  0  0  0
    8.6390    4.1610  -58.6330 N   0  0  0  0  0  0  0  0  0  0  0  0
    6.1900   -1.2840  -54.5560 N   0  0  0  0  0  0  0  0  0  0  0  0
    6.6510   -2.2160  -53.6950 C   0  0  0  0  0  0  0  0  0  0  0  0
    7.6353   -3.1244  -48.8142 H   0  0  0  0  0  0  0  0  0  0  0  0
    8.9251   -2.3718  -49.8126 H   0  0  0  0  0  0  0  0  0  0  0  0
    7.2687   -1.6768  -49.8126 H   0  0  0  0  0  0  0  0  0  0  0  0
    6.5120   -3.2640  -51.1730 H   0  0  0  0  0  0  0  0  0  0  0  0
    7.4622   -5.0198  -49.4084 H   0  0  0  0  0  0  0  0  0  0  0  0
    6.5595   -5.4302  -50.9062 H   0  0  0  0  0  0  0  0  0  0  0  0
    8.3556   -5.4500  -50.9062 H   0  0  0  0  0  0  0  0  0  0  0  0
    9.3573   -2.9711  -51.7869 H   0  0  0  0  0  0  0  0  0  0  0  0
    8.3248   -4.1316  -52.7498 H   0  0  0  0  0  0  0  0  0  0  0  0
    9.4983   -0.7635  -52.5727 H   0  0  0  0  0  0  0  0  0  0  0  0
    8.6778    0.9964  -54.1516 H   0  0  0  0  0  0  0  0  0  0  0  0
    5.8157    0.3276  -56.4797 H   0  0  0  0  0  0  0  0  0  0  0  0
    5.9172    1.6472  -55.2446 H   0  0  0  0  0  0  0  0  0  0  0  0
    8.5010    1.2470  -56.0710 H   0  0  0  0  0  0  0  0  0  0  0  0
   10.3188    2.2162  -56.5055 H   0  0  0  0  0  0  0  0  0  0  0  0
   12.1347    6.2854  -60.7019 H   0  0  0  0  0  0  0  0  0  0  0  0
    9.7169    5.9172  -60.4791 H   0  0  0  0  0  0  0  0  0  0  0  0
    6.0487   -3.1247  -53.5482 H   0  0  0  0  0  0  0  0  0  0  0  0
  1  2  1  0
  2  3  1  0
  2  4  1  0
  4  5  1  0
  5  6  2  0
  6  7  1  0
  7  8  2  0
  8  9  1  0
  9 10  1  0
 10 11  1  0
 11 12  2  0
 11 13  1  0
 13 14  1  0
 14 15  2  0
 15 16  1  0
 16 17  1  0
 16 18  2  0
 18 19  1  0
 18 20  1  0
 20 21  2  0
 21 22  1  0
 22 23  1  0
  8 24  1  0
 24 25  2  0
 25  5  1  0
 23 13  2  0
 22 15  1  0
  1 26  1  0
  1 27  1  0
  1 28  1  0
  2 29  1  0
  3 30  1  0
  3 31  1  0
  3 32  1  0
  4 33  1  0
  4 34  1  0
  6 35  1  0
  7 36  1  0
  9 37  1  0
  9 38  1  0
 10 39  1  0
 14 40  1  0
 20 41  1  0
 21 42  1  0
 25 43  1  0
M  CHG  1   2   1
M  END
>  <meeko>  (118) 
{"is_sidechain": false}

$$$$

     RDKit          3D

 52 55  0  0  0  0  0  0  0  0999 V2000
    6.5330   -3.7600  -50.2910 C   0  0  0  0  0  0  0  0  0  0  0  0
    7.6730   -2.7710  -50.1110 C   0  0  0  0  0  0  0  0  0  0  0  0
    8.2370   -2.3200  -51.4140 C   0  0  0  0  0  0  0  0  0  0  0  0
    9.4110   -2.7840  -51.8460 N   0  0  0  0  0  0  0  0  0  0  0  0
    9.6940   -2.0540  -53.3170 S   0  0  0  0  0  0  0  0  0  0  0  0
    8.2190   -1.1640  -53.2930 C   0  0  0  0  0  0  0  0  0  0  0  0
    7.8010   -0.2450  -54.3630 C   0  0  0  0  0  0  0  0  0  0  0  0
    6.4640   -0.0160  -54.7050 C   0  0  0  0  0  0  0  0  0  0  0  0
    6.1770    0.8720  -55.7300 C   0  0  0  0  0  0  0  0  0  0  0  0
    7.1130    1.5440  -56.4270 N   0  0  0  0  0  0  0  0  0  0  0  0
    8.4080    1.3270  -56.0880 C   0  0  0  0  0  0  0  0  0  0  0  0
    9.4840    2.0210  -56.8700 C   0  0  0  0  0  0  0  0  0  0  0  0
   10.6470    1.6420  -56.6980 O   0  0  0  0  0  0  0  0  0  0  0  0
    9.1900    3.0580  -57.7510 N   0  0  0  0  0  0  0  0  0  0  0  0
    9.5520    2.9130  -59.1510 C   0  0  0  0  0  0  0  0  0  0  0  0
    9.3000    4.2720  -59.8020 C   0  0  2  0  0  0  0  0  0  0  0  0
   10.5890    5.1070  -59.8850 C   0  0  0  0  0  0  0  0  0  0  0  0
   11.8040    4.3220  -59.4710 C   0  0  2  0  0  0  0  0  0  0  0  0
   12.4730    4.5950  -58.1470 C   0  0  0  0  0  0  0  0  0  0  0  0
   13.1870    4.9370  -59.4290 C   0  0  2  0  0  0  0  0  0  0  0  0
   13.4510    6.3590  -59.7910 C   0  0  0  0  0  0  0  0  0  0  0  0
    8.1960    4.8650  -58.9190 C   0  0  0  0  0  0  0  0  0  0  0  0
    8.4190    4.2790  -57.5150 C   0  0  2  0  0  0  0  0  0  0  0  0
    9.1280    5.2630  -56.5870 C   0  0  0  0  0  0  0  0  0  0  0  0
    8.7850    0.4460  -55.0810 C   0  0  0  0  0  0  0  0  0  0  0  0
    7.5330   -1.4100  -52.1940 N   0  0  0  0  0  0  0  0  0  0  0  0
    6.1652   -4.0791  -49.3046 H   0  0  0  0  0  0  0  0  0  0  0  0
    5.7158   -3.2799  -50.8493 H   0  0  0  0  0  0  0  0  0  0  0  0
    6.8929   -4.6368  -50.8493 H   0  0  0  0  0  0  0  0  0  0  0  0
    7.2977   -1.8932  -49.5645 H   0  0  0  0  0  0  0  0  0  0  0  0
    8.4745   -3.2771  -49.5529 H   0  0  0  0  0  0  0  0  0  0  0  0
    5.6537   -0.5322  -54.1693 H   0  0  0  0  0  0  0  0  0  0  0  0
    5.1210    1.0377  -55.9897 H   0  0  0  0  0  0  0  0  0  0  0  0
   10.6128    2.6372  -59.2435 H   0  0  0  0  0  0  0  0  0  0  0  0
    8.9622    2.1216  -59.6366 H   0  0  0  0  0  0  0  0  0  0  0  0
    8.9858    4.2273  -60.8552 H   0  0  0  0  0  0  0  0  0  0  0  0
   10.7240    5.4475  -60.9222 H   0  0  0  0  0  0  0  0  0  0  0  0
   10.4852    5.9568  -59.1942 H   0  0  0  0  0  0  0  0  0  0  0  0
   11.3689    3.4437  -59.9703 H   0  0  0  0  0  0  0  0  0  0  0  0
   12.0966    5.3985  -57.4968 H   0  0  0  0  0  0  0  0  0  0  0  0
   12.7159    3.9902  -57.2609 H   0  0  0  0  0  0  0  0  0  0  0  0
   14.1517    4.6814  -59.8916 H   0  0  0  0  0  0  0  0  0  0  0  0
   13.5619    6.9563  -58.8740 H   0  0  0  0  0  0  0  0  0  0  0  0
   14.3760    6.4210  -60.3831 H   0  0  0  0  0  0  0  0  0  0  0  0
   12.6099    6.7489  -60.3831 H   0  0  0  0  0  0  0  0  0  0  0  0
    8.2748    5.9619  -58.8928 H   0  0  0  0  0  0  0  0  0  0  0  0
    7.1953    4.6202  -59.3046 H   0  0  0  0  0  0  0  0  0  0  0  0
    7.4741    4.0657  -56.9938 H   0  0  0  0  0  0  0  0  0  0  0  0
    8.9298    4.9879  -55.5405 H   0  0  0  0  0  0  0  0  0  0  0  0
   10.2111    5.2299  -56.7760 H   0  0  0  0  0  0  0  0  0  0  0  0
    8.7537    6.2800  -56.7760 H   0  0  0  0  0  0  0  0  0  0  0  0
    9.8494    0.2926  -54.8496 H   0  0  0  0  0  0  0  0  0  0  0  0
  1  2  1  0
  2  3  1  0
  3  4  2  0
  4  5  1  0
  5  6  1  0
  6  7  1  0
  7  8  2  0
  8  9  1  0
  9 10  2  0
 10 11  1  0
 11 12  1  0
 12 13  2  0
 12 14  1  0
 14 15  1  0
 15 16  1  0
 16 17  1  0
 17 18  1  0
 18 19  1  0
 19 20  1  0
 20 21  1  0
 16 22  1  0
 22 23  1  0
 23 24  1  0
 11 25  2  0
  6 26  2  0
 26  3  1  0
 25  7  1  0
 23 14  1  0
 20 18  1  0
  1 27  1  0
  1 28  1  0
  1 29  1  0
  2 30  1  0
  2 31  1  0
  8 32  1  0
  9 33  1  0
 15 34  1  0
 15 35  1  0
 16 36  1  6
 17 37  1  0
 17 38  1  0
 18 39  1  6
 19 40  1  0
 19 41  1  0
 20 42  1  6
 21 43  1  0
 21 44  1  0
 21 45  1  0
 22 46  1  0
 22 47  1  0
 23 48  1  1
 24 49  1  0
 24 50  1  0
 24 51  1  0
 25 52  1  0
M  END
>  <meeko>  (119) 
{"is_sidechain": false}

$$$$

     RDKit          3D

 49 52  0  0  0  0  0  0  0  0999 V2000
   13.3120    6.6130  -59.7970 C   0  0  0  0  0  0  0  0  0  0  0  0
   13.1210    5.1620  -59.5150 C   0  0  1  0  0  0  0  0  0  0  0  0
   12.4990    4.7130  -58.2170 C   0  0  0  0  0  0  0  0  0  0  0  0
   11.7580    4.4990  -59.5150 C   0  0  1  0  0  0  0  0  0  0  0  0
   10.4950    5.2610  -59.8030 C   0  0  0  0  0  0  0  0  0  0  0  0
    9.2430    4.3780  -59.6870 C   0  0  2  0  0  0  0  0  0  0  0  0
    8.1600    4.9100  -58.7390 C   0  0  0  0  0  0  0  0  0  0  0  0
    8.4680    4.2980  -57.3660 C   0  0  2  0  0  0  0  0  0  0  0  0
    9.2120    5.2630  -56.4470 C   0  0  0  0  0  0  0  0  0  0  0  0
    9.2370    3.0910  -57.6760 N   0  0  0  0  0  0  0  0  0  0  0  0
    9.6120    2.0560  -56.8350 C   0  0  0  0  0  0  0  0  0  0  0  0
   10.7800    1.7210  -56.6560 O   0  0  0  0  0  0  0  0  0  0  0  0
    8.5760    1.3040  -56.1170 C   0  0  0  0  0  0  0  0  0  0  0  0
    7.2470    1.5280  -56.4290 C   0  0  0  0  0  0  0  0  0  0  0  0
    6.2290    0.8790  -55.8230 N   0  0  0  0  0  0  0  0  0  0  0  0
    6.5650    0.0010  -54.8420 C   0  0  0  0  0  0  0  0  0  0  0  0
    7.8690   -0.2670  -54.4080 C   0  0  0  0  0  0  0  0  0  0  0  0
    8.1240   -1.2160  -53.3160 C   0  0  0  0  0  0  0  0  0  0  0  0
    7.1710   -1.5800  -52.3630 C   0  0  0  0  0  0  0  0  0  0  0  0
    7.4160   -2.4500  -51.3500 N   0  0  0  0  0  0  0  0  0  0  0  0
    8.6640   -2.9640  -51.3220 C   0  0  0  0  0  0  0  0  0  0  0  0
    9.6200   -2.6240  -52.2600 C   0  0  0  0  0  0  0  0  0  0  0  0
    9.3730   -1.7520  -53.2670 N   0  0  0  0  0  0  0  0  0  0  0  0
    8.8900    0.4190  -55.0820 C   0  0  0  0  0  0  0  0  0  0  0  0
    9.5710    3.0110  -59.0890 C   0  0  0  0  0  0  0  0  0  0  0  0
   13.3846    7.1645  -58.8480 H   0  0  0  0  0  0  0  0  0  0  0  0
   14.2366    6.7555  -60.3756 H   0  0  0  0  0  0  0  0  0  0  0  0
   12.4557    6.9899  -60.3756 H   0  0  0  0  0  0  0  0  0  0  0  0
   14.0634    4.9723  -60.0498 H   0  0  0  0  0  0  0  0  0  0  0  0
   12.9186    3.8522  -57.6758 H   0  0  0  0  0  0  0  0  0  0  0  0
   12.2628    5.2011  -57.2599 H   0  0  0  0  0  0  0  0  0  0  0  0
   11.3226    3.6386  -60.0442 H   0  0  0  0  0  0  0  0  0  0  0  0
   10.4107    6.0905  -59.0855 H   0  0  0  0  0  0  0  0  0  0  0  0
   10.5525    5.6297  -60.8378 H   0  0  0  0  0  0  0  0  0  0  0  0
    8.8827    4.3484  -60.7259 H   0  0  0  0  0  0  0  0  0  0  0  0
    8.2023    6.0080  -58.6870 H   0  0  0  0  0  0  0  0  0  0  0  0
    7.1513    4.6403  -59.0851 H   0  0  0  0  0  0  0  0  0  0  0  0
    7.5547    4.0653  -56.7987 H   0  0  0  0  0  0  0  0  0  0  0  0
    9.0094    5.0003  -55.3982 H   0  0  0  0  0  0  0  0  0  0  0  0
   10.2927    5.1937  -56.6402 H   0  0  0  0  0  0  0  0  0  0  0  0
    8.8701    6.2905  -56.6402 H   0  0  0  0  0  0  0  0  0  0  0  0
    7.0082    2.2687  -57.2064 H   0  0  0  0  0  0  0  0  0  0  0  0
    5.7462   -0.5434  -54.3488 H   0  0  0  0  0  0  0  0  0  0  0  0
    6.1666   -1.1377  -52.4369 H   0  0  0  0  0  0  0  0  0  0  0  0
    8.9284   -3.6765  -50.5268 H   0  0  0  0  0  0  0  0  0  0  0  0
   10.6191   -3.0784  -52.1863 H   0  0  0  0  0  0  0  0  0  0  0  0
    9.9400    0.2601  -54.7953 H   0  0  0  0  0  0  0  0  0  0  0  0
   10.6406    2.7871  -59.2152 H   0  0  0  0  0  0  0  0  0  0  0  0
    9.0049    2.2108  -59.5882 H   0  0  0  0  0  0  0  0  0  0  0  0
  1  2  1  0
  2  3  1  0
  3  4  1  0
  4  5  1  0
  5  6  1  0
  6  7  1  0
  7  8  1  0
  8  9  1  0
  8 10  1  0
 10 11  1  0
 11 12  2  0
 11 13  1  0
 13 14  1  0
 14 15  2  0
 15 16  1  0
 16 17  2  0
 17 18  1  0
 18 19  2  0
 19 20  1  0
 20 21  2  0
 21 22  1  0
 22 23  2  0
 17 24  1  0
 10 25  1  0
  4  2  1  0
 25  6  1  0
 24 13  2  0
 23 18  1  0
  1 26  1  0
  1 27  1  0
  1 28  1  0
  2 29  1  6
  3 30  1  0
  3 31  1  0
  4 32  1  6
  5 33  1  0
  5 34  1  0
  6 35  1  6
  7 36  1  0
  7 37  1  0
  8 38  1  1
  9 39  1  0
  9 40  1  0
  9 41  1  0
 14 42  1  0
 16 43  1  0
 19 44  1  0
 21 45  1  0
 22 46  1  0
 24 47  1  0
 25 48  1  0
 25 49  1  0
M  END
>  <meeko>  (120) 
{"is_sidechain": false}

$$$$

     RDKit          3D

 55 58  0  0  0  0  0  0  0  0999 V2000
    8.0240    6.2130  -59.0630 C   0  0  0  0  0  0  0  0  0  0  0  0
    8.8270    5.1010  -58.4650 C   0  0  0  0  0  0  0  0  0  0  0  0
    8.1640    4.1320  -57.8130 N   0  0  0  0  0  0  0  0  0  0  0  0
    8.8800    3.1120  -57.2960 C   0  0  0  0  0  0  0  0  0  0  0  0
    8.0960    2.0830  -56.5860 C   0  0  0  0  0  0  0  0  0  0  0  0
    6.7350    1.8720  -56.8390 C   0  0  0  0  0  0  0  0  0  0  0  0
    6.0610    0.8840  -56.1390 C   0  0  0  0  0  0  0  0  0  0  0  0
    6.6340    0.0960  -55.2090 N   0  0  0  0  0  0  0  0  0  0  0  0
    7.9530    0.2870  -54.9610 C   0  0  0  0  0  0  0  0  0  0  0  0
    8.6470   -0.5820  -53.9420 C   0  0  0  0  0  0  0  0  0  0  0  0
    8.3460   -0.4240  -52.7540 O   0  0  0  0  0  0  0  0  0  0  0  0
    9.5950   -1.5360  -54.3150 N   0  0  0  0  0  0  0  0  0  0  0  0
   10.6670   -1.3800  -55.2870 C   0  0  0  0  0  0  0  0  0  0  0  0
   11.3920   -2.7280  -55.3460 C   0  0  2  0  0  0  0  0  0  0  0  0
   10.9140   -3.5790  -56.5350 C   0  0  0  0  0  0  0  0  0  0  0  0
   12.0200   -3.8550  -57.5170 C   0  0  2  0  0  0  0  0  0  0  0  0
   11.7610   -4.7050  -58.7370 C   0  0  0  0  0  0  0  0  0  0  0  0
   12.6640   -5.2200  -57.6460 C   0  0  2  0  0  0  0  0  0  0  0  0
   12.2540   -6.3880  -56.8150 C   0  0  0  0  0  0  0  0  0  0  0  0
   11.1040   -3.3280  -53.9650 C   0  0  0  0  0  0  0  0  0  0  0  0
    9.7420   -2.7680  -53.5460 C   0  0  2  0  0  0  0  0  0  0  0  0
    8.5970   -3.7520  -53.7800 C   0  0  0  0  0  0  0  0  0  0  0  0
    8.7030    1.2540  -55.6280 C   0  0  0  0  0  0  0  0  0  0  0  0
   10.2530    3.0510  -57.4420 C   0  0  0  0  0  0  0  0  0  0  0  0
   10.8670    4.0850  -58.1290 C   0  0  0  0  0  0  0  0  0  0  0  0
   12.3730    4.0380  -58.3310 C   0  0  0  0  0  0  0  0  0  0  0  0
   12.7230    3.3730  -59.4700 F   0  0  0  0  0  0  0  0  0  0  0  0
   12.9700    5.2590  -58.4080 F   0  0  0  0  0  0  0  0  0  0  0  0
   13.0100    3.3790  -57.3180 F   0  0  0  0  0  0  0  0  0  0  0  0
   10.1560    5.1150  -58.6520 N   0  0  0  0  0  0  0  0  0  0  0  0
    7.5846    6.8215  -58.2589 H   0  0  0  0  0  0  0  0  0  0  0  0
    8.6767    6.8433  -59.6849 H   0  0  0  0  0  0  0  0  0  0  0  0
    7.2204    5.7917  -59.6849 H   0  0  0  0  0  0  0  0  0  0  0  0
    6.2067    2.4837  -57.5851 H   0  0  0  0  0  0  0  0  0  0  0  0
    4.9931    0.7342  -56.3561 H   0  0  0  0  0  0  0  0  0  0  0  0
   10.2526   -1.1267  -56.2740 H   0  0  0  0  0  0  0  0  0  0  0  0
   11.3526   -0.5691  -55.0000 H   0  0  0  0  0  0  0  0  0  0  0  0
   12.4739   -2.6562  -55.5313 H   0  0  0  0  0  0  0  0  0  0  0  0
   10.5314   -4.5373  -56.1537 H   0  0  0  0  0  0  0  0  0  0  0  0
   10.1289   -3.0151  -57.0601 H   0  0  0  0  0  0  0  0  0  0  0  0
   12.4013   -2.8409  -57.3263 H   0  0  0  0  0  0  0  0  0  0  0  0
   10.7707   -5.1587  -58.8901 H   0  0  0  0  0  0  0  0  0  0  0  0
   11.8618   -4.5562  -59.8222 H   0  0  0  0  0  0  0  0  0  0  0  0
   13.6993   -5.5861  -57.5811 H   0  0  0  0  0  0  0  0  0  0  0  0
   12.3446   -6.1298  -55.7496 H   0  0  0  0  0  0  0  0  0  0  0  0
   11.2100   -6.6505  -57.0412 H   0  0  0  0  0  0  0  0  0  0  0  0
   12.9049   -7.2454  -57.0412 H   0  0  0  0  0  0  0  0  0  0  0  0
   11.0656   -4.4257  -54.0242 H   0  0  0  0  0  0  0  0  0  0  0  0
   11.8894   -3.0712  -53.2389 H   0  0  0  0  0  0  0  0  0  0  0  0
    9.6973   -2.5797  -52.4632 H   0  0  0  0  0  0  0  0  0  0  0  0
    8.2017   -4.0917  -52.8113 H   0  0  0  0  0  0  0  0  0  0  0  0
    7.7970   -3.2552  -54.3486 H   0  0  0  0  0  0  0  0  0  0  0  0
    8.9678   -4.6176  -54.3486 H   0  0  0  0  0  0  0  0  0  0  0  0
    9.7738    1.3684  -55.4035 H   0  0  0  0  0  0  0  0  0  0  0  0
   10.8352    2.2141  -57.0288 H   0  0  0  0  0  0  0  0  0  0  0  0
  1  2  1  0
  2  3  2  0
  3  4  1  0
  4  5  1  0
  5  6  2  0
  6  7  1  0
  7  8  2  0
  8  9  1  0
  9 10  1  0
 10 11  2  0
 10 12  1  0
 12 13  1  0
 13 14  1  0
 14 15  1  0
 15 16  1  0
 16 17  1  0
 17 18  1  0
 18 19  1  0
 14 20  1  0
 20 21  1  0
 21 22  1  0
  9 23  2  0
  4 24  2  0
 24 25  1  0
 25 26  1  0
 26 27  1  0
 26 28  1  0
 26 29  1  0
 25 30  2  0
 30  2  1  0
 23  5  1  0
 21 12  1  0
 18 16  1  0
  1 31  1  0
  1 32  1  0
  1 33  1  0
  6 34  1  0
  7 35  1  0
 13 36  1  0
 13 37  1  0
 14 38  1  6
 15 39  1  0
 15 40  1  0
 16 41  1  6
 17 42  1  0
 17 43  1  0
 18 44  1  6
 19 45  1  0
 19 46  1  0
 19 47  1  0
 20 48  1  0
 20 49  1  0
 21 50  1  1
 22 51  1  0
 22 52  1  0
 22 53  1  0
 23 54  1  0
 24 55  1  0
M  END
>  <meeko>  (121) 
{"is_sidechain": false}

$$$$

     RDKit          3D

 33 35  0  0  0  0  0  0  0  0999 V2000
    2.8640    0.7910  -62.6020 C   0  0  0  0  0  0  0  0  0  0  0  0
    4.0250    1.3770  -61.9130 C   0  0  0  0  0  0  0  0  0  0  0  0
    4.3520    1.3490  -60.6430 N   0  0  0  0  0  0  0  0  0  0  0  0
    5.5280    2.0670  -60.6190 C   0  0  0  0  0  0  0  0  0  0  0  0
    6.2700    2.3040  -59.3870 C   0  0  0  0  0  0  0  0  0  0  0  0
    5.6090    2.4990  -58.1730 C   0  0  0  0  0  0  0  0  0  0  0  0
    6.3660    2.7160  -57.0360 C   0  0  0  0  0  0  0  0  0  0  0  0
    7.7130    2.7570  -57.0280 N   0  0  0  0  0  0  0  0  0  0  0  0
    8.3490    2.5720  -58.2140 C   0  0  0  0  0  0  0  0  0  0  0  0
    9.8540    2.5800  -58.2400 C   0  0  0  0  0  0  0  0  0  0  0  0
   10.4510    1.5910  -57.8080 O   0  0  0  0  0  0  0  0  0  0  0  0
   10.5510    3.6710  -58.7400 N   0  0  0  0  0  0  0  0  0  0  0  0
   12.0030    3.6920  -58.7140 C   0  0  0  0  0  0  0  0  0  0  0  0
   12.3700    5.1160  -59.0980 C   0  0  0  0  0  0  0  0  0  0  0  0
   11.2420    5.5090  -60.0420 C   0  0  0  0  0  0  0  0  0  0  0  0
   10.0220    4.8510  -59.4100 C   0  0  0  0  0  0  0  0  0  0  0  0
    7.6670    2.3380  -59.4040 C   0  0  0  0  0  0  0  0  0  0  0  0
    5.9140    2.5160  -61.8260 N   0  0  0  0  0  0  0  0  0  0  0  0
    4.9160    2.0600  -62.6850 O   0  0  0  0  0  0  0  0  0  0  0  0
    2.1413    0.4262  -61.8572 H   0  0  0  0  0  0  0  0  0  0  0  0
    2.3868    1.5562  -63.2319 H   0  0  0  0  0  0  0  0  0  0  0  0
    3.1962   -0.0474  -63.2319 H   0  0  0  0  0  0  0  0  0  0  0  0
    4.5103    2.4805  -58.1218 H   0  0  0  0  0  0  0  0  0  0  0  0
    5.8377    2.8638  -56.0825 H   0  0  0  0  0  0  0  0  0  0  0  0
   12.3774    3.4519  -57.7079 H   0  0  0  0  0  0  0  0  0  0  0  0
   12.4443    2.9485  -59.3940 H   0  0  0  0  0  0  0  0  0  0  0  0
   12.3946    5.7712  -58.2148 H   0  0  0  0  0  0  0  0  0  0  0  0
   13.3686    5.2025  -59.5511 H   0  0  0  0  0  0  0  0  0  0  0  0
   11.1244    6.6019  -60.0843 H   0  0  0  0  0  0  0  0  0  0  0  0
   11.4160    5.1926  -61.0810 H   0  0  0  0  0  0  0  0  0  0  0  0
    9.5459    5.5286  -58.6860 H   0  0  0  0  0  0  0  0  0  0  0  0
    9.2501    4.6000  -60.1524 H   0  0  0  0  0  0  0  0  0  0  0  0
    8.2185    2.1823  -60.3429 H   0  0  0  0  0  0  0  0  0  0  0  0
  1  2  1  0
  2  3  2  0
  3  4  1  0
  4  5  1  0
  5  6  2  0
  6  7  1  0
  7  8  2  0
  8  9  1  0
  9 10  1  0
 10 11  2  0
 10 12  1  0
 12 13  1  0
 13 14  1  0
 14 15  1  0
 15 16  1  0
  9 17  2  0
  4 18  2  0
 18 19  1  0
 19  2  1  0
 17  5  1  0
 16 12  1  0
  1 20  1  0
  1 21  1  0
  1 22  1  0
  6 23  1  0
  7 24  1  0
 13 25  1  0
 13 26  1  0
 14 27  1  0
 14 28  1  0
 15 29  1  0
 15 30  1  0
 16 31  1  0
 16 32  1  0
 17 33  1  0
M  END
>  <meeko>  (122) 
{"is_sidechain": false}

$$$$

     RDKit          3D

 40 43  0  0  0  0  0  0  0  0999 V2000
    8.4820    1.5980  -61.3320 O   0  0  0  0  0  0  0  0  0  0  0  0
    8.0200    2.6370  -60.8740 C   0  0  0  0  0  0  0  0  0  0  0  0
    6.6920    3.0180  -60.9330 N   0  0  0  0  0  0  0  0  0  0  0  0
    5.6040    2.2860  -61.4580 C   0  0  0  0  0  0  0  0  0  0  0  0
    5.2370    2.2670  -62.8030 C   0  0  0  0  0  0  0  0  0  0  0  0
    4.1400    1.5030  -63.2230 C   0  0  0  0  0  0  0  0  0  0  0  0
    3.4050    0.7520  -62.3050 C   0  0  0  0  0  0  0  0  0  0  0  0
    3.7640    0.7620  -60.9610 C   0  0  0  0  0  0  0  0  0  0  0  0
    4.8550    1.5240  -60.5510 C   0  0  0  0  0  0  0  0  0  0  0  0
    5.1930    1.5240  -59.2510 F   0  0  0  0  0  0  0  0  0  0  0  0
    8.9070    3.6990  -60.2020 C   0  0  2  0  0  0  0  0  0  0  0  0
   10.2390    3.1280  -59.6490 C   0  0  1  0  0  0  0  0  0  0  0  0
   11.1330    4.3150  -59.2290 C   0  0  0  0  0  0  0  0  0  0  0  0
   10.4380    5.1400  -58.1300 C   0  0  2  0  0  0  0  0  0  0  0  0
   10.1800    4.2410  -56.9090 C   0  0  0  0  0  0  0  0  0  0  0  0
    9.2900    3.0530  -57.3090 C   0  0  2  0  0  0  0  0  0  0  0  0
    9.9970    2.2450  -58.4080 C   0  0  0  0  0  0  0  0  0  0  0  0
    7.9520    3.5760  -57.8550 C   0  0  0  0  0  0  0  0  0  0  0  0
    8.1880    4.4840  -59.0770 C   0  0  1  0  0  0  0  0  0  0  0  0
    9.0900    5.6620  -58.6550 C   0  0  0  0  0  0  0  0  0  0  0  0
    6.4500    3.9450  -60.5990 H   0  0  0  0  0  0  0  0  0  0  0  0
    5.8101    2.8533  -63.5363 H   0  0  0  0  0  0  0  0  0  0  0  0
    3.8558    1.4952  -64.2856 H   0  0  0  0  0  0  0  0  0  0  0  0
    2.5453    0.1545  -62.6426 H   0  0  0  0  0  0  0  0  0  0  0  0
    3.1914    0.1735  -60.2290 H   0  0  0  0  0  0  0  0  0  0  0  0
    9.1376    4.3975  -61.0199 H   0  0  0  0  0  0  0  0  0  0  0  0
   10.7129    2.5158  -60.4304 H   0  0  0  0  0  0  0  0  0  0  0  0
   12.0899    3.9315  -58.8454 H   0  0  0  0  0  0  0  0  0  0  0  0
   11.3103    4.9584  -60.1034 H   0  0  0  0  0  0  0  0  0  0  0  0
   11.0808    5.9865  -57.8469 H   0  0  0  0  0  0  0  0  0  0  0  0
   11.1394    3.8642  -56.5249 H   0  0  0  0  0  0  0  0  0  0  0  0
    9.6706    4.8275  -56.1302 H   0  0  0  0  0  0  0  0  0  0  0  0
    9.1074    2.4166  -56.4306 H   0  0  0  0  0  0  0  0  0  0  0  0
   10.9629    1.8818  -58.0270 H   0  0  0  0  0  0  0  0  0  0  0  0
    9.3604    1.3942  -58.6925 H   0  0  0  0  0  0  0  0  0  0  0  0
    7.3241    2.7234  -58.1530 H   0  0  0  0  0  0  0  0  0  0  0  0
    7.4497    4.1592  -57.0691 H   0  0  0  0  0  0  0  0  0  0  0  0
    7.2166    4.8446  -59.4462 H   0  0  0  0  0  0  0  0  0  0  0  0
    9.2664    6.3134  -59.5237 H   0  0  0  0  0  0  0  0  0  0  0  0
    8.5893    6.2278  -57.8556 H   0  0  0  0  0  0  0  0  0  0  0  0
  1  2  2  0
  2  3  1  0
  3  4  1  0
  4  5  2  0
  5  6  1  0
  6  7  2  0
  7  8  1  0
  8  9  2  0
  9 10  1  0
  2 11  1  0
 11 12  1  0
 12 13  1  0
 13 14  1  0
 14 15  1  0
 15 16  1  0
 16 17  1  0
 16 18  1  0
 18 19  1  0
 19 20  1  0
  9  4  1  0
 19 11  1  0
 17 12  1  0
 20 14  1  0
  3 21  1  0
  5 22  1  0
  6 23  1  0
  7 24  1  0
  8 25  1  0
 11 26  1  1
 12 27  1  1
 13 28  1  0
 13 29  1  0
 14 30  1  6
 15 31  1  0
 15 32  1  0
 16 33  1  6
 17 34  1  0
 17 35  1  0
 18 36  1  0
 18 37  1  0
 19 38  1  1
 20 39  1  0
 20 40  1  0
M  END
>  <meeko>  (123) 
{"is_sidechain": false}

$$$$

     RDKit          3D

 38 41  0  0  0  0  0  0  0  0999 V2000
    7.5530    5.1540  -59.4880 O   0  0  0  0  0  0  0  0  0  0  0  0
    8.2430    4.1910  -59.7970 C   0  0  0  0  0  0  0  0  0  0  0  0
    7.7380    2.9480  -60.1120 N   0  0  0  0  0  0  0  0  0  0  0  0
    6.3740    2.6150  -60.0940 C   0  0  0  0  0  0  0  0  0  0  0  0
    5.9160    2.2550  -61.3220 N   0  0  0  0  0  0  0  0  0  0  0  0
    4.6030    1.9450  -61.3910 C   0  0  0  0  0  0  0  0  0  0  0  0
    4.0350    1.5340  -62.9510 Cl  0  0  0  0  0  0  0  0  0  0  0  0
    3.7690    1.9490  -60.2880 C   0  0  0  0  0  0  0  0  0  0  0  0
    4.2180    2.2450  -59.0450 N   0  0  0  0  0  0  0  0  0  0  0  0
    5.5360    2.5750  -58.9640 C   0  0  0  0  0  0  0  0  0  0  0  0
    6.0740    2.6460  -57.3310 Cl  0  0  0  0  0  0  0  0  0  0  0  0
    9.7750    4.2600  -59.8820 C   0  0  2  0  0  0  0  0  0  0  0  0
   10.4760    2.9570  -59.4160 C   0  0  1  0  0  0  0  0  0  0  0  0
   11.9690    3.0560  -59.7920 C   0  0  0  0  0  0  0  0  0  0  0  0
   12.6160    4.2630  -59.0860 C   0  0  2  0  0  0  0  0  0  0  0  0
   12.4870    4.0870  -57.5630 C   0  0  0  0  0  0  0  0  0  0  0  0
   11.0030    3.9860  -57.1710 C   0  0  2  0  0  0  0  0  0  0  0  0
   10.3790    2.7800  -57.8870 C   0  0  0  0  0  0  0  0  0  0  0  0
   10.2680    5.2640  -57.6050 C   0  0  0  0  0  0  0  0  0  0  0  0
   10.3930    5.4630  -59.1280 C   0  0  1  0  0  0  0  0  0  0  0  0
   11.8870    5.5530  -59.5000 C   0  0  0  0  0  0  0  0  0  0  0  0
    8.2560    2.3890  -60.7760 H   0  0  0  0  0  0  0  0  0  0  0  0
    2.7055    1.7036  -60.4247 H   0  0  0  0  0  0  0  0  0  0  0  0
    9.9619    4.3978  -60.9572 H   0  0  0  0  0  0  0  0  0  0  0  0
    9.9847    2.1007  -59.9012 H   0  0  0  0  0  0  0  0  0  0  0  0
   12.4838    2.1347  -59.4818 H   0  0  0  0  0  0  0  0  0  0  0  0
   12.0573    3.1869  -60.8806 H   0  0  0  0  0  0  0  0  0  0  0  0
   13.6765    4.3273  -59.3708 H   0  0  0  0  0  0  0  0  0  0  0  0
   13.0084    3.1682  -57.2566 H   0  0  0  0  0  0  0  0  0  0  0  0
   12.9362    4.9554  -57.0589 H   0  0  0  0  0  0  0  0  0  0  0  0
   10.9161    3.8648  -56.0812 H   0  0  0  0  0  0  0  0  0  0  0  0
   10.9153    1.8658  -57.5927 H   0  0  0  0  0  0  0  0  0  0  0  0
    9.3194    2.7033  -57.6019 H   0  0  0  0  0  0  0  0  0  0  0  0
    9.2047    5.1799  -57.3363 H   0  0  0  0  0  0  0  0  0  0  0  0
   10.7193    6.1270  -57.0936 H   0  0  0  0  0  0  0  0  0  0  0  0
    9.8622    6.3841  -59.4107 H   0  0  0  0  0  0  0  0  0  0  0  0
   11.9831    5.6919  -60.5870 H   0  0  0  0  0  0  0  0  0  0  0  0
   12.3379    6.4057  -58.9712 H   0  0  0  0  0  0  0  0  0  0  0  0
  1  2  2  0
  2  3  1  0
  3  4  1  0
  4  5  1  0
  5  6  2  0
  6  7  1  0
  6  8  1  0
  8  9  2  0
  9 10  1  0
 10 11  1  0
  2 12  1  0
 12 13  1  0
 13 14  1  0
 14 15  1  0
 15 16  1  0
 16 17  1  0
 17 18  1  0
 17 19  1  0
 19 20  1  0
 20 21  1  0
 10  4  2  0
 20 12  1  0
 18 13  1  0
 21 15  1  0
  3 22  1  0
  8 23  1  0
 12 24  1  1
 13 25  1  1
 14 26  1  0
 14 27  1  0
 15 28  1  6
 16 29  1  0
 16 30  1  0
 17 31  1  6
 18 32  1  0
 18 33  1  0
 19 34  1  0
 19 35  1  0
 20 36  1  1
 21 37  1  0
 21 38  1  0
M  END
>  <meeko>  (124) 
{"is_sidechain": false}

$$$$

     RDKit          3D

 41 45  0  0  0  0  0  0  0  0999 V2000
    7.6800    5.0540  -59.4400 O   0  0  0  0  0  0  0  0  0  0  0  0
    8.4380    4.2590  -59.9820 C   0  0  0  0  0  0  0  0  0  0  0  0
    8.0690    3.1090  -60.6460 N   0  0  0  0  0  0  0  0  0  0  0  0
    6.7960    2.6630  -60.8990 C   0  0  0  0  0  0  0  0  0  0  0  0
    6.3560    2.5940  -62.1370 N   0  0  0  0  0  0  0  0  0  0  0  0
    5.0510    2.1290  -62.1230 C   0  0  0  0  0  0  0  0  0  0  0  0
    4.2080    1.9010  -63.2230 C   0  0  0  0  0  0  0  0  0  0  0  0
    2.9200    1.4270  -62.9710 C   0  0  0  0  0  0  0  0  0  0  0  0
    2.5310    1.2040  -61.6580 C   0  0  0  0  0  0  0  0  0  0  0  0
    3.2990    1.4060  -60.5640 N   0  0  0  0  0  0  0  0  0  0  0  0
    4.5350    1.8630  -60.8590 C   0  0  0  0  0  0  0  0  0  0  0  0
    5.7060    2.2020  -59.6730 S   0  0  0  0  0  0  0  0  0  0  0  0
    9.9660    4.4340  -59.9290 C   0  0  2  0  0  0  0  0  0  0  0  0
   10.7260    3.1230  -59.6000 C   0  0  1  0  0  0  0  0  0  0  0  0
   12.2340    3.3720  -59.8150 C   0  0  0  0  0  0  0  0  0  0  0  0
   12.7250    4.4930  -58.8790 C   0  0  2  0  0  0  0  0  0  0  0  0
   12.4840    4.0750  -57.4190 C   0  0  0  0  0  0  0  0  0  0  0  0
   10.9840    3.8230  -57.1870 C   0  0  2  0  0  0  0  0  0  0  0  0
   10.5120    2.7060  -58.1300 C   0  0  0  0  0  0  0  0  0  0  0  0
   10.1950    5.1060  -57.4920 C   0  0  0  0  0  0  0  0  0  0  0  0
   10.4280    5.5430  -58.9510 C   0  0  1  0  0  0  0  0  0  0  0  0
   11.9360    5.7830  -59.1650 C   0  0  0  0  0  0  0  0  0  0  0  0
    8.7790    2.4630  -60.9630 H   0  0  0  0  0  0  0  0  0  0  0  0
    4.5522    2.0901  -64.2505 H   0  0  0  0  0  0  0  0  0  0  0  0
    2.2239    1.2332  -63.8004 H   0  0  0  0  0  0  0  0  0  0  0  0
    1.5095    0.8306  -61.4930 H   0  0  0  0  0  0  0  0  0  0  0  0
   10.2249    4.7419  -60.9528 H   0  0  0  0  0  0  0  0  0  0  0  0
   10.3477    2.3229  -60.2532 H   0  0  0  0  0  0  0  0  0  0  0  0
   12.7897    2.4478  -59.5983 H   0  0  0  0  0  0  0  0  0  0  0  0
   12.4033    3.6750  -60.8588 H   0  0  0  0  0  0  0  0  0  0  0  0
   13.7977    4.6680  -59.0485 H   0  0  0  0  0  0  0  0  0  0  0  0
   13.0458    3.1536  -57.2060 H   0  0  0  0  0  0  0  0  0  0  0  0
   12.8234    4.8804  -56.7511 H   0  0  0  0  0  0  0  0  0  0  0  0
   10.8164    3.5280  -56.1406 H   0  0  0  0  0  0  0  0  0  0  0  0
   11.0863    1.7905  -57.9248 H   0  0  0  0  0  0  0  0  0  0  0  0
    9.4405    2.5232  -57.9614 H   0  0  0  0  0  0  0  0  0  0  0  0
    9.1224    4.9180  -57.3364 H   0  0  0  0  0  0  0  0  0  0  0  0
   10.5388    5.9058  -56.8197 H   0  0  0  0  0  0  0  0  0  0  0  0
    9.8531    6.4609  -59.1433 H   0  0  0  0  0  0  0  0  0  0  0  0
   12.1106    6.0925  -60.2060 H   0  0  0  0  0  0  0  0  0  0  0  0
   12.2753    6.5714  -58.4770 H   0  0  0  0  0  0  0  0  0  0  0  0
  1  2  2  0
  2  3  1  0
  3  4  1  0
  4  5  2  0
  5  6  1  0
  6  7  1  0
  7  8  2  0
  8  9  1  0
  9 10  2  0
 10 11  1  0
 11 12  1  0
  2 13  1  0
 13 14  1  0
 14 15  1  0
 15 16  1  0
 16 17  1  0
 17 18  1  0
 18 19  1  0
 18 20  1  0
 20 21  1  0
 21 22  1  0
 12  4  1  0
 21 13  1  0
 11  6  2  0
 19 14  1  0
 22 16  1  0
  3 23  1  0
  7 24  1  0
  8 25  1  0
  9 26  1  0
 13 27  1  1
 14 28  1  1
 15 29  1  0
 15 30  1  0
 16 31  1  6
 17 32  1  0
 17 33  1  0
 18 34  1  6
 19 35  1  0
 19 36  1  0
 20 37  1  0
 20 38  1  0
 21 39  1  1
 22 40  1  0
 22 41  1  0
M  END
>  <meeko>  (125) 
{"is_sidechain": false}

$$$$

     RDKit          3D

 46 49  0  0  0  0  0  0  0  0999 V2000
    8.3310   -3.6210  -53.7570 C   0  0  0  0  0  0  0  0  0  0  0  0
    8.1460   -2.1860  -54.1690 C   0  0  0  0  0  0  0  0  0  0  0  0
    6.8270   -1.6890  -54.1690 C   0  0  0  0  0  0  0  0  0  0  0  0
    6.5370   -0.4050  -54.6300 C   0  0  0  0  0  0  0  0  0  0  0  0
    7.5620    0.4020  -55.1010 C   0  0  0  0  0  0  0  0  0  0  0  0
    8.8760   -0.0660  -55.0860 C   0  0  0  0  0  0  0  0  0  0  0  0
    9.1980   -1.3490  -54.6020 C   0  0  0  0  0  0  0  0  0  0  0  0
   10.5890   -1.7090  -54.5340 N   0  0  0  0  0  0  0  0  0  0  0  0
   11.1360   -2.0450  -53.2220 C   0  0  0  0  0  0  0  0  0  0  0  0
   11.3350   -1.8070  -55.7220 C   0  0  0  0  0  0  0  0  0  0  0  0
   12.1790   -0.9690  -56.0500 O   0  0  0  0  0  0  0  0  0  0  0  0
   11.0660   -3.0230  -56.6280 C   0  0  2  0  0  0  0  0  0  0  0  0
   10.8810   -4.3310  -55.8180 C   0  0  1  0  0  0  0  0  0  0  0  0
   10.3490   -5.4140  -56.7790 C   0  0  0  0  0  0  0  0  0  0  0  0
   11.3600   -5.6580  -57.9140 C   0  0  2  0  0  0  0  0  0  0  0  0
   12.6840   -6.1440  -57.3010 C   0  0  0  0  0  0  0  0  0  0  0  0
   13.2390   -5.0760  -56.3440 C   0  0  2  0  0  0  0  0  0  0  0  0
   12.2220   -4.8070  -55.2260 C   0  0  0  0  0  0  0  0  0  0  0  0
   13.4760   -3.7770  -57.1260 C   0  0  0  0  0  0  0  0  0  0  0  0
   12.1490   -3.2610  -57.7170 C   0  0  1  0  0  0  0  0  0  0  0  0
   11.6100   -4.3430  -58.6800 C   0  0  0  0  0  0  0  0  0  0  0  0
    8.3398   -3.6891  -52.6591 H   0  0  0  0  0  0  0  0  0  0  0  0
    7.5035   -4.2264  -54.1553 H   0  0  0  0  0  0  0  0  0  0  0  0
    9.2850   -3.9968  -54.1553 H   0  0  0  0  0  0  0  0  0  0  0  0
    6.0106   -2.3261  -53.7982 H   0  0  0  0  0  0  0  0  0  0  0  0
    5.5013   -0.0345  -54.6201 H   0  0  0  0  0  0  0  0  0  0  0  0
    7.3393    1.4083  -55.4853 H   0  0  0  0  0  0  0  0  0  0  0  0
    9.6808    0.5831  -55.4615 H   0  0  0  0  0  0  0  0  0  0  0  0
   10.4795   -1.6418  -52.4368 H   0  0  0  0  0  0  0  0  0  0  0  0
   11.2001   -3.1384  -53.1205 H   0  0  0  0  0  0  0  0  0  0  0  0
   12.1403   -1.6078  -53.1205 H   0  0  0  0  0  0  0  0  0  0  0  0
   10.1275   -2.7639  -57.1400 H   0  0  0  0  0  0  0  0  0  0  0  0
   10.1801   -4.1496  -54.9899 H   0  0  0  0  0  0  0  0  0  0  0  0
   10.1943   -6.3500  -56.2223 H   0  0  0  0  0  0  0  0  0  0  0  0
    9.3968   -5.0741  -57.2123 H   0  0  0  0  0  0  0  0  0  0  0  0
   10.9622   -6.4129  -58.6082 H   0  0  0  0  0  0  0  0  0  0  0  0
   12.5081   -7.0766  -56.7448 H   0  0  0  0  0  0  0  0  0  0  0  0
   13.4121   -6.3236  -58.1058 H   0  0  0  0  0  0  0  0  0  0  0  0
   14.1831   -5.4314  -55.9055 H   0  0  0  0  0  0  0  0  0  0  0  0
   12.0574   -5.7333  -54.6560 H   0  0  0  0  0  0  0  0  0  0  0  0
   12.6184   -4.0208  -54.5666 H   0  0  0  0  0  0  0  0  0  0  0  0
   13.8923   -3.0164  -56.4492 H   0  0  0  0  0  0  0  0  0  0  0  0
   14.1808   -3.9760  -57.9467 H   0  0  0  0  0  0  0  0  0  0  0  0
   12.3499   -2.3026  -58.2181 H   0  0  0  0  0  0  0  0  0  0  0  0
   10.6657   -3.9961  -59.1250 H   0  0  0  0  0  0  0  0  0  0  0  0
   12.3529   -4.5230  -59.4710 H   0  0  0  0  0  0  0  0  0  0  0  0
  1  2  1  0
  2  3  2  0
  3  4  1  0
  4  5  2  0
  5  6  1  0
  6  7  2  0
  7  8  1  0
  8  9  1  0
  8 10  1  0
 10 11  2  0
 10 12  1  0
 12 13  1  0
 13 14  1  0
 14 15  1  0
 15 16  1  0
 16 17  1  0
 17 18  1  0
 17 19  1  0
 19 20  1  0
 20 21  1  0
  7  2  1  0
 20 12  1  0
 18 13  1  0
 21 15  1  0
  1 22  1  0
  1 23  1  0
  1 24  1  0
  3 25  1  0
  4 26  1  0
  5 27  1  0
  6 28  1  0
  9 29  1  0
  9 30  1  0
  9 31  1  0
 12 32  1  1
 13 33  1  6
 14 34  1  0
 14 35  1  0
 15 36  1  1
 16 37  1  0
 16 38  1  0
 17 39  1  6
 18 40  1  0
 18 41  1  0
 19 42  1  0
 19 43  1  0
 20 44  1  1
 21 45  1  0
 21 46  1  0
M  END
>  <meeko>  (126) 
{"is_sidechain": false}

$$$$

     RDKit          3D

 55 59  0  0  0  0  0  0  0  0999 V2000
    5.6370    2.9460  -57.5400 O   0  0  0  0  0  0  0  0  0  0  0  0
    6.1770    1.8600  -57.7160 C   0  0  0  0  0  0  0  0  0  0  0  0
    6.2610    1.1600  -58.9040 N   0  0  0  0  0  0  0  0  0  0  0  0
    5.8260    1.5590  -60.1900 C   0  0  0  0  0  0  0  0  0  0  0  0
    4.5990    1.1170  -60.7030 C   0  0  0  0  0  0  0  0  0  0  0  0
    4.1700    1.5050  -61.9700 C   0  0  0  0  0  0  0  0  0  0  0  0
    4.9860    2.3350  -62.7040 C   0  0  0  0  0  0  0  0  0  0  0  0
    6.1710    2.7940  -62.2570 N   0  0  0  0  0  0  0  0  0  0  0  0
    6.5830    2.4160  -61.0170 C   0  0  0  0  0  0  0  0  0  0  0  0
    7.8360    2.9930  -60.7680 N   0  0  0  0  0  0  0  0  0  0  0  0
    8.2300    4.0800  -60.0360 C   0  0  0  0  0  0  0  0  0  0  0  0
    7.4690    4.8570  -59.4670 O   0  0  0  0  0  0  0  0  0  0  0  0
    9.7530    4.2840  -60.0330 C   0  0  2  0  0  0  0  0  0  0  0  0
   10.5380    3.0420  -59.5420 C   0  0  1  0  0  0  0  0  0  0  0  0
   12.0390    3.2820  -59.8040 C   0  0  0  0  0  0  0  0  0  0  0  0
   12.5210    4.5250  -59.0360 C   0  0  2  0  0  0  0  0  0  0  0  0
   12.3030    4.2960  -57.5310 C   0  0  0  0  0  0  0  0  0  0  0  0
   10.8090    4.0640  -57.2470 C   0  0  2  0  0  0  0  0  0  0  0  0
   10.3240    2.8340  -58.0300 C   0  0  0  0  0  0  0  0  0  0  0  0
   10.0150    5.2970  -57.7040 C   0  0  0  0  0  0  0  0  0  0  0  0
   10.2040    5.5230  -59.2180 C   0  0  1  0  0  0  0  0  0  0  0  0
   11.7070    5.7540  -59.4850 C   0  0  0  0  0  0  0  0  0  0  0  0
    6.7720    1.1800  -56.5290 C   0  0  0  0  0  0  0  0  0  0  0  0
    5.9430    0.3640  -55.7450 C   0  0  0  0  0  0  0  0  0  0  0  0
    6.4520   -0.2900  -54.6180 C   0  0  0  0  0  0  0  0  0  0  0  0
    7.7980   -0.1160  -54.2710 C   0  0  0  0  0  0  0  0  0  0  0  0
    8.3400   -0.8020  -53.0900 N   0  0  0  0  0  0  0  0  0  0  0  0
    7.5840   -0.9710  -52.1230 O   0  0  0  0  0  0  0  0  0  0  0  0
    9.5220   -1.1720  -53.1310 O   0  0  0  0  0  0  0  0  0  0  0  0
    8.6310    0.7120  -55.0360 C   0  0  0  0  0  0  0  0  0  0  0  0
    8.1130    1.3640  -56.1610 C   0  0  0  0  0  0  0  0  0  0  0  0
    6.6100    0.2040  -58.8460 H   0  0  0  0  0  0  0  0  0  0  0  0
    3.9653    0.4537  -60.0959 H   0  0  0  0  0  0  0  0  0  0  0  0
    3.2068    1.1580  -62.3722 H   0  0  0  0  0  0  0  0  0  0  0  0
    4.6536    2.6394  -63.7074 H   0  0  0  0  0  0  0  0  0  0  0  0
    8.5420    2.4940  -61.2970 H   0  0  0  0  0  0  0  0  0  0  0  0
    9.9967    4.4543  -61.0921 H   0  0  0  0  0  0  0  0  0  0  0  0
   10.1826    2.1497  -60.0783 H   0  0  0  0  0  0  0  0  0  0  0  0
   12.6110    2.4040  -59.4696 H   0  0  0  0  0  0  0  0  0  0  0  0
   12.1937    3.4435  -60.8810 H   0  0  0  0  0  0  0  0  0  0  0  0
   13.5880    4.6978  -59.2401 H   0  0  0  0  0  0  0  0  0  0  0  0
   12.8765    3.4141  -57.2096 H   0  0  0  0  0  0  0  0  0  0  0  0
   12.6431    5.1833  -56.9770 H   0  0  0  0  0  0  0  0  0  0  0  0
   10.6584    3.8978  -56.1701 H   0  0  0  0  0  0  0  0  0  0  0  0
   10.8895    1.9493  -57.7021 H   0  0  0  0  0  0  0  0  0  0  0  0
    9.2507    2.6887  -57.8378 H   0  0  0  0  0  0  0  0  0  0  0  0
    8.9472    5.1408  -57.4907 H   0  0  0  0  0  0  0  0  0  0  0  0
   10.3818    6.1807  -57.1613 H   0  0  0  0  0  0  0  0  0  0  0  0
    9.5963    6.3870  -59.5249 H   0  0  0  0  0  0  0  0  0  0  0  0
   11.8637    5.9206  -60.5610 H   0  0  0  0  0  0  0  0  0  0  0  0
   12.0419    6.6342  -58.9166 H   0  0  0  0  0  0  0  0  0  0  0  0
    4.8851    0.2375  -56.0184 H   0  0  0  0  0  0  0  0  0  0  0  0
    5.8011   -0.9352  -54.0097 H   0  0  0  0  0  0  0  0  0  0  0  0
    9.6854    0.8486  -54.7539 H   0  0  0  0  0  0  0  0  0  0  0  0
    8.7598    2.0231  -56.7587 H   0  0  0  0  0  0  0  0  0  0  0  0
  1  2  2  0
  2  3  1  0
  3  4  1  0
  4  5  1  0
  5  6  2  0
  6  7  1  0
  7  8  2  0
  8  9  1  0
  9 10  1  0
 10 11  1  0
 11 12  2  0
 11 13  1  0
 13 14  1  0
 14 15  1  0
 15 16  1  0
 16 17  1  0
 17 18  1  0
 18 19  1  0
 18 20  1  0
 20 21  1  0
 21 22  1  0
  2 23  1  0
 23 24  1  0
 24 25  2  0
 25 26  1  0
 26 27  1  0
 27 28  2  0
 27 29  1  0
 26 30  2  0
 30 31  1  0
  9  4  2  0
 21 13  1  0
 31 23  2  0
 19 14  1  0
 22 16  1  0
  3 32  1  0
  5 33  1  0
  6 34  1  0
  7 35  1  0
 10 36  1  0
 13 37  1  1
 14 38  1  1
 15 39  1  0
 15 40  1  0
 16 41  1  6
 17 42  1  0
 17 43  1  0
 18 44  1  6
 19 45  1  0
 19 46  1  0
 20 47  1  0
 20 48  1  0
 21 49  1  1
 22 50  1  0
 22 51  1  0
 24 52  1  0
 25 53  1  0
 30 54  1  0
 31 55  1  0
M  CHG  2  27   1  29  -1
M  END
>  <meeko>  (127) 
{"is_sidechain": false}

$$$$

     RDKit          3D

 45 48  0  0  0  0  0  0  0  0999 V2000
    2.9430    0.5810  -63.1970 C   0  0  0  0  0  0  0  0  0  0  0  0
    3.3070    1.7130  -62.2480 C   0  0  0  0  0  0  0  0  0  0  0  0
    2.5320    2.9920  -62.5400 C   0  0  0  0  0  0  0  0  0  0  0  0
    3.1240    1.2840  -60.8470 N   0  0  0  0  0  0  0  0  0  0  0  0
    4.2750    1.5700  -60.1260 N   0  0  0  0  0  0  0  0  0  0  0  0
    5.2770    1.9070  -60.9250 C   0  0  0  0  0  0  0  0  0  0  0  0
    6.5390    2.1900  -60.6650 N   0  0  0  0  0  0  0  0  0  0  0  0
    7.0790    2.1770  -59.3510 C   0  0  0  0  0  0  0  0  0  0  0  0
    6.3170    1.8700  -58.4490 O   0  0  0  0  0  0  0  0  0  0  0  0
    8.5590    2.4930  -59.2330 C   0  0  2  0  0  0  0  0  0  0  0  0
    9.0220    2.6800  -57.7680 C   0  0  1  0  0  0  0  0  0  0  0  0
   10.5630    2.7770  -57.7600 C   0  0  0  0  0  0  0  0  0  0  0  0
   11.0230    3.9820  -58.6020 C   0  0  2  0  0  0  0  0  0  0  0  0
   10.4300    5.2700  -58.0070 C   0  0  0  0  0  0  0  0  0  0  0  0
    8.8950    5.1920  -58.0080 C   0  0  2  0  0  0  0  0  0  0  0  0
    8.4530    3.9820  -57.1690 C   0  0  0  0  0  0  0  0  0  0  0  0
    8.3940    5.0140  -59.4500 C   0  0  0  0  0  0  0  0  0  0  0  0
    8.9780    3.7270  -60.0650 C   0  0  1  0  0  0  0  0  0  0  0  0
   10.5180    3.8220  -60.0470 C   0  0  0  0  0  0  0  0  0  0  0  0
    4.8000    1.9850  -62.2740 C   0  0  0  0  0  0  0  0  0  0  0  0
    5.5160    2.2690  -63.2230 O   0  0  0  0  0  0  0  0  0  0  0  0
    2.6572   -0.3077  -62.6151 H   0  0  0  0  0  0  0  0  0  0  0  0
    2.0993    0.8910  -63.8310 H   0  0  0  0  0  0  0  0  0  0  0  0
    3.8093    0.3412  -63.8310 H   0  0  0  0  0  0  0  0  0  0  0  0
    2.2425    3.4697  -61.5924 H   0  0  0  0  0  0  0  0  0  0  0  0
    3.1651    3.6802  -63.1192 H   0  0  0  0  0  0  0  0  0  0  0  0
    1.6289    2.7493  -63.1192 H   0  0  0  0  0  0  0  0  0  0  0  0
    2.2680    1.6080  -60.3860 H   0  0  0  0  0  0  0  0  0  0  0  0
    4.4180    1.5030  -59.1110 H   0  0  0  0  0  0  0  0  0  0  0  0
    7.1110    2.4120  -61.4760 H   0  0  0  0  0  0  0  0  0  0  0  0
    9.0638    1.6069  -59.6453 H   0  0  0  0  0  0  0  0  0  0  0  0
    8.6650    1.8289  -57.1696 H   0  0  0  0  0  0  0  0  0  0  0  0
   10.9141    2.9014  -56.7250 H   0  0  0  0  0  0  0  0  0  0  0  0
   10.9835    1.8561  -58.1904 H   0  0  0  0  0  0  0  0  0  0  0  0
   12.1217    4.0348  -58.5962 H   0  0  0  0  0  0  0  0  0  0  0  0
   10.7878    5.3923  -56.9740 H   0  0  0  0  0  0  0  0  0  0  0  0
   10.7481    6.1288  -58.6164 H   0  0  0  0  0  0  0  0  0  0  0  0
    8.4771    6.1165  -57.5829 H   0  0  0  0  0  0  0  0  0  0  0  0
    8.8222    4.0997  -56.1395 H   0  0  0  0  0  0  0  0  0  0  0  0
    7.3544    3.9269  -57.1708 H   0  0  0  0  0  0  0  0  0  0  0  0
    7.2959    4.9487  -59.4470 H   0  0  0  0  0  0  0  0  0  0  0  0
    8.7190    5.8765  -60.0504 H   0  0  0  0  0  0  0  0  0  0  0  0
    8.6009    3.6203  -61.0928 H   0  0  0  0  0  0  0  0  0  0  0  0
   10.9438    2.9055  -60.4815 H   0  0  0  0  0  0  0  0  0  0  0  0
   10.8309    4.6969  -60.6359 H   0  0  0  0  0  0  0  0  0  0  0  0
  1  2  1  0
  2  3  1  0
  2  4  1  0
  4  5  1  0
  5  6  2  0
  6  7  1  0
  7  8  1  0
  8  9  2  0
  8 10  1  0
 10 11  1  0
 11 12  1  0
 12 13  1  0
 13 14  1  0
 14 15  1  0
 15 16  1  0
 15 17  1  0
 17 18  1  0
 18 19  1  0
  6 20  1  0
 20 21  2  0
 20  2  1  0
 18 10  1  0
 16 11  1  0
 19 13  1  0
  1 22  1  0
  1 23  1  0
  1 24  1  0
  3 25  1  0
  3 26  1  0
  3 27  1  0
  4 28  1  0
  5 29  1  0
  7 30  1  0
 10 31  1  1
 11 32  1  6
 12 33  1  0
 12 34  1  0
 13 35  1  1
 14 36  1  0
 14 37  1  0
 15 38  1  6
 16 39  1  0
 16 40  1  0
 17 41  1  0
 17 42  1  0
 18 43  1  1
 19 44  1  0
 19 45  1  0
M  CHG  1   5   1
M  END
>  <meeko>  (128) 
{"is_sidechain": false}

$$$$

     RDKit          3D

 48 51  0  0  0  0  0  0  0  0999 V2000
   12.1420    4.5130  -58.2850 C   0  0  0  0  0  0  0  0  0  0  0  0
   10.6520    4.1840  -58.5850 C   0  0  2  0  0  0  0  0  0  0  0  0
   10.3710    4.8550  -59.9580 C   0  0  0  0  0  0  0  0  0  0  0  0
   11.3460    5.8670  -60.2090 O   0  0  0  0  0  0  0  0  0  0  0  0
    9.7150    4.7670  -57.4770 C   0  0  2  0  0  0  0  0  0  0  0  0
   10.0530    4.1650  -56.0940 C   0  0  0  0  0  0  0  0  0  0  0  0
    9.8830    2.6370  -56.1230 C   0  0  1  0  0  0  0  0  0  0  0  0
    8.4160    2.3090  -56.4360 C   0  0  0  0  0  0  0  0  0  0  0  0
    8.0370    2.8890  -57.8120 C   0  0  1  0  0  0  0  0  0  0  0  0
    8.2360    4.4170  -57.7680 C   0  0  0  0  0  0  0  0  0  0  0  0
    8.9470    2.2400  -58.8890 C   0  0  1  0  0  0  0  0  0  0  0  0
    8.3980    2.4490  -60.3060 C   0  0  0  0  0  0  0  0  0  0  0  0
    9.1190    2.4890  -61.3050 O   0  0  0  0  0  0  0  0  0  0  0  0
    7.0350    2.6940  -60.3840 N   0  0  0  0  0  0  0  0  0  0  0  0
    6.5320    2.8110  -61.7090 N   0  0  0  0  0  0  0  0  0  0  0  0
    5.2690    2.1880  -61.8840 C   0  0  0  0  0  0  0  0  0  0  0  0
    4.7650    1.8420  -63.1380 C   0  0  0  0  0  0  0  0  0  0  0  0
    3.4840    1.3170  -63.2230 C   0  0  0  0  0  0  0  0  0  0  0  0
    2.6720    1.1370  -62.1620 N   0  0  0  0  0  0  0  0  0  0  0  0
    3.1610    1.5140  -60.9630 C   0  0  0  0  0  0  0  0  0  0  0  0
    4.4260    2.0480  -60.7790 C   0  0  0  0  0  0  0  0  0  0  0  0
   10.4290    2.6280  -58.6080 C   0  0  2  0  0  0  0  0  0  0  0  0
   10.7750    2.0240  -57.2180 C   0  0  0  0  0  0  0  0  0  0  0  0
   12.2980    4.5474  -57.1967 H   0  0  0  0  0  0  0  0  0  0  0  0
   12.7847    3.7351  -58.7231 H   0  0  0  0  0  0  0  0  0  0  0  0
   12.3973    5.4892  -58.7231 H   0  0  0  0  0  0  0  0  0  0  0  0
   10.4196    4.0958  -60.7525 H   0  0  0  0  0  0  0  0  0  0  0  0
    9.3699    5.3105  -59.9421 H   0  0  0  0  0  0  0  0  0  0  0  0
   10.9670    6.7060  -59.8830 H   0  0  0  0  0  0  0  0  0  0  0  0
    9.8670    5.8564  -57.4750 H   0  0  0  0  0  0  0  0  0  0  0  0
   11.0939    4.4098  -55.8359 H   0  0  0  0  0  0  0  0  0  0  0  0
    9.3699    4.5875  -55.3424 H   0  0  0  0  0  0  0  0  0  0  0  0
   10.1722    2.2209  -55.1467 H   0  0  0  0  0  0  0  0  0  0  0  0
    8.2800    1.2175  -56.4491 H   0  0  0  0  0  0  0  0  0  0  0  0
    7.7705    2.7521  -55.6633 H   0  0  0  0  0  0  0  0  0  0  0  0
    6.9872    2.6743  -58.0608 H   0  0  0  0  0  0  0  0  0  0  0  0
    7.9472    4.8470  -58.7384 H   0  0  0  0  0  0  0  0  0  0  0  0
    7.6093    4.8326  -56.9652 H   0  0  0  0  0  0  0  0  0  0  0  0
    8.9370    1.1421  -58.8214 H   0  0  0  0  0  0  0  0  0  0  0  0
    6.4430    2.1020  -59.7960 H   0  0  0  0  0  0  0  0  0  0  0  0
    6.4860    3.8060  -61.9720 H   0  0  0  0  0  0  0  0  0  0  0  0
    5.3730    1.9831  -64.0437 H   0  0  0  0  0  0  0  0  0  0  0  0
    3.1079    1.0302  -64.2161 H   0  0  0  0  0  0  0  0  0  0  0  0
    2.5177    1.3902  -60.0793 H   0  0  0  0  0  0  0  0  0  0  0  0
    4.7615    2.3570  -59.7780 H   0  0  0  0  0  0  0  0  0  0  0  0
   11.0751    2.2405  -59.4095 H   0  0  0  0  0  0  0  0  0  0  0  0
   10.6156    0.9360  -57.2469 H   0  0  0  0  0  0  0  0  0  0  0  0
   11.8264    2.2488  -56.9857 H   0  0  0  0  0  0  0  0  0  0  0  0
  2  1  1  1
  2  3  1  0
  3  4  1  0
  2  5  1  0
  5  6  1  0
  6  7  1  0
  7  8  1  0
  8  9  1  0
  9 10  1  0
  9 11  1  0
 11 12  1  0
 12 13  2  0
 12 14  1  0
 14 15  1  0
 15 16  1  0
 16 17  2  0
 17 18  1  0
 18 19  2  0
 19 20  1  0
 20 21  2  0
 11 22  1  0
 22 23  1  0
 22  2  1  0
 10  5  1  0
 21 16  1  0
 23  7  1  0
  1 24  1  0
  1 25  1  0
  1 26  1  0
  3 27  1  0
  3 28  1  0
  4 29  1  0
  5 30  1  1
  6 31  1  0
  6 32  1  0
  7 33  1  1
  8 34  1  0
  8 35  1  0
  9 36  1  6
 10 37  1  0
 10 38  1  0
 11 39  1  1
 14 40  1  0
 15 41  1  0
 17 42  1  0
 18 43  1  0
 20 44  1  0
 21 45  1  0
 22 46  1  6
 23 47  1  0
 23 48  1  0
M  END
>  <meeko>  (129) 
{"is_sidechain": false}

$$$$

     RDKit          3D

 48 51  0  0  0  0  0  0  0  0999 V2000
   12.1900    4.4640  -58.1780 C   0  0  0  0  0  0  0  0  0  0  0  0
   10.6990    4.1810  -58.5200 C   0  0  2  0  0  0  0  0  0  0  0  0
   10.4590    4.8580  -59.9010 C   0  0  0  0  0  0  0  0  0  0  0  0
   11.4970    5.7850  -60.2200 O   0  0  0  0  0  0  0  0  0  0  0  0
    9.7580    4.7920  -57.4310 C   0  0  2  0  0  0  0  0  0  0  0  0
   10.0490    4.1790  -56.0430 C   0  0  0  0  0  0  0  0  0  0  0  0
    9.8240    2.6600  -56.0760 C   0  0  1  0  0  0  0  0  0  0  0  0
    8.3470    2.3970  -56.4150 C   0  0  0  0  0  0  0  0  0  0  0  0
    8.0210    2.9770  -57.8070 C   0  0  1  0  0  0  0  0  0  0  0  0
    8.2790    4.4950  -57.7720 C   0  0  0  0  0  0  0  0  0  0  0  0
    8.9300    2.2620  -58.8380 C   0  0  1  0  0  0  0  0  0  0  0  0
    8.5120    2.3630  -60.3100 C   0  0  0  0  0  0  0  0  0  0  0  0
    9.2630    2.0330  -61.2250 O   0  0  0  0  0  0  0  0  0  0  0  0
    7.1870    2.7680  -60.4810 N   0  0  0  0  0  0  0  0  0  0  0  0
    6.5690    2.6040  -61.6970 N   0  0  0  0  0  0  0  0  0  0  0  0
    5.3230    2.2230  -61.7220 C   0  0  0  0  0  0  0  0  0  0  0  0
    4.6610    2.1550  -63.0650 C   0  0  0  0  0  0  0  0  0  0  0  0
    3.3880    1.7450  -63.1350 C   0  0  0  0  0  0  0  0  0  0  0  0
    2.6680    1.3710  -62.0350 N   0  0  0  0  0  0  0  0  0  0  0  0
    3.2170    1.4160  -60.7820 C   0  0  0  0  0  0  0  0  0  0  0  0
    4.4790    1.8030  -60.5510 C   0  0  0  0  0  0  0  0  0  0  0  0
   10.4220    2.6270  -58.5480 C   0  0  2  0  0  0  0  0  0  0  0  0
   10.7200    2.0130  -57.1490 C   0  0  0  0  0  0  0  0  0  0  0  0
   12.3174    4.4882  -57.0857 H   0  0  0  0  0  0  0  0  0  0  0  0
   12.8209    3.6696  -58.6033 H   0  0  0  0  0  0  0  0  0  0  0  0
   12.4859    5.4344  -58.6033 H   0  0  0  0  0  0  0  0  0  0  0  0
   10.4237    4.0804  -60.6783 H   0  0  0  0  0  0  0  0  0  0  0  0
    9.5084    5.4094  -59.8530 H   0  0  0  0  0  0  0  0  0  0  0  0
   11.1380    6.3980  -60.8840 H   0  0  0  0  0  0  0  0  0  0  0  0
    9.9419    5.8763  -57.4104 H   0  0  0  0  0  0  0  0  0  0  0  0
   11.0934    4.3856  -55.7663 H   0  0  0  0  0  0  0  0  0  0  0  0
    9.3688    4.6265  -55.3033 H   0  0  0  0  0  0  0  0  0  0  0  0
   10.0776    2.2253  -55.0979 H   0  0  0  0  0  0  0  0  0  0  0  0
    8.1600    1.3130  -56.4177 H   0  0  0  0  0  0  0  0  0  0  0  0
    7.7088    2.8804  -55.6607 H   0  0  0  0  0  0  0  0  0  0  0  0
    6.9702    2.8157  -58.0894 H   0  0  0  0  0  0  0  0  0  0  0  0
    8.0427    4.9240  -58.7570 H   0  0  0  0  0  0  0  0  0  0  0  0
    7.6409    4.9437  -56.9964 H   0  0  0  0  0  0  0  0  0  0  0  0
    8.7948    1.1814  -58.6833 H   0  0  0  0  0  0  0  0  0  0  0  0
    6.5710    2.5040  -59.7160 H   0  0  0  0  0  0  0  0  0  0  0  0
    5.2102    2.4364  -63.9756 H   0  0  0  0  0  0  0  0  0  0  0  0
    2.9007    1.7076  -64.1205 H   0  0  0  0  0  0  0  0  0  0  0  0
    1.6900    1.1190  -62.1390 H   0  0  0  0  0  0  0  0  0  0  0  0
    2.5936    1.1209  -59.9251 H   0  0  0  0  0  0  0  0  0  0  0  0
    4.8873    1.8131  -59.5296 H   0  0  0  0  0  0  0  0  0  0  0  0
   11.0662    2.2363  -59.3494 H   0  0  0  0  0  0  0  0  0  0  0  0
   10.5252    0.9308  -57.1793 H   0  0  0  0  0  0  0  0  0  0  0  0
   11.7735    2.2007  -56.8943 H   0  0  0  0  0  0  0  0  0  0  0  0
  2  1  1  1
  2  3  1  0
  3  4  1  0
  2  5  1  0
  5  6  1  0
  6  7  1  0
  7  8  1  0
  8  9  1  0
  9 10  1  0
  9 11  1  0
 11 12  1  0
 12 13  2  0
 12 14  1  0
 14 15  1  0
 15 16  2  3
 16 17  1  0
 17 18  2  0
 18 19  1  0
 19 20  1  0
 20 21  2  0
 11 22  1  0
 22 23  1  0
 22  2  1  0
 10  5  1  0
 21 16  1  0
 23  7  1  0
  1 24  1  0
  1 25  1  0
  1 26  1  0
  3 27  1  0
  3 28  1  0
  4 29  1  0
  5 30  1  1
  6 31  1  0
  6 32  1  0
  7 33  1  1
  8 34  1  0
  8 35  1  0
  9 36  1  6
 10 37  1  0
 10 38  1  0
 11 39  1  1
 14 40  1  0
 17 41  1  0
 18 42  1  0
 19 43  1  0
 20 44  1  0
 21 45  1  0
 22 46  1  6
 23 47  1  0
 23 48  1  0
M  END
>  <meeko>  (130) 
{"is_sidechain": false}

$$$$

     RDKit          3D

 59 63  0  0  0  0  0  0  0  0999 V2000
   10.5500    0.5950  -56.6500 O   0  0  0  0  0  0  0  0  0  0  0  0
    9.5330    1.2800  -56.6990 C   0  0  0  0  0  0  0  0  0  0  0  0
    8.4110    1.1610  -55.8970 N   0  0  0  0  0  0  0  0  0  0  0  0
    8.1810    0.2340  -54.8640 C   0  0  0  0  0  0  0  0  0  0  0  0
    6.9530    0.0550  -54.2310 C   0  0  0  0  0  0  0  0  0  0  0  0
    6.8120   -0.8970  -53.2160 C   0  0  0  0  0  0  0  0  0  0  0  0
    7.8980   -1.6800  -52.8290 C   0  0  0  0  0  0  0  0  0  0  0  0
    9.1400   -1.5200  -53.4550 C   0  0  0  0  0  0  0  0  0  0  0  0
   10.3320   -2.3480  -53.0500 C   0  0  0  0  0  0  0  0  0  0  0  0
   11.4970   -1.6440  -53.0190 F   0  0  0  0  0  0  0  0  0  0  0  0
   10.5480   -3.3970  -53.8900 F   0  0  0  0  0  0  0  0  0  0  0  0
   10.1940   -2.8890  -51.8050 F   0  0  0  0  0  0  0  0  0  0  0  0
    9.2720   -0.5480  -54.4620 C   0  0  0  0  0  0  0  0  0  0  0  0
    9.3980    2.4160  -57.7430 C   0  0  2  0  0  0  0  0  0  0  0  0
    8.6830    1.9930  -58.8950 O   0  0  0  0  0  0  0  0  0  0  0  0
    7.2480    2.2250  -58.8130 C   0  0  2  0  0  0  0  0  0  0  0  0
    6.6680    2.1520  -60.1570 N   0  0  0  0  0  0  0  0  0  0  0  0
    7.2360    2.8130  -61.1930 N   0  0  0  0  0  0  0  0  0  0  0  0
    6.3530    2.6070  -62.1720 C   0  0  0  0  0  0  0  0  0  0  0  0
    5.2570    1.8890  -61.6820 C   0  0  0  0  0  0  0  0  0  0  0  0
    5.4250    1.6370  -60.3790 N   0  0  0  0  0  0  0  0  0  0  0  0
    6.9380    3.5840  -58.2080 C   0  0  0  0  0  0  0  0  0  0  0  0
    7.5420    4.6030  -58.8590 F   0  0  0  0  0  0  0  0  0  0  0  0
    7.2730    3.6710  -56.9010 F   0  0  0  0  0  0  0  0  0  0  0  0
    5.6010    3.8300  -58.2880 F   0  0  0  0  0  0  0  0  0  0  0  0
   10.8090    2.9590  -58.0960 C   0  0  2  0  0  0  0  0  0  0  0  0
   11.1480    4.2950  -57.3740 C   0  0  1  0  0  0  0  0  0  0  0  0
   12.6680    4.5390  -57.5080 C   0  0  0  0  0  0  0  0  0  0  0  0
   13.0560    4.6620  -58.9930 C   0  0  2  0  0  0  0  0  0  0  0  0
   12.3030    5.8520  -59.6110 C   0  0  0  0  0  0  0  0  0  0  0  0
   10.7860    5.6270  -59.4910 C   0  0  2  0  0  0  0  0  0  0  0  0
   10.4170    5.4950  -58.0040 C   0  0  0  0  0  0  0  0  0  0  0  0
   10.4110    4.3360  -60.2330 C   0  0  0  0  0  0  0  0  0  0  0  0
   11.1360    3.1290  -59.6070 C   0  0  1  0  0  0  0  0  0  0  0  0
   12.6580    3.3750  -59.7380 C   0  0  0  0  0  0  0  0  0  0  0  0
    7.6890    1.8700  -56.0390 H   0  0  0  0  0  0  0  0  0  0  0  0
    6.0890    0.6661  -54.5312 H   0  0  0  0  0  0  0  0  0  0  0  0
    5.8387   -1.0284  -52.7206 H   0  0  0  0  0  0  0  0  0  0  0  0
    7.7790   -2.4259  -52.0293 H   0  0  0  0  0  0  0  0  0  0  0  0
   10.2498   -0.3986  -54.9432 H   0  0  0  0  0  0  0  0  0  0  0  0
    8.8068    3.2340  -57.3057 H   0  0  0  0  0  0  0  0  0  0  0  0
    6.8123    1.4514  -58.1636 H   0  0  0  0  0  0  0  0  0  0  0  0
    6.4696    2.9508  -63.2104 H   0  0  0  0  0  0  0  0  0  0  0  0
    4.3870    1.5781  -62.2790 H   0  0  0  0  0  0  0  0  0  0  0  0
   11.4448    2.1414  -57.7255 H   0  0  0  0  0  0  0  0  0  0  0  0
   10.8298    4.2091  -56.3245 H   0  0  0  0  0  0  0  0  0  0  0  0
   12.9347    5.4688  -56.9842 H   0  0  0  0  0  0  0  0  0  0  0  0
   13.2091    3.6905  -57.0639 H   0  0  0  0  0  0  0  0  0  0  0  0
   14.1418    4.8163  -59.0784 H   0  0  0  0  0  0  0  0  0  0  0  0
   12.5786    6.7746  -59.0792 H   0  0  0  0  0  0  0  0  0  0  0  0
   12.5742    5.9417  -60.6733 H   0  0  0  0  0  0  0  0  0  0  0  0
   10.2407    6.4746  -59.9317 H   0  0  0  0  0  0  0  0  0  0  0  0
   10.7078    6.4148  -57.4754 H   0  0  0  0  0  0  0  0  0  0  0  0
    9.3318    5.3368  -57.9183 H   0  0  0  0  0  0  0  0  0  0  0  0
    9.3240    4.1813  -60.1653 H   0  0  0  0  0  0  0  0  0  0  0  0
   10.7139    4.4281  -61.2865 H   0  0  0  0  0  0  0  0  0  0  0  0
   10.8056    2.2202  -60.1313 H   0  0  0  0  0  0  0  0  0  0  0  0
   13.2022    2.5223  -59.3059 H   0  0  0  0  0  0  0  0  0  0  0  0
   12.9131    3.4837  -60.8025 H   0  0  0  0  0  0  0  0  0  0  0  0
  1  2  2  0
  2  3  1  0
  3  4  1  0
  4  5  1  0
  5  6  2  0
  6  7  1  0
  7  8  2  0
  8  9  1  0
  9 10  1  0
  9 11  1  0
  9 12  1  0
  8 13  1  0
  2 14  1  0
 14 15  1  0
 15 16  1  0
 16 17  1  0
 17 18  1  0
 18 19  2  0
 19 20  1  0
 20 21  2  0
 16 22  1  0
 22 23  1  0
 22 24  1  0
 22 25  1  0
 14 26  1  0
 26 27  1  0
 27 28  1  0
 28 29  1  0
 29 30  1  0
 30 31  1  0
 31 32  1  0
 31 33  1  0
 33 34  1  0
 34 35  1  0
 13  4  2  0
 21 17  1  0
 34 26  1  0
 32 27  1  0
 35 29  1  0
  3 36  1  0
  5 37  1  0
  6 38  1  0
  7 39  1  0
 13 40  1  0
 14 41  1  1
 16 42  1  1
 19 43  1  0
 20 44  1  0
 26 45  1  6
 27 46  1  6
 28 47  1  0
 28 48  1  0
 29 49  1  6
 30 50  1  0
 30 51  1  0
 31 52  1  1
 32 53  1  0
 32 54  1  0
 33 55  1  0
 33 56  1  0
 34 57  1  1
 35 58  1  0
 35 59  1  0
M  END
>  <meeko>  (131) 
{"is_sidechain": false}

$$$$

     RDKit          3D

 59 63  0  0  0  0  0  0  0  0999 V2000
   10.4910    0.5850  -56.5010 O   0  0  0  0  0  0  0  0  0  0  0  0
    9.4700    1.2610  -56.4400 C   0  0  0  0  0  0  0  0  0  0  0  0
    8.4110    1.0920  -55.5640 N   0  0  0  0  0  0  0  0  0  0  0  0
    8.2720    0.1340  -54.5450 C   0  0  0  0  0  0  0  0  0  0  0  0
    7.0210    0.0450  -53.9230 C   0  0  0  0  0  0  0  0  0  0  0  0
    6.7970   -0.8820  -52.9030 C   0  0  0  0  0  0  0  0  0  0  0  0
    7.8240   -1.7300  -52.4940 C   0  0  0  0  0  0  0  0  0  0  0  0
    9.0850   -1.6560  -53.1010 C   0  0  0  0  0  0  0  0  0  0  0  0
   10.2100   -2.5660  -52.6780 C   0  0  0  0  0  0  0  0  0  0  0  0
   10.0230   -3.0840  -51.4330 F   0  0  0  0  0  0  0  0  0  0  0  0
   11.4240   -1.9450  -52.6400 F   0  0  0  0  0  0  0  0  0  0  0  0
   10.3690   -3.6330  -53.5100 F   0  0  0  0  0  0  0  0  0  0  0  0
    9.2970   -0.7180  -54.1290 C   0  0  0  0  0  0  0  0  0  0  0  0
    9.2300    2.4280  -57.4280 C   0  0  2  0  0  0  0  0  0  0  0  0
    8.3780    2.0220  -58.4920 O   0  0  0  0  0  0  0  0  0  0  0  0
    7.1480    2.7850  -58.6170 C   0  0  1  0  0  0  0  0  0  0  0  0
    6.6070    2.5450  -59.9560 N   0  0  0  0  0  0  0  0  0  0  0  0
    7.1320    3.1360  -61.0580 N   0  0  0  0  0  0  0  0  0  0  0  0
    6.2930    2.7220  -62.0110 C   0  0  0  0  0  0  0  0  0  0  0  0
    5.2920    1.9210  -61.4490 C   0  0  0  0  0  0  0  0  0  0  0  0
    5.4800    1.8130  -60.1300 N   0  0  0  0  0  0  0  0  0  0  0  0
    6.0520    2.4770  -57.6080 C   0  0  0  0  0  0  0  0  0  0  0  0
    4.8330    2.8830  -58.0290 F   0  0  0  0  0  0  0  0  0  0  0  0
    6.2910    3.1400  -56.4470 F   0  0  0  0  0  0  0  0  0  0  0  0
    5.9680    1.1650  -57.2980 F   0  0  0  0  0  0  0  0  0  0  0  0
   10.6030    2.9400  -57.9410 C   0  0  2  0  0  0  0  0  0  0  0  0
   11.0350    4.2940  -57.3100 C   0  0  1  0  0  0  0  0  0  0  0  0
   12.5370    4.5000  -57.6100 C   0  0  0  0  0  0  0  0  0  0  0  0
   12.7720    4.5600  -59.1300 C   0  0  2  0  0  0  0  0  0  0  0  0
   11.9800    5.7430  -59.7120 C   0  0  0  0  0  0  0  0  0  0  0  0
   10.4800    5.5560  -59.4270 C   0  0  2  0  0  0  0  0  0  0  0  0
   10.2660    5.4870  -57.9060 C   0  0  0  0  0  0  0  0  0  0  0  0
   10.0060    4.2470  -60.0770 C   0  0  0  0  0  0  0  0  0  0  0  0
   10.7700    3.0490  -59.4840 C   0  0  1  0  0  0  0  0  0  0  0  0
   12.2750    3.2560  -59.7810 C   0  0  0  0  0  0  0  0  0  0  0  0
    7.6550    1.7650  -55.6650 H   0  0  0  0  0  0  0  0  0  0  0  0
    6.2062    0.7121  -54.2410 H   0  0  0  0  0  0  0  0  0  0  0  0
    5.8095   -0.9427  -52.4223 H   0  0  0  0  0  0  0  0  0  0  0  0
    7.6444   -2.4605  -51.6914 H   0  0  0  0  0  0  0  0  0  0  0  0
   10.2837   -0.6554  -54.6112 H   0  0  0  0  0  0  0  0  0  0  0  0
    8.7169    3.2549  -56.9151 H   0  0  0  0  0  0  0  0  0  0  0  0
    7.4331    3.8296  -58.4233 H   0  0  0  0  0  0  0  0  0  0  0  0
    6.3762    2.9731  -63.0787 H   0  0  0  0  0  0  0  0  0  0  0  0
    4.4715    1.4498  -62.0101 H   0  0  0  0  0  0  0  0  0  0  0  0
   11.2651    2.1296  -57.6021 H   0  0  0  0  0  0  0  0  0  0  0  0
   10.8224    4.2530  -56.2315 H   0  0  0  0  0  0  0  0  0  0  0  0
   12.8729    5.4424  -57.1529 H   0  0  0  0  0  0  0  0  0  0  0  0
   13.1056    3.6563  -57.1919 H   0  0  0  0  0  0  0  0  0  0  0  0
   13.8459    4.6865  -59.3320 H   0  0  0  0  0  0  0  0  0  0  0  0
   12.3262    6.6781  -59.2476 H   0  0  0  0  0  0  0  0  0  0  0  0
   12.1404    5.7878  -60.7993 H   0  0  0  0  0  0  0  0  0  0  0  0
    9.9067    6.3986  -59.8410 H   0  0  0  0  0  0  0  0  0  0  0  0
   10.6286    6.4182  -57.4463 H   0  0  0  0  0  0  0  0  0  0  0  0
    9.1928    5.3579  -57.7019 H   0  0  0  0  0  0  0  0  0  0  0  0
    8.9294    4.1187  -59.8914 H   0  0  0  0  0  0  0  0  0  0  0  0
   10.1987    4.2944  -61.1589 H   0  0  0  0  0  0  0  0  0  0  0  0
   10.3677    2.1306  -59.9365 H   0  0  0  0  0  0  0  0  0  0  0  0
   12.8453    2.4073  -59.3755 H   0  0  0  0  0  0  0  0  0  0  0  0
   12.4201    3.3207  -60.8695 H   0  0  0  0  0  0  0  0  0  0  0  0
  1  2  2  0
  2  3  1  0
  3  4  1  0
  4  5  1  0
  5  6  2  0
  6  7  1  0
  7  8  2  0
  8  9  1  0
  9 10  1  0
  9 11  1  0
  9 12  1  0
  8 13  1  0
  2 14  1  0
 14 15  1  0
 15 16  1  0
 16 17  1  0
 17 18  1  0
 18 19  2  0
 19 20  1  0
 20 21  2  0
 16 22  1  0
 22 23  1  0
 22 24  1  0
 22 25  1  0
 14 26  1  0
 26 27  1  0
 27 28  1  0
 28 29  1  0
 29 30  1  0
 30 31  1  0
 31 32  1  0
 31 33  1  0
 33 34  1  0
 34 35  1  0
 13  4  2  0
 21 17  1  0
 34 26  1  0
 32 27  1  0
 35 29  1  0
  3 36  1  0
  5 37  1  0
  6 38  1  0
  7 39  1  0
 13 40  1  0
 14 41  1  1
 16 42  1  6
 19 43  1  0
 20 44  1  0
 26 45  1  6
 27 46  1  6
 28 47  1  0
 28 48  1  0
 29 49  1  6
 30 50  1  0
 30 51  1  0
 31 52  1  1
 32 53  1  0
 32 54  1  0
 33 55  1  0
 33 56  1  0
 34 57  1  1
 35 58  1  0
 35 59  1  0
M  END
>  <meeko>  (132) 
{"is_sidechain": false}

$$$$

     RDKit          3D

 39 42  0  0  0  0  0  0  0  0999 V2000
    7.7330    4.9620  -59.7130 O   0  0  0  0  0  0  0  0  0  0  0  0
    8.5320    4.1620  -60.1900 C   0  0  0  0  0  0  0  0  0  0  0  0
    8.1910    2.9470  -60.7490 N   0  0  0  0  0  0  0  0  0  0  0  0
    6.8780    2.4880  -60.9110 C   0  0  0  0  0  0  0  0  0  0  0  0
    6.4120    2.7230  -62.1630 N   0  0  0  0  0  0  0  0  0  0  0  0
    5.1680    2.2870  -62.4590 C   0  0  0  0  0  0  0  0  0  0  0  0
    4.3410    1.6510  -61.5550 C   0  0  0  0  0  0  0  0  0  0  0  0
    4.8050    1.4750  -60.2560 C   0  0  0  0  0  0  0  0  0  0  0  0
    6.0880    1.9100  -59.9120 C   0  0  0  0  0  0  0  0  0  0  0  0
    6.5350    1.8610  -58.0670 Br  0  0  0  0  0  0  0  0  0  0  0  0
   10.0520    4.3690  -60.1010 C   0  0  2  0  0  0  0  0  0  0  0  0
   10.8040    3.1110  -59.5980 C   0  0  1  0  0  0  0  0  0  0  0  0
   12.3180    3.3480  -59.7650 C   0  0  0  0  0  0  0  0  0  0  0  0
   12.7600    4.5690  -58.9380 C   0  0  2  0  0  0  0  0  0  0  0  0
   12.4490    4.3130  -57.4540 C   0  0  0  0  0  0  0  0  0  0  0  0
   10.9400    4.0770  -57.2670 C   0  0  2  0  0  0  0  0  0  0  0  0
   10.5150    2.8600  -58.1030 C   0  0  0  0  0  0  0  0  0  0  0  0
   10.1670    5.3140  -57.7480 C   0  0  0  0  0  0  0  0  0  0  0  0
   10.4650    5.5860  -59.2360 C   0  0  1  0  0  0  0  0  0  0  0  0
   11.9820    5.8120  -59.4050 C   0  0  0  0  0  0  0  0  0  0  0  0
    8.8250    2.1830  -60.5540 H   0  0  0  0  0  0  0  0  0  0  0  0
    4.7921    2.4482  -63.4801 H   0  0  0  0  0  0  0  0  0  0  0  0
    3.3443    1.2939  -61.8534 H   0  0  0  0  0  0  0  0  0  0  0  0
    4.1644    0.9950  -59.5016 H   0  0  0  0  0  0  0  0  0  0  0  0
   10.3508    4.5717  -61.1400 H   0  0  0  0  0  0  0  0  0  0  0  0
   10.4681    2.2397  -60.1794 H   0  0  0  0  0  0  0  0  0  0  0  0
   12.8652    2.4583  -59.4200 H   0  0  0  0  0  0  0  0  0  0  0  0
   12.5367    3.5356  -60.8266 H   0  0  0  0  0  0  0  0  0  0  0  0
   13.8392    4.7338  -59.0730 H   0  0  0  0  0  0  0  0  0  0  0  0
   13.0018    3.4250  -57.1137 H   0  0  0  0  0  0  0  0  0  0  0  0
   12.7537    5.1901  -56.8641 H   0  0  0  0  0  0  0  0  0  0  0  0
   10.7220    3.8960  -56.2041 H   0  0  0  0  0  0  0  0  0  0  0  0
   11.0767    1.9755  -57.7682 H   0  0  0  0  0  0  0  0  0  0  0  0
    9.4359    2.6932  -57.9699 H   0  0  0  0  0  0  0  0  0  0  0  0
    9.0884    5.1404  -57.6198 H   0  0  0  0  0  0  0  0  0  0  0  0
   10.4815    6.1854  -57.1550 H   0  0  0  0  0  0  0  0  0  0  0  0
    9.8971    6.4711  -59.5586 H   0  0  0  0  0  0  0  0  0  0  0  0
   12.2050    6.0031  -60.4651 H   0  0  0  0  0  0  0  0  0  0  0  0
   12.2862    6.6757  -58.7955 H   0  0  0  0  0  0  0  0  0  0  0  0
  1  2  2  0
  2  3  1  0
  3  4  1  0
  4  5  1  0
  5  6  2  0
  6  7  1  0
  7  8  2  0
  8  9  1  0
  9 10  1  0
  2 11  1  0
 11 12  1  0
 12 13  1  0
 13 14  1  0
 14 15  1  0
 15 16  1  0
 16 17  1  0
 16 18  1  0
 18 19  1  0
 19 20  1  0
  9  4  2  0
 19 11  1  0
 17 12  1  0
 20 14  1  0
  3 21  1  0
  6 22  1  0
  7 23  1  0
  8 24  1  0
 11 25  1  1
 12 26  1  1
 13 27  1  0
 13 28  1  0
 14 29  1  6
 15 30  1  0
 15 31  1  0
 16 32  1  6
 17 33  1  0
 17 34  1  0
 18 35  1  0
 18 36  1  0
 19 37  1  1
 20 38  1  0
 20 39  1  0
M  END
>  <meeko>  (133) 
{"is_sidechain": false}

$$$$

     RDKit          3D

 44 47  0  0  0  0  0  0  0  0999 V2000
    4.1550    2.6440  -58.3550 C   0  0  0  0  0  0  0  0  0  0  0  0
    5.0300    1.8770  -59.1730 O   0  0  0  0  0  0  0  0  0  0  0  0
    4.6660    1.7100  -60.4910 C   0  0  0  0  0  0  0  0  0  0  0  0
    3.5500    0.9900  -60.9270 C   0  0  0  0  0  0  0  0  0  0  0  0
    3.2750    0.8860  -62.2920 C   0  0  0  0  0  0  0  0  0  0  0  0
    4.1100    1.4980  -63.2230 C   0  0  0  0  0  0  0  0  0  0  0  0
    5.2280    2.2190  -62.7970 C   0  0  0  0  0  0  0  0  0  0  0  0
    5.5160    2.3290  -61.4350 C   0  0  0  0  0  0  0  0  0  0  0  0
    6.6220    3.0420  -60.9230 N   0  0  0  0  0  0  0  0  0  0  0  0
    7.9480    2.6580  -60.8770 C   0  0  0  0  0  0  0  0  0  0  0  0
    8.3900    1.5720  -61.2370 O   0  0  0  0  0  0  0  0  0  0  0  0
    8.8500    3.7400  -60.2600 C   0  0  2  0  0  0  0  0  0  0  0  0
   10.2160    3.1990  -59.7640 C   0  0  1  0  0  0  0  0  0  0  0  0
   11.1080    4.4020  -59.3950 C   0  0  0  0  0  0  0  0  0  0  0  0
   10.4510    5.2290  -58.2760 C   0  0  2  0  0  0  0  0  0  0  0  0
   10.2730    4.3350  -57.0370 C   0  0  0  0  0  0  0  0  0  0  0  0
    9.3770    3.1340  -57.3810 C   0  0  2  0  0  0  0  0  0  0  0  0
   10.0240    2.3200  -58.5140 C   0  0  0  0  0  0  0  0  0  0  0  0
    8.0080    3.6480  -57.8510 C   0  0  0  0  0  0  0  0  0  0  0  0
    8.1690    4.5260  -59.1090 C   0  0  1  0  0  0  0  0  0  0  0  0
    9.0710    5.7250  -58.7460 C   0  0  0  0  0  0  0  0  0  0  0  0
    4.3780    2.4486  -57.2957 H   0  0  0  0  0  0  0  0  0  0  0  0
    4.2972    3.7137  -58.5683 H   0  0  0  0  0  0  0  0  0  0  0  0
    3.1131    2.3629  -58.5683 H   0  0  0  0  0  0  0  0  0  0  0  0
    2.8881    0.5051  -60.1944 H   0  0  0  0  0  0  0  0  0  0  0  0
    2.3962    0.3190  -62.6328 H   0  0  0  0  0  0  0  0  0  0  0  0
    3.8886    1.4135  -64.2972 H   0  0  0  0  0  0  0  0  0  0  0  0
    5.8836    2.7017  -63.5367 H   0  0  0  0  0  0  0  0  0  0  0  0
    6.3640    3.9340  -60.5120 H   0  0  0  0  0  0  0  0  0  0  0  0
    9.0331    4.4308  -61.0962 H   0  0  0  0  0  0  0  0  0  0  0  0
   10.6794    2.5936  -60.5569 H   0  0  0  0  0  0  0  0  0  0  0  0
   12.0862    4.0363  -59.0496 H   0  0  0  0  0  0  0  0  0  0  0  0
   11.2364    5.0386  -60.2829 H   0  0  0  0  0  0  0  0  0  0  0  0
   11.0855    6.0931  -58.0298 H   0  0  0  0  0  0  0  0  0  0  0  0
   11.2569    3.9724  -56.7048 H   0  0  0  0  0  0  0  0  0  0  0  0
    9.8010    4.9199  -56.2339 H   0  0  0  0  0  0  0  0  0  0  0  0
    9.2552    2.4975  -56.4922 H   0  0  0  0  0  0  0  0  0  0  0  0
   11.0032    1.9472  -58.1791 H   0  0  0  0  0  0  0  0  0  0  0  0
    9.3655    1.4764  -58.7685 H   0  0  0  0  0  0  0  0  0  0  0  0
    7.3601    2.7910  -58.0871 H   0  0  0  0  0  0  0  0  0  0  0  0
    7.5576    4.2511  -57.0489 H   0  0  0  0  0  0  0  0  0  0  0  0
    7.1726    4.8504  -59.4437 H   0  0  0  0  0  0  0  0  0  0  0  0
    9.1973    6.3658  -59.6311 H   0  0  0  0  0  0  0  0  0  0  0  0
    8.5989    6.2963  -57.9331 H   0  0  0  0  0  0  0  0  0  0  0  0
  1  2  1  0
  2  3  1  0
  3  4  2  0
  4  5  1  0
  5  6  2  0
  6  7  1  0
  7  8  2  0
  8  9  1  0
  9 10  1  0
 10 11  2  0
 10 12  1  0
 12 13  1  0
 13 14  1  0
 14 15  1  0
 15 16  1  0
 16 17  1  0
 17 18  1  0
 17 19  1  0
 19 20  1  0
 20 21  1  0
  8  3  1  0
 20 12  1  0
 18 13  1  0
 21 15  1  0
  1 22  1  0
  1 23  1  0
  1 24  1  0
  4 25  1  0
  5 26  1  0
  6 27  1  0
  7 28  1  0
  9 29  1  0
 12 30  1  1
 13 31  1  1
 14 32  1  0
 14 33  1  0
 15 34  1  6
 16 35  1  0
 16 36  1  0
 17 37  1  6
 18 38  1  0
 18 39  1  0
 19 40  1  0
 19 41  1  0
 20 42  1  1
 21 43  1  0
 21 44  1  0
M  END
>  <meeko>  (134) 
{"is_sidechain": false}

$$$$

     RDKit          3D

 43 46  0  0  0  0  0  0  0  0999 V2000
    3.0530    0.5440  -63.2130 C   0  0  0  0  0  0  0  0  0  0  0  0
    3.1150    1.1040  -61.9070 O   0  0  0  0  0  0  0  0  0  0  0  0
    4.3470    1.4740  -61.4580 C   0  0  0  0  0  0  0  0  0  0  0  0
    4.9250    1.1330  -60.2420 C   0  0  0  0  0  0  0  0  0  0  0  0
    6.2080    1.5980  -59.9310 C   0  0  0  0  0  0  0  0  0  0  0  0
    6.8790    2.3960  -60.8460 C   0  0  0  0  0  0  0  0  0  0  0  0
    8.1590    2.9160  -60.6530 N   0  0  0  0  0  0  0  0  0  0  0  0
    8.5240    4.0820  -60.0190 C   0  0  0  0  0  0  0  0  0  0  0  0
    7.7460    4.9050  -59.5490 O   0  0  0  0  0  0  0  0  0  0  0  0
   10.0470    4.2930  -60.0040 C   0  0  2  0  0  0  0  0  0  0  0  0
   10.8380    3.0540  -59.5160 C   0  0  1  0  0  0  0  0  0  0  0  0
   12.3390    3.3050  -59.7720 C   0  0  0  0  0  0  0  0  0  0  0  0
   12.8090    4.5470  -58.9960 C   0  0  2  0  0  0  0  0  0  0  0  0
   12.5870    4.3090  -57.4930 C   0  0  0  0  0  0  0  0  0  0  0  0
   11.0950    4.0650  -57.2160 C   0  0  2  0  0  0  0  0  0  0  0  0
   10.6200    2.8370  -58.0070 C   0  0  0  0  0  0  0  0  0  0  0  0
   10.2940    5.2950  -57.6690 C   0  0  0  0  0  0  0  0  0  0  0  0
   10.4870    5.5310  -59.1800 C   0  0  1  0  0  0  0  0  0  0  0  0
   11.9890    5.7730  -59.4410 C   0  0  0  0  0  0  0  0  0  0  0  0
    6.3420    2.7410  -62.0350 N   0  0  0  0  0  0  0  0  0  0  0  0
    5.0980    2.2750  -62.3080 C   0  0  0  0  0  0  0  0  0  0  0  0
    2.9322   -0.5468  -63.1389 H   0  0  0  0  0  0  0  0  0  0  0  0
    2.1967    0.9717  -63.7551 H   0  0  0  0  0  0  0  0  0  0  0  0
    3.9821    0.7740  -63.7551 H   0  0  0  0  0  0  0  0  0  0  0  0
    4.3775    0.5010  -59.5273 H   0  0  0  0  0  0  0  0  0  0  0  0
    6.6786    1.3338  -58.9725 H   0  0  0  0  0  0  0  0  0  0  0  0
    8.8650    2.3370  -61.0850 H   0  0  0  0  0  0  0  0  0  0  0  0
   10.2948    4.4685  -61.0613 H   0  0  0  0  0  0  0  0  0  0  0  0
   10.4902    2.1620  -60.0576 H   0  0  0  0  0  0  0  0  0  0  0  0
   12.9158    2.4292  -59.4400 H   0  0  0  0  0  0  0  0  0  0  0  0
   12.4969    3.4725  -60.8477 H   0  0  0  0  0  0  0  0  0  0  0  0
   13.8755    4.7278  -59.1958 H   0  0  0  0  0  0  0  0  0  0  0  0
   13.1657    3.4297  -57.1737 H   0  0  0  0  0  0  0  0  0  0  0  0
   12.9186    5.1960  -56.9333 H   0  0  0  0  0  0  0  0  0  0  0  0
   10.9429    3.8912  -56.1405 H   0  0  0  0  0  0  0  0  0  0  0  0
   11.1893    1.9538  -57.6817 H   0  0  0  0  0  0  0  0  0  0  0  0
    9.5469    2.6847  -57.8195 H   0  0  0  0  0  0  0  0  0  0  0  0
    9.2266    5.1300  -57.4607 H   0  0  0  0  0  0  0  0  0  0  0  0
   10.6524    6.1781  -57.1198 H   0  0  0  0  0  0  0  0  0  0  0  0
    9.8749    6.3931  -59.4836 H   0  0  0  0  0  0  0  0  0  0  0  0
   12.1481    5.9463  -60.5156 H   0  0  0  0  0  0  0  0  0  0  0  0
   12.3166    6.6523  -58.8670 H   0  0  0  0  0  0  0  0  0  0  0  0
    4.6509    2.5520  -63.2741 H   0  0  0  0  0  0  0  0  0  0  0  0
  1  2  1  0
  2  3  1  0
  3  4  2  0
  4  5  1  0
  5  6  2  0
  6  7  1  0
  7  8  1  0
  8  9  2  0
  8 10  1  0
 10 11  1  0
 11 12  1  0
 12 13  1  0
 13 14  1  0
 14 15  1  0
 15 16  1  0
 15 17  1  0
 17 18  1  0
 18 19  1  0
  6 20  1  0
 20 21  2  0
 21  3  1  0
 18 10  1  0
 16 11  1  0
 19 13  1  0
  1 22  1  0
  1 23  1  0
  1 24  1  0
  4 25  1  0
  5 26  1  0
  7 27  1  0
 10 28  1  1
 11 29  1  1
 12 30  1  0
 12 31  1  0
 13 32  1  6
 14 33  1  0
 14 34  1  0
 15 35  1  6
 16 36  1  0
 16 37  1  0
 17 38  1  0
 17 39  1  0
 18 40  1  1
 19 41  1  0
 19 42  1  0
 21 43  1  0
M  END
>  <meeko>  (135) 
{"is_sidechain": false}

$$$$

     RDKit          3D

 38 41  0  0  0  0  0  0  0  0999 V2000
    7.7780    4.9490  -59.7170 O   0  0  0  0  0  0  0  0  0  0  0  0
    8.5480    4.1360  -60.2130 C   0  0  0  0  0  0  0  0  0  0  0  0
    8.1930    3.0110  -60.9370 N   0  0  0  0  0  0  0  0  0  0  0  0
    6.8810    2.5580  -61.1510 C   0  0  0  0  0  0  0  0  0  0  0  0
    6.2380    1.9610  -60.0850 C   0  0  0  0  0  0  0  0  0  0  0  0
    4.9500    1.5300  -60.3120 C   0  0  0  0  0  0  0  0  0  0  0  0
    4.3200    1.6670  -61.4890 N   0  0  0  0  0  0  0  0  0  0  0  0
    5.0330    2.2620  -62.4560 C   0  0  0  0  0  0  0  0  0  0  0  0
    6.2870    2.7170  -62.3390 N   0  0  0  0  0  0  0  0  0  0  0  0
   10.0750    4.3160  -60.1320 C   0  0  2  0  0  0  0  0  0  0  0  0
   10.8210    3.0490  -59.6420 C   0  0  1  0  0  0  0  0  0  0  0  0
   12.3360    3.2740  -59.8350 C   0  0  0  0  0  0  0  0  0  0  0  0
   12.8020    4.4890  -59.0150 C   0  0  2  0  0  0  0  0  0  0  0  0
   12.5180    4.2220  -57.5270 C   0  0  0  0  0  0  0  0  0  0  0  0
   11.0110    4.0060  -57.3110 C   0  0  2  0  0  0  0  0  0  0  0  0
   10.5410    2.8040  -58.1480 C   0  0  0  0  0  0  0  0  0  0  0  0
   10.2540    5.2610  -57.7660 C   0  0  0  0  0  0  0  0  0  0  0  0
   10.5090    5.5260  -59.2640 C   0  0  1  0  0  0  0  0  0  0  0  0
   12.0250    5.7410  -59.4630 C   0  0  0  0  0  0  0  0  0  0  0  0
    8.9310    2.4860  -61.3820 H   0  0  0  0  0  0  0  0  0  0  0  0
    6.7277    1.8365  -59.1079 H   0  0  0  0  0  0  0  0  0  0  0  0
    4.4088    1.0478  -59.4846 H   0  0  0  0  0  0  0  0  0  0  0  0
    4.5440    2.3877  -63.4333 H   0  0  0  0  0  0  0  0  0  0  0  0
   10.3670    4.5114  -61.1744 H   0  0  0  0  0  0  0  0  0  0  0  0
   10.4758    2.1765  -60.2161 H   0  0  0  0  0  0  0  0  0  0  0  0
   12.8816    2.3793  -59.5006 H   0  0  0  0  0  0  0  0  0  0  0  0
   12.5379    3.4613  -60.9000 H   0  0  0  0  0  0  0  0  0  0  0  0
   13.8786    4.6524  -59.1706 H   0  0  0  0  0  0  0  0  0  0  0  0
   13.0646    3.3226  -57.2073 H   0  0  0  0  0  0  0  0  0  0  0  0
   12.8476    5.0884  -56.9348 H   0  0  0  0  0  0  0  0  0  0  0  0
   10.8142    3.8140  -56.2459 H   0  0  0  0  0  0  0  0  0  0  0  0
   11.0793    1.9020  -57.8214 H   0  0  0  0  0  0  0  0  0  0  0  0
    9.4586    2.6704  -58.0047 H   0  0  0  0  0  0  0  0  0  0  0  0
    9.1763    5.1143  -57.6017 H   0  0  0  0  0  0  0  0  0  0  0  0
   10.6097    6.1241  -57.1842 H   0  0  0  0  0  0  0  0  0  0  0  0
    9.9268    6.4075  -59.5706 H   0  0  0  0  0  0  0  0  0  0  0  0
   12.2283    5.9337  -60.5267 H   0  0  0  0  0  0  0  0  0  0  0  0
   12.3486    6.6005  -58.8576 H   0  0  0  0  0  0  0  0  0  0  0  0
  1  2  2  0
  2  3  1  0
  3  4  1  0
  4  5  1  0
  5  6  2  0
  6  7  1  0
  7  8  2  0
  8  9  1  0
  2 10  1  0
 10 11  1  0
 11 12  1  0
 12 13  1  0
 13 14  1  0
 14 15  1  0
 15 16  1  0
 15 17  1  0
 17 18  1  0
 18 19  1  0
  9  4  2  0
 18 10  1  0
 16 11  1  0
 19 13  1  0
  3 20  1  0
  5 21  1  0
  6 22  1  0
  8 23  1  0
 10 24  1  1
 11 25  1  1
 12 26  1  0
 12 27  1  0
 13 28  1  6
 14 29  1  0
 14 30  1  0
 15 31  1  6
 16 32  1  0
 16 33  1  0
 17 34  1  0
 17 35  1  0
 18 36  1  1
 19 37  1  0
 19 38  1  0
M  END
>  <meeko>  (136) 
{"is_sidechain": false}

$$$$

     RDKit          3D

 40 43  0  0  0  0  0  0  0  0999 V2000
    6.9990    4.5040  -58.9680 O   0  0  0  0  0  0  0  0  0  0  0  0
    7.6060    3.4330  -58.9800 C   0  0  0  0  0  0  0  0  0  0  0  0
    7.2190    2.3310  -59.6990 N   0  0  0  0  0  0  0  0  0  0  0  0
    6.0920    2.1950  -60.5430 C   0  0  0  0  0  0  0  0  0  0  0  0
    4.8030    1.8950  -60.1090 C   0  0  0  0  0  0  0  0  0  0  0  0
    3.7700    1.7860  -61.0410 C   0  0  0  0  0  0  0  0  0  0  0  0
    2.5320    1.4980  -60.6180 F   0  0  0  0  0  0  0  0  0  0  0  0
    3.9930    1.9720  -62.4020 C   0  0  0  0  0  0  0  0  0  0  0  0
    5.2770    2.2720  -62.8480 C   0  0  0  0  0  0  0  0  0  0  0  0
    6.3090    2.3800  -61.9190 C   0  0  0  0  0  0  0  0  0  0  0  0
    7.5460    2.6700  -62.3550 F   0  0  0  0  0  0  0  0  0  0  0  0
    8.8860    3.2920  -58.1410 C   0  0  2  0  0  0  0  0  0  0  0  0
    9.5390    4.6070  -57.6590 C   0  0  1  0  0  0  0  0  0  0  0  0
   10.4610    4.2410  -56.4700 C   0  0  0  0  0  0  0  0  0  0  0  0
   11.5490    3.2450  -56.9290 C   0  0  2  0  0  0  0  0  0  0  0  0
   12.3980    3.9090  -58.0250 C   0  0  0  0  0  0  0  0  0  0  0  0
   11.5040    4.2860  -59.2190 C   0  0  2  0  0  0  0  0  0  0  0  0
   10.4200    5.2650  -58.7370 C   0  0  0  0  0  0  0  0  0  0  0  0
   10.8510    3.0080  -59.7720 C   0  0  0  0  0  0  0  0  0  0  0  0
    9.9710    2.3420  -58.6970 C   0  0  1  0  0  0  0  0  0  0  0  0
   10.8940    1.9720  -57.5090 C   0  0  0  0  0  0  0  0  0  0  0  0
    7.7860    1.4970  -59.6430 H   0  0  0  0  0  0  0  0  0  0  0  0
    4.6005    1.7449  -59.0383 H   0  0  0  0  0  0  0  0  0  0  0  0
    3.1629    1.8828  -63.1182 H   0  0  0  0  0  0  0  0  0  0  0  0
    5.4740    2.4218  -63.9198 H   0  0  0  0  0  0  0  0  0  0  0  0
    8.4514    2.8033  -57.2565 H   0  0  0  0  0  0  0  0  0  0  0  0
    8.7394    5.3155  -57.3970 H   0  0  0  0  0  0  0  0  0  0  0  0
   10.9413    5.1538  -56.0876 H   0  0  0  0  0  0  0  0  0  0  0  0
    9.8579    3.7751  -55.6768 H   0  0  0  0  0  0  0  0  0  0  0  0
   12.1758    2.9702  -56.0679 H   0  0  0  0  0  0  0  0  0  0  0  0
   12.8705    4.8167  -57.6214 H   0  0  0  0  0  0  0  0  0  0  0  0
   13.1742    3.2052  -58.3600 H   0  0  0  0  0  0  0  0  0  0  0  0
   12.0992    4.7632  -60.0115 H   0  0  0  0  0  0  0  0  0  0  0  0
   10.9018    6.1590  -58.3145 H   0  0  0  0  0  0  0  0  0  0  0  0
    9.7868    5.5435  -59.5923 H   0  0  0  0  0  0  0  0  0  0  0  0
   10.2276    3.2669  -60.6405 H   0  0  0  0  0  0  0  0  0  0  0  0
   11.6426    2.3044  -60.0691 H   0  0  0  0  0  0  0  0  0  0  0  0
    9.4726    1.4758  -59.1566 H   0  0  0  0  0  0  0  0  0  0  0  0
   10.2990    1.4798  -56.7256 H   0  0  0  0  0  0  0  0  0  0  0  0
   11.6820    1.2914  -57.8638 H   0  0  0  0  0  0  0  0  0  0  0  0
  1  2  2  0
  2  3  1  0
  3  4  1  0
  4  5  1  0
  5  6  2  0
  6  7  1  0
  6  8  1  0
  8  9  2  0
  9 10  1  0
 10 11  1  0
  2 12  1  0
 12 13  1  0
 13 14  1  0
 14 15  1  0
 15 16  1  0
 16 17  1  0
 17 18  1  0
 17 19  1  0
 19 20  1  0
 20 21  1  0
 10  4  2  0
 20 12  1  0
 18 13  1  0
 21 15  1  0
  3 22  1  0
  5 23  1  0
  8 24  1  0
  9 25  1  0
 12 26  1  6
 13 27  1  6
 14 28  1  0
 14 29  1  0
 15 30  1  6
 16 31  1  0
 16 32  1  0
 17 33  1  1
 18 34  1  0
 18 35  1  0
 19 36  1  0
 19 37  1  0
 20 38  1  1
 21 39  1  0
 21 40  1  0
M  END
>  <meeko>  (137) 
{"is_sidechain": false}

$$$$

     RDKit          3D

 44 48  0  0  0  0  0  0  0  0999 V2000
    6.8570    1.2060  -56.9210 O   0  0  0  0  0  0  0  0  0  0  0  0
    7.8170    1.9260  -56.6700 C   0  0  0  0  0  0  0  0  0  0  0  0
    8.8460    1.6270  -55.8110 N   0  0  0  0  0  0  0  0  0  0  0  0
    8.9580    0.4950  -55.0190 C   0  0  0  0  0  0  0  0  0  0  0  0
    9.9190   -0.3500  -55.4240 N   0  0  0  0  0  0  0  0  0  0  0  0
   10.0780   -1.4660  -54.6870 C   0  0  0  0  0  0  0  0  0  0  0  0
    9.3190   -1.7690  -53.5680 C   0  0  0  0  0  0  0  0  0  0  0  0
    9.4860   -2.9370  -52.7970 C   0  0  0  0  0  0  0  0  0  0  0  0
    8.6760   -3.1550  -51.6860 C   0  0  0  0  0  0  0  0  0  0  0  0
    7.7080   -2.2130  -51.3490 C   0  0  0  0  0  0  0  0  0  0  0  0
    7.5580   -1.0590  -52.1250 C   0  0  0  0  0  0  0  0  0  0  0  0
    8.3520   -0.8170  -53.2390 C   0  0  0  0  0  0  0  0  0  0  0  0
    8.1760    0.2990  -53.9550 N   0  0  0  0  0  0  0  0  0  0  0  0
    8.0130    3.2830  -57.3660 C   0  0  2  0  0  0  0  0  0  0  0  0
    7.6820    3.2560  -58.8800 C   0  0  1  0  0  0  0  0  0  0  0  0
    7.6830    4.7070  -59.4030 C   0  0  0  0  0  0  0  0  0  0  0  0
    9.0680    5.3450  -59.1970 C   0  0  2  0  0  0  0  0  0  0  0  0
   10.1130    4.5270  -59.9760 C   0  0  0  0  0  0  0  0  0  0  0  0
   10.1330    3.0780  -59.4620 C   0  0  2  0  0  0  0  0  0  0  0  0
    8.7440    2.4490  -59.6490 C   0  0  0  0  0  0  0  0  0  0  0  0
   10.4870    3.0810  -57.9680 C   0  0  0  0  0  0  0  0  0  0  0  0
    9.4330    3.8760  -57.1710 C   0  0  1  0  0  0  0  0  0  0  0  0
    9.4250    5.3270  -57.6990 C   0  0  0  0  0  0  0  0  0  0  0  0
    9.6450    2.2350  -55.7290 H   0  0  0  0  0  0  0  0  0  0  0  0
   10.8573   -2.1800  -54.9917 H   0  0  0  0  0  0  0  0  0  0  0  0
   10.2544   -3.6744  -53.0724 H   0  0  0  0  0  0  0  0  0  0  0  0
    8.7998   -4.0642  -51.0793 H   0  0  0  0  0  0  0  0  0  0  0  0
    7.0620   -2.3760  -50.4737 H   0  0  0  0  0  0  0  0  0  0  0  0
    6.7901   -0.3227  -51.8455 H   0  0  0  0  0  0  0  0  0  0  0  0
    7.2866    3.9376  -56.8622 H   0  0  0  0  0  0  0  0  0  0  0  0
    6.6997    2.7844  -59.0302 H   0  0  0  0  0  0  0  0  0  0  0  0
    7.4389    4.7068  -60.4756 H   0  0  0  0  0  0  0  0  0  0  0  0
    6.9333    5.2894  -58.8474 H   0  0  0  0  0  0  0  0  0  0  0  0
    9.0563    6.3841  -59.5578 H   0  0  0  0  0  0  0  0  0  0  0  0
    9.8559    4.5310  -61.0455 H   0  0  0  0  0  0  0  0  0  0  0  0
   11.1064    4.9765  -59.8305 H   0  0  0  0  0  0  0  0  0  0  0  0
   10.8791    2.4968  -60.0238 H   0  0  0  0  0  0  0  0  0  0  0  0
    8.4899    2.4428  -60.7192 H   0  0  0  0  0  0  0  0  0  0  0  0
    8.7624    1.4206  -59.2592 H   0  0  0  0  0  0  0  0  0  0  0  0
   10.5154    2.0449  -57.5995 H   0  0  0  0  0  0  0  0  0  0  0  0
   11.4704    3.5552  -57.8338 H   0  0  0  0  0  0  0  0  0  0  0  0
    9.6904    3.8305  -56.1025 H   0  0  0  0  0  0  0  0  0  0  0  0
    8.6800    5.9129  -57.1407 H   0  0  0  0  0  0  0  0  0  0  0  0
   10.4250    5.7644  -57.5627 H   0  0  0  0  0  0  0  0  0  0  0  0
  1  2  2  0
  2  3  1  0
  3  4  1  0
  4  5  2  0
  5  6  1  0
  6  7  2  0
  7  8  1  0
  8  9  2  0
  9 10  1  0
 10 11  2  0
 11 12  1  0
 12 13  2  0
  2 14  1  0
 14 15  1  0
 15 16  1  0
 16 17  1  0
 17 18  1  0
 18 19  1  0
 19 20  1  0
 19 21  1  0
 21 22  1  0
 22 23  1  0
 13  4  1  0
 22 14  1  0
 12  7  1  0
 20 15  1  0
 23 17  1  0
  3 24  1  0
  6 25  1  0
  8 26  1  0
  9 27  1  0
 10 28  1  0
 11 29  1  0
 14 30  1  6
 15 31  1  6
 16 32  1  0
 16 33  1  0
 17 34  1  1
 18 35  1  0
 18 36  1  0
 19 37  1  1
 20 38  1  0
 20 39  1  0
 21 40  1  0
 21 41  1  0
 22 42  1  6
 23 43  1  0
 23 44  1  0
M  END
>  <meeko>  (138) 
{"is_sidechain": false}

$$$$

     RDKit          3D

 44 48  0  0  0  0  0  0  0  0999 V2000
    6.8930    1.4000  -57.0090 O   0  0  0  0  0  0  0  0  0  0  0  0
    7.9110    2.0430  -56.7830 C   0  0  0  0  0  0  0  0  0  0  0  0
    8.9220    1.6610  -55.9150 N   0  0  0  0  0  0  0  0  0  0  0  0
    8.9500    0.5220  -55.0820 C   0  0  0  0  0  0  0  0  0  0  0  0
    9.8910   -0.4710  -55.3390 C   0  0  0  0  0  0  0  0  0  0  0  0
   10.0340   -1.6140  -54.6210 N   0  0  0  0  0  0  0  0  0  0  0  0
    9.2070   -1.8050  -53.5800 C   0  0  0  0  0  0  0  0  0  0  0  0
    9.3180   -2.9550  -52.8200 C   0  0  0  0  0  0  0  0  0  0  0  0
    8.4640   -3.1460  -51.7480 C   0  0  0  0  0  0  0  0  0  0  0  0
    7.5100   -2.2670  -51.3860 N   0  0  0  0  0  0  0  0  0  0  0  0
    7.4090   -1.1470  -52.1350 C   0  0  0  0  0  0  0  0  0  0  0  0
    8.2240   -0.8640  -53.2340 C   0  0  0  0  0  0  0  0  0  0  0  0
    8.1030    0.3100  -53.9990 C   0  0  0  0  0  0  0  0  0  0  0  0
    8.2180    3.3670  -57.5010 C   0  0  2  0  0  0  0  0  0  0  0  0
    7.6250    3.4480  -58.9300 C   0  0  1  0  0  0  0  0  0  0  0  0
    7.7910    4.8920  -59.4440 C   0  0  0  0  0  0  0  0  0  0  0  0
    9.2820    5.2720  -59.4900 C   0  0  2  0  0  0  0  0  0  0  0  0
   10.0100    4.3120  -60.4440 C   0  0  0  0  0  0  0  0  0  0  0  0
    9.8640    2.8650  -59.9440 C   0  0  2  0  0  0  0  0  0  0  0  0
    8.3740    2.4930  -59.8780 C   0  0  0  0  0  0  0  0  0  0  0  0
   10.4710    2.7570  -58.5380 C   0  0  0  0  0  0  0  0  0  0  0  0
    9.7320    3.6980  -57.5630 C   0  0  1  0  0  0  0  0  0  0  0  0
    9.8890    5.1430  -58.0790 C   0  0  0  0  0  0  0  0  0  0  0  0
    9.7520    2.2420  -55.8990 H   0  0  0  0  0  0  0  0  0  0  0  0
   10.5713   -0.3176  -56.1897 H   0  0  0  0  0  0  0  0  0  0  0  0
   10.0783   -3.7111  -53.0654 H   0  0  0  0  0  0  0  0  0  0  0  0
    8.5704   -4.0682  -51.1580 H   0  0  0  0  0  0  0  0  0  0  0  0
    6.6371   -0.4122  -51.8626 H   0  0  0  0  0  0  0  0  0  0  0  0
    7.3399    1.0593  -53.7414 H   0  0  0  0  0  0  0  0  0  0  0  0
    7.7197    4.1211  -56.8741 H   0  0  0  0  0  0  0  0  0  0  0  0
    6.5635    3.1609  -58.9011 H   0  0  0  0  0  0  0  0  0  0  0  0
    7.3651    4.9689  -60.4553 H   0  0  0  0  0  0  0  0  0  0  0  0
    7.2667    5.5780  -58.7624 H   0  0  0  0  0  0  0  0  0  0  0  0
    9.3917    6.3084  -59.8421 H   0  0  0  0  0  0  0  0  0  0  0  0
    9.5725    4.3961  -61.4497 H   0  0  0  0  0  0  0  0  0  0  0  0
   11.0771    4.5768  -60.4789 H   0  0  0  0  0  0  0  0  0  0  0  0
   10.3842    2.1824  -60.6321 H   0  0  0  0  0  0  0  0  0  0  0  0
    7.9372    2.5652  -60.8850 H   0  0  0  0  0  0  0  0  0  0  0  0
    8.2788    1.4651  -59.4982 H   0  0  0  0  0  0  0  0  0  0  0  0
   10.3794    1.7204  -58.1817 H   0  0  0  0  0  0  0  0  0  0  0  0
   11.5310    3.0475  -58.5821 H   0  0  0  0  0  0  0  0  0  0  0  0
   10.1613    3.5745  -56.5578 H   0  0  0  0  0  0  0  0  0  0  0  0
    9.3702    5.8314  -57.3957 H   0  0  0  0  0  0  0  0  0  0  0  0
   10.9589    5.3945  -58.1236 H   0  0  0  0  0  0  0  0  0  0  0  0
  1  2  2  0
  2  3  1  0
  3  4  1  0
  4  5  1  0
  5  6  2  0
  6  7  1  0
  7  8  2  0
  8  9  1  0
  9 10  2  0
 10 11  1  0
 11 12  2  0
 12 13  1  0
  2 14  1  0
 14 15  1  0
 15 16  1  0
 16 17  1  0
 17 18  1  0
 18 19  1  0
 19 20  1  0
 19 21  1  0
 21 22  1  0
 22 23  1  0
 13  4  2  0
 22 14  1  0
 12  7  1  0
 20 15  1  0
 23 17  1  0
  3 24  1  0
  5 25  1  0
  8 26  1  0
  9 27  1  0
 11 28  1  0
 13 29  1  0
 14 30  1  6
 15 31  1  6
 16 32  1  0
 16 33  1  0
 17 34  1  1
 18 35  1  0
 18 36  1  0
 19 37  1  1
 20 38  1  0
 20 39  1  0
 21 40  1  0
 21 41  1  0
 22 42  1  6
 23 43  1  0
 23 44  1  0
M  END
>  <meeko>  (139) 
{"is_sidechain": false}

$$$$

     RDKit          3D

 44 47  0  0  0  0  0  0  0  0999 V2000
    5.9580    1.8900  -56.7800 C   0  0  0  0  0  0  0  0  0  0  0  0
    6.3950    2.7780  -57.8090 O   0  0  0  0  0  0  0  0  0  0  0  0
    5.6860    2.6520  -58.9790 C   0  0  0  0  0  0  0  0  0  0  0  0
    4.3380    2.2770  -58.9560 C   0  0  0  0  0  0  0  0  0  0  0  0
    3.6660    1.9840  -60.1440 C   0  0  0  0  0  0  0  0  0  0  0  0
    4.3460    2.0300  -61.3620 C   0  0  0  0  0  0  0  0  0  0  0  0
    3.4590    1.6190  -62.7870 Cl  0  0  0  0  0  0  0  0  0  0  0  0
    5.7000    2.3890  -61.3960 C   0  0  0  0  0  0  0  0  0  0  0  0
    6.5770    2.4350  -62.8990 Cl  0  0  0  0  0  0  0  0  0  0  0  0
    6.3740    2.7360  -60.2040 C   0  0  0  0  0  0  0  0  0  0  0  0
    7.7470    3.1020  -60.2930 N   0  0  0  0  0  0  0  0  0  0  0  0
    8.2580    4.3350  -59.9310 C   0  0  0  0  0  0  0  0  0  0  0  0
    7.5980    5.3460  -59.7160 O   0  0  0  0  0  0  0  0  0  0  0  0
    9.7890    4.3680  -59.9250 C   0  0  2  0  0  0  0  0  0  0  0  0
   10.4300    3.0440  -59.4380 C   0  0  2  0  0  0  0  0  0  0  0  0
   10.1500    2.8310  -57.9370 C   0  0  0  0  0  0  0  0  0  0  0  0
   10.7370    3.9910  -57.1170 C   0  0  2  0  0  0  0  0  0  0  0  0
   10.0870    5.3060  -57.5690 C   0  0  0  0  0  0  0  0  0  0  0  0
   10.3490    5.5390  -59.0730 C   0  0  1  0  0  0  0  0  0  0  0  0
   11.8650    5.6130  -59.2920 C   0  0  0  0  0  0  0  0  0  0  0  0
   12.4730    4.3000  -58.8410 N   0  0  1  0  0  0  0  0  0  0  0  0
   12.2480    4.0730  -57.3580 C   0  0  0  0  0  0  0  0  0  0  0  0
   11.9470    3.1350  -59.6500 C   0  0  0  0  0  0  0  0  0  0  0  0
    6.1758    2.3326  -55.7968 H   0  0  0  0  0  0  0  0  0  0  0  0
    4.8749    1.7232  -56.8752 H   0  0  0  0  0  0  0  0  0  0  0  0
    6.4866    0.9300  -56.8752 H   0  0  0  0  0  0  0  0  0  0  0  0
    3.8047    2.2127  -57.9961 H   0  0  0  0  0  0  0  0  0  0  0  0
    2.5993    1.7165  -60.1202 H   0  0  0  0  0  0  0  0  0  0  0  0
    8.2690    2.5860  -60.9920 H   0  0  0  0  0  0  0  0  0  0  0  0
   10.0656    4.5175  -60.9791 H   0  0  0  0  0  0  0  0  0  0  0  0
   10.0032    2.2025  -60.0035 H   0  0  0  0  0  0  0  0  0  0  0  0
    9.0633    2.7839  -57.7733 H   0  0  0  0  0  0  0  0  0  0  0  0
   10.6198    1.8901  -57.6145 H   0  0  0  0  0  0  0  0  0  0  0  0
   10.5409    3.8222  -56.0479 H   0  0  0  0  0  0  0  0  0  0  0  0
    9.0025    5.2551  -57.3924 H   0  0  0  0  0  0  0  0  0  0  0  0
   10.5215    6.1378  -56.9951 H   0  0  0  0  0  0  0  0  0  0  0  0
    9.8508    6.4705  -59.3799 H   0  0  0  0  0  0  0  0  0  0  0  0
   12.0797    5.7760  -60.3585 H   0  0  0  0  0  0  0  0  0  0  0  0
   12.2919    6.4473  -58.7160 H   0  0  0  0  0  0  0  0  0  0  0  0
   13.4890    4.3580  -58.9920 H   0  0  0  0  0  0  0  0  0  0  0  0
   12.7274    3.1331  -57.0470 H   0  0  0  0  0  0  0  0  0  0  0  0
   12.6846    4.8967  -56.7741 H   0  0  0  0  0  0  0  0  0  0  0  0
   12.1642    3.2951  -60.7164 H   0  0  0  0  0  0  0  0  0  0  0  0
   12.4305    2.2014  -59.3267 H   0  0  0  0  0  0  0  0  0  0  0  0
  1  2  1  0
  2  3  1  0
  3  4  1  0
  4  5  2  0
  5  6  1  0
  6  7  1  0
  6  8  2  0
  8  9  1  0
  8 10  1  0
 10 11  1  0
 11 12  1  0
 12 13  2  0
 12 14  1  0
 14 15  1  0
 15 16  1  0
 16 17  1  0
 17 18  1  0
 18 19  1  0
 19 20  1  0
 20 21  1  0
 21 22  1  0
 21 23  1  0
 10  3  2  0
 19 14  1  0
 23 15  1  0
 22 17  1  0
  1 24  1  0
  1 25  1  0
  1 26  1  0
  4 27  1  0
  5 28  1  0
 11 29  1  0
 14 30  1  6
 15 31  1  6
 16 32  1  0
 16 33  1  0
 17 34  1  1
 18 35  1  0
 18 36  1  0
 19 37  1  6
 20 38  1  0
 20 39  1  0
 21 40  1  1
 22 41  1  0
 22 42  1  0
 23 43  1  0
 23 44  1  0
M  CHG  1  21   1
M  END
>  <meeko>  (140) 
{"is_sidechain": false}

$$$$

     RDKit          3D

 42 45  0  0  0  0  0  0  0  0999 V2000
    7.7560    5.1250  -59.8250 O   0  0  0  0  0  0  0  0  0  0  0  0
    8.5150    4.2420  -60.2100 C   0  0  0  0  0  0  0  0  0  0  0  0
    8.0950    3.0060  -60.6480 N   0  0  0  0  0  0  0  0  0  0  0  0
    6.7670    2.5780  -60.7270 C   0  0  0  0  0  0  0  0  0  0  0  0
    6.3070    2.6850  -62.0000 N   0  0  0  0  0  0  0  0  0  0  0  0
    5.0650    2.2350  -62.2730 C   0  0  0  0  0  0  0  0  0  0  0  0
    4.2270    1.6960  -61.3230 C   0  0  0  0  0  0  0  0  0  0  0  0
    4.6860    1.6510  -60.0120 C   0  0  0  0  0  0  0  0  0  0  0  0
    5.9720    2.1260  -59.6800 C   0  0  0  0  0  0  0  0  0  0  0  0
    6.3350    2.1940  -58.2250 C   0  0  0  0  0  0  0  0  0  0  0  0
    6.4880    3.4490  -57.7190 F   0  0  0  0  0  0  0  0  0  0  0  0
    7.4460    1.4800  -57.9000 F   0  0  0  0  0  0  0  0  0  0  0  0
    5.3420    1.6470  -57.4490 F   0  0  0  0  0  0  0  0  0  0  0  0
   10.0430    4.3710  -60.1310 C   0  0  2  0  0  0  0  0  0  0  0  0
   10.7280    3.0870  -59.5980 C   0  0  1  0  0  0  0  0  0  0  0  0
   12.2520    3.2360  -59.7860 C   0  0  0  0  0  0  0  0  0  0  0  0
   12.7680    4.4530  -58.9960 C   0  0  2  0  0  0  0  0  0  0  0  0
   12.4580    4.2530  -57.5030 C   0  0  0  0  0  0  0  0  0  0  0  0
   10.9410    4.1060  -57.2960 C   0  0  2  0  0  0  0  0  0  0  0  0
   10.4400    2.8930  -58.0950 C   0  0  0  0  0  0  0  0  0  0  0  0
   10.2330    5.3720  -57.8050 C   0  0  0  0  0  0  0  0  0  0  0  0
   10.5290    5.5860  -59.3020 C   0  0  1  0  0  0  0  0  0  0  0  0
   12.0540    5.7230  -59.4890 C   0  0  0  0  0  0  0  0  0  0  0  0
    8.7200    2.2300  -60.4660 H   0  0  0  0  0  0  0  0  0  0  0  0
    4.7026    2.3023  -63.3094 H   0  0  0  0  0  0  0  0  0  0  0  0
    3.2307    1.3149  -61.5917 H   0  0  0  0  0  0  0  0  0  0  0  0
    4.0385    1.2399  -59.2235 H   0  0  0  0  0  0  0  0  0  0  0  0
   10.3454    4.5328  -61.1762 H   0  0  0  0  0  0  0  0  0  0  0  0
   10.3381    2.2192  -60.1502 H   0  0  0  0  0  0  0  0  0  0  0  0
   12.7537    2.3272  -59.4222 H   0  0  0  0  0  0  0  0  0  0  0  0
   12.4696    3.3826  -60.8543 H   0  0  0  0  0  0  0  0  0  0  0  0
   13.8530    4.5556  -59.1448 H   0  0  0  0  0  0  0  0  0  0  0  0
   12.9643    3.3447  -57.1443 H   0  0  0  0  0  0  0  0  0  0  0  0
   12.8164    5.1271  -56.9395 H   0  0  0  0  0  0  0  0  0  0  0  0
   10.7244    3.9653  -56.2267 H   0  0  0  0  0  0  0  0  0  0  0  0
   10.9542    1.9874  -57.7408 H   0  0  0  0  0  0  0  0  0  0  0  0
    9.3546    2.7911  -57.9485 H   0  0  0  0  0  0  0  0  0  0  0  0
    9.1478    5.2631  -57.6618 H   0  0  0  0  0  0  0  0  0  0  0  0
   10.6029    6.2402  -57.2398 H   0  0  0  0  0  0  0  0  0  0  0  0
   10.0053    6.4910  -59.6438 H   0  0  0  0  0  0  0  0  0  0  0  0
   12.2768    5.8738  -60.5556 H   0  0  0  0  0  0  0  0  0  0  0  0
   12.4105    6.5839  -58.9044 H   0  0  0  0  0  0  0  0  0  0  0  0
  1  2  2  0
  2  3  1  0
  3  4  1  0
  4  5  1  0
  5  6  2  0
  6  7  1  0
  7  8  2  0
  8  9  1  0
  9 10  1  0
 10 11  1  0
 10 12  1  0
 10 13  1  0
  2 14  1  0
 14 15  1  0
 15 16  1  0
 16 17  1  0
 17 18  1  0
 18 19  1  0
 19 20  1  0
 19 21  1  0
 21 22  1  0
 22 23  1  0
  9  4  2  0
 22 14  1  0
 20 15  1  0
 23 17  1  0
  3 24  1  0
  6 25  1  0
  7 26  1  0
  8 27  1  0
 14 28  1  1
 15 29  1  1
 16 30  1  0
 16 31  1  0
 17 32  1  6
 18 33  1  0
 18 34  1  0
 19 35  1  6
 20 36  1  0
 20 37  1  0
 21 38  1  0
 21 39  1  0
 22 40  1  1
 23 41  1  0
 23 42  1  0
M  END
>  <meeko>  (141) 
{"is_sidechain": false}

$$$$

     RDKit          3D

 28 30  0  0  0  0  0  0  0  0999 V2000
   12.7270    4.7300  -57.9650 O   0  0  0  0  0  0  0  0  0  0  0  0
   11.9010    3.8210  -57.6650 C   0  0  0  0  0  0  0  0  0  0  0  0
   12.1310    2.6520  -57.2420 O   0  0  0  0  0  0  0  0  0  0  0  0
   10.4060    4.2040  -57.7940 C   0  0  2  0  0  0  0  0  0  0  0  0
    9.4520    2.9960  -57.9490 C   0  0  1  0  0  0  0  0  0  0  0  0
    7.9960    3.4870  -57.8200 C   0  0  0  0  0  0  0  0  0  0  0  0
    7.6840    4.5200  -58.9160 C   0  0  2  0  0  0  0  0  0  0  0  0
    7.8810    3.8680  -60.2940 C   0  0  0  0  0  0  0  0  0  0  0  0
    9.3310    3.3770  -60.4430 C   0  0  2  0  0  0  0  0  0  0  0  0
    9.6340    2.3520  -59.3370 C   0  0  0  0  0  0  0  0  0  0  0  0
   10.2860    4.5730  -60.2960 C   0  0  0  0  0  0  0  0  0  0  0  0
   10.1080    5.2300  -58.9130 C   0  0  1  0  0  0  0  0  0  0  0  0
    8.6490    5.7090  -58.7780 C   0  0  0  0  0  0  0  0  0  0  0  0
   10.2016    4.6820  -56.8246 H   0  0  0  0  0  0  0  0  0  0  0  0
    9.6799    2.2547  -57.1689 H   0  0  0  0  0  0  0  0  0  0  0  0
    7.3134    2.6306  -57.9231 H   0  0  0  0  0  0  0  0  0  0  0  0
    7.8622    3.9578  -56.8349 H   0  0  0  0  0  0  0  0  0  0  0  0
    6.6459    4.8692  -58.8141 H   0  0  0  0  0  0  0  0  0  0  0  0
    7.1953    3.0136  -60.3938 H   0  0  0  0  0  0  0  0  0  0  0  0
    7.6696    4.6105  -61.0776 H   0  0  0  0  0  0  0  0  0  0  0  0
    9.4659    2.9107  -61.4301 H   0  0  0  0  0  0  0  0  0  0  0  0
    8.9467    1.4987  -59.4344 H   0  0  0  0  0  0  0  0  0  0  0  0
   10.6745    2.0103  -59.4401 H   0  0  0  0  0  0  0  0  0  0  0  0
   11.3239    4.2243  -60.4016 H   0  0  0  0  0  0  0  0  0  0  0  0
   10.0570    5.3131  -61.0769 H   0  0  0  0  0  0  0  0  0  0  0  0
   10.8028    6.0776  -58.8190 H   0  0  0  0  0  0  0  0  0  0  0  0
    8.5101    6.1770  -57.7923 H   0  0  0  0  0  0  0  0  0  0  0  0
    8.4359    6.4380  -59.5737 H   0  0  0  0  0  0  0  0  0  0  0  0
  1  2  2  0
  2  3  1  0
  2  4  1  0
  4  5  1  0
  5  6  1  0
  6  7  1  0
  7  8  1  0
  8  9  1  0
  9 10  1  0
  9 11  1  0
 11 12  1  0
 12 13  1  0
 12  4  1  0
 10  5  1  0
 13  7  1  0
  4 14  1  6
  5 15  1  6
  6 16  1  0
  6 17  1  0
  7 18  1  1
  8 19  1  0
  8 20  1  0
  9 21  1  1
 10 22  1  0
 10 23  1  0
 11 24  1  0
 11 25  1  0
 12 26  1  1
 13 27  1  0
 13 28  1  0
M  CHG  1   3  -1
M  END
>  <meeko>  (142) 
{"is_sidechain": false}

$$$$

     RDKit          3D

 44 47  0  0  0  0  0  0  0  0999 V2000
    6.8590    1.2330  -56.8430 O   0  0  0  0  0  0  0  0  0  0  0  0
    7.8600    1.8860  -56.5710 C   0  0  0  0  0  0  0  0  0  0  0  0
    8.8730    1.4890  -55.7110 N   0  0  0  0  0  0  0  0  0  0  0  0
    8.9290    0.3180  -54.9280 C   0  0  0  0  0  0  0  0  0  0  0  0
    8.0200    0.0060  -53.9190 C   0  0  0  0  0  0  0  0  0  0  0  0
    8.1560   -1.1770  -53.1890 C   0  0  0  0  0  0  0  0  0  0  0  0
    9.2020   -2.0620  -53.4560 C   0  0  0  0  0  0  0  0  0  0  0  0
   10.1220   -1.7650  -54.4590 C   0  0  0  0  0  0  0  0  0  0  0  0
   11.1910   -2.5280  -54.8320 O   0  0  0  0  0  0  0  0  0  0  0  0
   10.9740   -3.5450  -55.7960 C   0  0  0  0  0  0  0  0  0  0  0  0
   11.8040   -4.5770  -55.5270 F   0  0  0  0  0  0  0  0  0  0  0  0
   11.2460   -3.1020  -57.0420 F   0  0  0  0  0  0  0  0  0  0  0  0
    9.7050   -4.0040  -55.7430 F   0  0  0  0  0  0  0  0  0  0  0  0
    9.9780   -0.5760  -55.1870 C   0  0  0  0  0  0  0  0  0  0  0  0
    8.1430    3.2500  -57.2220 C   0  0  2  0  0  0  0  0  0  0  0  0
    7.5380    3.3980  -58.6400 C   0  0  1  0  0  0  0  0  0  0  0  0
    7.6800    4.8700  -59.0780 C   0  0  0  0  0  0  0  0  0  0  0  0
    9.1640    5.2730  -59.1140 C   0  0  2  0  0  0  0  0  0  0  0  0
    9.8990    4.3750  -60.1220 C   0  0  0  0  0  0  0  0  0  0  0  0
    9.7780    2.9020  -59.6980 C   0  0  2  0  0  0  0  0  0  0  0  0
    8.2950    2.5050  -59.6420 C   0  0  0  0  0  0  0  0  0  0  0  0
   10.3970    2.7300  -58.3030 C   0  0  0  0  0  0  0  0  0  0  0  0
    9.6510    3.6060  -57.2760 C   0  0  1  0  0  0  0  0  0  0  0  0
    9.7830    5.0790  -57.7160 C   0  0  0  0  0  0  0  0  0  0  0  0
    9.6860    2.0890  -55.6620 H   0  0  0  0  0  0  0  0  0  0  0  0
    7.1915    0.6945  -53.6964 H   0  0  0  0  0  0  0  0  0  0  0  0
    7.4316   -1.4137  -52.3958 H   0  0  0  0  0  0  0  0  0  0  0  0
    9.2995   -2.9915  -52.8759 H   0  0  0  0  0  0  0  0  0  0  0  0
   10.7037   -0.3389  -55.9789 H   0  0  0  0  0  0  0  0  0  0  0  0
    7.6381    3.9628  -56.5534 H   0  0  0  0  0  0  0  0  0  0  0  0
    6.4808    3.0948  -58.6197 H   0  0  0  0  0  0  0  0  0  0  0  0
    7.2454    4.9942  -60.0808 H   0  0  0  0  0  0  0  0  0  0  0  0
    7.1514    5.5114  -58.3574 H   0  0  0  0  0  0  0  0  0  0  0  0
    9.2562    6.3278  -59.4121 H   0  0  0  0  0  0  0  0  0  0  0  0
    9.4529    4.5051  -61.1190 H   0  0  0  0  0  0  0  0  0  0  0  0
   10.9618    4.6571  -60.1498 H   0  0  0  0  0  0  0  0  0  0  0  0
   10.3030    2.2641  -60.4243 H   0  0  0  0  0  0  0  0  0  0  0  0
    7.8501    2.6232  -60.6410 H   0  0  0  0  0  0  0  0  0  0  0  0
    8.2179    1.4573  -59.3157 H   0  0  0  0  0  0  0  0  0  0  0  0
   10.3242    1.6748  -58.0011 H   0  0  0  0  0  0  0  0  0  0  0  0
   11.4520    3.0393  -58.3385 H   0  0  0  0  0  0  0  0  0  0  0  0
   10.0889    3.4355  -56.2814 H   0  0  0  0  0  0  0  0  0  0  0  0
    9.2591    5.7225  -56.9939 H   0  0  0  0  0  0  0  0  0  0  0  0
   10.8488    5.3486  -57.7542 H   0  0  0  0  0  0  0  0  0  0  0  0
  1  2  2  0
  2  3  1  0
  3  4  1  0
  4  5  2  0
  5  6  1  0
  6  7  2  0
  7  8  1  0
  8  9  1  0
  9 10  1  0
 10 11  1  0
 10 12  1  0
 10 13  1  0
  8 14  2  0
  2 15  1  0
 15 16  1  0
 16 17  1  0
 17 18  1  0
 18 19  1  0
 19 20  1  0
 20 21  1  0
 20 22  1  0
 22 23  1  0
 23 24  1  0
 14  4  1  0
 23 15  1  0
 21 16  1  0
 24 18  1  0
  3 25  1  0
  5 26  1  0
  6 27  1  0
  7 28  1  0
 14 29  1  0
 15 30  1  6
 16 31  1  6
 17 32  1  0
 17 33  1  0
 18 34  1  1
 19 35  1  0
 19 36  1  0
 20 37  1  1
 21 38  1  0
 21 39  1  0
 22 40  1  0
 22 41  1  0
 23 42  1  6
 24 43  1  0
 24 44  1  0
M  END
>  <meeko>  (143) 
{"is_sidechain": false}

$$$$

     RDKit          3D

 42 46  0  0  0  0  0  0  0  0999 V2000
    7.7540    5.1550  -59.3540 O   0  0  0  0  0  0  0  0  0  0  0  0
    8.4540    4.2720  -59.8390 C   0  0  0  0  0  0  0  0  0  0  0  0
    7.9820    3.1170  -60.4210 N   0  0  0  0  0  0  0  0  0  0  0  0
    6.6650    2.6740  -60.5360 C   0  0  0  0  0  0  0  0  0  0  0  0
    5.8300    2.3950  -59.4450 C   0  0  0  0  0  0  0  0  0  0  0  0
    4.5210    1.9500  -59.6700 C   0  0  0  0  0  0  0  0  0  0  0  0
    4.1260    1.8100  -60.9740 C   0  0  0  0  0  0  0  0  0  0  0  0
    5.0090    2.1030  -61.9760 C   0  0  0  0  0  0  0  0  0  0  0  0
    6.2700    2.5310  -61.8220 N   0  0  0  0  0  0  0  0  0  0  0  0
    4.4620    1.9100  -63.2220 O   0  0  0  0  0  0  0  0  0  0  0  0
    3.1420    1.4670  -62.8570 C   0  0  0  0  0  0  0  0  0  0  0  0
    2.9200    1.3980  -61.4310 O   0  0  0  0  0  0  0  0  0  0  0  0
    9.9850    4.3840  -59.9050 C   0  0  2  0  0  0  0  0  0  0  0  0
   10.7190    3.0750  -59.5180 C   0  0  1  0  0  0  0  0  0  0  0  0
   12.2160    3.2420  -59.8510 C   0  0  0  0  0  0  0  0  0  0  0  0
   12.8120    4.4140  -59.0520 C   0  0  2  0  0  0  0  0  0  0  0  0
   12.6590    4.1200  -57.5510 C   0  0  0  0  0  0  0  0  0  0  0  0
   11.1720    3.9600  -57.1960 C   0  0  2  0  0  0  0  0  0  0  0  0
   10.5730    2.8020  -58.0100 C   0  0  0  0  0  0  0  0  0  0  0  0
   10.4300    5.2580  -57.5470 C   0  0  0  0  0  0  0  0  0  0  0  0
   10.5530    5.5510  -59.0570 C   0  0  1  0  0  0  0  0  0  0  0  0
   12.0500    5.7090  -59.3950 C   0  0  0  0  0  0  0  0  0  0  0  0
    8.6290    2.4850  -60.8720 H   0  0  0  0  0  0  0  0  0  0  0  0
    6.2008    2.5249  -58.4176 H   0  0  0  0  0  0  0  0  0  0  0  0
    3.8403    1.7230  -58.8362 H   0  0  0  0  0  0  0  0  0  0  0  0
    2.4106    2.1667  -63.2877 H   0  0  0  0  0  0  0  0  0  0  0  0
    3.0296    0.4446  -63.2470 H   0  0  0  0  0  0  0  0  0  0  0  0
   10.1829    4.5924  -60.9668 H   0  0  0  0  0  0  0  0  0  0  0  0
   10.2827    2.2333  -60.0759 H   0  0  0  0  0  0  0  0  0  0  0  0
   12.7511    2.3165  -59.5918 H   0  0  0  0  0  0  0  0  0  0  0  0
   12.3230    3.4500  -60.9259 H   0  0  0  0  0  0  0  0  0  0  0  0
   13.8752    4.5362  -59.3062 H   0  0  0  0  0  0  0  0  0  0  0  0
   13.1943    3.1910  -57.3053 H   0  0  0  0  0  0  0  0  0  0  0  0
   13.0801    4.9566  -56.9742 H   0  0  0  0  0  0  0  0  0  0  0  0
   11.0693    3.7473  -56.1217 H   0  0  0  0  0  0  0  0  0  0  0  0
   11.1006    1.8704  -57.7575 H   0  0  0  0  0  0  0  0  0  0  0  0
    9.5045    2.7091  -57.7658 H   0  0  0  0  0  0  0  0  0  0  0  0
    9.3675    5.1518  -57.2829 H   0  0  0  0  0  0  0  0  0  0  0  0
   10.8761    6.0901  -56.9826 H   0  0  0  0  0  0  0  0  0  0  0  0
    9.9837    6.4635  -59.2878 H   0  0  0  0  0  0  0  0  0  0  0  0
   12.1597    5.9218  -60.4686 H   0  0  0  0  0  0  0  0  0  0  0  0
   12.4662    6.5380  -58.8037 H   0  0  0  0  0  0  0  0  0  0  0  0
  1  2  2  0
  2  3  1  0
  3  4  1  0
  4  5  2  0
  5  6  1  0
  6  7  2  0
  7  8  1  0
  8  9  2  0
  8 10  1  0
 10 11  1  0
 11 12  1  0
  2 13  1  0
 13 14  1  0
 14 15  1  0
 15 16  1  0
 16 17  1  0
 17 18  1  0
 18 19  1  0
 18 20  1  0
 20 21  1  0
 21 22  1  0
  9  4  1  0
 21 13  1  0
 12  7  1  0
 19 14  1  0
 22 16  1  0
  3 23  1  0
  5 24  1  0
  6 25  1  0
 11 26  1  0
 11 27  1  0
 13 28  1  1
 14 29  1  1
 15 30  1  0
 15 31  1  0
 16 32  1  6
 17 33  1  0
 17 34  1  0
 18 35  1  6
 19 36  1  0
 19 37  1  0
 20 38  1  0
 20 39  1  0
 21 40  1  6
 22 41  1  0
 22 42  1  0
M  END
>  <meeko>  (144) 
{"is_sidechain": false}

$$$$

     RDKit          3D

 54 59  0  0  0  0  0  0  0  0999 V2000
    6.2550    1.5940  -58.4010 C   0  0  0  0  0  0  0  0  0  0  0  0
    6.4130    1.1860  -59.6670 C   0  0  0  0  0  0  0  0  0  0  0  0
    7.2050    1.8450  -60.7930 C   0  0  1  0  0  0  0  0  0  0  0  0
    7.1790    3.3980  -60.8850 C   0  0  0  0  0  0  0  0  0  0  0  0
    8.5090    4.1810  -60.7570 C   0  0  2  0  0  0  0  0  0  0  0  0
    9.6520    3.3960  -61.3670 C   0  0  0  0  0  0  0  0  0  0  0  0
    9.7890    2.0900  -60.6000 C   0  0  2  0  0  0  0  0  0  0  0  0
    8.5950    1.1910  -60.9730 C   0  0  0  0  0  0  0  0  0  0  0  0
    9.8840    2.2760  -59.0680 C   0  0  0  0  0  0  0  0  0  0  0  0
    9.8660    3.7370  -58.5450 C   0  0  2  0  0  0  0  0  0  0  0  0
   11.3200    4.2920  -58.6590 C   0  0  0  0  0  0  0  0  0  0  0  0
   12.0680    3.7490  -57.4440 C   0  0  0  0  0  0  0  0  0  0  0  0
   10.9980    3.3910  -56.4600 N   0  0  0  0  0  0  0  0  0  0  0  0
    9.6960    3.9060  -56.9970 C   0  0  2  0  0  0  0  0  0  0  0  0
    8.4560    3.4770  -56.2680 C   0  0  1  0  0  0  0  0  0  0  0  0
    7.5350    2.6270  -56.8860 C   0  0  0  0  0  0  0  0  0  0  0  0
    6.8650    2.7160  -57.9510 N   0  0  0  0  0  0  0  0  0  0  0  0
    7.9700    1.8960  -55.7780 C   0  0  1  0  0  0  0  0  0  0  0  0
    9.0550    0.8630  -55.7070 C   0  0  0  0  0  0  0  0  0  0  0  0
   10.1500    0.8470  -56.5820 C   0  0  0  0  0  0  0  0  0  0  0  0
   11.1560   -0.1160  -56.4730 C   0  0  0  0  0  0  0  0  0  0  0  0
   11.0710   -1.1080  -55.5020 C   0  0  0  0  0  0  0  0  0  0  0  0
    9.9710   -1.1480  -54.6520 C   0  0  0  0  0  0  0  0  0  0  0  0
    8.9710   -0.1780  -54.7630 C   0  0  0  0  0  0  0  0  0  0  0  0
    8.8600    4.6290  -59.3240 C   0  0  0  0  0  0  0  0  0  0  0  0
    5.6212    1.0097  -57.7177 H   0  0  0  0  0  0  0  0  0  0  0  0
    5.9024    0.2482  -59.9311 H   0  0  0  0  0  0  0  0  0  0  0  0
    6.6215    1.6144  -61.6966 H   0  0  0  0  0  0  0  0  0  0  0  0
    6.7464    3.6556  -61.8630 H   0  0  0  0  0  0  0  0  0  0  0  0
    6.6063    3.7049  -59.9974 H   0  0  0  0  0  0  0  0  0  0  0  0
    8.3523    5.1123  -61.3210 H   0  0  0  0  0  0  0  0  0  0  0  0
    9.4376    3.1864  -62.4253 H   0  0  0  0  0  0  0  0  0  0  0  0
   10.5863    3.9735  -61.3071 H   0  0  0  0  0  0  0  0  0  0  0  0
   10.7412    1.6215  -60.8895 H   0  0  0  0  0  0  0  0  0  0  0  0
    8.7021    0.9016  -62.0288 H   0  0  0  0  0  0  0  0  0  0  0  0
    8.6251    0.3361  -60.2814 H   0  0  0  0  0  0  0  0  0  0  0  0
    9.0325    1.7481  -58.6139 H   0  0  0  0  0  0  0  0  0  0  0  0
   10.8706    1.8787  -58.7873 H   0  0  0  0  0  0  0  0  0  0  0  0
   11.7924    3.9409  -59.5883 H   0  0  0  0  0  0  0  0  0  0  0  0
   11.3331    5.3916  -58.6848 H   0  0  0  0  0  0  0  0  0  0  0  0
   12.6556    2.8601  -57.7170 H   0  0  0  0  0  0  0  0  0  0  0  0
   12.7785    4.4819  -57.0341 H   0  0  0  0  0  0  0  0  0  0  0  0
   10.9570    2.3650  -56.3820 H   0  0  0  0  0  0  0  0  0  0  0  0
   11.1970    3.7540  -55.5210 H   0  0  0  0  0  0  0  0  0  0  0  0
    9.4797    4.9644  -56.7896 H   0  0  0  0  0  0  0  0  0  0  0  0
    8.5461    4.4498  -55.7625 H   0  0  0  0  0  0  0  0  0  0  0  0
    7.4441    1.3267  -54.9973 H   0  0  0  0  0  0  0  0  0  0  0  0
   10.2186    1.6095  -57.3718 H   0  0  0  0  0  0  0  0  0  0  0  0
   12.0173   -0.0896  -57.1567 H   0  0  0  0  0  0  0  0  0  0  0  0
   11.8703   -1.8577  -55.4067 H   0  0  0  0  0  0  0  0  0  0  0  0
    9.8882   -1.9411  -53.8943 H   0  0  0  0  0  0  0  0  0  0  0  0
    8.0972   -0.2292  -54.0967 H   0  0  0  0  0  0  0  0  0  0  0  0
    7.9249    4.6615  -58.7456 H   0  0  0  0  0  0  0  0  0  0  0  0
    9.3612    5.6016  -59.4378 H   0  0  0  0  0  0  0  0  0  0  0  0
  1  2  2  0
  2  3  1  0
  3  4  1  0
  4  5  1  0
  5  6  1  0
  6  7  1  0
  7  8  1  0
  7  9  1  0
  9 10  1  0
 10 11  1  6
 11 12  1  0
 12 13  1  0
 13 14  1  0
 14 15  1  0
 15 16  1  0
 16 17  2  0
 16 18  1  0
 18 19  1  0
 19 20  2  0
 20 21  1  0
 21 22  2  0
 22 23  1  0
 23 24  2  0
 10 25  1  0
 17  1  1  0
 24 19  1  0
  8  3  1  0
 14 10  1  0
 18 15  1  0
 25  5  1  0
  1 26  1  0
  2 27  1  0
  3 28  1  6
  4 29  1  0
  4 30  1  0
  5 31  1  6
  6 32  1  0
  6 33  1  0
  7 34  1  6
  8 35  1  0
  8 36  1  0
  9 37  1  0
  9 38  1  0
 11 39  1  0
 11 40  1  0
 12 41  1  0
 12 42  1  0
 13 43  1  0
 13 44  1  0
 14 45  1  6
 15 46  1  1
 18 47  1  1
 20 48  1  0
 21 49  1  0
 22 50  1  0
 23 51  1  0
 24 52  1  0
 25 53  1  0
 25 54  1  0
M  CHG  1  13   1
M  END
>  <meeko>  (145) 
{"is_sidechain": false}

$$$$

     RDKit          3D

 54 59  0  0  0  0  0  0  0  0999 V2000
    6.5500    2.2350  -60.7010 C   0  0  0  0  0  0  0  0  0  0  0  0
    7.5100    2.5730  -61.5650 C   0  0  0  0  0  0  0  0  0  0  0  0
    9.0060    2.3770  -61.6530 C   0  0  1  0  0  0  0  0  0  0  0  0
    9.6770    3.7520  -61.8830 C   0  0  0  0  0  0  0  0  0  0  0  0
   10.1970    4.4090  -60.5940 C   0  0  2  0  0  0  0  0  0  0  0  0
   11.2460    3.4700  -60.0170 C   0  0  0  0  0  0  0  0  0  0  0  0
   10.5350    2.2380  -59.4900 C   0  0  2  0  0  0  0  0  0  0  0  0
    9.7430    1.5130  -60.6060 C   0  0  0  0  0  0  0  0  0  0  0  0
    9.6740    2.6010  -58.2750 C   0  0  0  0  0  0  0  0  0  0  0  0
    9.1150    4.0500  -58.2240 C   0  0  2  0  0  0  0  0  0  0  0  0
   10.0150    4.9120  -57.2820 C   0  0  0  0  0  0  0  0  0  0  0  0
    9.5740    4.5950  -55.8630 C   0  0  0  0  0  0  0  0  0  0  0  0
    8.2120    4.0060  -56.0130 N   0  0  0  0  0  0  0  0  0  0  0  0
    7.7710    4.1600  -57.4420 C   0  0  2  0  0  0  0  0  0  0  0  0
    6.5520    3.3870  -57.8610 C   0  0  1  0  0  0  0  0  0  0  0  0
    6.5200    2.1370  -58.4850 C   0  0  0  0  0  0  0  0  0  0  0  0
    6.6040    1.4850  -59.5680 N   0  0  0  0  0  0  0  0  0  0  0  0
    6.0510    1.9040  -57.1790 C   0  0  1  0  0  0  0  0  0  0  0  0
    6.8240    1.2330  -56.0840 C   0  0  0  0  0  0  0  0  0  0  0  0
    8.2180    1.0780  -56.1200 C   0  0  0  0  0  0  0  0  0  0  0  0
    8.9110    0.4710  -55.0700 C   0  0  0  0  0  0  0  0  0  0  0  0
    8.2180   -0.0230  -53.9700 C   0  0  0  0  0  0  0  0  0  0  0  0
    6.8300    0.0680  -53.9310 C   0  0  0  0  0  0  0  0  0  0  0  0
    6.1430    0.6780  -54.9820 C   0  0  0  0  0  0  0  0  0  0  0  0
    9.0480    4.7350  -59.6090 C   0  0  0  0  0  0  0  0  0  0  0  0
    5.5519    2.6275  -60.9457 H   0  0  0  0  0  0  0  0  0  0  0  0
    7.1144    3.1324  -62.4255 H   0  0  0  0  0  0  0  0  0  0  0  0
    9.1219    1.7034  -62.5149 H   0  0  0  0  0  0  0  0  0  0  0  0
   10.5256    3.6139  -62.5692 H   0  0  0  0  0  0  0  0  0  0  0  0
    8.9073    4.4202  -62.2966 H   0  0  0  0  0  0  0  0  0  0  0  0
   10.6556    5.3871  -60.8016 H   0  0  0  0  0  0  0  0  0  0  0  0
   11.9605    3.1813  -60.8020 H   0  0  0  0  0  0  0  0  0  0  0  0
   11.7990    3.9674  -59.2066 H   0  0  0  0  0  0  0  0  0  0  0  0
   11.2885    1.5139  -59.1467 H   0  0  0  0  0  0  0  0  0  0  0  0
   10.4552    0.8759  -61.1510 H   0  0  0  0  0  0  0  0  0  0  0  0
    8.9393    0.9844  -60.0724 H   0  0  0  0  0  0  0  0  0  0  0  0
    8.8167    1.9121  -58.2562 H   0  0  0  0  0  0  0  0  0  0  0  0
   10.3473    2.5201  -57.4089 H   0  0  0  0  0  0  0  0  0  0  0  0
   11.0738    4.6474  -57.4198 H   0  0  0  0  0  0  0  0  0  0  0  0
    9.9120    5.9848  -57.5024 H   0  0  0  0  0  0  0  0  0  0  0  0
   10.2597    3.8729  -55.3958 H   0  0  0  0  0  0  0  0  0  0  0  0
    9.5735    5.4862  -55.2182 H   0  0  0  0  0  0  0  0  0  0  0  0
    8.2940    3.0090  -55.7800 H   0  0  0  0  0  0  0  0  0  0  0  0
    7.5370    4.4070  -55.3510 H   0  0  0  0  0  0  0  0  0  0  0  0
    7.2898    5.1202  -57.6796 H   0  0  0  0  0  0  0  0  0  0  0  0
    6.1527    4.3948  -58.0480 H   0  0  0  0  0  0  0  0  0  0  0  0
    5.1636    1.4485  -56.7152 H   0  0  0  0  0  0  0  0  0  0  0  0
    8.7774    1.4425  -56.9942 H   0  0  0  0  0  0  0  0  0  0  0  0
   10.0067    0.3836  -55.1132 H   0  0  0  0  0  0  0  0  0  0  0  0
    8.7649   -0.4838  -53.1342 H   0  0  0  0  0  0  0  0  0  0  0  0
    6.2750   -0.3401  -53.0734 H   0  0  0  0  0  0  0  0  0  0  0  0
    5.0446    0.7266  -54.9493 H   0  0  0  0  0  0  0  0  0  0  0  0
    8.1032    4.4347  -60.0856 H   0  0  0  0  0  0  0  0  0  0  0  0
    9.1334    5.8128  -59.4066 H   0  0  0  0  0  0  0  0  0  0  0  0
  1  2  2  0
  2  3  1  0
  3  4  1  0
  4  5  1  0
  5  6  1  0
  6  7  1  0
  7  8  1  0
  7  9  1  0
  9 10  1  0
 10 11  1  1
 11 12  1  0
 12 13  1  0
 13 14  1  0
 14 15  1  0
 15 16  1  0
 16 17  2  0
 16 18  1  0
 18 19  1  0
 19 20  2  0
 20 21  1  0
 21 22  2  0
 22 23  1  0
 23 24  2  0
 10 25  1  0
 17  1  1  0
 24 19  1  0
  8  3  1  0
 14 10  1  0
 18 15  1  0
 25  5  1  0
  1 26  1  0
  2 27  1  0
  3 28  1  6
  4 29  1  0
  4 30  1  0
  5 31  1  6
  6 32  1  0
  6 33  1  0
  7 34  1  1
  8 35  1  0
  8 36  1  0
  9 37  1  0
  9 38  1  0
 11 39  1  0
 11 40  1  0
 12 41  1  0
 12 42  1  0
 13 43  1  0
 13 44  1  0
 14 45  1  1
 15 46  1  6
 18 47  1  6
 20 48  1  0
 21 49  1  0
 22 50  1  0
 23 51  1  0
 24 52  1  0
 25 53  1  0
 25 54  1  0
M  CHG  1  13   1
M  END
>  <meeko>  (146) 
{"is_sidechain": false}

$$$$

     RDKit          3D

 51 55  0  0  0  0  0  0  0  0999 V2000
   10.8910    0.9100  -56.8430 C   0  0  0  0  0  0  0  0  0  0  0  0
   10.2700    2.0210  -57.7090 C   0  0  1  0  0  0  0  0  0  0  0  0
    9.1510    2.4510  -56.9470 O   0  0  0  0  0  0  0  0  0  0  0  0
    8.2020    3.4030  -57.4380 C   0  0  2  0  0  0  0  0  0  0  0  0
    7.0330    3.2470  -56.4390 C   0  0  0  0  0  0  0  0  0  0  0  0
    6.0620    2.3230  -57.1050 C   0  0  0  0  0  0  0  0  0  0  0  0
    5.1630    1.7680  -56.4870 O   0  0  0  0  0  0  0  0  0  0  0  0
    6.2900    2.3550  -58.4820 N   0  0  0  0  0  0  0  0  0  0  0  0
    5.3100    1.9420  -59.4380 C   0  0  0  0  0  0  0  0  0  0  0  0
    4.1370    2.6830  -59.6480 C   0  0  0  0  0  0  0  0  0  0  0  0
    3.1820    2.2850  -60.5910 C   0  0  0  0  0  0  0  0  0  0  0  0
    3.3820    1.1320  -61.3420 C   0  0  0  0  0  0  0  0  0  0  0  0
    4.5360    0.3800  -61.1480 C   0  0  0  0  0  0  0  0  0  0  0  0
    5.4880    0.7820  -60.2050 C   0  0  0  0  0  0  0  0  0  0  0  0
    7.4590    3.1580  -58.7940 C   0  0  2  0  0  0  0  0  0  0  0  0
    8.2410    2.3970  -59.7600 N   0  0  0  0  0  0  0  0  0  0  0  0
    8.6830    2.9100  -60.9490 C   0  0  0  0  0  0  0  0  0  0  0  0
    9.6760    3.7710  -61.1740 C   0  0  0  0  0  0  0  0  0  0  0  0
   10.6640    4.3630  -60.2020 C   0  0  1  0  0  0  0  0  0  0  0  0
   10.0750    5.4710  -59.3240 C   0  0  0  0  0  0  0  0  0  0  0  0
   10.0620    5.2610  -57.8080 C   0  0  2  0  0  0  0  0  0  0  0  0
   11.2010    4.4020  -57.2830 C   0  0  0  0  0  0  0  0  0  0  0  0
   11.3440    3.0800  -58.0160 C   0  0  2  0  0  0  0  0  0  0  0  0
   11.5570    3.3170  -59.5170 C   0  0  0  0  0  0  0  0  0  0  0  0
    8.7050    4.8460  -57.2440 C   0  0  0  0  0  0  0  0  0  0  0  0
   10.7543    1.1546  -55.7793 H   0  0  0  0  0  0  0  0  0  0  0  0
   10.3972   -0.0475  -57.0655 H   0  0  0  0  0  0  0  0  0  0  0  0
   11.9652    0.8290  -57.0655 H   0  0  0  0  0  0  0  0  0  0  0  0
    9.9217    1.7220  -58.7087 H   0  0  0  0  0  0  0  0  0  0  0  0
    7.3902    2.8134  -55.4932 H   0  0  0  0  0  0  0  0  0  0  0  0
    6.5732    4.2155  -56.1927 H   0  0  0  0  0  0  0  0  0  0  0  0
    3.9643    3.5959  -59.0592 H   0  0  0  0  0  0  0  0  0  0  0  0
    2.2720    2.8853  -60.7381 H   0  0  0  0  0  0  0  0  0  0  0  0
    2.6334    0.8170  -62.0838 H   0  0  0  0  0  0  0  0  0  0  0  0
    4.7006   -0.5337  -61.7379 H   0  0  0  0  0  0  0  0  0  0  0  0
    6.3946    0.1756  -60.0624 H   0  0  0  0  0  0  0  0  0  0  0  0
    7.2388    4.1389  -59.2405 H   0  0  0  0  0  0  0  0  0  0  0  0
    7.7650    1.5040  -59.8960 H   0  0  0  0  0  0  0  0  0  0  0  0
    8.1443    2.5641  -61.8435 H   0  0  0  0  0  0  0  0  0  0  0  0
    9.7905    4.0957  -62.2187 H   0  0  0  0  0  0  0  0  0  0  0  0
   11.3979    4.9228  -60.8003 H   0  0  0  0  0  0  0  0  0  0  0  0
   10.6527    6.3859  -59.5218 H   0  0  0  0  0  0  0  0  0  0  0  0
    9.0118    5.5051  -59.6040 H   0  0  0  0  0  0  0  0  0  0  0  0
   10.2506    6.2692  -57.4106 H   0  0  0  0  0  0  0  0  0  0  0  0
   12.1404    4.9641  -57.3905 H   0  0  0  0  0  0  0  0  0  0  0  0
   10.9752    4.1688  -56.2320 H   0  0  0  0  0  0  0  0  0  0  0  0
   12.2507    2.6120  -57.6051 H   0  0  0  0  0  0  0  0  0  0  0  0
   12.6014    3.6331  -59.6561 H   0  0  0  0  0  0  0  0  0  0  0  0
   11.2879    2.3626  -59.9932 H   0  0  0  0  0  0  0  0  0  0  0  0
    8.7425    5.0267  -56.1596 H   0  0  0  0  0  0  0  0  0  0  0  0
    7.9923    5.4445  -57.8304 H   0  0  0  0  0  0  0  0  0  0  0  0
  1  2  1  0
  2  3  1  0
  4  3  1  1
  4  5  1  0
  5  6  1  0
  6  7  2  0
  6  8  1  0
  8  9  1  0
  9 10  2  0
 10 11  1  0
 11 12  2  0
 12 13  1  0
 13 14  2  0
  8 15  1  0
 15 16  1  0
 16 17  1  0
 17 18  2  0
 18 19  1  0
 19 20  1  0
 20 21  1  0
 21 22  1  0
 22 23  1  0
 23 24  1  0
 21 25  1  0
 23  2  1  0
 15  4  1  0
 24 19  1  0
 25  4  1  0
 14  9  1  0
  1 26  1  0
  1 27  1  0
  1 28  1  0
  2 29  1  6
  5 30  1  0
  5 31  1  0
 10 32  1  0
 11 33  1  0
 12 34  1  0
 13 35  1  0
 14 36  1  0
 15 37  1  6
 16 38  1  0
 17 39  1  0
 18 40  1  0
 19 41  1  6
 20 42  1  0
 20 43  1  0
 21 44  1  1
 22 45  1  0
 22 46  1  0
 23 47  1  1
 24 48  1  0
 24 49  1  0
 25 50  1  0
 25 51  1  0
M  END
>  <meeko>  (147) 
{"is_sidechain": false}

$$$$

     RDKit          3D

 51 55  0  0  0  0  0  0  0  0999 V2000
   10.0320    2.1260  -55.7980 C   0  0  0  0  0  0  0  0  0  0  0  0
   10.0380    2.1950  -57.3220 C   0  0  1  0  0  0  0  0  0  0  0  0
    8.7760    2.3980  -57.9300 O   0  0  0  0  0  0  0  0  0  0  0  0
    7.8820    3.4740  -57.6170 C   0  0  2  0  0  0  0  0  0  0  0  0
    6.9420    2.9970  -56.5030 C   0  0  0  0  0  0  0  0  0  0  0  0
    5.9580    2.0980  -57.2350 C   0  0  0  0  0  0  0  0  0  0  0  0
    5.2710    1.2730  -56.6490 O   0  0  0  0  0  0  0  0  0  0  0  0
    5.9390    2.4650  -58.5940 N   0  0  0  0  0  0  0  0  0  0  0  0
    4.9810    2.0140  -59.5420 C   0  0  0  0  0  0  0  0  0  0  0  0
    5.2650    0.9450  -60.4040 C   0  0  0  0  0  0  0  0  0  0  0  0
    4.3290    0.5000  -61.3460 C   0  0  0  0  0  0  0  0  0  0  0  0
    3.0880    1.1180  -61.4440 C   0  0  0  0  0  0  0  0  0  0  0  0
    2.7850    2.1820  -60.6000 C   0  0  0  0  0  0  0  0  0  0  0  0
    3.7240    2.6230  -59.6600 C   0  0  0  0  0  0  0  0  0  0  0  0
    6.7870    3.6130  -58.7510 C   0  0  2  0  0  0  0  0  0  0  0  0
    7.4190    3.8710  -60.0370 N   0  0  0  0  0  0  0  0  0  0  0  0
    8.2170    2.9580  -60.4530 C   0  0  0  0  0  0  0  0  0  0  0  0
    9.3920    3.4010  -61.2620 C   0  0  0  0  0  0  0  0  0  0  0  0
   10.4450    4.0430  -60.3110 C   0  0  1  0  0  0  0  0  0  0  0  0
    9.9430    5.3000  -59.5520 C   0  0  0  0  0  0  0  0  0  0  0  0
    9.8760    5.2570  -58.0180 C   0  0  2  0  0  0  0  0  0  0  0  0
   11.0890    4.5300  -57.4630 C   0  0  0  0  0  0  0  0  0  0  0  0
   11.1470    3.0870  -57.9280 C   0  0  2  0  0  0  0  0  0  0  0  0
   11.2130    2.9970  -59.4680 C   0  0  0  0  0  0  0  0  0  0  0  0
    8.5520    4.8350  -57.3320 C   0  0  0  0  0  0  0  0  0  0  0  0
   10.1203    3.1415  -55.3846 H   0  0  0  0  0  0  0  0  0  0  0  0
    9.0909    1.6712  -55.4553 H   0  0  0  0  0  0  0  0  0  0  0  0
   10.8804    1.5155  -55.4553 H   0  0  0  0  0  0  0  0  0  0  0  0
   10.3107    1.1645  -57.5933 H   0  0  0  0  0  0  0  0  0  0  0  0
    7.4941    2.4342  -55.7359 H   0  0  0  0  0  0  0  0  0  0  0  0
    6.4528    3.8251  -55.9692 H   0  0  0  0  0  0  0  0  0  0  0  0
    6.2430    0.4457  -60.3390 H   0  0  0  0  0  0  0  0  0  0  0  0
    4.5768   -0.3411  -62.0102 H   0  0  0  0  0  0  0  0  0  0  0  0
    2.3514    0.7689  -62.1826 H   0  0  0  0  0  0  0  0  0  0  0  0
    1.8056    2.6776  -60.6716 H   0  0  0  0  0  0  0  0  0  0  0  0
    3.4700    3.4654  -58.9999 H   0  0  0  0  0  0  0  0  0  0  0  0
    6.1261    4.4895  -58.6802 H   0  0  0  0  0  0  0  0  0  0  0  0
    8.0442    1.8960  -60.2245 H   0  0  0  0  0  0  0  0  0  0  0  0
    9.8361    2.5344  -61.7736 H   0  0  0  0  0  0  0  0  0  0  0  0
    9.0710    4.1367  -62.0141 H   0  0  0  0  0  0  0  0  0  0  0  0
   11.2204    4.4715  -60.9630 H   0  0  0  0  0  0  0  0  0  0  0  0
   10.6109    6.1307  -59.8238 H   0  0  0  0  0  0  0  0  0  0  0  0
    8.8924    5.3981  -59.8628 H   0  0  0  0  0  0  0  0  0  0  0  0
    9.8941    6.3205  -57.7375 H   0  0  0  0  0  0  0  0  0  0  0  0
   11.9989    5.0486  -57.7994 H   0  0  0  0  0  0  0  0  0  0  0  0
   11.0139    4.5312  -56.3656 H   0  0  0  0  0  0  0  0  0  0  0  0
   12.0857    2.6704  -57.5339 H   0  0  0  0  0  0  0  0  0  0  0  0
   12.2736    3.0701  -59.7506 H   0  0  0  0  0  0  0  0  0  0  0  0
   10.7088    2.0473  -59.7001 H   0  0  0  0  0  0  0  0  0  0  0  0
    8.7433    4.8635  -56.2491 H   0  0  0  0  0  0  0  0  0  0  0  0
    7.8307    5.5434  -57.7655 H   0  0  0  0  0  0  0  0  0  0  0  0
  1  2  1  0
  2  3  1  0
  4  3  1  6
  4  5  1  0
  5  6  1  0
  6  7  2  0
  6  8  1  0
  8  9  1  0
  9 10  2  0
 10 11  1  0
 11 12  2  0
 12 13  1  0
 13 14  2  0
  8 15  1  0
 15 16  1  0
 16 17  2  0
 17 18  1  0
 18 19  1  0
 19 20  1  0
 20 21  1  0
 21 22  1  0
 22 23  1  0
 23 24  1  0
 21 25  1  0
 23  2  1  0
 15  4  1  0
 24 19  1  0
 25  4  1  0
 14  9  1  0
  1 26  1  0
  1 27  1  0
  1 28  1  0
  2 29  1  6
  5 30  1  0
  5 31  1  0
 10 32  1  0
 11 33  1  0
 12 34  1  0
 13 35  1  0
 14 36  1  0
 15 37  1  1
 17 38  1  0
 18 39  1  0
 18 40  1  0
 19 41  1  6
 20 42  1  0
 20 43  1  0
 21 44  1  1
 22 45  1  0
 22 46  1  0
 23 47  1  1
 24 48  1  0
 24 49  1  0
 25 50  1  0
 25 51  1  0
M  END
>  <meeko>  (148) 
{"is_sidechain": false}

$$$$

     RDKit          3D

 51 55  0  0  0  0  0  0  0  0999 V2000
   10.0890    2.6190  -55.8100 C   0  0  0  0  0  0  0  0  0  0  0  0
   10.3940    2.5860  -57.3040 C   0  0  1  0  0  0  0  0  0  0  0  0
    9.3150    2.2170  -58.1250 O   0  0  0  0  0  0  0  0  0  0  0  0
    8.0460    2.8700  -58.1440 C   0  0  2  0  0  0  0  0  0  0  0  0
    7.1270    2.0790  -57.2060 C   0  0  0  0  0  0  0  0  0  0  0  0
    5.8090    1.9780  -57.9190 C   0  0  0  0  0  0  0  0  0  0  0  0
    4.7840    1.6730  -57.3250 O   0  0  0  0  0  0  0  0  0  0  0  0
    5.9970    2.2630  -59.2700 N   0  0  0  0  0  0  0  0  0  0  0  0
    4.9870    2.2550  -60.2800 C   0  0  0  0  0  0  0  0  0  0  0  0
    3.6210    2.2540  -59.9670 C   0  0  0  0  0  0  0  0  0  0  0  0
    2.6400    2.2610  -60.9670 C   0  0  0  0  0  0  0  0  0  0  0  0
    3.0050    2.2670  -62.3080 C   0  0  0  0  0  0  0  0  0  0  0  0
    4.3520    2.2610  -62.6470 C   0  0  0  0  0  0  0  0  0  0  0  0
    5.3290    2.2550  -61.6440 C   0  0  0  0  0  0  0  0  0  0  0  0
    7.3740    2.6140  -59.5430 C   0  0  2  0  0  0  0  0  0  0  0  0
    8.0700    1.5240  -60.2220 N   0  0  0  0  0  0  0  0  0  0  0  0
    9.1140    1.8040  -60.9260 C   0  0  0  0  0  0  0  0  0  0  0  0
    9.6460    3.1540  -61.3610 C   0  0  0  0  0  0  0  0  0  0  0  0
   10.3210    4.1580  -60.3980 C   0  0  1  0  0  0  0  0  0  0  0  0
    9.3740    5.2480  -59.8600 C   0  0  0  0  0  0  0  0  0  0  0  0
    9.1400    5.2880  -58.3540 C   0  0  2  0  0  0  0  0  0  0  0  0
   10.4600    5.1250  -57.6120 C   0  0  0  0  0  0  0  0  0  0  0  0
   11.1290    3.7900  -57.8990 C   0  0  2  0  0  0  0  0  0  0  0  0
   11.3720    3.5970  -59.4160 C   0  0  0  0  0  0  0  0  0  0  0  0
    8.0210    4.3790  -57.8200 C   0  0  0  0  0  0  0  0  0  0  0  0
   11.0257    2.5177  -55.2422 H   0  0  0  0  0  0  0  0  0  0  0  0
    9.6073    3.5745  -55.5551 H   0  0  0  0  0  0  0  0  0  0  0  0
    9.4141    1.7886  -55.5551 H   0  0  0  0  0  0  0  0  0  0  0  0
   11.1272    1.7661  -57.3140 H   0  0  0  0  0  0  0  0  0  0  0  0
    7.5401    1.0767  -57.0196 H   0  0  0  0  0  0  0  0  0  0  0  0
    7.0231    2.5721  -56.2282 H   0  0  0  0  0  0  0  0  0  0  0  0
    3.3119    2.2476  -58.9114 H   0  0  0  0  0  0  0  0  0  0  0  0
    1.5756    2.2618  -60.6895 H   0  0  0  0  0  0  0  0  0  0  0  0
    2.2347    2.2764  -63.0932 H   0  0  0  0  0  0  0  0  0  0  0  0
    4.6517    2.2610  -63.7054 H   0  0  0  0  0  0  0  0  0  0  0  0
    6.3911    2.2502  -61.9303 H   0  0  0  0  0  0  0  0  0  0  0  0
    7.4252    3.4963  -60.1979 H   0  0  0  0  0  0  0  0  0  0  0  0
    9.7034    0.9368  -61.2587 H   0  0  0  0  0  0  0  0  0  0  0  0
   10.3880    2.9456  -62.1458 H   0  0  0  0  0  0  0  0  0  0  0  0
    8.7127    3.6838  -61.6023 H   0  0  0  0  0  0  0  0  0  0  0  0
   10.9984    4.7164  -61.0609 H   0  0  0  0  0  0  0  0  0  0  0  0
    9.7894    6.2225  -60.1561 H   0  0  0  0  0  0  0  0  0  0  0  0
    8.3916    5.0081  -60.2928 H   0  0  0  0  0  0  0  0  0  0  0  0
    8.7361    6.2890  -58.1422 H   0  0  0  0  0  0  0  0  0  0  0  0
   11.1396    5.9334  -57.9196 H   0  0  0  0  0  0  0  0  0  0  0  0
   10.2444    5.1657  -56.5341 H   0  0  0  0  0  0  0  0  0  0  0  0
   12.1013    3.8322  -57.3864 H   0  0  0  0  0  0  0  0  0  0  0  0
   12.3324    4.0764  -59.6565 H   0  0  0  0  0  0  0  0  0  0  0  0
   11.3302    2.5077  -59.5634 H   0  0  0  0  0  0  0  0  0  0  0  0
    8.0303    4.4708  -56.7239 H   0  0  0  0  0  0  0  0  0  0  0  0
    7.1237    4.7402  -58.3438 H   0  0  0  0  0  0  0  0  0  0  0  0
  1  2  1  0
  2  3  1  0
  4  3  1  6
  4  5  1  0
  5  6  1  0
  6  7  2  0
  6  8  1  0
  8  9  1  0
  9 10  2  0
 10 11  1  0
 11 12  2  0
 12 13  1  0
 13 14  2  0
  8 15  1  0
 15 16  1  0
 16 17  2  0
 17 18  1  0
 18 19  1  0
 19 20  1  0
 20 21  1  0
 21 22  1  0
 22 23  1  0
 23 24  1  0
 21 25  1  0
 23  2  1  0
 15  4  1  0
 24 19  1  0
 25  4  1  0
 14  9  1  0
  1 26  1  0
  1 27  1  0
  1 28  1  0
  2 29  1  1
  5 30  1  0
  5 31  1  0
 10 32  1  0
 11 33  1  0
 12 34  1  0
 13 35  1  0
 14 36  1  0
 15 37  1  6
 17 38  1  0
 18 39  1  0
 18 40  1  0
 19 41  1  6
 20 42  1  0
 20 43  1  0
 21 44  1  6
 22 45  1  0
 22 46  1  0
 23 47  1  1
 24 48  1  0
 24 49  1  0
 25 50  1  0
 25 51  1  0
M  END
>  <meeko>  (149) 
{"is_sidechain": false}

$$$$

     RDKit          3D

 51 55  0  0  0  0  0  0  0  0999 V2000
    9.7250    1.8000  -55.9570 C   0  0  0  0  0  0  0  0  0  0  0  0
   10.0240    2.0870  -57.4280 C   0  0  1  0  0  0  0  0  0  0  0  0
    8.8720    2.3660  -58.2030 O   0  0  0  0  0  0  0  0  0  0  0  0
    7.9670    3.4670  -58.0440 C   0  0  2  0  0  0  0  0  0  0  0  0
    6.9590    3.1830  -56.9210 C   0  0  0  0  0  0  0  0  0  0  0  0
    5.9390    2.2600  -57.5370 C   0  0  0  0  0  0  0  0  0  0  0  0
    5.2000    1.5700  -56.8490 O   0  0  0  0  0  0  0  0  0  0  0  0
    5.9400    2.4490  -58.9220 N   0  0  0  0  0  0  0  0  0  0  0  0
    4.9070    1.9880  -59.7960 C   0  0  0  0  0  0  0  0  0  0  0  0
    5.0890    0.8600  -60.6090 C   0  0  0  0  0  0  0  0  0  0  0  0
    4.0780    0.4010  -61.4620 C   0  0  0  0  0  0  0  0  0  0  0  0
    2.8590    1.0660  -61.5220 C   0  0  0  0  0  0  0  0  0  0  0  0
    2.6550    2.1900  -60.7300 C   0  0  0  0  0  0  0  0  0  0  0  0
    3.6690    2.6440  -59.8790 C   0  0  0  0  0  0  0  0  0  0  0  0
    6.9280    3.4430  -59.2720 C   0  0  2  0  0  0  0  0  0  0  0  0
    7.5780    3.0680  -60.5440 N   0  0  0  0  0  0  0  0  0  0  0  0
    8.7230    3.7680  -60.8640 C   0  0  0  0  0  0  0  0  0  0  0  0
    9.9320    3.2330  -60.6630 C   0  0  0  0  0  0  0  0  0  0  0  0
   11.0970    3.9870  -60.0630 C   0  0  1  0  0  0  0  0  0  0  0  0
   10.7280    5.3310  -59.4020 C   0  0  0  0  0  0  0  0  0  0  0  0
   10.0880    5.2420  -58.0000 C   0  0  2  0  0  0  0  0  0  0  0  0
   10.9650    4.4280  -57.0670 C   0  0  0  0  0  0  0  0  0  0  0  0
   11.2250    3.0300  -57.6020 C   0  0  2  0  0  0  0  0  0  0  0  0
   11.8300    3.0980  -59.0290 C   0  0  0  0  0  0  0  0  0  0  0  0
    8.5880    4.8920  -57.8760 C   0  0  0  0  0  0  0  0  0  0  0  0
   10.3734    2.4224  -55.3228 H   0  0  0  0  0  0  0  0  0  0  0  0
    8.6712    2.0335  -55.7447 H   0  0  0  0  0  0  0  0  0  0  0  0
    9.9151    0.7376  -55.7447 H   0  0  0  0  0  0  0  0  0  0  0  0
   10.3676    1.1468  -57.8840 H   0  0  0  0  0  0  0  0  0  0  0  0
    7.4563    2.6963  -56.0690 H   0  0  0  0  0  0  0  0  0  0  0  0
    6.5013    4.1051  -56.5335 H   0  0  0  0  0  0  0  0  0  0  0  0
    6.0485    0.3232  -60.5758 H   0  0  0  0  0  0  0  0  0  0  0  0
    4.2489   -0.4883  -62.0864 H   0  0  0  0  0  0  0  0  0  0  0  0
    2.0628    0.7061  -62.1902 H   0  0  0  0  0  0  0  0  0  0  0  0
    1.6942    2.7239  -60.7723 H   0  0  0  0  0  0  0  0  0  0  0  0
    3.4915    3.5362  -59.2605 H   0  0  0  0  0  0  0  0  0  0  0  0
    6.4948    4.4421  -59.4275 H   0  0  0  0  0  0  0  0  0  0  0  0
    7.7790    2.0700  -60.4600 H   0  0  0  0  0  0  0  0  0  0  0  0
    8.6404    4.7789  -61.2898 H   0  0  0  0  0  0  0  0  0  0  0  0
   10.0880    2.1829  -60.9511 H   0  0  0  0  0  0  0  0  0  0  0  0
   11.7494    4.2323  -60.9140 H   0  0  0  0  0  0  0  0  0  0  0  0
   11.6484    5.9271  -59.3147 H   0  0  0  0  0  0  0  0  0  0  0  0
    9.9611    5.7799  -60.0503 H   0  0  0  0  0  0  0  0  0  0  0  0
   10.0554    6.2946  -57.6821 H   0  0  0  0  0  0  0  0  0  0  0  0
   11.9279    4.9454  -56.9438 H   0  0  0  0  0  0  0  0  0  0  0  0
   10.4385    4.3306  -56.1061 H   0  0  0  0  0  0  0  0  0  0  0  0
   11.9951    2.5504  -56.9800 H   0  0  0  0  0  0  0  0  0  0  0  0
   12.8583    3.4773  -58.9354 H   0  0  0  0  0  0  0  0  0  0  0  0
   11.7465    2.0744  -59.4231 H   0  0  0  0  0  0  0  0  0  0  0  0
    8.2968    5.2179  -56.8666 H   0  0  0  0  0  0  0  0  0  0  0  0
    8.2032    5.3763  -58.7856 H   0  0  0  0  0  0  0  0  0  0  0  0
  1  2  1  0
  2  3  1  0
  4  3  1  6
  4  5  1  0
  5  6  1  0
  6  7  2  0
  6  8  1  0
  8  9  1  0
  9 10  2  0
 10 11  1  0
 11 12  2  0
 12 13  1  0
 13 14  2  0
  8 15  1  0
 15 16  1  0
 16 17  1  0
 17 18  2  0
 18 19  1  0
 19 20  1  0
 20 21  1  0
 21 22  1  0
 22 23  1  0
 23 24  1  0
 21 25  1  0
 23  2  1  0
 15  4  1  0
 24 19  1  0
 25  4  1  0
 14  9  1  0
  1 26  1  0
  1 27  1  0
  1 28  1  0
  2 29  1  6
  5 30  1  0
  5 31  1  0
 10 32  1  0
 11 33  1  0
 12 34  1  0
 13 35  1  0
 14 36  1  0
 15 37  1  6
 16 38  1  0
 17 39  1  0
 18 40  1  0
 19 41  1  6
 20 42  1  0
 20 43  1  0
 21 44  1  1
 22 45  1  0
 22 46  1  0
 23 47  1  1
 24 48  1  0
 24 49  1  0
 25 50  1  0
 25 51  1  0
M  END
>  <meeko>  (150) 
{"is_sidechain": false}

$$$$

     RDKit          3D

 44 47  0  0  0  0  0  0  0  0999 V2000
    7.2300    3.2310  -60.1340 C   0  0  0  0  0  0  0  0  0  0  0  0
    7.0400    3.7820  -58.7150 C   0  0  2  0  0  0  0  0  0  0  0  0
    8.1560    4.8390  -58.3630 C   0  0  0  0  0  0  0  0  0  0  0  0
    9.5570    4.3040  -58.1500 C   0  0  0  0  0  0  0  0  0  0  0  0
    9.8840    3.2300  -57.3270 C   0  0  0  0  0  0  0  0  0  0  0  0
   11.2360    3.0350  -57.3940 N   0  0  0  0  0  0  0  0  0  0  0  0
   11.8050    3.9780  -58.2200 C   0  0  0  0  0  0  0  0  0  0  0  0
   13.1480    4.1680  -58.5710 C   0  0  0  0  0  0  0  0  0  0  0  0
   13.4490    5.2160  -59.4450 C   0  0  0  0  0  0  0  0  0  0  0  0
   12.4450    6.0390  -59.9490 C   0  0  0  0  0  0  0  0  0  0  0  0
   11.1090    5.8360  -59.5910 C   0  0  0  0  0  0  0  0  0  0  0  0
   10.7780    4.7870  -58.7100 C   0  0  0  0  0  0  0  0  0  0  0  0
    8.8880    2.4270  -56.5760 C   0  0  2  0  0  0  0  0  0  0  0  0
    9.3060    1.2500  -55.7090 C   0  0  0  0  0  0  0  0  0  0  0  0
    8.0870    0.7500  -54.8750 N   0  0  2  0  0  0  0  0  0  0  0  0
    8.5420   -0.2340  -53.8310 C   0  0  0  0  0  0  0  0  0  0  0  0
    6.9230    0.1840  -55.7120 C   0  0  0  0  0  0  0  0  0  0  0  0
    5.7700    1.2000  -55.9300 C   0  0  0  0  0  0  0  0  0  0  0  0
    5.8720    2.3320  -56.9460 C   0  0  0  0  0  0  0  0  0  0  0  0
    6.9280    2.6390  -57.7110 C   0  0  0  0  0  0  0  0  0  0  0  0
    8.0600    1.8690  -57.6020 O   0  0  0  0  0  0  0  0  0  0  0  0
    7.5881    2.1924  -60.0791 H   0  0  0  0  0  0  0  0  0  0  0  0
    6.2700    3.2600  -60.6702 H   0  0  0  0  0  0  0  0  0  0  0  0
    7.9681    3.8455  -60.6702 H   0  0  0  0  0  0  0  0  0  0  0  0
    6.0888    4.3317  -58.6603 H   0  0  0  0  0  0  0  0  0  0  0  0
    8.1986    5.5658  -59.1876 H   0  0  0  0  0  0  0  0  0  0  0  0
    7.8575    5.2620  -57.3925 H   0  0  0  0  0  0  0  0  0  0  0  0
   11.7760    2.3150  -56.9360 H   0  0  0  0  0  0  0  0  0  0  0  0
   13.9382    3.5148  -58.1724 H   0  0  0  0  0  0  0  0  0  0  0  0
   14.4940    5.3934  -59.7391 H   0  0  0  0  0  0  0  0  0  0  0  0
   12.7060    6.8574  -60.6361 H   0  0  0  0  0  0  0  0  0  0  0  0
   10.3219    6.4902  -59.9940 H   0  0  0  0  0  0  0  0  0  0  0  0
    8.4725    3.1300  -55.8390 H   0  0  0  0  0  0  0  0  0  0  0  0
    9.6687    0.4339  -56.3512 H   0  0  0  0  0  0  0  0  0  0  0  0
   10.1076    1.5681  -55.0262 H   0  0  0  0  0  0  0  0  0  0  0  0
    7.7190    1.5650  -54.3670 H   0  0  0  0  0  0  0  0  0  0  0  0
    8.3509    0.1792  -52.8296 H   0  0  0  0  0  0  0  0  0  0  0  0
    7.9886   -1.1772  -53.9502 H   0  0  0  0  0  0  0  0  0  0  0  0
    9.6190   -0.4233  -53.9502 H   0  0  0  0  0  0  0  0  0  0  0  0
    7.3141   -0.1159  -56.6954 H   0  0  0  0  0  0  0  0  0  0  0  0
    6.5051   -0.6668  -55.1539 H   0  0  0  0  0  0  0  0  0  0  0  0
    4.8880    0.6081  -56.2160 H   0  0  0  0  0  0  0  0  0  0  0  0
    5.7603    1.7466  -54.9755 H   0  0  0  0  0  0  0  0  0  0  0  0
    4.9809    2.9661  -57.0638 H   0  0  0  0  0  0  0  0  0  0  0  0
  1  2  1  0
  2  3  1  0
  3  4  1  0
  4  5  2  0
  5  6  1  0
  6  7  1  0
  7  8  2  0
  8  9  1  0
  9 10  2  0
 10 11  1  0
 11 12  2  0
  5 13  1  0
 13 14  1  0
 14 15  1  0
 15 16  1  0
 15 17  1  0
 17 18  1  0
 18 19  1  0
 19 20  2  0
 20 21  1  0
 20  2  1  0
 12  4  1  0
 21 13  1  0
 12  7  1  0
  1 22  1  0
  1 23  1  0
  1 24  1  0
  2 25  1  6
  3 26  1  0
  3 27  1  0
  6 28  1  0
  8 29  1  0
  9 30  1  0
 10 31  1  0
 11 32  1  0
 13 33  1  1
 14 34  1  0
 14 35  1  0
 15 36  1  1
 16 37  1  0
 16 38  1  0
 16 39  1  0
 17 40  1  0
 17 41  1  0
 18 42  1  0
 18 43  1  0
 19 44  1  0
M  CHG  1  15   1
M  END
>  <meeko>  (151) 
{"is_sidechain": false}

$$$$

     RDKit          3D

 44 47  0  0  0  0  0  0  0  0999 V2000
    7.8420    2.9840  -60.8220 C   0  0  0  0  0  0  0  0  0  0  0  0
    7.3030    3.7380  -59.6000 C   0  0  2  0  0  0  0  0  0  0  0  0
    8.2570    4.9010  -59.1800 C   0  0  0  0  0  0  0  0  0  0  0  0
    9.5830    4.4960  -58.5700 C   0  0  0  0  0  0  0  0  0  0  0  0
    9.7390    3.5880  -57.5270 C   0  0  0  0  0  0  0  0  0  0  0  0
   11.0720    3.4980  -57.2350 N   0  0  0  0  0  0  0  0  0  0  0  0
   11.7920    4.3310  -58.0630 C   0  0  0  0  0  0  0  0  0  0  0  0
   13.1730    4.5620  -58.1210 C   0  0  0  0  0  0  0  0  0  0  0  0
   13.6390    5.4740  -59.0720 C   0  0  0  0  0  0  0  0  0  0  0  0
   12.7590    6.1280  -59.9290 C   0  0  0  0  0  0  0  0  0  0  0  0
   11.3820    5.8870  -59.8590 C   0  0  0  0  0  0  0  0  0  0  0  0
   10.8850    4.9700  -58.9100 C   0  0  0  0  0  0  0  0  0  0  0  0
    8.6240    2.8430  -56.8980 C   0  0  2  0  0  0  0  0  0  0  0  0
    8.8620    1.8040  -55.8070 C   0  0  0  0  0  0  0  0  0  0  0  0
    7.6530    0.8280  -55.7970 N   0  0  1  0  0  0  0  0  0  0  0  0
    7.8870   -0.3560  -54.9150 C   0  0  0  0  0  0  0  0  0  0  0  0
    6.2960    1.4960  -55.5790 C   0  0  0  0  0  0  0  0  0  0  0  0
    5.4220    1.5210  -56.8600 C   0  0  0  0  0  0  0  0  0  0  0  0
    5.7490    2.4980  -57.9780 C   0  0  0  0  0  0  0  0  0  0  0  0
    6.9670    2.7640  -58.4750 C   0  0  0  0  0  0  0  0  0  0  0  0
    8.0520    2.0800  -57.9780 O   0  0  0  0  0  0  0  0  0  0  0  0
    8.4514    2.1315  -60.4874 H   0  0  0  0  0  0  0  0  0  0  0  0
    6.9999    2.6175  -61.4275 H   0  0  0  0  0  0  0  0  0  0  0  0
    8.4612    3.6622  -61.4275 H   0  0  0  0  0  0  0  0  0  0  0  0
    6.3561    4.2298  -59.8675 H   0  0  0  0  0  0  0  0  0  0  0  0
    8.4703    5.4999  -60.0777 H   0  0  0  0  0  0  0  0  0  0  0  0
    7.7237    5.4449  -58.3864 H   0  0  0  0  0  0  0  0  0  0  0  0
   11.5110    2.9170  -56.5350 H   0  0  0  0  0  0  0  0  0  0  0  0
   13.8659    4.0437  -57.4419 H   0  0  0  0  0  0  0  0  0  0  0  0
   14.7175    5.6779  -59.1442 H   0  0  0  0  0  0  0  0  0  0  0  0
   13.1497    6.8418  -60.6692 H   0  0  0  0  0  0  0  0  0  0  0  0
   10.6928    6.4089  -60.5391 H   0  0  0  0  0  0  0  0  0  0  0  0
    8.0534    3.6321  -56.3863 H   0  0  0  0  0  0  0  0  0  0  0  0
    9.7878    1.2484  -56.0170 H   0  0  0  0  0  0  0  0  0  0  0  0
    8.9626    2.2958  -54.8282 H   0  0  0  0  0  0  0  0  0  0  0  0
    7.6330    0.4860  -56.7750 H   0  0  0  0  0  0  0  0  0  0  0  0
    7.8258   -0.0461  -53.8613 H   0  0  0  0  0  0  0  0  0  0  0  0
    7.1226   -1.1207  -55.1173 H   0  0  0  0  0  0  0  0  0  0  0  0
    8.8848   -0.7724  -55.1173 H   0  0  0  0  0  0  0  0  0  0  0  0
    5.7551    0.9443  -54.7960 H   0  0  0  0  0  0  0  0  0  0  0  0
    6.4852    2.5399  -55.2885 H   0  0  0  0  0  0  0  0  0  0  0  0
    5.4662    0.5119  -57.2956 H   0  0  0  0  0  0  0  0  0  0  0  0
    4.4441    1.8684  -56.4952 H   0  0  0  0  0  0  0  0  0  0  0  0
    4.9028    3.0411  -58.4241 H   0  0  0  0  0  0  0  0  0  0  0  0
  1  2  1  0
  2  3  1  0
  3  4  1  0
  4  5  2  0
  5  6  1  0
  6  7  1  0
  7  8  2  0
  8  9  1  0
  9 10  2  0
 10 11  1  0
 11 12  2  0
  5 13  1  0
 13 14  1  0
 14 15  1  0
 15 16  1  0
 15 17  1  0
 17 18  1  0
 18 19  1  0
 19 20  2  0
 20 21  1  0
 20  2  1  0
 12  4  1  0
 21 13  1  0
 12  7  1  0
  1 22  1  0
  1 23  1  0
  1 24  1  0
  2 25  1  6
  3 26  1  0
  3 27  1  0
  6 28  1  0
  8 29  1  0
  9 30  1  0
 10 31  1  0
 11 32  1  0
 13 33  1  1
 14 34  1  0
 14 35  1  0
 15 36  1  6
 16 37  1  0
 16 38  1  0
 16 39  1  0
 17 40  1  0
 17 41  1  0
 18 42  1  0
 18 43  1  0
 19 44  1  0
M  CHG  1  15   1
M  END
>  <meeko>  (152) 
{"is_sidechain": false}

$$$$

     RDKit          3D

 46 50  0  0  0  0  0  0  0  0999 V2000
    4.2110    0.8650  -61.0400 Cl  0  0  0  0  0  0  0  0  0  0  0  0
    5.2230    1.7850  -59.9880 C   0  0  0  0  0  0  0  0  0  0  0  0
    4.8300    1.8900  -58.5950 C   0  0  0  0  0  0  0  0  0  0  0  0
    5.6950    2.3570  -57.6790 C   0  0  0  0  0  0  0  0  0  0  0  0
    7.0390    2.7420  -58.1070 C   0  0  0  0  0  0  0  0  0  0  0  0
    7.0730    3.2800  -59.5230 C   0  0  0  0  0  0  0  0  0  0  0  0
    6.2980    2.4250  -60.4720 C   0  0  0  0  0  0  0  0  0  0  0  0
    7.5900    4.3710  -59.9970 N   0  0  0  0  0  0  0  0  0  0  0  0
    7.9230    5.3350  -59.1010 C   0  0  0  0  0  0  0  0  0  0  0  0
    9.1130    5.9150  -58.9320 C   0  0  0  0  0  0  0  0  0  0  0  0
   10.4840    5.6430  -59.5040 C   0  0  1  0  0  0  0  0  0  0  0  0
   11.5070    5.6240  -58.3490 C   0  0  0  0  0  0  0  0  0  0  0  0
   11.6770    4.2360  -57.7060 C   0  0  2  0  0  0  0  0  0  0  0  0
   12.2240    3.2980  -58.7680 C   0  0  0  0  0  0  0  0  0  0  0  0
   11.1520    3.1060  -59.8250 C   0  0  2  0  0  0  0  0  0  0  0  0
   10.7050    4.4460  -60.4520 C   0  0  0  0  0  0  0  0  0  0  0  0
   10.0130    2.2670  -59.2420 C   0  0  0  0  0  0  0  0  0  0  0  0
    9.6580    2.5000  -57.7420 C   0  0  2  0  0  0  0  0  0  0  0  0
   10.1070    1.2080  -56.9640 C   0  0  0  0  0  0  0  0  0  0  0  0
    9.2810    1.1860  -55.6860 C   0  0  0  0  0  0  0  0  0  0  0  0
    8.0520    1.8320  -56.0980 N   0  0  0  0  0  0  0  0  0  0  0  0
    8.1360    2.4500  -57.3580 C   0  0  0  0  0  0  0  0  0  0  0  0
   10.3710    3.7160  -57.0620 C   0  0  0  0  0  0  0  0  0  0  0  0
    3.8187    1.5857  -58.2874 H   0  0  0  0  0  0  0  0  0  0  0  0
    5.3968    2.4482  -56.6241 H   0  0  0  0  0  0  0  0  0  0  0  0
    6.5971    2.3243  -61.5258 H   0  0  0  0  0  0  0  0  0  0  0  0
    7.1170    5.6785  -58.4359 H   0  0  0  0  0  0  0  0  0  0  0  0
    9.0907    6.7645  -58.2336 H   0  0  0  0  0  0  0  0  0  0  0  0
   10.6233    6.4771  -60.2075 H   0  0  0  0  0  0  0  0  0  0  0  0
   12.4821    5.9483  -58.7415 H   0  0  0  0  0  0  0  0  0  0  0  0
   11.1277    6.2995  -57.5681 H   0  0  0  0  0  0  0  0  0  0  0  0
   12.3880    4.2982  -56.8689 H   0  0  0  0  0  0  0  0  0  0  0  0
   13.1237    3.7361  -59.2247 H   0  0  0  0  0  0  0  0  0  0  0  0
   12.4944    2.3307  -58.3194 H   0  0  0  0  0  0  0  0  0  0  0  0
   11.5659    2.5430  -60.6745 H   0  0  0  0  0  0  0  0  0  0  0  0
   11.4751    4.7412  -61.1799 H   0  0  0  0  0  0  0  0  0  0  0  0
    9.7105    4.2377  -60.8733 H   0  0  0  0  0  0  0  0  0  0  0  0
    9.1096    2.4775  -59.8333 H   0  0  0  0  0  0  0  0  0  0  0  0
   10.3691    1.2275  -59.2930 H   0  0  0  0  0  0  0  0  0  0  0  0
    9.9060    0.3093  -57.5656 H   0  0  0  0  0  0  0  0  0  0  0  0
   11.1857    1.2191  -56.7489 H   0  0  0  0  0  0  0  0  0  0  0  0
    9.0953    0.1552  -55.3500 H   0  0  0  0  0  0  0  0  0  0  0  0
    9.7737    1.6808  -54.8360 H   0  0  0  0  0  0  0  0  0  0  0  0
    7.2040    1.2920  -55.9430 H   0  0  0  0  0  0  0  0  0  0  0  0
    9.6555    4.5514  -57.0498 H   0  0  0  0  0  0  0  0  0  0  0  0
   10.6783    3.3412  -56.0745 H   0  0  0  0  0  0  0  0  0  0  0  0
  1  2  1  0
  2  3  1  0
  3  4  2  0
  4  5  1  0
  5  6  1  0
  6  7  1  0
  6  8  2  0
  8  9  1  0
  9 10  2  0
 10 11  1  0
 11 12  1  0
 12 13  1  0
 13 14  1  0
 14 15  1  0
 15 16  1  0
 15 17  1  0
 17 18  1  0
 18 19  1  1
 19 20  1  0
 20 21  1  0
 21 22  1  0
 18 23  1  0
  7  2  2  0
 16 11  1  0
 22 18  1  0
 22  5  2  0
 23 13  1  0
  3 24  1  0
  4 25  1  0
  7 26  1  0
  9 27  1  0
 10 28  1  0
 11 29  1  6
 12 30  1  0
 12 31  1  0
 13 32  1  1
 14 33  1  0
 14 34  1  0
 15 35  1  6
 16 36  1  0
 16 37  1  0
 17 38  1  0
 17 39  1  0
 19 40  1  0
 19 41  1  0
 20 42  1  0
 20 43  1  0
 21 44  1  0
 23 45  1  0
 23 46  1  0
M  END
>  <meeko>  (153) 
{"is_sidechain": false}

$$$$

     RDKit          3D

 46 50  0  0  0  0  0  0  0  0999 V2000
    3.0790    2.5810  -60.4380 Cl  0  0  0  0  0  0  0  0  0  0  0  0
    4.4820    2.3380  -59.4710 C   0  0  0  0  0  0  0  0  0  0  0  0
    4.3590    2.2610  -58.0880 C   0  0  0  0  0  0  0  0  0  0  0  0
    5.4990    2.0600  -57.3130 C   0  0  0  0  0  0  0  0  0  0  0  0
    6.7630    1.9430  -57.9200 C   0  0  0  0  0  0  0  0  0  0  0  0
    6.8950    2.0040  -59.3160 C   0  0  0  0  0  0  0  0  0  0  0  0
    5.7290    2.1990  -60.0820 C   0  0  0  0  0  0  0  0  0  0  0  0
    8.1460    1.7210  -59.9380 N   0  0  0  0  0  0  0  0  0  0  0  0
    8.4430    2.2020  -61.1950 C   0  0  0  0  0  0  0  0  0  0  0  0
    9.1920    3.2770  -61.4800 C   0  0  0  0  0  0  0  0  0  0  0  0
    9.9190    4.1540  -60.4780 C   0  0  1  0  0  0  0  0  0  0  0  0
    8.9750    4.9270  -59.5340 C   0  0  0  0  0  0  0  0  0  0  0  0
    9.4210    5.1320  -58.0750 C   0  0  2  0  0  0  0  0  0  0  0  0
   10.8940    4.8550  -57.8510 C   0  0  0  0  0  0  0  0  0  0  0  0
   11.1910    3.4460  -58.3240 C   0  0  2  0  0  0  0  0  0  0  0  0
   11.1070    3.3980  -59.8510 C   0  0  0  0  0  0  0  0  0  0  0  0
   10.3060    2.3720  -57.6640 C   0  0  0  0  0  0  0  0  0  0  0  0
    9.0490    2.8330  -56.8760 C   0  0  2  0  0  0  0  0  0  0  0  0
    9.3030    2.5830  -55.3670 C   0  0  0  0  0  0  0  0  0  0  0  0
    9.0310    1.0960  -55.2090 C   0  0  0  0  0  0  0  0  0  0  0  0
    7.8960    0.8350  -56.1060 N   0  0  0  0  0  0  0  0  0  0  0  0
    7.9030    1.8040  -56.9800 C   0  0  0  0  0  0  0  0  0  0  0  0
    8.6000    4.2980  -57.0800 C   0  0  0  0  0  0  0  0  0  0  0  0
    3.3724    2.3577  -57.6112 H   0  0  0  0  0  0  0  0  0  0  0  0
    5.4104    1.9923  -56.2187 H   0  0  0  0  0  0  0  0  0  0  0  0
    5.8025    2.2424  -61.1787 H   0  0  0  0  0  0  0  0  0  0  0  0
    8.2110    0.6970  -59.9400 H   0  0  0  0  0  0  0  0  0  0  0  0
    8.0241    1.6493  -62.0489 H   0  0  0  0  0  0  0  0  0  0  0  0
    9.2886    3.5490  -62.5415 H   0  0  0  0  0  0  0  0  0  0  0  0
   10.3930    4.9934  -61.0079 H   0  0  0  0  0  0  0  0  0  0  0  0
    8.8193    5.9241  -59.9716 H   0  0  0  0  0  0  0  0  0  0  0  0
    8.0794    4.2925  -59.4610 H   0  0  0  0  0  0  0  0  0  0  0  0
    9.2373    6.1999  -57.8857 H   0  0  0  0  0  0  0  0  0  0  0  0
   11.4988    5.5744  -58.4226 H   0  0  0  0  0  0  0  0  0  0  0  0
   11.1405    4.9562  -56.7838 H   0  0  0  0  0  0  0  0  0  0  0  0
   12.2139    3.1970  -58.0050 H   0  0  0  0  0  0  0  0  0  0  0  0
   12.0342    3.8309  -60.2545 H   0  0  0  0  0  0  0  0  0  0  0  0
   10.9600    2.3392  -60.1106 H   0  0  0  0  0  0  0  0  0  0  0  0
    9.9605    1.6993  -58.4628 H   0  0  0  0  0  0  0  0  0  0  0  0
   10.9543    1.9200  -56.8989 H   0  0  0  0  0  0  0  0  0  0  0  0
   10.3416    2.8246  -55.0968 H   0  0  0  0  0  0  0  0  0  0  0  0
    8.6744    3.2075  -54.7152 H   0  0  0  0  0  0  0  0  0  0  0  0
    9.9089    0.5055  -55.5100 H   0  0  0  0  0  0  0  0  0  0  0  0
    8.8148    0.8175  -54.1670 H   0  0  0  0  0  0  0  0  0  0  0  0
    7.5591    4.2826  -57.4353 H   0  0  0  0  0  0  0  0  0  0  0  0
    8.7412    4.7854  -56.1040 H   0  0  0  0  0  0  0  0  0  0  0  0
  1  2  1  0
  2  3  1  0
  3  4  2  0
  4  5  1  0
  5  6  2  0
  6  7  1  0
  6  8  1  0
  8  9  1  0
  9 10  2  0
 10 11  1  0
 11 12  1  0
 12 13  1  0
 13 14  1  0
 14 15  1  0
 15 16  1  0
 15 17  1  0
 17 18  1  0
 18 19  1  1
 19 20  1  0
 20 21  1  0
 21 22  2  0
 18 23  1  0
  7  2  2  0
 16 11  1  0
 22 18  1  0
 22  5  1  0
 23 13  1  0
  3 24  1  0
  4 25  1  0
  7 26  1  0
  8 27  1  0
  9 28  1  0
 10 29  1  0
 11 30  1  6
 12 31  1  0
 12 32  1  0
 13 33  1  1
 14 34  1  0
 14 35  1  0
 15 36  1  6
 16 37  1  0
 16 38  1  0
 17 39  1  0
 17 40  1  0
 19 41  1  0
 19 42  1  0
 20 43  1  0
 20 44  1  0
 23 45  1  0
 23 46  1  0
M  END
>  <meeko>  (154) 
{"is_sidechain": false}

$$$$

     RDKit          3D

 46 50  0  0  0  0  0  0  0  0999 V2000
    7.4080   -0.1740  -52.9020 Cl  0  0  0  0  0  0  0  0  0  0  0  0
    7.4020    0.4730  -54.4950 C   0  0  0  0  0  0  0  0  0  0  0  0
    6.1980    0.6790  -55.1540 C   0  0  0  0  0  0  0  0  0  0  0  0
    6.2090    1.1930  -56.4510 C   0  0  0  0  0  0  0  0  0  0  0  0
    7.4160    1.5260  -57.1010 C   0  0  0  0  0  0  0  0  0  0  0  0
    8.6290    1.3330  -56.4200 C   0  0  0  0  0  0  0  0  0  0  0  0
    8.6040    0.7880  -55.1210 C   0  0  0  0  0  0  0  0  0  0  0  0
    9.8820    1.6020  -56.9920 N   0  0  0  0  0  0  0  0  0  0  0  0
   10.5480    2.5790  -56.4730 C   0  0  0  0  0  0  0  0  0  0  0  0
   11.8730    2.9940  -57.0320 C   0  0  0  0  0  0  0  0  0  0  0  0
   11.7970    4.0370  -58.1620 C   0  0  1  0  0  0  0  0  0  0  0  0
   11.7260    3.4070  -59.5710 C   0  0  0  0  0  0  0  0  0  0  0  0
   10.4060    3.5700  -60.3390 C   0  0  2  0  0  0  0  0  0  0  0  0
    9.9290    5.0110  -60.2160 C   0  0  0  0  0  0  0  0  0  0  0  0
    9.5510    5.2670  -58.7670 C   0  0  2  0  0  0  0  0  0  0  0  0
   10.8240    5.2080  -57.8990 C   0  0  0  0  0  0  0  0  0  0  0  0
    8.4230    4.3320  -58.2780 C   0  0  0  0  0  0  0  0  0  0  0  0
    8.1080    3.1190  -59.1830 C   0  0  2  0  0  0  0  0  0  0  0  0
    7.0480    3.5150  -60.2430 C   0  0  0  0  0  0  0  0  0  0  0  0
    6.3110    2.2200  -60.5170 C   0  0  0  0  0  0  0  0  0  0  0  0
    6.2910    1.5240  -59.2300 N   0  0  0  0  0  0  0  0  0  0  0  0
    7.2620    2.0180  -58.5090 C   0  0  0  0  0  0  0  0  0  0  0  0
    9.3460    2.5390  -59.9030 C   0  0  0  0  0  0  0  0  0  0  0  0
    5.2453    0.4396  -54.6590 H   0  0  0  0  0  0  0  0  0  0  0  0
    5.2553    1.3419  -56.9785 H   0  0  0  0  0  0  0  0  0  0  0  0
    9.5517    0.6083  -54.5923 H   0  0  0  0  0  0  0  0  0  0  0  0
   10.1348    3.1151  -55.6059 H   0  0  0  0  0  0  0  0  0  0  0  0
   12.4722    3.4190  -56.2133 H   0  0  0  0  0  0  0  0  0  0  0  0
   12.3206    2.0910  -57.4727 H   0  0  0  0  0  0  0  0  0  0  0  0
   12.7719    4.5464  -58.1499 H   0  0  0  0  0  0  0  0  0  0  0  0
   12.5224    3.8613  -60.1787 H   0  0  0  0  0  0  0  0  0  0  0  0
   11.8306    2.3244  -59.4068 H   0  0  0  0  0  0  0  0  0  0  0  0
   10.5803    3.3586  -61.4043 H   0  0  0  0  0  0  0  0  0  0  0  0
   10.7351    5.6965  -60.5167 H   0  0  0  0  0  0  0  0  0  0  0  0
    9.0603    5.1795  -60.8694 H   0  0  0  0  0  0  0  0  0  0  0  0
    9.1233    6.2763  -58.6747 H   0  0  0  0  0  0  0  0  0  0  0  0
   11.3794    6.1438  -58.0599 H   0  0  0  0  0  0  0  0  0  0  0  0
   10.4629    5.0549  -56.8713 H   0  0  0  0  0  0  0  0  0  0  0  0
    8.7099    3.9477  -57.2880 H   0  0  0  0  0  0  0  0  0  0  0  0
    7.5098    4.9452  -58.2756 H   0  0  0  0  0  0  0  0  0  0  0  0
    6.3635    4.2793  -59.8464 H   0  0  0  0  0  0  0  0  0  0  0  0
    7.4941    3.9509  -61.1491 H   0  0  0  0  0  0  0  0  0  0  0  0
    5.2871    2.4225  -60.8644 H   0  0  0  0  0  0  0  0  0  0  0  0
    6.7955    1.6242  -61.3046 H   0  0  0  0  0  0  0  0  0  0  0  0
    9.8297    1.8236  -59.2216 H   0  0  0  0  0  0  0  0  0  0  0  0
    8.9691    2.0838  -60.8308 H   0  0  0  0  0  0  0  0  0  0  0  0
  1  2  1  0
  2  3  1  0
  3  4  2  0
  4  5  1  0
  5  6  2  0
  6  7  1  0
  6  8  1  0
  8  9  2  0
  9 10  1  0
 10 11  1  0
 11 12  1  0
 12 13  1  0
 13 14  1  0
 14 15  1  0
 15 16  1  0
 15 17  1  0
 17 18  1  0
 18 19  1  6
 19 20  1  0
 20 21  1  0
 21 22  2  0
 18 23  1  0
  7  2  2  0
 16 11  1  0
 22 18  1  0
 22  5  1  0
 23 13  1  0
  3 24  1  0
  4 25  1  0
  7 26  1  0
  9 27  1  0
 10 28  1  0
 10 29  1  0
 11 30  1  6
 12 31  1  0
 12 32  1  0
 13 33  1  6
 14 34  1  0
 14 35  1  0
 15 36  1  6
 16 37  1  0
 16 38  1  0
 17 39  1  0
 17 40  1  0
 19 41  1  0
 19 42  1  0
 20 43  1  0
 20 44  1  0
 23 45  1  0
 23 46  1  0
M  END
>  <meeko>  (155) 
{"is_sidechain": false}

$$$$

     RDKit          3D

 46 50  0  0  0  0  0  0  0  0999 V2000
    2.9180    2.5220  -60.5090 Cl  0  0  0  0  0  0  0  0  0  0  0  0
    4.3320    2.2740  -59.5610 C   0  0  0  0  0  0  0  0  0  0  0  0
    4.2580    2.3620  -58.1760 C   0  0  0  0  0  0  0  0  0  0  0  0
    5.4090    2.1530  -57.4180 C   0  0  0  0  0  0  0  0  0  0  0  0
    6.6390    1.8720  -58.0410 C   0  0  0  0  0  0  0  0  0  0  0  0
    6.7160    1.7820  -59.4380 C   0  0  0  0  0  0  0  0  0  0  0  0
    5.5410    1.9760  -60.1860 C   0  0  0  0  0  0  0  0  0  0  0  0
    7.8610    1.3870  -60.1420 N   0  0  0  0  0  0  0  0  0  0  0  0
    8.6180    2.2560  -60.7360 C   0  0  0  0  0  0  0  0  0  0  0  0
    8.5110    3.7640  -60.6890 C   0  0  0  0  0  0  0  0  0  0  0  0
    9.7800    4.5160  -60.2140 C   0  0  1  0  0  0  0  0  0  0  0  0
    9.4610    5.6000  -59.1590 C   0  0  0  0  0  0  0  0  0  0  0  0
    9.6090    5.1520  -57.6910 C   0  0  2  0  0  0  0  0  0  0  0  0
   11.0020    4.5830  -57.4750 C   0  0  0  0  0  0  0  0  0  0  0  0
   11.1440    3.3260  -58.3190 C   0  0  2  0  0  0  0  0  0  0  0  0
   11.0160    3.6840  -59.8120 C   0  0  0  0  0  0  0  0  0  0  0  0
   10.1690    2.2270  -57.8620 C   0  0  0  0  0  0  0  0  0  0  0  0
    8.9500    2.6970  -57.0290 C   0  0  2  0  0  0  0  0  0  0  0  0
    9.2490    2.4570  -55.5300 C   0  0  0  0  0  0  0  0  0  0  0  0
    8.9010    0.9890  -55.3360 C   0  0  0  0  0  0  0  0  0  0  0  0
    7.7380    0.7660  -56.2060 N   0  0  0  0  0  0  0  0  0  0  0  0
    7.7790    1.7020  -57.1110 C   0  0  0  0  0  0  0  0  0  0  0  0
    8.5120    4.1610  -57.2670 C   0  0  0  0  0  0  0  0  0  0  0  0
    3.3021    2.5939  -57.6836 H   0  0  0  0  0  0  0  0  0  0  0  0
    5.3552    2.2083  -56.3207 H   0  0  0  0  0  0  0  0  0  0  0  0
    5.5771    1.8911  -61.2821 H   0  0  0  0  0  0  0  0  0  0  0  0
    9.4361    1.8476  -61.3474 H   0  0  0  0  0  0  0  0  0  0  0  0
    8.2692    4.1169  -61.7024 H   0  0  0  0  0  0  0  0  0  0  0  0
    7.7353    3.9851  -59.9410 H   0  0  0  0  0  0  0  0  0  0  0  0
   10.1098    4.9912  -61.1497 H   0  0  0  0  0  0  0  0  0  0  0  0
   10.1414    6.4480  -59.3261 H   0  0  0  0  0  0  0  0  0  0  0  0
    8.3995    5.8545  -59.2946 H   0  0  0  0  0  0  0  0  0  0  0  0
    9.4795    6.0327  -57.0448 H   0  0  0  0  0  0  0  0  0  0  0  0
   11.7568    5.3226  -57.7804 H   0  0  0  0  0  0  0  0  0  0  0  0
   11.1512    4.3430  -56.4119 H   0  0  0  0  0  0  0  0  0  0  0  0
   12.1474    2.8991  -58.1740 H   0  0  0  0  0  0  0  0  0  0  0  0
   11.9115    4.2556  -60.0972 H   0  0  0  0  0  0  0  0  0  0  0  0
   10.9040    2.7226  -60.3347 H   0  0  0  0  0  0  0  0  0  0  0  0
    9.7864    1.7226  -58.7615 H   0  0  0  0  0  0  0  0  0  0  0  0
   10.7509    1.5775  -57.1915 H   0  0  0  0  0  0  0  0  0  0  0  0
   10.3093    2.6440  -55.3045 H   0  0  0  0  0  0  0  0  0  0  0  0
    8.6828    3.1257  -54.8651 H   0  0  0  0  0  0  0  0  0  0  0  0
    9.7415    0.3473  -55.6390 H   0  0  0  0  0  0  0  0  0  0  0  0
    8.6882    0.7460  -54.2845 H   0  0  0  0  0  0  0  0  0  0  0  0
    7.7456    4.1551  -58.0560 H   0  0  0  0  0  0  0  0  0  0  0  0
    8.1622    4.5199  -56.2878 H   0  0  0  0  0  0  0  0  0  0  0  0
  1  2  1  0
  2  3  1  0
  3  4  2  0
  4  5  1  0
  5  6  2  0
  6  7  1  0
  6  8  1  0
  8  9  2  0
  9 10  1  0
 10 11  1  0
 11 12  1  0
 12 13  1  0
 13 14  1  0
 14 15  1  0
 15 16  1  0
 15 17  1  0
 17 18  1  0
 18 19  1  1
 19 20  1  0
 20 21  1  0
 21 22  2  0
 18 23  1  0
  7  2  2  0
 16 11  1  0
 22 18  1  0
 22  5  1  0
 23 13  1  0
  3 24  1  0
  4 25  1  0
  7 26  1  0
  9 27  1  0
 10 28  1  0
 10 29  1  0
 11 30  1  6
 12 31  1  0
 12 32  1  0
 13 33  1  1
 14 34  1  0
 14 35  1  0
 15 36  1  6
 16 37  1  0
 16 38  1  0
 17 39  1  0
 17 40  1  0
 19 41  1  0
 19 42  1  0
 20 43  1  0
 20 44  1  0
 23 45  1  0
 23 46  1  0
M  END
>  <meeko>  (156) 
{"is_sidechain": false}

$$$$

     RDKit          3D

 46 50  0  0  0  0  0  0  0  0999 V2000
    5.0530    1.8950  -63.2230 Cl  0  0  0  0  0  0  0  0  0  0  0  0
    5.4990    2.2040  -61.5840 C   0  0  0  0  0  0  0  0  0  0  0  0
    4.5320    1.8970  -60.5600 C   0  0  0  0  0  0  0  0  0  0  0  0
    4.8760    1.9240  -59.2640 C   0  0  0  0  0  0  0  0  0  0  0  0
    6.2330    2.2750  -58.8500 C   0  0  0  0  0  0  0  0  0  0  0  0
    7.0540    3.0410  -59.8790 C   0  0  0  0  0  0  0  0  0  0  0  0
    6.6920    2.7420  -61.3000 C   0  0  0  0  0  0  0  0  0  0  0  0
    7.9590    3.8780  -59.4810 N   0  0  0  0  0  0  0  0  0  0  0  0
    8.7310    4.5800  -60.3470 C   0  0  0  0  0  0  0  0  0  0  0  0
    9.9990    4.8940  -60.0590 C   0  0  0  0  0  0  0  0  0  0  0  0
   10.7670    4.5490  -58.7960 C   0  0  1  0  0  0  0  0  0  0  0  0
   10.1600    5.1230  -57.4930 C   0  0  0  0  0  0  0  0  0  0  0  0
    9.7650    4.1270  -56.3820 C   0  0  2  0  0  0  0  0  0  0  0  0
   10.7660    2.9880  -56.3170 C   0  0  0  0  0  0  0  0  0  0  0  0
   10.6990    2.2090  -57.6190 C   0  0  2  0  0  0  0  0  0  0  0  0
   11.2520    3.0830  -58.7570 C   0  0  0  0  0  0  0  0  0  0  0  0
    9.2880    1.6690  -57.9360 C   0  0  0  0  0  0  0  0  0  0  0  0
    8.1320    2.1720  -57.0220 C   0  0  2  0  0  0  0  0  0  0  0  0
    8.0590    1.1940  -55.7940 C   0  0  0  0  0  0  0  0  0  0  0  0
    6.6010    1.1480  -55.3770 C   0  0  0  0  0  0  0  0  0  0  0  0
    5.9040    1.3610  -56.6250 N   0  0  0  0  0  0  0  0  0  0  0  0
    6.6960    1.9720  -57.6090 C   0  0  0  0  0  0  0  0  0  0  0  0
    8.3120    3.6260  -56.5070 C   0  0  0  0  0  0  0  0  0  0  0  0
    3.5015    1.6380  -60.8445 H   0  0  0  0  0  0  0  0  0  0  0  0
    4.1241    1.6778  -58.4997 H   0  0  0  0  0  0  0  0  0  0  0  0
    7.4038    2.9635  -62.1089 H   0  0  0  0  0  0  0  0  0  0  0  0
    8.3043    4.8989  -61.3094 H   0  0  0  0  0  0  0  0  0  0  0  0
   10.5462    5.4661  -60.8227 H   0  0  0  0  0  0  0  0  0  0  0  0
   11.7087    5.1148  -58.8524 H   0  0  0  0  0  0  0  0  0  0  0  0
   10.8991    5.8159  -57.0645 H   0  0  0  0  0  0  0  0  0  0  0  0
    9.2090    5.5775  -57.8078 H   0  0  0  0  0  0  0  0  0  0  0  0
    9.7988    4.6695  -55.4257 H   0  0  0  0  0  0  0  0  0  0  0  0
   11.7795    3.3928  -56.1791 H   0  0  0  0  0  0  0  0  0  0  0  0
   10.5282    2.3266  -55.4708 H   0  0  0  0  0  0  0  0  0  0  0  0
   11.3253    1.3112  -57.5109 H   0  0  0  0  0  0  0  0  0  0  0  0
   12.3482    3.0956  -58.6666 H   0  0  0  0  0  0  0  0  0  0  0  0
   10.8761    2.6265  -59.6845 H   0  0  0  0  0  0  0  0  0  0  0  0
    9.0451    1.9544  -58.9702 H   0  0  0  0  0  0  0  0  0  0  0  0
    9.3452    0.5840  -57.7639 H   0  0  0  0  0  0  0  0  0  0  0  0
    8.4047    0.1908  -56.0841 H   0  0  0  0  0  0  0  0  0  0  0  0
    8.7016    1.5365  -54.9695 H   0  0  0  0  0  0  0  0  0  0  0  0
    6.3441    0.1711  -54.9415 H   0  0  0  0  0  0  0  0  0  0  0  0
    6.3457    1.8877  -54.6039 H   0  0  0  0  0  0  0  0  0  0  0  0
    5.3660    0.5710  -56.9720 H   0  0  0  0  0  0  0  0  0  0  0  0
    7.7841    4.2962  -57.2014 H   0  0  0  0  0  0  0  0  0  0  0  0
    7.9098    3.6285  -55.4832 H   0  0  0  0  0  0  0  0  0  0  0  0
  1  2  1  0
  2  3  1  0
  3  4  2  0
  4  5  1  0
  5  6  1  0
  6  7  1  0
  6  8  2  0
  8  9  1  0
  9 10  2  0
 10 11  1  0
 11 12  1  0
 12 13  1  0
 13 14  1  0
 14 15  1  0
 15 16  1  0
 15 17  1  0
 17 18  1  0
 18 19  1  1
 19 20  1  0
 20 21  1  0
 21 22  1  0
 18 23  1  0
  7  2  2  0
 16 11  1  0
 22 18  1  0
 22  5  2  0
 23 13  1  0
  3 24  1  0
  4 25  1  0
  7 26  1  0
  9 27  1  0
 10 28  1  0
 11 29  1  6
 12 30  1  0
 12 31  1  0
 13 32  1  1
 14 33  1  0
 14 34  1  0
 15 35  1  1
 16 36  1  0
 16 37  1  0
 17 38  1  0
 17 39  1  0
 19 40  1  0
 19 41  1  0
 20 42  1  0
 20 43  1  0
 21 44  1  0
 23 45  1  0
 23 46  1  0
M  END
>  <meeko>  (157) 
{"is_sidechain": false}

$$$$

     RDKit          3D

 46 50  0  0  0  0  0  0  0  0999 V2000
    7.4420   -0.6510  -52.3540 Cl  0  0  0  0  0  0  0  0  0  0  0  0
    7.4220    0.0580  -53.9210 C   0  0  0  0  0  0  0  0  0  0  0  0
    6.2250    0.4910  -54.4690 C   0  0  0  0  0  0  0  0  0  0  0  0
    6.2220    1.0690  -55.7390 C   0  0  0  0  0  0  0  0  0  0  0  0
    7.4140    1.2370  -56.4740 C   0  0  0  0  0  0  0  0  0  0  0  0
    8.6300    0.7840  -55.9150 C   0  0  0  0  0  0  0  0  0  0  0  0
    8.6140    0.2040  -54.6300 C   0  0  0  0  0  0  0  0  0  0  0  0
    9.8890    1.0030  -56.5100 N   0  0  0  0  0  0  0  0  0  0  0  0
   10.3770    2.2840  -56.5530 C   0  0  0  0  0  0  0  0  0  0  0  0
   11.2610    2.7200  -57.4480 C   0  0  0  0  0  0  0  0  0  0  0  0
   11.3360    4.1490  -57.9370 C   0  0  1  0  0  0  0  0  0  0  0  0
   11.1500    4.1320  -59.4720 C   0  0  0  0  0  0  0  0  0  0  0  0
    9.6720    4.1240  -59.9220 C   0  0  2  0  0  0  0  0  0  0  0  0
    9.0290    5.4060  -59.4080 C   0  0  0  0  0  0  0  0  0  0  0  0
    8.9440    5.3120  -57.8940 C   0  0  2  0  0  0  0  0  0  0  0  0
   10.3700    5.1820  -57.2900 C   0  0  0  0  0  0  0  0  0  0  0  0
    7.9230    4.2240  -57.4890 C   0  0  0  0  0  0  0  0  0  0  0  0
    7.7150    3.0640  -58.4950 C   0  0  2  0  0  0  0  0  0  0  0  0
    6.4450    3.3230  -59.3520 C   0  0  0  0  0  0  0  0  0  0  0  0
    6.0060    1.9260  -59.7610 C   0  0  0  0  0  0  0  0  0  0  0  0
    6.2990    1.0960  -58.5900 N   0  0  0  0  0  0  0  0  0  0  0  0
    7.1800    1.7420  -57.8730 C   0  0  0  0  0  0  0  0  0  0  0  0
    8.8960    2.8490  -59.4900 C   0  0  0  0  0  0  0  0  0  0  0  0
    5.2855    0.3800  -53.9077 H   0  0  0  0  0  0  0  0  0  0  0  0
    5.2690    1.4010  -56.1766 H   0  0  0  0  0  0  0  0  0  0  0  0
    9.5571   -0.1389  -54.1794 H   0  0  0  0  0  0  0  0  0  0  0  0
   10.6030    0.3220  -56.2620 H   0  0  0  0  0  0  0  0  0  0  0  0
   10.0143    2.9978  -55.7987 H   0  0  0  0  0  0  0  0  0  0  0  0
   11.9812    1.9961  -57.8570 H   0  0  0  0  0  0  0  0  0  0  0  0
   12.3244    4.5136  -57.6205 H   0  0  0  0  0  0  0  0  0  0  0  0
   11.6347    5.0267  -59.8898 H   0  0  0  0  0  0  0  0  0  0  0  0
   11.6011    3.1981  -59.8386 H   0  0  0  0  0  0  0  0  0  0  0  0
    9.6294    4.0924  -61.0207 H   0  0  0  0  0  0  0  0  0  0  0  0
    9.6426    6.2728  -59.6947 H   0  0  0  0  0  0  0  0  0  0  0  0
    8.0255    5.5313  -59.8408 H   0  0  0  0  0  0  0  0  0  0  0  0
    8.5447    6.2372  -57.4529 H   0  0  0  0  0  0  0  0  0  0  0  0
   10.8488    6.1697  -57.3617 H   0  0  0  0  0  0  0  0  0  0  0  0
   10.2069    4.8091  -56.2681 H   0  0  0  0  0  0  0  0  0  0  0  0
    8.2608    3.7857  -56.5383 H   0  0  0  0  0  0  0  0  0  0  0  0
    6.9531    4.7401  -57.4343 H   0  0  0  0  0  0  0  0  0  0  0  0
    5.6650    3.8230  -58.7590 H   0  0  0  0  0  0  0  0  0  0  0  0
    6.6338    3.9830  -60.2115 H   0  0  0  0  0  0  0  0  0  0  0  0
    4.9307    1.9077  -59.9922 H   0  0  0  0  0  0  0  0  0  0  0  0
    6.5214    1.5721  -60.6660 H   0  0  0  0  0  0  0  0  0  0  0  0
    9.6141    2.1642  -59.0151 H   0  0  0  0  0  0  0  0  0  0  0  0
    8.4372    2.4585  -60.4103 H   0  0  0  0  0  0  0  0  0  0  0  0
  1  2  1  0
  2  3  1  0
  3  4  2  0
  4  5  1  0
  5  6  2  0
  6  7  1  0
  6  8  1  0
  8  9  1  0
  9 10  2  0
 10 11  1  0
 11 12  1  0
 12 13  1  0
 13 14  1  0
 14 15  1  0
 15 16  1  0
 15 17  1  0
 17 18  1  0
 18 19  1  6
 19 20  1  0
 20 21  1  0
 21 22  2  0
 18 23  1  0
  7  2  2  0
 16 11  1  0
 22 18  1  0
 22  5  1  0
 23 13  1  0
  3 24  1  0
  4 25  1  0
  7 26  1  0
  8 27  1  0
  9 28  1  0
 10 29  1  0
 11 30  1  6
 12 31  1  0
 12 32  1  0
 13 33  1  6
 14 34  1  0
 14 35  1  0
 15 36  1  1
 16 37  1  0
 16 38  1  0
 17 39  1  0
 17 40  1  0
 19 41  1  0
 19 42  1  0
 20 43  1  0
 20 44  1  0
 23 45  1  0
 23 46  1  0
M  END
>  <meeko>  (158) 
{"is_sidechain": false}

$$$$

     RDKit          3D

 46 50  0  0  0  0  0  0  0  0999 V2000
    3.7170    0.9860  -62.9480 Cl  0  0  0  0  0  0  0  0  0  0  0  0
    4.4770    1.7290  -61.5920 C   0  0  0  0  0  0  0  0  0  0  0  0
    3.6980    1.9180  -60.3990 C   0  0  0  0  0  0  0  0  0  0  0  0
    4.2950    2.2710  -59.2530 C   0  0  0  0  0  0  0  0  0  0  0  0
    5.7630    2.4590  -59.1540 C   0  0  0  0  0  0  0  0  0  0  0  0
    6.3550    2.8880  -60.5070 C   0  0  0  0  0  0  0  0  0  0  0  0
    5.7300    2.1850  -61.6760 C   0  0  0  0  0  0  0  0  0  0  0  0
    7.2350    3.7680  -60.8710 N   0  0  0  0  0  0  0  0  0  0  0  0
    7.9210    4.4690  -59.9390 C   0  0  0  0  0  0  0  0  0  0  0  0
    9.2540    4.4460  -60.0320 C   0  0  0  0  0  0  0  0  0  0  0  0
   10.2860    4.7090  -58.9750 C   0  0  1  0  0  0  0  0  0  0  0  0
    9.8100    5.2800  -57.6230 C   0  0  0  0  0  0  0  0  0  0  0  0
    9.3980    4.2620  -56.5320 C   0  0  2  0  0  0  0  0  0  0  0  0
   10.3920    3.1170  -56.4510 C   0  0  0  0  0  0  0  0  0  0  0  0
   10.4120    2.4070  -57.7990 C   0  0  2  0  0  0  0  0  0  0  0  0
   11.0730    3.3890  -58.7920 C   0  0  0  0  0  0  0  0  0  0  0  0
    9.0080    1.8970  -58.2550 C   0  0  0  0  0  0  0  0  0  0  0  0
    7.8010    2.3260  -57.3690 C   0  0  2  0  0  0  0  0  0  0  0  0
    7.6950    1.2270  -56.2430 C   0  0  0  0  0  0  0  0  0  0  0  0
    6.2870    1.3230  -55.6970 C   0  0  0  0  0  0  0  0  0  0  0  0
    5.5410    1.7490  -56.8580 N   0  0  0  0  0  0  0  0  0  0  0  0
    6.3350    2.2310  -57.9320 C   0  0  0  0  0  0  0  0  0  0  0  0
    7.9670    3.7240  -56.6870 C   0  0  0  0  0  0  0  0  0  0  0  0
    2.6081    1.7723  -60.4271 H   0  0  0  0  0  0  0  0  0  0  0  0
    3.6767    2.4264  -58.3566 H   0  0  0  0  0  0  0  0  0  0  0  0
    6.3043    2.0448  -62.6036 H   0  0  0  0  0  0  0  0  0  0  0  0
    7.4072    5.0299  -59.1444 H   0  0  0  0  0  0  0  0  0  0  0  0
    9.6521    4.1985  -61.0271 H   0  0  0  0  0  0  0  0  0  0  0  0
   10.9034    5.5420  -59.3422 H   0  0  0  0  0  0  0  0  0  0  0  0
   10.6291    5.8900  -57.2144 H   0  0  0  0  0  0  0  0  0  0  0  0
    8.8889    5.8338  -57.8571 H   0  0  0  0  0  0  0  0  0  0  0  0
    9.4112    4.8235  -55.5862 H   0  0  0  0  0  0  0  0  0  0  0  0
   11.3938    3.5092  -56.2219 H   0  0  0  0  0  0  0  0  0  0  0  0
   10.0988    2.4151  -55.6564 H   0  0  0  0  0  0  0  0  0  0  0  0
   10.9940    1.4755  -57.7390 H   0  0  0  0  0  0  0  0  0  0  0  0
   12.0797    3.6329  -58.4217 H   0  0  0  0  0  0  0  0  0  0  0  0
   11.0971    2.8895  -59.7717 H   0  0  0  0  0  0  0  0  0  0  0  0
    8.8282    2.2736  -59.2728 H   0  0  0  0  0  0  0  0  0  0  0  0
    9.0539    0.8005  -58.1802 H   0  0  0  0  0  0  0  0  0  0  0  0
    7.8733    0.2276  -56.6665 H   0  0  0  0  0  0  0  0  0  0  0  0
    8.4447    1.3855  -55.4538 H   0  0  0  0  0  0  0  0  0  0  0  0
    5.9334    0.3479  -55.3308 H   0  0  0  0  0  0  0  0  0  0  0  0
    6.1913    2.0009  -54.8360 H   0  0  0  0  0  0  0  0  0  0  0  0
    4.8220    1.0910  -57.1520 H   0  0  0  0  0  0  0  0  0  0  0  0
    7.4017    4.4537  -57.2853 H   0  0  0  0  0  0  0  0  0  0  0  0
    7.6029    3.5838  -55.6585 H   0  0  0  0  0  0  0  0  0  0  0  0
  1  2  1  0
  2  3  1  0
  3  4  2  0
  4  5  1  0
  5  6  1  0
  6  7  1  0
  6  8  2  0
  8  9  1  0
  9 10  2  0
 10 11  1  0
 11 12  1  0
 12 13  1  0
 13 14  1  0
 14 15  1  0
 15 16  1  0
 15 17  1  0
 17 18  1  0
 18 19  1  1
 19 20  1  0
 20 21  1  0
 21 22  1  0
 18 23  1  0
  7  2  2  0
 16 11  1  0
 22 18  1  0
 22  5  2  0
 23 13  1  0
  3 24  1  0
  4 25  1  0
  7 26  1  0
  9 27  1  0
 10 28  1  0
 11 29  1  6
 12 30  1  0
 12 31  1  0
 13 32  1  1
 14 33  1  0
 14 34  1  0
 15 35  1  1
 16 36  1  0
 16 37  1  0
 17 38  1  0
 17 39  1  0
 19 40  1  0
 19 41  1  0
 20 42  1  0
 20 43  1  0
 21 44  1  0
 23 45  1  0
 23 46  1  0
M  END
>  <meeko>  (159) 
{"is_sidechain": false}

$$$$

     RDKit          3D

 46 50  0  0  0  0  0  0  0  0999 V2000
    4.3870    1.1870  -60.7210 F   0  0  0  0  0  0  0  0  0  0  0  0
    5.1980    1.8620  -59.8810 C   0  0  0  0  0  0  0  0  0  0  0  0
    4.8370    1.8850  -58.4840 C   0  0  0  0  0  0  0  0  0  0  0  0
    5.7090    2.3330  -57.5640 C   0  0  0  0  0  0  0  0  0  0  0  0
    7.0350    2.7820  -57.9950 C   0  0  0  0  0  0  0  0  0  0  0  0
    7.0520    3.3470  -59.4050 C   0  0  0  0  0  0  0  0  0  0  0  0
    6.2550    2.5250  -60.3640 C   0  0  0  0  0  0  0  0  0  0  0  0
    7.5710    4.4370  -59.8770 N   0  0  0  0  0  0  0  0  0  0  0  0
    7.9400    5.3940  -58.9890 C   0  0  0  0  0  0  0  0  0  0  0  0
    9.1440    5.9560  -58.8650 C   0  0  0  0  0  0  0  0  0  0  0  0
   10.4910    5.6430  -59.4730 C   0  0  1  0  0  0  0  0  0  0  0  0
   11.5420    5.6130  -58.3410 C   0  0  0  0  0  0  0  0  0  0  0  0
   11.6920    4.2280  -57.6910 C   0  0  2  0  0  0  0  0  0  0  0  0
   12.2090    3.2740  -58.7560 C   0  0  0  0  0  0  0  0  0  0  0  0
   11.1140    3.0850  -59.7880 C   0  0  2  0  0  0  0  0  0  0  0  0
   10.6620    4.4280  -60.4130 C   0  0  0  0  0  0  0  0  0  0  0  0
    9.9860    2.2510  -59.1750 C   0  0  0  0  0  0  0  0  0  0  0  0
    9.6630    2.5020  -57.6730 C   0  0  2  0  0  0  0  0  0  0  0  0
   10.1470    1.2420  -56.8610 C   0  0  0  0  0  0  0  0  0  0  0  0
    9.3210    1.2560  -55.5780 C   0  0  0  0  0  0  0  0  0  0  0  0
    8.0560    1.7580  -56.0600 N   0  0  0  0  0  0  0  0  0  0  0  0
    8.1440    2.4500  -57.2790 C   0  0  0  0  0  0  0  0  0  0  0  0
   10.3800    3.7380  -57.0300 C   0  0  0  0  0  0  0  0  0  0  0  0
    3.8429    1.5340  -58.1701 H   0  0  0  0  0  0  0  0  0  0  0  0
    5.4300    2.3620  -56.5004 H   0  0  0  0  0  0  0  0  0  0  0  0
    6.5270    2.4668  -61.4282 H   0  0  0  0  0  0  0  0  0  0  0  0
    7.1617    5.7450  -58.2954 H   0  0  0  0  0  0  0  0  0  0  0  0
    9.1585    6.8197  -58.1840 H   0  0  0  0  0  0  0  0  0  0  0  0
   10.6289    6.4619  -60.1944 H   0  0  0  0  0  0  0  0  0  0  0  0
   12.5150    5.9102  -58.7593 H   0  0  0  0  0  0  0  0  0  0  0  0
   11.1997    6.3062  -57.5585 H   0  0  0  0  0  0  0  0  0  0  0  0
   12.4124    4.2791  -56.8613 H   0  0  0  0  0  0  0  0  0  0  0  0
   13.1038    3.6985  -59.2347 H   0  0  0  0  0  0  0  0  0  0  0  0
   12.4793    2.3080  -58.3047 H   0  0  0  0  0  0  0  0  0  0  0  0
   11.5028    2.5182  -60.6469 H   0  0  0  0  0  0  0  0  0  0  0  0
   11.4090    4.7038  -61.1719 H   0  0  0  0  0  0  0  0  0  0  0  0
    9.6488    4.2282  -60.7920 H   0  0  0  0  0  0  0  0  0  0  0  0
    9.0710    2.4549  -59.7506 H   0  0  0  0  0  0  0  0  0  0  0  0
   10.3391    1.2103  -59.2231 H   0  0  0  0  0  0  0  0  0  0  0  0
    9.9600    0.3199  -57.4309 H   0  0  0  0  0  0  0  0  0  0  0  0
   11.2274    1.2730  -56.6565 H   0  0  0  0  0  0  0  0  0  0  0  0
    9.2182    0.2460  -55.1545 H   0  0  0  0  0  0  0  0  0  0  0  0
    9.7617    1.8524  -54.7656 H   0  0  0  0  0  0  0  0  0  0  0  0
    7.4220    2.1630  -55.3770 H   0  0  0  0  0  0  0  0  0  0  0  0
    9.6690    4.5771  -57.0476 H   0  0  0  0  0  0  0  0  0  0  0  0
   10.6814    3.3971  -56.0285 H   0  0  0  0  0  0  0  0  0  0  0  0
  1  2  1  0
  2  3  1  0
  3  4  2  0
  4  5  1  0
  5  6  1  0
  6  7  1  0
  6  8  2  0
  8  9  1  0
  9 10  2  0
 10 11  1  0
 11 12  1  0
 12 13  1  0
 13 14  1  0
 14 15  1  0
 15 16  1  0
 15 17  1  0
 17 18  1  0
 18 19  1  1
 19 20  1  0
 20 21  1  0
 21 22  1  0
 18 23  1  0
  7  2  2  0
 16 11  1  0
 22 18  1  0
 22  5  2  0
 23 13  1  0
  3 24  1  0
  4 25  1  0
  7 26  1  0
  9 27  1  0
 10 28  1  0
 11 29  1  6
 12 30  1  0
 12 31  1  0
 13 32  1  1
 14 33  1  0
 14 34  1  0
 15 35  1  6
 16 36  1  0
 16 37  1  0
 17 38  1  0
 17 39  1  0
 19 40  1  0
 19 41  1  0
 20 42  1  0
 20 43  1  0
 21 44  1  0
 23 45  1  0
 23 46  1  0
M  END
>  <meeko>  (160) 
{"is_sidechain": false}

$$$$

     RDKit          3D

 46 50  0  0  0  0  0  0  0  0999 V2000
    7.4530    0.4870  -53.7470 F   0  0  0  0  0  0  0  0  0  0  0  0
    7.4970    0.8850  -55.0260 C   0  0  0  0  0  0  0  0  0  0  0  0
    6.3140    1.0560  -55.7270 C   0  0  0  0  0  0  0  0  0  0  0  0
    6.3690    1.4620  -57.0570 C   0  0  0  0  0  0  0  0  0  0  0  0
    7.6090    1.7050  -57.6780 C   0  0  0  0  0  0  0  0  0  0  0  0
    8.8110    1.5190  -56.9730 C   0  0  0  0  0  0  0  0  0  0  0  0
    8.7310    1.1000  -55.6330 C   0  0  0  0  0  0  0  0  0  0  0  0
   10.0650    1.6030  -57.6460 N   0  0  0  0  0  0  0  0  0  0  0  0
   11.2260    1.8880  -56.9600 C   0  0  0  0  0  0  0  0  0  0  0  0
   11.8360    3.0780  -56.8850 C   0  0  0  0  0  0  0  0  0  0  0  0
   11.4090    4.3500  -57.5910 C   0  0  1  0  0  0  0  0  0  0  0  0
   11.6430    4.2370  -59.1100 C   0  0  0  0  0  0  0  0  0  0  0  0
   10.4580    4.6310  -59.9950 C   0  0  2  0  0  0  0  0  0  0  0  0
    9.8210    5.8930  -59.4480 C   0  0  0  0  0  0  0  0  0  0  0  0
    9.1220    5.5500  -58.1480 C   0  0  2  0  0  0  0  0  0  0  0  0
   10.0490    4.8960  -57.1080 C   0  0  0  0  0  0  0  0  0  0  0  0
    7.8830    4.6960  -58.4590 C   0  0  0  0  0  0  0  0  0  0  0  0
    8.0630    3.5820  -59.5170 C   0  0  2  0  0  0  0  0  0  0  0  0
    7.0110    3.7670  -60.6380 C   0  0  0  0  0  0  0  0  0  0  0  0
    6.8040    2.3560  -61.1610 C   0  0  0  0  0  0  0  0  0  0  0  0
    6.8740    1.5080  -59.9630 N   0  0  0  0  0  0  0  0  0  0  0  0
    7.5300    2.2030  -59.0730 C   0  0  0  0  0  0  0  0  0  0  0  0
    9.4650    3.4670  -60.1790 C   0  0  0  0  0  0  0  0  0  0  0  0
    5.3452    0.8734  -55.2391 H   0  0  0  0  0  0  0  0  0  0  0  0
    5.4374    1.5939  -57.6269 H   0  0  0  0  0  0  0  0  0  0  0  0
    9.6548    0.9402  -55.0576 H   0  0  0  0  0  0  0  0  0  0  0  0
   10.1640    0.7010  -58.1250 H   0  0  0  0  0  0  0  0  0  0  0  0
   11.6990    1.0545  -56.4200 H   0  0  0  0  0  0  0  0  0  0  0  0
   12.7325    3.1383  -56.2505 H   0  0  0  0  0  0  0  0  0  0  0  0
   12.0701    5.1743  -57.2854 H   0  0  0  0  0  0  0  0  0  0  0  0
   12.4907    4.8877  -59.3707 H   0  0  0  0  0  0  0  0  0  0  0  0
   11.8229    3.1699  -59.3072 H   0  0  0  0  0  0  0  0  0  0  0  0
   10.8177    4.8542  -61.0103 H   0  0  0  0  0  0  0  0  0  0  0  0
   10.5965    6.6512  -59.2642 H   0  0  0  0  0  0  0  0  0  0  0  0
    9.0973    6.2959  -60.1718 H   0  0  0  0  0  0  0  0  0  0  0  0
    8.8022    6.4877  -57.6700 H   0  0  0  0  0  0  0  0  0  0  0  0
   10.2555    5.6499  -56.3340 H   0  0  0  0  0  0  0  0  0  0  0  0
    9.4990    4.0046  -56.7720 H   0  0  0  0  0  0  0  0  0  0  0  0
    7.5619    4.2184  -57.5216 H   0  0  0  0  0  0  0  0  0  0  0  0
    7.1490    5.3925  -58.8903 H   0  0  0  0  0  0  0  0  0  0  0  0
    6.0741    4.1790  -60.2348 H   0  0  0  0  0  0  0  0  0  0  0  0
    7.3337    4.4718  -61.4184 H   0  0  0  0  0  0  0  0  0  0  0  0
    5.8222    2.2615  -61.6479 H   0  0  0  0  0  0  0  0  0  0  0  0
    7.5517    2.0754  -61.9175 H   0  0  0  0  0  0  0  0  0  0  0  0
    9.9436    2.5635  -59.7731 H   0  0  0  0  0  0  0  0  0  0  0  0
    9.2552    3.4576  -61.2588 H   0  0  0  0  0  0  0  0  0  0  0  0
  1  2  1  0
  2  3  1  0
  3  4  2  0
  4  5  1  0
  5  6  2  0
  6  7  1  0
  6  8  1  0
  8  9  1  0
  9 10  2  0
 10 11  1  0
 11 12  1  0
 12 13  1  0
 13 14  1  0
 14 15  1  0
 15 16  1  0
 15 17  1  0
 17 18  1  0
 18 19  1  6
 19 20  1  0
 20 21  1  0
 21 22  2  0
 18 23  1  0
  7  2  2  0
 16 11  1  0
 22 18  1  0
 22  5  1  0
 23 13  1  0
  3 24  1  0
  4 25  1  0
  7 26  1  0
  8 27  1  0
  9 28  1  0
 10 29  1  0
 11 30  1  1
 12 31  1  0
 12 32  1  0
 13 33  1  6
 14 34  1  0
 14 35  1  0
 15 36  1  1
 16 37  1  0
 16 38  1  0
 17 39  1  0
 17 40  1  0
 19 41  1  0
 19 42  1  0
 20 43  1  0
 20 44  1  0
 23 45  1  0
 23 46  1  0
M  END
>  <meeko>  (161) 
{"is_sidechain": false}

$$$$

     RDKit          3D

 46 50  0  0  0  0  0  0  0  0999 V2000
    7.7410   -0.0780  -53.1560 F   0  0  0  0  0  0  0  0  0  0  0  0
    7.6600    0.4280  -54.3920 C   0  0  0  0  0  0  0  0  0  0  0  0
    6.4190    0.6210  -54.9730 C   0  0  0  0  0  0  0  0  0  0  0  0
    6.3500    1.1350  -56.2670 C   0  0  0  0  0  0  0  0  0  0  0  0
    7.5180    1.4770  -56.9860 C   0  0  0  0  0  0  0  0  0  0  0  0
    8.7710    1.2930  -56.3750 C   0  0  0  0  0  0  0  0  0  0  0  0
    8.8240    0.7480  -55.0800 C   0  0  0  0  0  0  0  0  0  0  0  0
    9.9860    1.5700  -57.0190 N   0  0  0  0  0  0  0  0  0  0  0  0
   10.6730    2.5550  -56.5410 C   0  0  0  0  0  0  0  0  0  0  0  0
   11.9630    2.9800  -57.1690 C   0  0  0  0  0  0  0  0  0  0  0  0
   11.8130    4.0220  -58.2920 C   0  0  1  0  0  0  0  0  0  0  0  0
   11.6660    3.3930  -59.6950 C   0  0  0  0  0  0  0  0  0  0  0  0
   10.3030    3.5470  -60.3860 C   0  0  2  0  0  0  0  0  0  0  0  0
    9.8240    4.9830  -60.2340 C   0  0  0  0  0  0  0  0  0  0  0  0
    9.5270    5.2360  -58.7650 C   0  0  2  0  0  0  0  0  0  0  0  0
   10.8480    5.1850  -57.9710 C   0  0  0  0  0  0  0  0  0  0  0  0
    8.4360    4.2920  -58.2140 C   0  0  0  0  0  0  0  0  0  0  0  0
    8.0780    3.0780  -59.1010 C   0  0  2  0  0  0  0  0  0  0  0  0
    6.9560    3.4670  -60.0990 C   0  0  0  0  0  0  0  0  0  0  0  0
    6.2140    2.1670  -60.3310 C   0  0  0  0  0  0  0  0  0  0  0  0
    6.2730    1.4700  -59.0470 N   0  0  0  0  0  0  0  0  0  0  0  0
    7.2810    1.9690  -58.3810 C   0  0  0  0  0  0  0  0  0  0  0  0
    9.2770    2.5070  -59.8920 C   0  0  0  0  0  0  0  0  0  0  0  0
    5.5002    0.3724  -54.4217 H   0  0  0  0  0  0  0  0  0  0  0  0
    5.3663    1.2774  -56.7383 H   0  0  0  0  0  0  0  0  0  0  0  0
    9.8005    0.5725  -54.6049 H   0  0  0  0  0  0  0  0  0  0  0  0
   10.3021    3.0914  -55.6552 H   0  0  0  0  0  0  0  0  0  0  0  0
   12.6020    3.4105  -56.3839 H   0  0  0  0  0  0  0  0  0  0  0  0
   12.3969    2.0813  -57.6318 H   0  0  0  0  0  0  0  0  0  0  0  0
   12.7831    4.5386  -58.3372 H   0  0  0  0  0  0  0  0  0  0  0  0
   12.4230    3.8537  -60.3467 H   0  0  0  0  0  0  0  0  0  0  0  0
   11.7876    2.3110  -59.5384 H   0  0  0  0  0  0  0  0  0  0  0  0
   10.4174    3.3381  -61.4599 H   0  0  0  0  0  0  0  0  0  0  0  0
   10.6068    5.6744  -60.5793 H   0  0  0  0  0  0  0  0  0  0  0  0
    8.9181    5.1453  -60.8365 H   0  0  0  0  0  0  0  0  0  0  0  0
    9.0982    6.2421  -58.6473 H   0  0  0  0  0  0  0  0  0  0  0  0
   11.3863    6.1253  -58.1610 H   0  0  0  0  0  0  0  0  0  0  0  0
   10.5473    5.0271  -56.9247 H   0  0  0  0  0  0  0  0  0  0  0  0
    8.7821    3.9086  -57.2428 H   0  0  0  0  0  0  0  0  0  0  0  0
    7.5200    4.8986  -58.1585 H   0  0  0  0  0  0  0  0  0  0  0  0
    6.2899    4.2264  -59.6635 H   0  0  0  0  0  0  0  0  0  0  0  0
    7.3465    3.9063  -61.0288 H   0  0  0  0  0  0  0  0  0  0  0  0
    5.1703    2.3623  -60.6185 H   0  0  0  0  0  0  0  0  0  0  0  0
    6.6569    1.5754  -61.1458 H   0  0  0  0  0  0  0  0  0  0  0  0
    9.8039    1.7941  -59.2407 H   0  0  0  0  0  0  0  0  0  0  0  0
    8.8510    2.0498  -60.7973 H   0  0  0  0  0  0  0  0  0  0  0  0
  1  2  1  0
  2  3  1  0
  3  4  2  0
  4  5  1  0
  5  6  2  0
  6  7  1  0
  6  8  1  0
  8  9  2  0
  9 10  1  0
 10 11  1  0
 11 12  1  0
 12 13  1  0
 13 14  1  0
 14 15  1  0
 15 16  1  0
 15 17  1  0
 17 18  1  0
 18 19  1  6
 19 20  1  0
 20 21  1  0
 21 22  2  0
 18 23  1  0
  7  2  2  0
 16 11  1  0
 22 18  1  0
 22  5  1  0
 23 13  1  0
  3 24  1  0
  4 25  1  0
  7 26  1  0
  9 27  1  0
 10 28  1  0
 10 29  1  0
 11 30  1  6
 12 31  1  0
 12 32  1  0
 13 33  1  6
 14 34  1  0
 14 35  1  0
 15 36  1  6
 16 37  1  0
 16 38  1  0
 17 39  1  0
 17 40  1  0
 19 41  1  0
 19 42  1  0
 20 43  1  0
 20 44  1  0
 23 45  1  0
 23 46  1  0
M  END
>  <meeko>  (162) 
{"is_sidechain": false}

$$$$

     RDKit          3D

 46 50  0  0  0  0  0  0  0  0999 V2000
    3.0960    2.4040  -59.9540 F   0  0  0  0  0  0  0  0  0  0  0  0
    4.2570    2.2880  -59.2970 C   0  0  0  0  0  0  0  0  0  0  0  0
    4.3180    2.6250  -57.9520 C   0  0  0  0  0  0  0  0  0  0  0  0
    5.5240    2.4830  -57.2710 C   0  0  0  0  0  0  0  0  0  0  0  0
    6.6710    2.0370  -57.9510 C   0  0  0  0  0  0  0  0  0  0  0  0
    6.6090    1.6950  -59.3100 C   0  0  0  0  0  0  0  0  0  0  0  0
    5.3780    1.8120  -59.9710 C   0  0  0  0  0  0  0  0  0  0  0  0
    7.6920    1.1290  -59.9890 N   0  0  0  0  0  0  0  0  0  0  0  0
    8.3390    1.7860  -60.9000 C   0  0  0  0  0  0  0  0  0  0  0  0
    8.1480    3.2120  -61.3570 C   0  0  0  0  0  0  0  0  0  0  0  0
    9.0040    4.2510  -60.6000 C   0  0  1  0  0  0  0  0  0  0  0  0
    8.2210    4.9390  -59.4580 C   0  0  0  0  0  0  0  0  0  0  0  0
    8.9550    5.2640  -58.1470 C   0  0  2  0  0  0  0  0  0  0  0  0
   10.4630    5.1590  -58.2460 C   0  0  0  0  0  0  0  0  0  0  0  0
   10.8040    3.7890  -58.7980 C   0  0  2  0  0  0  0  0  0  0  0  0
   10.4300    3.7710  -60.2810 C   0  0  0  0  0  0  0  0  0  0  0  0
   10.1770    2.6220  -58.0040 C   0  0  0  0  0  0  0  0  0  0  0  0
    9.0010    2.9190  -57.0250 C   0  0  2  0  0  0  0  0  0  0  0  0
    9.4290    2.5080  -55.5930 C   0  0  0  0  0  0  0  0  0  0  0  0
    9.2170    1.0060  -55.5810 C   0  0  0  0  0  0  0  0  0  0  0  0
    7.9870    0.8120  -56.3580 N   0  0  0  0  0  0  0  0  0  0  0  0
    7.8850    1.8580  -57.1290 C   0  0  0  0  0  0  0  0  0  0  0  0
    8.5020    4.3780  -56.9820 C   0  0  0  0  0  0  0  0  0  0  0  0
    3.4248    2.9996  -57.4306 H   0  0  0  0  0  0  0  0  0  0  0  0
    5.5796    2.7203  -56.1983 H   0  0  0  0  0  0  0  0  0  0  0  0
    5.2976    1.5255  -61.0300 H   0  0  0  0  0  0  0  0  0  0  0  0
    9.1373    1.2274  -61.4105 H   0  0  0  0  0  0  0  0  0  0  0  0
    8.4064    3.2674  -62.4248 H   0  0  0  0  0  0  0  0  0  0  0  0
    7.0974    3.4662  -61.1530 H   0  0  0  0  0  0  0  0  0  0  0  0
    9.2083    5.0768  -61.2974 H   0  0  0  0  0  0  0  0  0  0  0  0
    7.8359    5.8891  -59.8569 H   0  0  0  0  0  0  0  0  0  0  0  0
    7.4694    4.1918  -59.1635 H   0  0  0  0  0  0  0  0  0  0  0  0
    8.6837    6.3125  -57.9544 H   0  0  0  0  0  0  0  0  0  0  0  0
   10.8477    5.9388  -58.9197 H   0  0  0  0  0  0  0  0  0  0  0  0
   10.9206    5.2955  -57.2550 H   0  0  0  0  0  0  0  0  0  0  0  0
   11.8852    3.6205  -58.6852 H   0  0  0  0  0  0  0  0  0  0  0  0
   11.1365    4.4206  -60.8185 H   0  0  0  0  0  0  0  0  0  0  0  0
   10.4765    2.7181  -60.5959 H   0  0  0  0  0  0  0  0  0  0  0  0
    9.8071    1.8933  -58.7403 H   0  0  0  0  0  0  0  0  0  0  0  0
   10.9903    2.2851  -57.3444 H   0  0  0  0  0  0  0  0  0  0  0  0
   10.4845    2.7581  -55.4105 H   0  0  0  0  0  0  0  0  0  0  0  0
    8.8602    3.0286  -54.8084 H   0  0  0  0  0  0  0  0  0  0  0  0
   10.0640    0.4883  -56.0549 H   0  0  0  0  0  0  0  0  0  0  0  0
    9.1415    0.5984  -54.5621 H   0  0  0  0  0  0  0  0  0  0  0  0
    7.4022    4.3601  -56.9774 H   0  0  0  0  0  0  0  0  0  0  0  0
    8.9417    4.8213  -56.0764 H   0  0  0  0  0  0  0  0  0  0  0  0
  1  2  1  0
  2  3  1  0
  3  4  2  0
  4  5  1  0
  5  6  2  0
  6  7  1  0
  6  8  1  0
  8  9  2  0
  9 10  1  0
 10 11  1  0
 11 12  1  0
 12 13  1  0
 13 14  1  0
 14 15  1  0
 15 16  1  0
 15 17  1  0
 17 18  1  0
 18 19  1  1
 19 20  1  0
 20 21  1  0
 21 22  2  0
 18 23  1  0
  7  2  2  0
 16 11  1  0
 22 18  1  0
 22  5  1  0
 23 13  1  0
  3 24  1  0
  4 25  1  0
  7 26  1  0
  9 27  1  0
 10 28  1  0
 10 29  1  0
 11 30  1  6
 12 31  1  0
 12 32  1  0
 13 33  1  1
 14 34  1  0
 14 35  1  0
 15 36  1  6
 16 37  1  0
 16 38  1  0
 17 39  1  0
 17 40  1  0
 19 41  1  0
 19 42  1  0
 20 43  1  0
 20 44  1  0
 23 45  1  0
 23 46  1  0
M  END
>  <meeko>  (163) 
{"is_sidechain": false}

$$$$

     RDKit          3D

 46 50  0  0  0  0  0  0  0  0999 V2000
    8.2570   -0.4280  -53.7780 F   0  0  0  0  0  0  0  0  0  0  0  0
    7.9580    0.3750  -54.8200 C   0  0  0  0  0  0  0  0  0  0  0  0
    6.5990    0.3760  -55.2850 C   0  0  0  0  0  0  0  0  0  0  0  0
    6.2680    1.0040  -56.4210 C   0  0  0  0  0  0  0  0  0  0  0  0
    7.2750    1.7120  -57.2130 C   0  0  0  0  0  0  0  0  0  0  0  0
    8.5580    2.0770  -56.4740 C   0  0  0  0  0  0  0  0  0  0  0  0
    8.9060    1.1550  -55.3480 C   0  0  0  0  0  0  0  0  0  0  0  0
    9.2270    3.1280  -56.8330 N   0  0  0  0  0  0  0  0  0  0  0  0
   10.3790    3.5000  -56.2230 C   0  0  0  0  0  0  0  0  0  0  0  0
   11.3650    4.1040  -56.8990 C   0  0  0  0  0  0  0  0  0  0  0  0
   11.3830    4.4600  -58.3740 C   0  0  1  0  0  0  0  0  0  0  0  0
   11.6560    3.2490  -59.2910 C   0  0  0  0  0  0  0  0  0  0  0  0
   10.5420    2.8780  -60.2860 C   0  0  2  0  0  0  0  0  0  0  0  0
   10.0310    4.1450  -60.9540 C   0  0  0  0  0  0  0  0  0  0  0  0
    9.2920    4.9730  -59.9170 C   0  0  2  0  0  0  0  0  0  0  0  0
   10.2670    5.4390  -58.8150 C   0  0  0  0  0  0  0  0  0  0  0  0
    8.0510    4.2480  -59.3590 C   0  0  0  0  0  0  0  0  0  0  0  0
    8.0200    2.7050  -59.5410 C   0  0  2  0  0  0  0  0  0  0  0  0
    7.2700    2.3580  -60.8790 C   0  0  0  0  0  0  0  0  0  0  0  0
    5.7980    2.2690  -60.5250 C   0  0  0  0  0  0  0  0  0  0  0  0
    5.8230    1.8060  -59.1570 N   0  0  0  0  0  0  0  0  0  0  0  0
    7.0440    2.0500  -58.5100 C   0  0  0  0  0  0  0  0  0  0  0  0
    9.4280    2.0430  -59.6240 C   0  0  0  0  0  0  0  0  0  0  0  0
    5.8233   -0.1434  -54.7032 H   0  0  0  0  0  0  0  0  0  0  0  0
    5.2230    0.9874  -56.7641 H   0  0  0  0  0  0  0  0  0  0  0  0
    9.9339    1.1195  -54.9580 H   0  0  0  0  0  0  0  0  0  0  0  0
   10.5069    3.3014  -55.1487 H   0  0  0  0  0  0  0  0  0  0  0  0
   12.2615    4.3718  -56.3206 H   0  0  0  0  0  0  0  0  0  0  0  0
   12.2771    5.0830  -58.5238 H   0  0  0  0  0  0  0  0  0  0  0  0
   12.5642    3.4673  -59.8719 H   0  0  0  0  0  0  0  0  0  0  0  0
   11.7433    2.3853  -58.6154 H   0  0  0  0  0  0  0  0  0  0  0  0
   10.9535    2.2235  -61.0685 H   0  0  0  0  0  0  0  0  0  0  0  0
   10.8785    4.7213  -61.3536 H   0  0  0  0  0  0  0  0  0  0  0  0
    9.3544    3.8875  -61.7822 H   0  0  0  0  0  0  0  0  0  0  0  0
    8.8971    5.8722  -60.4125 H   0  0  0  0  0  0  0  0  0  0  0  0
   10.7583    6.3540  -59.1777 H   0  0  0  0  0  0  0  0  0  0  0  0
    9.6366    5.5594  -57.9216 H   0  0  0  0  0  0  0  0  0  0  0  0
    7.9943    4.4603  -58.2812 H   0  0  0  0  0  0  0  0  0  0  0  0
    7.1994    4.6308  -59.9405 H   0  0  0  0  0  0  0  0  0  0  0  0
    7.4360    3.1485  -61.6258 H   0  0  0  0  0  0  0  0  0  0  0  0
    7.6368    1.4160  -61.3127 H   0  0  0  0  0  0  0  0  0  0  0  0
    5.3124    3.2531  -60.6010 H   0  0  0  0  0  0  0  0  0  0  0  0
    5.2286    1.6097  -61.1966 H   0  0  0  0  0  0  0  0  0  0  0  0
    5.4640    0.8680  -59.0010 H   0  0  0  0  0  0  0  0  0  0  0  0
    9.7492    1.8107  -58.5979 H   0  0  0  0  0  0  0  0  0  0  0  0
    9.2988    1.1636  -60.2721 H   0  0  0  0  0  0  0  0  0  0  0  0
  1  2  1  0
  2  3  1  0
  3  4  2  0
  4  5  1  0
  5  6  1  0
  6  7  1  0
  6  8  2  0
  8  9  1  0
  9 10  2  0
 10 11  1  0
 11 12  1  0
 12 13  1  0
 13 14  1  0
 14 15  1  0
 15 16  1  0
 15 17  1  0
 17 18  1  0
 18 19  1  6
 19 20  1  0
 20 21  1  0
 21 22  1  0
 18 23  1  0
  7  2  2  0
 16 11  1  0
 22 18  1  0
 22  5  2  0
 23 13  1  0
  3 24  1  0
  4 25  1  0
  7 26  1  0
  9 27  1  0
 10 28  1  0
 11 29  1  1
 12 30  1  0
 12 31  1  0
 13 32  1  6
 14 33  1  0
 14 34  1  0
 15 35  1  6
 16 36  1  0
 16 37  1  0
 17 38  1  0
 17 39  1  0
 19 40  1  0
 19 41  1  0
 20 42  1  0
 20 43  1  0
 21 44  1  0
 23 45  1  0
 23 46  1  0
M  END
>  <meeko>  (164) 
{"is_sidechain": false}

$$$$

     RDKit          3D

 46 50  0  0  0  0  0  0  0  0999 V2000
    6.7870   -1.5580  -54.3510 F   0  0  0  0  0  0  0  0  0  0  0  0
    7.3630   -0.4980  -54.9340 C   0  0  0  0  0  0  0  0  0  0  0  0
    8.7460   -0.4180  -54.9890 C   0  0  0  0  0  0  0  0  0  0  0  0
    9.3380    0.6860  -55.6000 C   0  0  0  0  0  0  0  0  0  0  0  0
    8.5470    1.7000  -56.1750 C   0  0  0  0  0  0  0  0  0  0  0  0
    7.1390    1.6230  -56.1020 C   0  0  0  0  0  0  0  0  0  0  0  0
    6.5640    0.5020  -55.4790 C   0  0  0  0  0  0  0  0  0  0  0  0
    6.2690    2.5410  -56.7270 N   0  0  0  0  0  0  0  0  0  0  0  0
    6.2030    2.6950  -58.0900 C   0  0  0  0  0  0  0  0  0  0  0  0
    6.7560    1.9070  -59.0220 C   0  0  0  0  0  0  0  0  0  0  0  0
    7.0590    2.2770  -60.4550 C   0  0  1  0  0  0  0  0  0  0  0  0
    7.2850    3.7810  -60.7030 C   0  0  0  0  0  0  0  0  0  0  0  0
    8.6670    4.3100  -60.2560 C   0  0  2  0  0  0  0  0  0  0  0  0
    9.7710    3.5140  -60.9410 C   0  0  0  0  0  0  0  0  0  0  0  0
    9.6590    2.0630  -60.5010 C   0  0  2  0  0  0  0  0  0  0  0  0
    8.2950    1.4900  -60.9530 C   0  0  0  0  0  0  0  0  0  0  0  0
    9.9210    1.9120  -58.9870 C   0  0  0  0  0  0  0  0  0  0  0  0
    9.7310    3.1760  -58.1070 C   0  0  2  0  0  0  0  0  0  0  0  0
   11.1160    3.7760  -57.7420 C   0  0  0  0  0  0  0  0  0  0  0  0
   10.8410    4.5030  -56.4340 C   0  0  0  0  0  0  0  0  0  0  0  0
    9.8920    3.6340  -55.7270 N   0  0  0  0  0  0  0  0  0  0  0  0
    9.3340    2.8820  -56.6370 C   0  0  0  0  0  0  0  0  0  0  0  0
    8.8780    4.3290  -58.7290 C   0  0  0  0  0  0  0  0  0  0  0  0
    9.3679   -1.2154  -54.5561 H   0  0  0  0  0  0  0  0  0  0  0  0
   10.4345    0.7664  -55.6336 H   0  0  0  0  0  0  0  0  0  0  0  0
    5.4690    0.4143  -55.4216 H   0  0  0  0  0  0  0  0  0  0  0  0
    5.3810    2.6830  -56.2550 H   0  0  0  0  0  0  0  0  0  0  0  0
    5.6330    3.5612  -58.4573 H   0  0  0  0  0  0  0  0  0  0  0  0
    7.0164    0.8844  -58.7114 H   0  0  0  0  0  0  0  0  0  0  0  0
    6.1550    2.0068  -61.0205 H   0  0  0  0  0  0  0  0  0  0  0  0
    7.1784    3.9700  -61.7814 H   0  0  0  0  0  0  0  0  0  0  0  0
    6.5381    4.3114  -60.0941 H   0  0  0  0  0  0  0  0  0  0  0  0
    8.7073    5.3642  -60.5674 H   0  0  0  0  0  0  0  0  0  0  0  0
    9.6550    3.5813  -62.0328 H   0  0  0  0  0  0  0  0  0  0  0  0
   10.7560    3.9182  -60.6646 H   0  0  0  0  0  0  0  0  0  0  0  0
   10.4426    1.4662  -60.9908 H   0  0  0  0  0  0  0  0  0  0  0  0
    8.2751    1.4831  -62.0528 H   0  0  0  0  0  0  0  0  0  0  0  0
    8.2203    0.4863  -60.5092 H   0  0  0  0  0  0  0  0  0  0  0  0
    9.2369    1.1385  -58.6079 H   0  0  0  0  0  0  0  0  0  0  0  0
   10.9904    1.6673  -58.9064 H   0  0  0  0  0  0  0  0  0  0  0  0
   11.8660    2.9833  -57.6035 H   0  0  0  0  0  0  0  0  0  0  0  0
   11.5237    4.4323  -58.5250 H   0  0  0  0  0  0  0  0  0  0  0  0
   11.7672    4.6225  -55.8527 H   0  0  0  0  0  0  0  0  0  0  0  0
   10.4441    5.5166  -56.5926 H   0  0  0  0  0  0  0  0  0  0  0  0
    7.8845    4.2956  -58.2580 H   0  0  0  0  0  0  0  0  0  0  0  0
    9.4577    5.2438  -58.5361 H   0  0  0  0  0  0  0  0  0  0  0  0
  1  2  1  0
  2  3  1  0
  3  4  2  0
  4  5  1  0
  5  6  2  0
  6  7  1  0
  6  8  1  0
  8  9  1  0
  9 10  2  0
 10 11  1  0
 11 12  1  0
 12 13  1  0
 13 14  1  0
 14 15  1  0
 15 16  1  0
 15 17  1  0
 17 18  1  0
 18 19  1  1
 19 20  1  0
 20 21  1  0
 21 22  2  0
 18 23  1  0
  7  2  2  0
 16 11  1  0
 22 18  1  0
 22  5  1  0
 23 13  1  0
  3 24  1  0
  4 25  1  0
  7 26  1  0
  8 27  1  0
  9 28  1  0
 10 29  1  0
 11 30  1  6
 12 31  1  0
 12 32  1  0
 13 33  1  6
 14 34  1  0
 14 35  1  0
 15 36  1  6
 16 37  1  0
 16 38  1  0
 17 39  1  0
 17 40  1  0
 19 41  1  0
 19 42  1  0
 20 43  1  0
 20 44  1  0
 23 45  1  0
 23 46  1  0
M  END
>  <meeko>  (165) 
{"is_sidechain": false}

$$$$

     RDKit          3D

 46 50  0  0  0  0  0  0  0  0999 V2000
    3.7770    1.2300  -62.4290 F   0  0  0  0  0  0  0  0  0  0  0  0
    4.4540    1.7750  -61.3990 C   0  0  0  0  0  0  0  0  0  0  0  0
    3.7620    1.9480  -60.1610 C   0  0  0  0  0  0  0  0  0  0  0  0
    4.4390    2.2900  -59.0590 C   0  0  0  0  0  0  0  0  0  0  0  0
    5.9140    2.4820  -59.0460 C   0  0  0  0  0  0  0  0  0  0  0  0
    6.4410    2.8870  -60.4490 C   0  0  0  0  0  0  0  0  0  0  0  0
    5.7010    2.2110  -61.5710 C   0  0  0  0  0  0  0  0  0  0  0  0
    7.3480    3.6860  -60.9160 N   0  0  0  0  0  0  0  0  0  0  0  0
    8.1550    4.3790  -60.0910 C   0  0  0  0  0  0  0  0  0  0  0  0
    9.4680    4.1470  -60.1610 C   0  0  0  0  0  0  0  0  0  0  0  0
   10.5510    4.4960  -59.1840 C   0  0  1  0  0  0  0  0  0  0  0  0
   10.1360    5.2700  -57.9150 C   0  0  0  0  0  0  0  0  0  0  0  0
    9.6210    4.4230  -56.7270 C   0  0  2  0  0  0  0  0  0  0  0  0
   10.5630    3.2540  -56.4710 C   0  0  0  0  0  0  0  0  0  0  0  0
   10.5740    2.3640  -57.7140 C   0  0  2  0  0  0  0  0  0  0  0  0
   11.2750    3.1750  -58.8250 C   0  0  0  0  0  0  0  0  0  0  0  0
    9.1570    1.8440  -58.1150 C   0  0  0  0  0  0  0  0  0  0  0  0
    7.9860    2.4380  -57.2910 C   0  0  2  0  0  0  0  0  0  0  0  0
    7.9520    1.6240  -55.9290 C   0  0  0  0  0  0  0  0  0  0  0  0
    6.7070    0.7750  -55.9650 C   0  0  0  0  0  0  0  0  0  0  0  0
    5.8370    1.5360  -56.8250 N   0  0  0  0  0  0  0  0  0  0  0  0
    6.5340    2.2260  -57.8480 C   0  0  0  0  0  0  0  0  0  0  0  0
    8.1710    3.9370  -56.8910 C   0  0  0  0  0  0  0  0  0  0  0  0
    2.6730    1.8000  -60.1140 H   0  0  0  0  0  0  0  0  0  0  0  0
    3.8810    2.4355  -58.1223 H   0  0  0  0  0  0  0  0  0  0  0  0
    6.1952    2.0752  -62.5443 H   0  0  0  0  0  0  0  0  0  0  0  0
    7.7456    5.1132  -59.3816 H   0  0  0  0  0  0  0  0  0  0  0  0
    9.8046    3.6233  -61.0679 H   0  0  0  0  0  0  0  0  0  0  0  0
   11.2041    5.2248  -59.6863 H   0  0  0  0  0  0  0  0  0  0  0  0
   11.0129    5.8356  -57.5668 H   0  0  0  0  0  0  0  0  0  0  0  0
    9.2822    5.8928  -58.2202 H   0  0  0  0  0  0  0  0  0  0  0  0
    9.6103    5.0880  -55.8509 H   0  0  0  0  0  0  0  0  0  0  0  0
   11.5777    3.6304  -56.2743 H   0  0  0  0  0  0  0  0  0  0  0  0
   10.2239    2.6790  -55.5967 H   0  0  0  0  0  0  0  0  0  0  0  0
   11.1271    1.4336  -57.5178 H   0  0  0  0  0  0  0  0  0  0  0  0
   12.2933    3.4180  -58.4874 H   0  0  0  0  0  0  0  0  0  0  0  0
   11.2703    2.5501  -59.7302 H   0  0  0  0  0  0  0  0  0  0  0  0
    8.9895    2.0909  -59.1738 H   0  0  0  0  0  0  0  0  0  0  0  0
    9.1574    0.7624  -57.9147 H   0  0  0  0  0  0  0  0  0  0  0  0
    8.8441    0.9859  -55.8460 H   0  0  0  0  0  0  0  0  0  0  0  0
    7.9450    2.3014  -55.0624 H   0  0  0  0  0  0  0  0  0  0  0  0
    6.9152   -0.2186  -56.3886 H   0  0  0  0  0  0  0  0  0  0  0  0
    6.2799    0.5796  -54.9703 H   0  0  0  0  0  0  0  0  0  0  0  0
    5.0470    0.9890  -57.1590 H   0  0  0  0  0  0  0  0  0  0  0  0
    7.6968    4.5529  -57.6694 H   0  0  0  0  0  0  0  0  0  0  0  0
    7.7140    4.0341  -55.8951 H   0  0  0  0  0  0  0  0  0  0  0  0
  1  2  1  0
  2  3  1  0
  3  4  2  0
  4  5  1  0
  5  6  1  0
  6  7  1  0
  6  8  2  0
  8  9  1  0
  9 10  2  0
 10 11  1  0
 11 12  1  0
 12 13  1  0
 13 14  1  0
 14 15  1  0
 15 16  1  0
 15 17  1  0
 17 18  1  0
 18 19  1  1
 19 20  1  0
 20 21  1  0
 21 22  1  0
 18 23  1  0
  7  2  2  0
 16 11  1  0
 22 18  1  0
 22  5  2  0
 23 13  1  0
  3 24  1  0
  4 25  1  0
  7 26  1  0
  9 27  1  0
 10 28  1  0
 11 29  1  6
 12 30  1  0
 12 31  1  0
 13 32  1  1
 14 33  1  0
 14 34  1  0
 15 35  1  1
 16 36  1  0
 16 37  1  0
 17 38  1  0
 17 39  1  0
 19 40  1  0
 19 41  1  0
 20 42  1  0
 20 43  1  0
 21 44  1  0
 23 45  1  0
 23 46  1  0
M  END
>  <meeko>  (166) 
{"is_sidechain": false}

$$$$

     RDKit          3D

 56 60  0  0  0  0  0  0  0  0999 V2000
    2.8300    0.8560  -62.4110 C   0  0  0  0  0  0  0  0  0  0  0  0
    4.1920    1.2000  -62.6390 O   0  0  0  0  0  0  0  0  0  0  0  0
    4.8680    1.8010  -61.6050 C   0  0  0  0  0  0  0  0  0  0  0  0
    4.0650    1.9380  -60.4150 C   0  0  0  0  0  0  0  0  0  0  0  0
    4.6260    2.2480  -59.2390 C   0  0  0  0  0  0  0  0  0  0  0  0
    6.0930    2.4330  -59.0950 C   0  0  0  0  0  0  0  0  0  0  0  0
    6.6670    2.9860  -60.4070 C   0  0  0  0  0  0  0  0  0  0  0  0
    6.1120    2.3050  -61.6260 C   0  0  0  0  0  0  0  0  0  0  0  0
    7.4630    3.9700  -60.6930 N   0  0  0  0  0  0  0  0  0  0  0  0
    8.0930    4.6410  -59.6990 C   0  0  0  0  0  0  0  0  0  0  0  0
    9.4170    4.7670  -59.8330 C   0  0  0  0  0  0  0  0  0  0  0  0
   10.4620    4.9250  -58.7690 C   0  0  1  0  0  0  0  0  0  0  0  0
    9.9980    5.2710  -57.3400 C   0  0  0  0  0  0  0  0  0  0  0  0
    9.7160    4.0930  -56.3770 C   0  0  2  0  0  0  0  0  0  0  0  0
   10.7740    3.0160  -56.4990 C   0  0  0  0  0  0  0  0  0  0  0  0
   10.7410    2.4890  -57.9290 C   0  0  2  0  0  0  0  0  0  0  0  0
   11.3100    3.6280  -58.8060 C   0  0  0  0  0  0  0  0  0  0  0  0
    9.3320    1.9810  -58.3870 C   0  0  0  0  0  0  0  0  0  0  0  0
    8.1600    2.1690  -57.3600 C   0  0  2  0  0  0  0  0  0  0  0  0
    8.2960    0.8680  -56.4570 C   0  0  0  0  0  0  0  0  0  0  0  0
    7.3770    0.7830  -55.2300 C   0  0  2  0  0  0  0  0  0  0  0  0
    7.1850   -0.6780  -54.8150 C   0  0  0  0  0  0  0  0  0  0  0  0
    6.0420    1.4710  -55.4730 C   0  0  0  0  0  0  0  0  0  0  0  0
    5.7770    1.6050  -56.8880 N   0  0  0  0  0  0  0  0  0  0  0  0
    6.6560    2.1210  -57.8800 C   0  0  0  0  0  0  0  0  0  0  0  0
    8.3170    3.4800  -56.5130 C   0  0  0  0  0  0  0  0  0  0  0  0
    2.6402    0.8081  -61.3286 H   0  0  0  0  0  0  0  0  0  0  0  0
    2.1786    1.6178  -62.8641 H   0  0  0  0  0  0  0  0  0  0  0  0
    2.6185   -0.1238  -62.8641 H   0  0  0  0  0  0  0  0  0  0  0  0
    2.9772    1.7859  -60.4740 H   0  0  0  0  0  0  0  0  0  0  0  0
    3.9826    2.3690  -58.3551 H   0  0  0  0  0  0  0  0  0  0  0  0
    6.7249    2.2195  -62.5354 H   0  0  0  0  0  0  0  0  0  0  0  0
    7.5499    5.0556  -58.8369 H   0  0  0  0  0  0  0  0  0  0  0  0
    9.7920    4.7528  -60.8670 H   0  0  0  0  0  0  0  0  0  0  0  0
   11.0323    5.8332  -59.0139 H   0  0  0  0  0  0  0  0  0  0  0  0
   10.7808    5.8924  -56.8805 H   0  0  0  0  0  0  0  0  0  0  0  0
    9.0240    5.7646  -57.4728 H   0  0  0  0  0  0  0  0  0  0  0  0
    9.7561    4.5371  -55.3714 H   0  0  0  0  0  0  0  0  0  0  0  0
   11.7653    3.4389  -56.2790 H   0  0  0  0  0  0  0  0  0  0  0  0
   10.5775    2.2023  -55.7854 H   0  0  0  0  0  0  0  0  0  0  0  0
   11.3527    1.5796  -58.0231 H   0  0  0  0  0  0  0  0  0  0  0  0
   12.3240    3.8657  -58.4519 H   0  0  0  0  0  0  0  0  0  0  0  0
   11.3024    3.2682  -59.8455 H   0  0  0  0  0  0  0  0  0  0  0  0
    9.0627    2.5219  -59.3062 H   0  0  0  0  0  0  0  0  0  0  0  0
    9.4387    0.8938  -58.5161 H   0  0  0  0  0  0  0  0  0  0  0  0
    8.0840   -0.0036  -57.0936 H   0  0  0  0  0  0  0  0  0  0  0  0
    9.3181    0.9021  -56.0517 H   0  0  0  0  0  0  0  0  0  0  0  0
    7.8634    1.3204  -54.4026 H   0  0  0  0  0  0  0  0  0  0  0  0
    7.1756   -0.7492  -53.7173 H   0  0  0  0  0  0  0  0  0  0  0  0
    6.2302   -1.0503  -55.2147 H   0  0  0  0  0  0  0  0  0  0  0  0
    8.0112   -1.2843  -55.2147 H   0  0  0  0  0  0  0  0  0  0  0  0
    5.2409    0.8744  -55.0121 H   0  0  0  0  0  0  0  0  0  0  0  0
    6.0799    2.4759  -55.0273 H   0  0  0  0  0  0  0  0  0  0  0  0
    5.1270    0.9100  -57.2540 H   0  0  0  0  0  0  0  0  0  0  0  0
    7.6699    4.2430  -56.9704 H   0  0  0  0  0  0  0  0  0  0  0  0
    8.0526    3.1759  -55.4895 H   0  0  0  0  0  0  0  0  0  0  0  0
  1  2  1  0
  2  3  1  0
  3  4  1  0
  4  5  2  0
  5  6  1  0
  6  7  1  0
  7  8  1  0
  7  9  2  0
  9 10  1  0
 10 11  2  0
 11 12  1  0
 12 13  1  0
 13 14  1  0
 14 15  1  0
 15 16  1  0
 16 17  1  0
 16 18  1  0
 18 19  1  0
 19 20  1  1
 20 21  1  0
 21 22  1  0
 21 23  1  0
 23 24  1  0
 24 25  1  0
 19 26  1  0
  8  3  2  0
 17 12  1  0
 25 19  1  0
 25  6  2  0
 26 14  1  0
  1 27  1  0
  1 28  1  0
  1 29  1  0
  4 30  1  0
  5 31  1  0
  8 32  1  0
 10 33  1  0
 11 34  1  0
 12 35  1  6
 13 36  1  0
 13 37  1  0
 14 38  1  1
 15 39  1  0
 15 40  1  0
 16 41  1  1
 17 42  1  0
 17 43  1  0
 18 44  1  0
 18 45  1  0
 20 46  1  0
 20 47  1  0
 21 48  1  1
 22 49  1  0
 22 50  1  0
 22 51  1  0
 23 52  1  0
 23 53  1  0
 24 54  1  0
 26 55  1  0
 26 56  1  0
M  END
>  <meeko>  (167) 
{"is_sidechain": false}

$$$$

     RDKit          3D

 56 60  0  0  0  0  0  0  0  0999 V2000
    7.4660   -1.7550  -52.3540 C   0  0  0  0  0  0  0  0  0  0  0  0
    7.8960   -1.8250  -53.7090 O   0  0  0  0  0  0  0  0  0  0  0  0
    7.8680   -0.6620  -54.4380 C   0  0  0  0  0  0  0  0  0  0  0  0
    6.5580   -0.0640  -54.4880 C   0  0  0  0  0  0  0  0  0  0  0  0
    6.2810    0.9130  -55.3620 C   0  0  0  0  0  0  0  0  0  0  0  0
    7.2910    1.4020  -56.3370 C   0  0  0  0  0  0  0  0  0  0  0  0
    8.6930    1.2730  -55.7230 C   0  0  0  0  0  0  0  0  0  0  0  0
    8.9060   -0.0340  -55.0130 C   0  0  0  0  0  0  0  0  0  0  0  0
    9.7020    2.0800  -55.6140 N   0  0  0  0  0  0  0  0  0  0  0  0
    9.6850    3.2730  -56.2560 C   0  0  0  0  0  0  0  0  0  0  0  0
   10.7580    3.5450  -57.0050 C   0  0  0  0  0  0  0  0  0  0  0  0
   10.8620    4.4200  -58.2210 C   0  0  1  0  0  0  0  0  0  0  0  0
   11.1630    3.4730  -59.4090 C   0  0  0  0  0  0  0  0  0  0  0  0
    9.8970    2.8880  -60.0740 C   0  0  2  0  0  0  0  0  0  0  0  0
    9.1320    4.0850  -60.6270 C   0  0  0  0  0  0  0  0  0  0  0  0
    8.5670    4.8570  -59.4520 C   0  0  2  0  0  0  0  0  0  0  0  0
    9.6930    5.3780  -58.5290 C   0  0  0  0  0  0  0  0  0  0  0  0
    7.4910    4.0260  -58.7400 C   0  0  0  0  0  0  0  0  0  0  0  0
    7.5910    2.4630  -58.8140 C   0  0  2  0  0  0  0  0  0  0  0  0
    6.7720    1.8810  -60.0450 C   0  0  0  0  0  0  0  0  0  0  0  0
    5.2970    2.2960  -60.1490 C   0  0  1  0  0  0  0  0  0  0  0  0
    4.5160    1.2650  -60.9700 C   0  0  0  0  0  0  0  0  0  0  0  0
    4.6700    2.5020  -58.7780 C   0  0  0  0  0  0  0  0  0  0  0  0
    5.4260    1.8200  -57.7520 N   0  0  0  0  0  0  0  0  0  0  0  0
    6.8320    1.8820  -57.5400 C   0  0  0  0  0  0  0  0  0  0  0  0
    9.0490    1.9730  -59.1260 C   0  0  0  0  0  0  0  0  0  0  0  0
    8.3297   -1.8956  -51.6875 H   0  0  0  0  0  0  0  0  0  0  0  0
    7.0123   -0.7712  -52.1637 H   0  0  0  0  0  0  0  0  0  0  0  0
    6.7237   -2.5441  -52.1637 H   0  0  0  0  0  0  0  0  0  0  0  0
    5.7749   -0.4143  -53.7994 H   0  0  0  0  0  0  0  0  0  0  0  0
    5.2785    1.3658  -55.3580 H   0  0  0  0  0  0  0  0  0  0  0  0
    9.9121   -0.4761  -54.9644 H   0  0  0  0  0  0  0  0  0  0  0  0
    8.8415    3.9734  -56.1665 H   0  0  0  0  0  0  0  0  0  0  0  0
   11.6935    3.0615  -56.6870 H   0  0  0  0  0  0  0  0  0  0  0  0
   11.6639    5.1462  -58.0221 H   0  0  0  0  0  0  0  0  0  0  0  0
   11.7252    4.0364  -60.1683 H   0  0  0  0  0  0  0  0  0  0  0  0
   11.7355    2.6245  -59.0063 H   0  0  0  0  0  0  0  0  0  0  0  0
   10.1656    2.1915  -60.8819 H   0  0  0  0  0  0  0  0  0  0  0  0
    9.8113    4.7283  -61.2055 H   0  0  0  0  0  0  0  0  0  0  0  0
    8.3220    3.7496  -61.2914 H   0  0  0  0  0  0  0  0  0  0  0  0
    8.0594    5.7632  -59.8141 H   0  0  0  0  0  0  0  0  0  0  0  0
   10.1183    6.2752  -59.0024 H   0  0  0  0  0  0  0  0  0  0  0  0
    9.2043    5.5450  -57.5578 H   0  0  0  0  0  0  0  0  0  0  0  0
    7.5153    4.3042  -57.6760 H   0  0  0  0  0  0  0  0  0  0  0  0
    6.5620    4.2650  -59.2784 H   0  0  0  0  0  0  0  0  0  0  0  0
    7.2764    2.2087  -60.9660 H   0  0  0  0  0  0  0  0  0  0  0  0
    6.7562    0.7916  -59.8931 H   0  0  0  0  0  0  0  0  0  0  0  0
    5.2508    3.2647  -60.6681 H   0  0  0  0  0  0  0  0  0  0  0  0
    3.9935    0.5752  -60.2909 H   0  0  0  0  0  0  0  0  0  0  0  0
    3.7809    1.7821  -61.6043 H   0  0  0  0  0  0  0  0  0  0  0  0
    5.2128    0.6974  -61.6043 H   0  0  0  0  0  0  0  0  0  0  0  0
    4.6468    3.5782  -58.5516 H   0  0  0  0  0  0  0  0  0  0  0  0
    3.6509    2.0882  -58.7942 H   0  0  0  0  0  0  0  0  0  0  0  0
    5.0180    0.9350  -57.4550 H   0  0  0  0  0  0  0  0  0  0  0  0
    9.5870    1.8896  -58.1702 H   0  0  0  0  0  0  0  0  0  0  0  0
    8.9313    1.0204  -59.6633 H   0  0  0  0  0  0  0  0  0  0  0  0
  1  2  1  0
  2  3  1  0
  3  4  1  0
  4  5  2  0
  5  6  1  0
  6  7  1  0
  7  8  1  0
  7  9  2  0
  9 10  1  0
 10 11  2  0
 11 12  1  0
 12 13  1  0
 13 14  1  0
 14 15  1  0
 15 16  1  0
 16 17  1  0
 16 18  1  0
 18 19  1  0
 19 20  1  6
 20 21  1  0
 21 22  1  0
 21 23  1  0
 23 24  1  0
 24 25  1  0
 19 26  1  0
  8  3  2  0
 17 12  1  0
 25 19  1  0
 25  6  2  0
 26 14  1  0
  1 27  1  0
  1 28  1  0
  1 29  1  0
  4 30  1  0
  5 31  1  0
  8 32  1  0
 10 33  1  0
 11 34  1  0
 12 35  1  1
 13 36  1  0
 13 37  1  0
 14 38  1  6
 15 39  1  0
 15 40  1  0
 16 41  1  6
 17 42  1  0
 17 43  1  0
 18 44  1  0
 18 45  1  0
 20 46  1  0
 20 47  1  0
 21 48  1  6
 22 49  1  0
 22 50  1  0
 22 51  1  0
 23 52  1  0
 23 53  1  0
 24 54  1  0
 26 55  1  0
 26 56  1  0
M  END
>  <meeko>  (168) 
{"is_sidechain": false}

$$$$

     RDKit          3D

 56 60  0  0  0  0  0  0  0  0999 V2000
    7.9720   -1.8180  -52.1850 C   0  0  0  0  0  0  0  0  0  0  0  0
    7.4820   -0.4990  -52.3900 O   0  0  0  0  0  0  0  0  0  0  0  0
    7.5640    0.0060  -53.6580 C   0  0  0  0  0  0  0  0  0  0  0  0
    6.3670    0.5140  -54.1590 C   0  0  0  0  0  0  0  0  0  0  0  0
    6.3100    1.0610  -55.4410 C   0  0  0  0  0  0  0  0  0  0  0  0
    7.4650    1.1270  -56.2340 C   0  0  0  0  0  0  0  0  0  0  0  0
    8.6820    0.6050  -55.7490 C   0  0  0  0  0  0  0  0  0  0  0  0
    8.7150    0.0560  -54.4490 C   0  0  0  0  0  0  0  0  0  0  0  0
    9.9110    0.7610  -56.4530 N   0  0  0  0  0  0  0  0  0  0  0  0
   10.4210    2.0410  -56.4890 C   0  0  0  0  0  0  0  0  0  0  0  0
   10.9570    2.6090  -57.5680 C   0  0  0  0  0  0  0  0  0  0  0  0
   11.0740    4.0990  -57.8180 C   0  0  1  0  0  0  0  0  0  0  0  0
   10.7020    4.3950  -59.2870 C   0  0  0  0  0  0  0  0  0  0  0  0
    9.1850    4.5160  -59.5380 C   0  0  2  0  0  0  0  0  0  0  0  0
    8.6330    5.6460  -58.6880 C   0  0  0  0  0  0  0  0  0  0  0  0
    8.7640    5.2380  -57.2330 C   0  0  2  0  0  0  0  0  0  0  0  0
   10.2630    5.0320  -56.8810 C   0  0  0  0  0  0  0  0  0  0  0  0
    7.8370    4.0430  -56.9150 C   0  0  0  0  0  0  0  0  0  0  0  0
    7.4470    3.0820  -58.0900 C   0  0  2  0  0  0  0  0  0  0  0  0
    5.9990    3.4460  -58.5580 C   0  0  0  0  0  0  0  0  0  0  0  0
    5.4190    2.4850  -59.6240 C   0  0  2  0  0  0  0  0  0  0  0  0
    3.9210    2.2760  -59.3800 C   0  0  0  0  0  0  0  0  0  0  0  0
    6.1580    1.1400  -59.6980 C   0  0  0  0  0  0  0  0  0  0  0  0
    6.6450    0.7160  -58.3950 N   0  0  0  0  0  0  0  0  0  0  0  0
    7.2370    1.5880  -57.6410 C   0  0  0  0  0  0  0  0  0  0  0  0
    8.4190    3.1900  -59.3150 C   0  0  0  0  0  0  0  0  0  0  0  0
    8.0463   -2.0180  -51.1059 H   0  0  0  0  0  0  0  0  0  0  0  0
    7.2825   -2.5410  -52.6453 H   0  0  0  0  0  0  0  0  0  0  0  0
    8.9663   -1.9154  -52.6453 H   0  0  0  0  0  0  0  0  0  0  0  0
    5.4594    0.4834  -53.5383 H   0  0  0  0  0  0  0  0  0  0  0  0
    5.3550    1.4422  -55.8317 H   0  0  0  0  0  0  0  0  0  0  0  0
    9.6619   -0.3388  -54.0522 H   0  0  0  0  0  0  0  0  0  0  0  0
   10.6090    0.1100  -56.0970 H   0  0  0  0  0  0  0  0  0  0  0  0
   10.3827    2.6340  -55.5633 H   0  0  0  0  0  0  0  0  0  0  0  0
   11.3492    1.9375  -58.3460 H   0  0  0  0  0  0  0  0  0  0  0  0
   12.1237    4.3363  -57.5903 H   0  0  0  0  0  0  0  0  0  0  0  0
   11.1777    5.3425  -59.5801 H   0  0  0  0  0  0  0  0  0  0  0  0
   11.0560    3.5410  -59.8831 H   0  0  0  0  0  0  0  0  0  0  0  0
    9.0317    4.7503  -60.6018 H   0  0  0  0  0  0  0  0  0  0  0  0
    9.2062    6.5668  -58.8715 H   0  0  0  0  0  0  0  0  0  0  0  0
    7.5795    5.8373  -58.9402 H   0  0  0  0  0  0  0  0  0  0  0  0
    8.4125    6.0411  -56.5685 H   0  0  0  0  0  0  0  0  0  0  0  0
   10.7474    6.0195  -56.8924 H   0  0  0  0  0  0  0  0  0  0  0  0
   10.2650    4.5323  -55.9011 H   0  0  0  0  0  0  0  0  0  0  0  0
    8.3386    3.4349  -56.1477 H   0  0  0  0  0  0  0  0  0  0  0  0
    6.8864    4.5056  -56.6111 H   0  0  0  0  0  0  0  0  0  0  0  0
    5.3372    3.4275  -57.6796 H   0  0  0  0  0  0  0  0  0  0  0  0
    6.0572    4.4401  -59.0252 H   0  0  0  0  0  0  0  0  0  0  0  0
    5.5685    2.9637  -60.6030 H   0  0  0  0  0  0  0  0  0  0  0  0
    3.7261    2.2488  -58.2978 H   0  0  0  0  0  0  0  0  0  0  0  0
    3.3566    3.1041  -59.8335 H   0  0  0  0  0  0  0  0  0  0  0  0
    3.6048    1.3250  -59.8335 H   0  0  0  0  0  0  0  0  0  0  0  0
    5.4679    0.3760  -60.0855 H   0  0  0  0  0  0  0  0  0  0  0  0
    7.0260    1.2642  -60.3623 H   0  0  0  0  0  0  0  0  0  0  0  0
    9.1716    2.3957  -59.2028 H   0  0  0  0  0  0  0  0  0  0  0  0
    7.7572    3.1121  -60.1902 H   0  0  0  0  0  0  0  0  0  0  0  0
  1  2  1  0
  2  3  1  0
  3  4  1  0
  4  5  2  0
  5  6  1  0
  6  7  2  0
  7  8  1  0
  7  9  1  0
  9 10  1  0
 10 11  2  0
 11 12  1  0
 12 13  1  0
 13 14  1  0
 14 15  1  0
 15 16  1  0
 16 17  1  0
 16 18  1  0
 18 19  1  0
 19 20  1  6
 20 21  1  0
 21 22  1  0
 21 23  1  0
 23 24  1  0
 24 25  2  0
 19 26  1  0
  8  3  2  0
 17 12  1  0
 25 19  1  0
 25  6  1  0
 26 14  1  0
  1 27  1  0
  1 28  1  0
  1 29  1  0
  4 30  1  0
  5 31  1  0
  8 32  1  0
  9 33  1  0
 10 34  1  0
 11 35  1  0
 12 36  1  6
 13 37  1  0
 13 38  1  0
 14 39  1  6
 15 40  1  0
 15 41  1  0
 16 42  1  1
 17 43  1  0
 17 44  1  0
 18 45  1  0
 18 46  1  0
 20 47  1  0
 20 48  1  0
 21 49  1  6
 22 50  1  0
 22 51  1  0
 22 52  1  0
 23 53  1  0
 23 54  1  0
 26 55  1  0
 26 56  1  0
M  END
>  <meeko>  (169) 
{"is_sidechain": false}

$$$$

     RDKit          3D

 56 60  0  0  0  0  0  0  0  0999 V2000
    2.9170    1.7660  -61.4650 C   0  0  0  0  0  0  0  0  0  0  0  0
    2.9730    2.5140  -60.2570 O   0  0  0  0  0  0  0  0  0  0  0  0
    4.0820    2.3460  -59.4750 C   0  0  0  0  0  0  0  0  0  0  0  0
    4.1730    2.6330  -58.1130 C   0  0  0  0  0  0  0  0  0  0  0  0
    5.3740    2.4140  -57.4330 C   0  0  0  0  0  0  0  0  0  0  0  0
    6.4980    1.9310  -58.1180 C   0  0  0  0  0  0  0  0  0  0  0  0
    6.4190    1.6150  -59.4900 C   0  0  0  0  0  0  0  0  0  0  0  0
    5.2010    1.8430  -60.1510 C   0  0  0  0  0  0  0  0  0  0  0  0
    7.5380    1.2130  -60.2530 N   0  0  0  0  0  0  0  0  0  0  0  0
    8.6560    2.0020  -60.3970 C   0  0  0  0  0  0  0  0  0  0  0  0
    8.7170    3.3280  -60.2250 C   0  0  0  0  0  0  0  0  0  0  0  0
    9.9380    4.1910  -60.0090 C   0  0  1  0  0  0  0  0  0  0  0  0
    9.5830    5.3860  -59.0910 C   0  0  0  0  0  0  0  0  0  0  0  0
    9.5550    5.0520  -57.5820 C   0  0  2  0  0  0  0  0  0  0  0  0
   10.9160    4.5190  -57.1730 C   0  0  0  0  0  0  0  0  0  0  0  0
   11.1590    3.2200  -57.9210 C   0  0  2  0  0  0  0  0  0  0  0  0
   11.1760    3.4660  -59.4480 C   0  0  0  0  0  0  0  0  0  0  0  0
   10.1630    2.1420  -57.4630 C   0  0  0  0  0  0  0  0  0  0  0  0
    8.7820    2.5940  -56.8760 C   0  0  2  0  0  0  0  0  0  0  0  0
    8.8030    2.4510  -55.3170 C   0  0  0  0  0  0  0  0  0  0  0  0
    8.9950    1.0080  -54.8070 C   0  0  1  0  0  0  0  0  0  0  0  0
    8.1560    0.7780  -53.5450 C   0  0  0  0  0  0  0  0  0  0  0  0
    8.6910   -0.0520  -55.8700 C   0  0  0  0  0  0  0  0  0  0  0  0
    7.6280    0.3620  -56.7760 N   0  0  0  0  0  0  0  0  0  0  0  0
    7.6680    1.5600  -57.2670 C   0  0  0  0  0  0  0  0  0  0  0  0
    8.4120    4.0850  -57.1890 C   0  0  0  0  0  0  0  0  0  0  0  0
    2.8368    0.6945  -61.2294 H   0  0  0  0  0  0  0  0  0  0  0  0
    2.0398    2.0795  -62.0500 H   0  0  0  0  0  0  0  0  0  0  0  0
    3.8311    1.9454  -62.0500 H   0  0  0  0  0  0  0  0  0  0  0  0
    3.3003    3.0313  -57.5748 H   0  0  0  0  0  0  0  0  0  0  0  0
    5.4379    2.6216  -56.3547 H   0  0  0  0  0  0  0  0  0  0  0  0
    5.1239    1.6212  -61.2256 H   0  0  0  0  0  0  0  0  0  0  0  0
    7.3300    0.6300  -61.0580 H   0  0  0  0  0  0  0  0  0  0  0  0
    9.5896    1.4941  -60.6808 H   0  0  0  0  0  0  0  0  0  0  0  0
    7.7533    3.8580  -60.2433 H   0  0  0  0  0  0  0  0  0  0  0  0
   10.2274    4.5251  -61.0163 H   0  0  0  0  0  0  0  0  0  0  0  0
   10.3297    6.1772  -59.2535 H   0  0  0  0  0  0  0  0  0  0  0  0
    8.5622    5.6942  -59.3611 H   0  0  0  0  0  0  0  0  0  0  0  0
    9.3399    5.9787  -57.0297 H   0  0  0  0  0  0  0  0  0  0  0  0
   11.6959    5.2500  -57.4325 H   0  0  0  0  0  0  0  0  0  0  0  0
   10.9461    4.3446  -56.0873 H   0  0  0  0  0  0  0  0  0  0  0  0
   12.1567    2.8277  -57.6747 H   0  0  0  0  0  0  0  0  0  0  0  0
   12.0623    4.0728  -59.6852 H   0  0  0  0  0  0  0  0  0  0  0  0
   11.1863    2.4713  -59.9175 H   0  0  0  0  0  0  0  0  0  0  0  0
    9.9515    1.5053  -58.3347 H   0  0  0  0  0  0  0  0  0  0  0  0
   10.6673    1.6554  -56.6151 H   0  0  0  0  0  0  0  0  0  0  0  0
    9.6281    3.0653  -54.9272 H   0  0  0  0  0  0  0  0  0  0  0  0
    7.8153    2.7787  -54.9606 H   0  0  0  0  0  0  0  0  0  0  0  0
   10.0609    0.8936  -54.5604 H   0  0  0  0  0  0  0  0  0  0  0  0
    8.7788    0.9487  -52.6545 H   0  0  0  0  0  0  0  0  0  0  0  0
    7.3061    1.4763  -53.5374 H   0  0  0  0  0  0  0  0  0  0  0  0
    7.7810   -0.2561  -53.5374 H   0  0  0  0  0  0  0  0  0  0  0  0
    9.6033   -0.2368  -56.4562 H   0  0  0  0  0  0  0  0  0  0  0  0
    8.3553   -0.9620  -55.3512 H   0  0  0  0  0  0  0  0  0  0  0  0
    7.6918    4.0753  -58.0204 H   0  0  0  0  0  0  0  0  0  0  0  0
    8.0351    4.4800  -56.2341 H   0  0  0  0  0  0  0  0  0  0  0  0
  1  2  1  0
  2  3  1  0
  3  4  1  0
  4  5  2  0
  5  6  1  0
  6  7  2  0
  7  8  1  0
  7  9  1  0
  9 10  1  0
 10 11  2  0
 11 12  1  0
 12 13  1  0
 13 14  1  0
 14 15  1  0
 15 16  1  0
 16 17  1  0
 16 18  1  0
 18 19  1  0
 19 20  1  1
 20 21  1  0
 21 22  1  0
 21 23  1  0
 23 24  1  0
 24 25  2  0
 19 26  1  0
  8  3  2  0
 17 12  1  0
 25 19  1  0
 25  6  1  0
 26 14  1  0
  1 27  1  0
  1 28  1  0
  1 29  1  0
  4 30  1  0
  5 31  1  0
  8 32  1  0
  9 33  1  0
 10 34  1  0
 11 35  1  0
 12 36  1  6
 13 37  1  0
 13 38  1  0
 14 39  1  1
 15 40  1  0
 15 41  1  0
 16 42  1  1
 17 43  1  0
 17 44  1  0
 18 45  1  0
 18 46  1  0
 20 47  1  0
 20 48  1  0
 21 49  1  1
 22 50  1  0
 22 51  1  0
 22 52  1  0
 23 53  1  0
 23 54  1  0
 26 55  1  0
 26 56  1  0
M  END
>  <meeko>  (170) 
{"is_sidechain": false}

$$$$

     RDKit          3D

 56 60  0  0  0  0  0  0  0  0999 V2000
    8.9880   -1.8590  -52.8950 C   0  0  0  0  0  0  0  0  0  0  0  0
    9.2700   -0.5420  -53.3540 O   0  0  0  0  0  0  0  0  0  0  0  0
    8.4930   -0.0630  -54.3720 C   0  0  0  0  0  0  0  0  0  0  0  0
    7.3410   -0.6620  -54.8740 C   0  0  0  0  0  0  0  0  0  0  0  0
    6.6380   -0.0510  -55.9160 C   0  0  0  0  0  0  0  0  0  0  0  0
    7.0940    1.1500  -56.4830 C   0  0  0  0  0  0  0  0  0  0  0  0
    8.2590    1.7560  -55.9950 C   0  0  0  0  0  0  0  0  0  0  0  0
    8.9370    1.1410  -54.9290 C   0  0  0  0  0  0  0  0  0  0  0  0
    8.7540    2.9520  -56.5430 N   0  0  0  0  0  0  0  0  0  0  0  0
    9.8880    2.8480  -57.1520 C   0  0  0  0  0  0  0  0  0  0  0  0
   10.4760    3.9930  -57.9120 C   0  0  0  0  0  0  0  0  0  0  0  0
   10.1700    3.9570  -59.4300 C   0  0  1  0  0  0  0  0  0  0  0  0
   10.1830    2.5520  -60.0830 C   0  0  0  0  0  0  0  0  0  0  0  0
    8.8230    1.9750  -60.5390 C   0  0  2  0  0  0  0  0  0  0  0  0
    8.0710    3.0570  -61.2910 C   0  0  0  0  0  0  0  0  0  0  0  0
    7.7040    4.1450  -60.3010 C   0  0  2  0  0  0  0  0  0  0  0  0
    8.9840    4.8590  -59.8390 C   0  0  0  0  0  0  0  0  0  0  0  0
    6.8640    3.6380  -59.1120 C   0  0  0  0  0  0  0  0  0  0  0  0
    6.6900    2.1030  -58.9600 C   0  0  2  0  0  0  0  0  0  0  0  0
    5.5160    1.5550  -59.8400 C   0  0  0  0  0  0  0  0  0  0  0  0
    4.0980    1.9810  -59.4200 C   0  0  2  0  0  0  0  0  0  0  0  0
    3.4470    2.8970  -60.4560 C   0  0  0  0  0  0  0  0  0  0  0  0
    4.0470    2.6090  -58.0330 C   0  0  0  0  0  0  0  0  0  0  0  0
    4.9880    1.9820  -57.1170 N   0  0  0  0  0  0  0  0  0  0  0  0
    6.2070    1.7790  -57.5060 C   0  0  0  0  0  0  0  0  0  0  0  0
    7.9860    1.3450  -59.3970 C   0  0  0  0  0  0  0  0  0  0  0  0
    8.9854   -1.8712  -51.7951 H   0  0  0  0  0  0  0  0  0  0  0  0
    8.0021   -2.1739  -53.2675 H   0  0  0  0  0  0  0  0  0  0  0  0
    9.7585   -2.5500  -53.2675 H   0  0  0  0  0  0  0  0  0  0  0  0
    6.9851   -1.6134  -54.4518 H   0  0  0  0  0  0  0  0  0  0  0  0
    5.7167   -0.5163  -56.2964 H   0  0  0  0  0  0  0  0  0  0  0  0
    9.8404    1.6187  -54.5219 H   0  0  0  0  0  0  0  0  0  0  0  0
   10.4342    1.8941  -57.1105 H   0  0  0  0  0  0  0  0  0  0  0  0
   10.0712    4.9285  -57.4985 H   0  0  0  0  0  0  0  0  0  0  0  0
   11.5684    3.9233  -57.8031 H   0  0  0  0  0  0  0  0  0  0  0  0
   11.0511    4.4273  -59.8910 H   0  0  0  0  0  0  0  0  0  0  0  0
   10.8345    2.6038  -60.9678 H   0  0  0  0  0  0  0  0  0  0  0  0
   10.5290    1.8727  -59.2900 H   0  0  0  0  0  0  0  0  0  0  0  0
    9.0182    1.1250  -61.2094 H   0  0  0  0  0  0  0  0  0  0  0  0
    8.7096    3.4734  -62.0840 H   0  0  0  0  0  0  0  0  0  0  0  0
    7.1649    2.6409  -61.7557 H   0  0  0  0  0  0  0  0  0  0  0  0
    7.0501    4.8629  -60.8178 H   0  0  0  0  0  0  0  0  0  0  0  0
    9.3233    5.5028  -60.6639 H   0  0  0  0  0  0  0  0  0  0  0  0
    8.7007    5.3987  -58.9233 H   0  0  0  0  0  0  0  0  0  0  0  0
    7.3388    4.0085  -58.1915 H   0  0  0  0  0  0  0  0  0  0  0  0
    5.8494    4.0173  -59.3038 H   0  0  0  0  0  0  0  0  0  0  0  0
    5.6792    1.9013  -60.8712 H   0  0  0  0  0  0  0  0  0  0  0  0
    5.5432    0.4618  -59.7207 H   0  0  0  0  0  0  0  0  0  0  0  0
    3.5131    1.0508  -59.3690 H   0  0  0  0  0  0  0  0  0  0  0  0
    2.8836    3.6897  -59.9420 H   0  0  0  0  0  0  0  0  0  0  0  0
    4.2265    3.3505  -61.0858 H   0  0  0  0  0  0  0  0  0  0  0  0
    2.7623    2.3100  -61.0858 H   0  0  0  0  0  0  0  0  0  0  0  0
    4.2922    3.6780  -58.1177 H   0  0  0  0  0  0  0  0  0  0  0  0
    3.0333    2.4645  -57.6311 H   0  0  0  0  0  0  0  0  0  0  0  0
    8.6372    1.2663  -58.5139 H   0  0  0  0  0  0  0  0  0  0  0  0
    7.6310    0.3855  -59.8012 H   0  0  0  0  0  0  0  0  0  0  0  0
  1  2  1  0
  2  3  1  0
  3  4  1  0
  4  5  2  0
  5  6  1  0
  6  7  2  0
  7  8  1  0
  7  9  1  0
  9 10  2  0
 10 11  1  0
 11 12  1  0
 12 13  1  0
 13 14  1  0
 14 15  1  0
 15 16  1  0
 16 17  1  0
 16 18  1  0
 18 19  1  0
 19 20  1  6
 20 21  1  0
 21 22  1  0
 21 23  1  0
 23 24  1  0
 24 25  2  0
 19 26  1  0
  8  3  2  0
 17 12  1  0
 25 19  1  0
 25  6  1  0
 26 14  1  0
  1 27  1  0
  1 28  1  0
  1 29  1  0
  4 30  1  0
  5 31  1  0
  8 32  1  0
 10 33  1  0
 11 34  1  0
 11 35  1  0
 12 36  1  6
 13 37  1  0
 13 38  1  0
 14 39  1  6
 15 40  1  0
 15 41  1  0
 16 42  1  6
 17 43  1  0
 17 44  1  0
 18 45  1  0
 18 46  1  0
 20 47  1  0
 20 48  1  0
 21 49  1  1
 22 50  1  0
 22 51  1  0
 22 52  1  0
 23 53  1  0
 23 54  1  0
 26 55  1  0
 26 56  1  0
M  END
>  <meeko>  (171) 
{"is_sidechain": false}

$$$$

     RDKit          3D

 56 60  0  0  0  0  0  0  0  0999 V2000
    7.3970   -1.4700  -52.6220 C   0  0  0  0  0  0  0  0  0  0  0  0
    8.4840   -0.7280  -53.1620 O   0  0  0  0  0  0  0  0  0  0  0  0
    8.2250    0.0280  -54.2710 C   0  0  0  0  0  0  0  0  0  0  0  0
    7.0360   -0.2750  -54.9220 C   0  0  0  0  0  0  0  0  0  0  0  0
    6.6680    0.4240  -56.0730 C   0  0  0  0  0  0  0  0  0  0  0  0
    7.4800    1.4470  -56.6060 C   0  0  0  0  0  0  0  0  0  0  0  0
    8.6720    1.7660  -55.9410 C   0  0  0  0  0  0  0  0  0  0  0  0
    9.0340    1.0390  -54.7880 C   0  0  0  0  0  0  0  0  0  0  0  0
    9.6320    2.6820  -56.3780 N   0  0  0  0  0  0  0  0  0  0  0  0
    9.3400    3.9300  -56.4800 C   0  0  0  0  0  0  0  0  0  0  0  0
   10.4070    4.8660  -56.9720 C   0  0  0  0  0  0  0  0  0  0  0  0
   10.7610    4.7510  -58.4780 C   0  0  1  0  0  0  0  0  0  0  0  0
   11.1710    3.3390  -58.9630 C   0  0  0  0  0  0  0  0  0  0  0  0
   10.2230    2.5940  -59.9300 C   0  0  2  0  0  0  0  0  0  0  0  0
    9.6570    3.5510  -60.9590 C   0  0  0  0  0  0  0  0  0  0  0  0
    8.8490    4.6010  -60.2220 C   0  0  2  0  0  0  0  0  0  0  0  0
    9.7860    5.4940  -59.4030 C   0  0  0  0  0  0  0  0  0  0  0  0
    7.7350    4.0070  -59.3480 C   0  0  0  0  0  0  0  0  0  0  0  0
    7.6940    2.4630  -59.1280 C   0  0  2  0  0  0  0  0  0  0  0  0
    6.7690    1.8050  -60.2090 C   0  0  0  0  0  0  0  0  0  0  0  0
    5.3040    2.2830  -60.1880 C   0  0  1  0  0  0  0  0  0  0  0  0
    4.3690    1.1280  -60.5630 C   0  0  0  0  0  0  0  0  0  0  0  0
    4.8910    2.9160  -58.8560 C   0  0  0  0  0  0  0  0  0  0  0  0
    5.6270    2.3690  -57.7280 N   0  0  0  0  0  0  0  0  0  0  0  0
    6.9000    2.1380  -57.8150 C   0  0  0  0  0  0  0  0  0  0  0  0
    9.0930    1.7800  -59.2650 C   0  0  0  0  0  0  0  0  0  0  0  0
    7.4420   -1.4393  -51.5234 H   0  0  0  0  0  0  0  0  0  0  0  0
    6.4479   -1.0304  -52.9626 H   0  0  0  0  0  0  0  0  0  0  0  0
    7.4606   -2.5140  -52.9626 H   0  0  0  0  0  0  0  0  0  0  0  0
    6.3825   -1.0680  -54.5295 H   0  0  0  0  0  0  0  0  0  0  0  0
    5.7230    0.1712  -56.5760 H   0  0  0  0  0  0  0  0  0  0  0  0
    9.9815    1.2764  -54.2822 H   0  0  0  0  0  0  0  0  0  0  0  0
    8.3390    4.3011  -56.2150 H   0  0  0  0  0  0  0  0  0  0  0  0
   10.0676    5.8950  -56.7823 H   0  0  0  0  0  0  0  0  0  0  0  0
   11.3220    4.5903  -56.4272 H   0  0  0  0  0  0  0  0  0  0  0  0
   11.7047    5.3094  -58.5651 H   0  0  0  0  0  0  0  0  0  0  0  0
   12.1421    3.4378  -59.4701 H   0  0  0  0  0  0  0  0  0  0  0  0
   11.1655    2.7255  -58.0500 H   0  0  0  0  0  0  0  0  0  0  0  0
   10.8576    1.8385  -60.4162 H   0  0  0  0  0  0  0  0  0  0  0  0
   10.4765    4.0311  -61.5139 H   0  0  0  0  0  0  0  0  0  0  0  0
    9.0213    3.0112  -61.6763 H   0  0  0  0  0  0  0  0  0  0  0  0
    8.3347    5.2101  -60.9800 H   0  0  0  0  0  0  0  0  0  0  0  0
   10.3784    6.0988  -60.1053 H   0  0  0  0  0  0  0  0  0  0  0  0
    9.1378    6.0906  -58.7443 H   0  0  0  0  0  0  0  0  0  0  0  0
    7.8202    4.4727  -58.3551 H   0  0  0  0  0  0  0  0  0  0  0  0
    6.8140    4.2197  -59.9106 H   0  0  0  0  0  0  0  0  0  0  0  0
    7.1880    2.0313  -61.2006 H   0  0  0  0  0  0  0  0  0  0  0  0
    6.7455    0.7291  -59.9811 H   0  0  0  0  0  0  0  0  0  0  0  0
    5.2170    3.0820  -60.9390 H   0  0  0  0  0  0  0  0  0  0  0  0
    3.9856    0.6544  -59.6471 H   0  0  0  0  0  0  0  0  0  0  0  0
    3.5271    1.5154  -61.1555 H   0  0  0  0  0  0  0  0  0  0  0  0
    4.9232    0.3852  -61.1555 H   0  0  0  0  0  0  0  0  0  0  0  0
    5.0774    3.9989  -58.9072 H   0  0  0  0  0  0  0  0  0  0  0  0
    3.8248    2.6963  -58.6978 H   0  0  0  0  0  0  0  0  0  0  0  0
    9.4305    1.5149  -58.2522 H   0  0  0  0  0  0  0  0  0  0  0  0
    8.9241    0.9305  -59.9431 H   0  0  0  0  0  0  0  0  0  0  0  0
  1  2  1  0
  2  3  1  0
  3  4  1  0
  4  5  2  0
  5  6  1  0
  6  7  2  0
  7  8  1  0
  7  9  1  0
  9 10  2  0
 10 11  1  0
 11 12  1  0
 12 13  1  0
 13 14  1  0
 14 15  1  0
 15 16  1  0
 16 17  1  0
 16 18  1  0
 18 19  1  0
 19 20  1  6
 20 21  1  0
 21 22  1  0
 21 23  1  0
 23 24  1  0
 24 25  2  0
 19 26  1  0
  8  3  2  0
 17 12  1  0
 25 19  1  0
 25  6  1  0
 26 14  1  0
  1 27  1  0
  1 28  1  0
  1 29  1  0
  4 30  1  0
  5 31  1  0
  8 32  1  0
 10 33  1  0
 11 34  1  0
 11 35  1  0
 12 36  1  1
 13 37  1  0
 13 38  1  0
 14 39  1  6
 15 40  1  0
 15 41  1  0
 16 42  1  6
 17 43  1  0
 17 44  1  0
 18 45  1  0
 18 46  1  0
 20 47  1  0
 20 48  1  0
 21 49  1  6
 22 50  1  0
 22 51  1  0
 22 52  1  0
 23 53  1  0
 23 54  1  0
 26 55  1  0
 26 56  1  0
M  END
>  <meeko>  (172) 
{"is_sidechain": false}

$$$$

     RDKit          3D

 56 60  0  0  0  0  0  0  0  0999 V2000
   10.9280   -2.5070  -55.3300 C   0  0  0  0  0  0  0  0  0  0  0  0
   10.0940   -1.5190  -54.7370 O   0  0  0  0  0  0  0  0  0  0  0  0
    9.9070   -0.3640  -55.4430 C   0  0  0  0  0  0  0  0  0  0  0  0
   11.0380    0.1310  -56.0640 C   0  0  0  0  0  0  0  0  0  0  0  0
   10.9540    1.3020  -56.8130 C   0  0  0  0  0  0  0  0  0  0  0  0
    9.7300    1.9990  -56.9940 C   0  0  0  0  0  0  0  0  0  0  0  0
    8.5840    1.5460  -56.3230 C   0  0  0  0  0  0  0  0  0  0  0  0
    8.7150    0.3470  -55.5690 C   0  0  0  0  0  0  0  0  0  0  0  0
    7.2890    2.0570  -56.1620 N   0  0  0  0  0  0  0  0  0  0  0  0
    6.5540    2.8540  -56.8550 C   0  0  0  0  0  0  0  0  0  0  0  0
    6.8400    3.5900  -58.1100 C   0  0  0  0  0  0  0  0  0  0  0  0
    6.4870    2.8470  -59.4020 C   0  0  1  0  0  0  0  0  0  0  0  0
    6.6620    3.8010  -60.5870 C   0  0  0  0  0  0  0  0  0  0  0  0
    8.0540    3.7330  -61.2220 C   0  0  2  0  0  0  0  0  0  0  0  0
    8.2490    2.3360  -61.7720 C   0  0  0  0  0  0  0  0  0  0  0  0
    8.3750    1.3920  -60.5920 C   0  0  2  0  0  0  0  0  0  0  0  0
    7.1590    1.4740  -59.6430 C   0  0  0  0  0  0  0  0  0  0  0  0
    9.7400    1.6430  -59.9450 C   0  0  0  0  0  0  0  0  0  0  0  0
   10.0030    3.0840  -59.4370 C   0  0  2  0  0  0  0  0  0  0  0  0
   11.5190    3.4080  -59.6600 C   0  0  0  0  0  0  0  0  0  0  0  0
   11.9480    4.7700  -59.0590 C   0  0  2  0  0  0  0  0  0  0  0  0
   13.3550    4.6590  -58.4670 C   0  0  0  0  0  0  0  0  0  0  0  0
   10.9550    5.3300  -58.0250 C   0  0  0  0  0  0  0  0  0  0  0  0
   10.3400    4.2690  -57.2320 N   0  0  0  0  0  0  0  0  0  0  0  0
    9.9370    3.2090  -57.8570 C   0  0  0  0  0  0  0  0  0  0  0  0
    9.1960    4.1640  -60.2700 C   0  0  0  0  0  0  0  0  0  0  0  0
   11.4219   -3.0921  -54.5402 H   0  0  0  0  0  0  0  0  0  0  0  0
   10.3172   -3.1758  -55.9542 H   0  0  0  0  0  0  0  0  0  0  0  0
   11.6899   -2.0171  -55.9542 H   0  0  0  0  0  0  0  0  0  0  0  0
   11.9984   -0.3966  -55.9673 H   0  0  0  0  0  0  0  0  0  0  0  0
   11.8666    1.7006  -57.2802 H   0  0  0  0  0  0  0  0  0  0  0  0
    7.8234   -0.0418  -55.0553 H   0  0  0  0  0  0  0  0  0  0  0  0
    5.5449    3.0165  -56.4485 H   0  0  0  0  0  0  0  0  0  0  0  0
    6.2671    4.5288  -58.0910 H   0  0  0  0  0  0  0  0  0  0  0  0
    7.9298    3.7377  -58.1333 H   0  0  0  0  0  0  0  0  0  0  0  0
    5.4346    2.5486  -59.2858 H   0  0  0  0  0  0  0  0  0  0  0  0
    5.9160    3.5451  -61.3538 H   0  0  0  0  0  0  0  0  0  0  0  0
    6.5297    4.8233  -60.2032 H   0  0  0  0  0  0  0  0  0  0  0  0
    8.1059    4.4682  -62.0386 H   0  0  0  0  0  0  0  0  0  0  0  0
    7.3839    2.0517  -62.3890 H   0  0  0  0  0  0  0  0  0  0  0  0
    9.1504    2.2908  -62.4008 H   0  0  0  0  0  0  0  0  0  0  0  0
    8.3486    0.3411  -60.9159 H   0  0  0  0  0  0  0  0  0  0  0  0
    6.3870    0.8042  -60.0496 H   0  0  0  0  0  0  0  0  0  0  0  0
    7.5732    1.2066  -58.6596 H   0  0  0  0  0  0  0  0  0  0  0  0
    9.8345    0.9621  -59.0863 H   0  0  0  0  0  0  0  0  0  0  0  0
   10.4789    1.4727  -60.7419 H   0  0  0  0  0  0  0  0  0  0  0  0
   12.1187    2.6144  -59.1903 H   0  0  0  0  0  0  0  0  0  0  0  0
   11.6845    3.4638  -60.7460 H   0  0  0  0  0  0  0  0  0  0  0  0
   11.9514    5.4950  -59.8863 H   0  0  0  0  0  0  0  0  0  0  0  0
   13.2922    4.6640  -57.3688 H   0  0  0  0  0  0  0  0  0  0  0  0
   13.8214    3.7213  -58.8034 H   0  0  0  0  0  0  0  0  0  0  0  0
   13.9627    5.5120  -58.8034 H   0  0  0  0  0  0  0  0  0  0  0  0
   11.4915    6.0132  -57.3502 H   0  0  0  0  0  0  0  0  0  0  0  0
   10.1566    5.8564  -58.5686 H   0  0  0  0  0  0  0  0  0  0  0  0
    8.7524    4.8572  -59.5401 H   0  0  0  0  0  0  0  0  0  0  0  0
    9.9554    4.5604  -60.9601 H   0  0  0  0  0  0  0  0  0  0  0  0
  1  2  1  0
  2  3  1  0
  3  4  1  0
  4  5  2  0
  5  6  1  0
  6  7  2  0
  7  8  1  0
  7  9  1  0
  9 10  2  0
 10 11  1  0
 11 12  1  0
 12 13  1  0
 13 14  1  0
 14 15  1  0
 15 16  1  0
 16 17  1  0
 16 18  1  0
 18 19  1  0
 19 20  1  6
 20 21  1  0
 21 22  1  0
 21 23  1  0
 23 24  1  0
 24 25  2  0
 19 26  1  0
  8  3  2  0
 17 12  1  0
 25 19  1  0
 25  6  1  0
 26 14  1  0
  1 27  1  0
  1 28  1  0
  1 29  1  0
  4 30  1  0
  5 31  1  0
  8 32  1  0
 10 33  1  0
 11 34  1  0
 11 35  1  0
 12 36  1  1
 13 37  1  0
 13 38  1  0
 14 39  1  6
 15 40  1  0
 15 41  1  0
 16 42  1  6
 17 43  1  0
 17 44  1  0
 18 45  1  0
 18 46  1  0
 20 47  1  0
 20 48  1  0
 21 49  1  6
 22 50  1  0
 22 51  1  0
 22 52  1  0
 23 53  1  0
 23 54  1  0
 26 55  1  0
 26 56  1  0
M  END
>  <meeko>  (173) 
{"is_sidechain": false}

$$$$

     RDKit          3D

 56 60  0  0  0  0  0  0  0  0999 V2000
    2.8300    2.2110  -62.3090 C   0  0  0  0  0  0  0  0  0  0  0  0
    2.7790    2.6590  -60.9610 O   0  0  0  0  0  0  0  0  0  0  0  0
    3.8400    2.3370  -60.1610 C   0  0  0  0  0  0  0  0  0  0  0  0
    3.6620    2.6310  -58.8110 C   0  0  0  0  0  0  0  0  0  0  0  0
    4.6640    2.3310  -57.8890 C   0  0  0  0  0  0  0  0  0  0  0  0
    5.8830    1.7760  -58.3150 C   0  0  0  0  0  0  0  0  0  0  0  0
    6.0780    1.4740  -59.6690 C   0  0  0  0  0  0  0  0  0  0  0  0
    5.0340    1.7440  -60.5770 C   0  0  0  0  0  0  0  0  0  0  0  0
    7.2140    0.8080  -60.1410 N   0  0  0  0  0  0  0  0  0  0  0  0
    8.0880    1.4130  -60.8830 C   0  0  0  0  0  0  0  0  0  0  0  0
    8.1260    2.8570  -61.3220 C   0  0  0  0  0  0  0  0  0  0  0  0
    8.8870    3.8030  -60.3750 C   0  0  1  0  0  0  0  0  0  0  0  0
    7.9440    4.5370  -59.3930 C   0  0  0  0  0  0  0  0  0  0  0  0
    8.3950    4.7380  -57.9350 C   0  0  2  0  0  0  0  0  0  0  0  0
    9.8710    4.4960  -57.7130 C   0  0  0  0  0  0  0  0  0  0  0  0
   10.2030    3.1220  -58.2570 C   0  0  2  0  0  0  0  0  0  0  0  0
   10.1730    3.2000  -59.7840 C   0  0  0  0  0  0  0  0  0  0  0  0
    9.3020    1.9950  -57.7050 C   0  0  0  0  0  0  0  0  0  0  0  0
    8.0340    2.3590  -56.8630 C   0  0  2  0  0  0  0  0  0  0  0  0
    8.3620    2.0810  -55.3610 C   0  0  0  0  0  0  0  0  0  0  0  0
    8.4940    0.5880  -55.0580 C   0  0  1  0  0  0  0  0  0  0  0  0
    8.9060    0.3640  -53.6020 C   0  0  0  0  0  0  0  0  0  0  0  0
    7.1790   -0.1080  -55.3590 C   0  0  0  0  0  0  0  0  0  0  0  0
    6.5190    0.3510  -56.5690 N   0  0  0  0  0  0  0  0  0  0  0  0
    6.8380    1.4150  -57.2210 C   0  0  0  0  0  0  0  0  0  0  0  0
    7.6190    3.8620  -56.9440 C   0  0  0  0  0  0  0  0  0  0  0  0
    2.9544    1.1182  -62.3277 H   0  0  0  0  0  0  0  0  0  0  0  0
    1.8952    2.4825  -62.8212 H   0  0  0  0  0  0  0  0  0  0  0  0
    3.6799    2.6856  -62.8212 H   0  0  0  0  0  0  0  0  0  0  0  0
    2.7276    3.1015  -58.4712 H   0  0  0  0  0  0  0  0  0  0  0  0
    4.4992    2.5302  -56.8198 H   0  0  0  0  0  0  0  0  0  0  0  0
    5.1628    1.4816  -61.6375 H   0  0  0  0  0  0  0  0  0  0  0  0
    8.9177    0.7869  -61.2430 H   0  0  0  0  0  0  0  0  0  0  0  0
    8.6086    2.9013  -62.3095 H   0  0  0  0  0  0  0  0  0  0  0  0
    7.0822    3.2040  -61.3313 H   0  0  0  0  0  0  0  0  0  0  0  0
    9.2966    4.6159  -60.9926 H   0  0  0  0  0  0  0  0  0  0  0  0
    7.7557    5.5361  -59.8129 H   0  0  0  0  0  0  0  0  0  0  0  0
    7.0755    3.8670  -59.3106 H   0  0  0  0  0  0  0  0  0  0  0  0
    8.1769    5.7993  -57.7452 H   0  0  0  0  0  0  0  0  0  0  0  0
   10.4591    5.2600  -58.2426 H   0  0  0  0  0  0  0  0  0  0  0  0
   10.1123    4.5530  -56.6413 H   0  0  0  0  0  0  0  0  0  0  0  0
   11.2092    2.8421  -57.9118 H   0  0  0  0  0  0  0  0  0  0  0  0
   11.0223    3.8175  -60.1117 H   0  0  0  0  0  0  0  0  0  0  0  0
   10.2238    2.1631  -60.1477 H   0  0  0  0  0  0  0  0  0  0  0  0
    8.9538    1.4121  -58.5704 H   0  0  0  0  0  0  0  0  0  0  0  0
    9.9507    1.4792  -56.9817 H   0  0  0  0  0  0  0  0  0  0  0  0
    9.3107    2.5775  -55.1092 H   0  0  0  0  0  0  0  0  0  0  0  0
    7.5290    2.4723  -54.7586 H   0  0  0  0  0  0  0  0  0  0  0  0
    9.2805    0.1605  -55.6973 H   0  0  0  0  0  0  0  0  0  0  0  0
    8.1375    0.7818  -52.9350 H   0  0  0  0  0  0  0  0  0  0  0  0
    9.0094   -0.7145  -53.4120 H   0  0  0  0  0  0  0  0  0  0  0  0
    9.8674    0.8636  -53.4120 H   0  0  0  0  0  0  0  0  0  0  0  0
    7.3760   -1.1853  -55.4623 H   0  0  0  0  0  0  0  0  0  0  0  0
    6.5020    0.1267  -54.5244 H   0  0  0  0  0  0  0  0  0  0  0  0
    6.5566    3.8997  -57.2267 H   0  0  0  0  0  0  0  0  0  0  0  0
    7.8452    4.2784  -55.9513 H   0  0  0  0  0  0  0  0  0  0  0  0
  1  2  1  0
  2  3  1  0
  3  4  1  0
  4  5  2  0
  5  6  1  0
  6  7  2  0
  7  8  1  0
  7  9  1  0
  9 10  2  0
 10 11  1  0
 11 12  1  0
 12 13  1  0
 13 14  1  0
 14 15  1  0
 15 16  1  0
 16 17  1  0
 16 18  1  0
 18 19  1  0
 19 20  1  1
 20 21  1  0
 21 22  1  0
 21 23  1  0
 23 24  1  0
 24 25  2  0
 19 26  1  0
  8  3  2  0
 17 12  1  0
 25 19  1  0
 25  6  1  0
 26 14  1  0
  1 27  1  0
  1 28  1  0
  1 29  1  0
  4 30  1  0
  5 31  1  0
  8 32  1  0
 10 33  1  0
 11 34  1  0
 11 35  1  0
 12 36  1  6
 13 37  1  0
 13 38  1  0
 14 39  1  1
 15 40  1  0
 15 41  1  0
 16 42  1  6
 17 43  1  0
 17 44  1  0
 18 45  1  0
 18 46  1  0
 20 47  1  0
 20 48  1  0
 21 49  1  6
 22 50  1  0
 22 51  1  0
 22 52  1  0
 23 53  1  0
 23 54  1  0
 26 55  1  0
 26 56  1  0
M  END
>  <meeko>  (174) 
{"is_sidechain": false}

$$$$

     RDKit          3D

 56 60  0  0  0  0  0  0  0  0999 V2000
    7.8260   -1.1450  -52.8120 C   0  0  0  0  0  0  0  0  0  0  0  0
    8.7180   -0.8270  -53.8740 O   0  0  0  0  0  0  0  0  0  0  0  0
    8.3320    0.1510  -54.7580 C   0  0  0  0  0  0  0  0  0  0  0  0
    6.9080    0.0990  -55.0470 C   0  0  0  0  0  0  0  0  0  0  0  0
    6.3630    0.8020  -56.0520 C   0  0  0  0  0  0  0  0  0  0  0  0
    7.2240    1.6360  -56.8840 C   0  0  0  0  0  0  0  0  0  0  0  0
    8.4530    2.1220  -56.1720 C   0  0  0  0  0  0  0  0  0  0  0  0
    9.1120    1.1080  -55.2980 C   0  0  0  0  0  0  0  0  0  0  0  0
    8.7860    3.3590  -56.3430 N   0  0  0  0  0  0  0  0  0  0  0  0
   10.0970    3.7220  -56.3920 C   0  0  0  0  0  0  0  0  0  0  0  0
   10.2750    4.7960  -57.1720 C   0  0  0  0  0  0  0  0  0  0  0  0
   11.0760    4.8090  -58.4550 C   0  0  1  0  0  0  0  0  0  0  0  0
   11.6300    3.4420  -58.9510 C   0  0  0  0  0  0  0  0  0  0  0  0
   10.6960    2.5850  -59.8570 C   0  0  2  0  0  0  0  0  0  0  0  0
   10.1870    3.4740  -60.9770 C   0  0  0  0  0  0  0  0  0  0  0  0
    9.2830    4.5240  -60.3560 C   0  0  2  0  0  0  0  0  0  0  0  0
   10.2070    5.4830  -59.5590 C   0  0  0  0  0  0  0  0  0  0  0  0
    8.1060    3.9240  -59.5270 C   0  0  0  0  0  0  0  0  0  0  0  0
    8.0730    2.3720  -59.3240 C   0  0  2  0  0  0  0  0  0  0  0  0
    7.5750    1.6150  -60.6280 C   0  0  0  0  0  0  0  0  0  0  0  0
    6.1340    1.8760  -61.1030 C   0  0  2  0  0  0  0  0  0  0  0  0
    6.0610    2.8460  -62.2820 C   0  0  0  0  0  0  0  0  0  0  0  0
    5.2300    2.3100  -59.9600 C   0  0  0  0  0  0  0  0  0  0  0  0
    5.6900    1.7020  -58.7270 N   0  0  0  0  0  0  0  0  0  0  0  0
    6.9860    1.9250  -58.2010 C   0  0  0  0  0  0  0  0  0  0  0  0
    9.5490    1.8400  -59.1130 C   0  0  0  0  0  0  0  0  0  0  0  0
    8.3252   -0.9670  -51.8481 H   0  0  0  0  0  0  0  0  0  0  0  0
    6.9300   -0.5109  -52.8834 H   0  0  0  0  0  0  0  0  0  0  0  0
    7.5332   -2.2029  -52.8834 H   0  0  0  0  0  0  0  0  0  0  0  0
    6.2590   -0.5344  -54.4244 H   0  0  0  0  0  0  0  0  0  0  0  0
    5.2815    0.7501  -56.2459 H   0  0  0  0  0  0  0  0  0  0  0  0
   10.1939    1.1404  -55.1018 H   0  0  0  0  0  0  0  0  0  0  0  0
   10.9060    3.2004  -55.8595 H   0  0  0  0  0  0  0  0  0  0  0  0
    9.8038    5.7385  -56.8562 H   0  0  0  0  0  0  0  0  0  0  0  0
   11.9907    5.3775  -58.2311 H   0  0  0  0  0  0  0  0  0  0  0  0
   12.5497    3.6437  -59.5198 H   0  0  0  0  0  0  0  0  0  0  0  0
   11.7697    2.8433  -58.0388 H   0  0  0  0  0  0  0  0  0  0  0  0
   11.2928    1.7549  -60.2629 H   0  0  0  0  0  0  0  0  0  0  0  0
   11.0335    3.9604  -61.4838 H   0  0  0  0  0  0  0  0  0  0  0  0
    9.6349    2.8803  -61.7205 H   0  0  0  0  0  0  0  0  0  0  0  0
    8.7483    5.0860  -61.1359 H   0  0  0  0  0  0  0  0  0  0  0  0
   10.8854    5.9724  -60.2733 H   0  0  0  0  0  0  0  0  0  0  0  0
    9.5388    6.1818  -59.0345 H   0  0  0  0  0  0  0  0  0  0  0  0
    8.1394    4.3848  -58.5287 H   0  0  0  0  0  0  0  0  0  0  0  0
    7.2074    4.1448  -60.1218 H   0  0  0  0  0  0  0  0  0  0  0  0
    8.2481    1.8999  -61.4500 H   0  0  0  0  0  0  0  0  0  0  0  0
    7.5873    0.5503  -60.3520 H   0  0  0  0  0  0  0  0  0  0  0  0
    5.7566    0.9117  -61.4742 H   0  0  0  0  0  0  0  0  0  0  0  0
    5.9835    3.8764  -61.9048 H   0  0  0  0  0  0  0  0  0  0  0  0
    6.9691    2.7472  -62.8948 H   0  0  0  0  0  0  0  0  0  0  0  0
    5.1779    2.6124  -62.8948 H   0  0  0  0  0  0  0  0  0  0  0  0
    5.2605    3.4053  -59.8631 H   0  0  0  0  0  0  0  0  0  0  0  0
    4.1977    1.9904  -60.1653 H   0  0  0  0  0  0  0  0  0  0  0  0
    4.9740    1.7270  -58.0050 H   0  0  0  0  0  0  0  0  0  0  0  0
    9.7669    1.8919  -58.0360 H   0  0  0  0  0  0  0  0  0  0  0  0
    9.5462    0.8284  -59.5449 H   0  0  0  0  0  0  0  0  0  0  0  0
  1  2  1  0
  2  3  1  0
  3  4  1  0
  4  5  2  0
  5  6  1  0
  6  7  1  0
  7  8  1  0
  7  9  2  0
  9 10  1  0
 10 11  2  0
 11 12  1  0
 12 13  1  0
 13 14  1  0
 14 15  1  0
 15 16  1  0
 16 17  1  0
 16 18  1  0
 18 19  1  0
 19 20  1  6
 20 21  1  0
 21 22  1  0
 21 23  1  0
 23 24  1  0
 24 25  1  0
 19 26  1  0
  8  3  2  0
 17 12  1  0
 25 19  1  0
 25  6  2  0
 26 14  1  0
  1 27  1  0
  1 28  1  0
  1 29  1  0
  4 30  1  0
  5 31  1  0
  8 32  1  0
 10 33  1  0
 11 34  1  0
 12 35  1  1
 13 36  1  0
 13 37  1  0
 14 38  1  6
 15 39  1  0
 15 40  1  0
 16 41  1  6
 17 42  1  0
 17 43  1  0
 18 44  1  0
 18 45  1  0
 20 46  1  0
 20 47  1  0
 21 48  1  6
 22 49  1  0
 22 50  1  0
 22 51  1  0
 23 52  1  0
 23 53  1  0
 24 54  1  0
 26 55  1  0
 26 56  1  0
M  END
>  <meeko>  (175) 
{"is_sidechain": false}

$$$$

     RDKit          3D

 56 60  0  0  0  0  0  0  0  0999 V2000
    7.4160   -1.1780  -52.6480 C   0  0  0  0  0  0  0  0  0  0  0  0
    8.0970   -1.0910  -53.8930 O   0  0  0  0  0  0  0  0  0  0  0  0
    7.8210   -0.0090  -54.6930 C   0  0  0  0  0  0  0  0  0  0  0  0
    6.4190    0.3440  -54.6830 C   0  0  0  0  0  0  0  0  0  0  0  0
    5.9060    1.1830  -55.5920 C   0  0  0  0  0  0  0  0  0  0  0  0
    6.7540    1.7830  -56.6310 C   0  0  0  0  0  0  0  0  0  0  0  0
    8.2070    1.9030  -56.1930 C   0  0  0  0  0  0  0  0  0  0  0  0
    8.6980    0.7230  -55.4010 C   0  0  0  0  0  0  0  0  0  0  0  0
    8.8990    2.9570  -56.4880 N   0  0  0  0  0  0  0  0  0  0  0  0
   10.1950    3.0760  -56.1050 C   0  0  0  0  0  0  0  0  0  0  0  0
   11.1220    3.5730  -56.9320 C   0  0  0  0  0  0  0  0  0  0  0  0
   10.8920    4.0500  -58.3510 C   0  0  1  0  0  0  0  0  0  0  0  0
   10.8150    2.8830  -59.3610 C   0  0  0  0  0  0  0  0  0  0  0  0
    9.5050    2.7560  -60.1600 C   0  0  2  0  0  0  0  0  0  0  0  0
    9.0940    4.1450  -60.6270 C   0  0  0  0  0  0  0  0  0  0  0  0
    8.6380    4.9390  -59.4180 C   0  0  2  0  0  0  0  0  0  0  0  0
    9.8410    5.1830  -58.4840 C   0  0  0  0  0  0  0  0  0  0  0  0
    7.4250    4.3000  -58.7010 C   0  0  0  0  0  0  0  0  0  0  0  0
    7.1040    2.8050  -59.0450 C   0  0  2  0  0  0  0  0  0  0  0  0
    6.2980    2.8050  -60.4230 C   0  0  0  0  0  0  0  0  0  0  0  0
    5.0540    1.9240  -60.5050 C   0  0  1  0  0  0  0  0  0  0  0  0
    5.3750    0.4310  -60.5980 C   0  0  0  0  0  0  0  0  0  0  0  0
    4.1730    2.2700  -59.3250 C   0  0  0  0  0  0  0  0  0  0  0  0
    4.8800    2.0200  -58.0960 N   0  0  0  0  0  0  0  0  0  0  0  0
    6.2550    2.1910  -57.8420 C   0  0  0  0  0  0  0  0  0  0  0  0
    8.4100    2.0000  -59.3620 C   0  0  0  0  0  0  0  0  0  0  0  0
    8.1412   -1.0854  -51.8261 H   0  0  0  0  0  0  0  0  0  0  0  0
    6.6761   -0.3671  -52.5773 H   0  0  0  0  0  0  0  0  0  0  0  0
    6.9038   -2.1489  -52.5773 H   0  0  0  0  0  0  0  0  0  0  0  0
    5.7606   -0.0851  -53.9134 H   0  0  0  0  0  0  0  0  0  0  0  0
    4.8338    1.4266  -55.5603 H   0  0  0  0  0  0  0  0  0  0  0  0
    9.7663    0.4610  -55.4011 H   0  0  0  0  0  0  0  0  0  0  0  0
   10.4897    2.7575  -55.0942 H   0  0  0  0  0  0  0  0  0  0  0  0
   12.1491    3.6417  -56.5443 H   0  0  0  0  0  0  0  0  0  0  0  0
   11.8005    4.5862  -58.6628 H   0  0  0  0  0  0  0  0  0  0  0  0
   11.6361    3.0094  -60.0820 H   0  0  0  0  0  0  0  0  0  0  0  0
   10.8784    1.9670  -58.7553 H   0  0  0  0  0  0  0  0  0  0  0  0
    9.6586    2.1319  -61.0527 H   0  0  0  0  0  0  0  0  0  0  0  0
    9.9509    4.6470  -61.0999 H   0  0  0  0  0  0  0  0  0  0  0  0
    8.2785    4.0717  -61.3615 H   0  0  0  0  0  0  0  0  0  0  0  0
    8.2656    5.9162  -59.7592 H   0  0  0  0  0  0  0  0  0  0  0  0
   10.3663    6.0769  -58.8515 H   0  0  0  0  0  0  0  0  0  0  0  0
    9.4000    5.2724  -57.4802 H   0  0  0  0  0  0  0  0  0  0  0  0
    7.6100    4.3594  -57.6183 H   0  0  0  0  0  0  0  0  0  0  0  0
    6.5518    4.8688  -59.0531 H   0  0  0  0  0  0  0  0  0  0  0  0
    5.9838    3.8402  -60.6223 H   0  0  0  0  0  0  0  0  0  0  0  0
    6.9957    2.3787  -61.1589 H   0  0  0  0  0  0  0  0  0  0  0  0
    4.5174    2.1303  -61.4428 H   0  0  0  0  0  0  0  0  0  0  0  0
    5.4652    0.0116  -59.5851 H   0  0  0  0  0  0  0  0  0  0  0  0
    4.5672   -0.0848  -61.1379 H   0  0  0  0  0  0  0  0  0  0  0  0
    6.3234    0.2928  -61.1379 H   0  0  0  0  0  0  0  0  0  0  0  0
    3.8954    3.3332  -59.3764 H   0  0  0  0  0  0  0  0  0  0  0  0
    3.2667    1.6473  -59.3547 H   0  0  0  0  0  0  0  0  0  0  0  0
    4.4180    1.3400  -57.5010 H   0  0  0  0  0  0  0  0  0  0  0  0
    8.8503    1.6845  -58.4046 H   0  0  0  0  0  0  0  0  0  0  0  0
    8.0936    1.1700  -60.0109 H   0  0  0  0  0  0  0  0  0  0  0  0
  1  2  1  0
  2  3  1  0
  3  4  1  0
  4  5  2  0
  5  6  1  0
  6  7  1  0
  7  8  1  0
  7  9  2  0
  9 10  1  0
 10 11  2  0
 11 12  1  0
 12 13  1  0
 13 14  1  0
 14 15  1  0
 15 16  1  0
 16 17  1  0
 16 18  1  0
 18 19  1  0
 19 20  1  6
 20 21  1  0
 21 22  1  0
 21 23  1  0
 23 24  1  0
 24 25  1  0
 19 26  1  0
  8  3  2  0
 17 12  1  0
 25 19  1  0
 25  6  2  0
 26 14  1  0
  1 27  1  0
  1 28  1  0
  1 29  1  0
  4 30  1  0
  5 31  1  0
  8 32  1  0
 10 33  1  0
 11 34  1  0
 12 35  1  6
 13 36  1  0
 13 37  1  0
 14 38  1  6
 15 39  1  0
 15 40  1  0
 16 41  1  6
 17 42  1  0
 17 43  1  0
 18 44  1  0
 18 45  1  0
 20 46  1  0
 20 47  1  0
 21 48  1  6
 22 49  1  0
 22 50  1  0
 22 51  1  0
 23 52  1  0
 23 53  1  0
 24 54  1  0
 26 55  1  0
 26 56  1  0
M  END
>  <meeko>  (176) 
{"is_sidechain": false}

$$$$

     RDKit          3D

 56 60  0  0  0  0  0  0  0  0999 V2000
    8.9560   -1.8320  -53.0820 C   0  0  0  0  0  0  0  0  0  0  0  0
    9.2340   -0.4950  -53.4780 O   0  0  0  0  0  0  0  0  0  0  0  0
    8.4590    0.0310  -54.4750 C   0  0  0  0  0  0  0  0  0  0  0  0
    7.2600   -0.4950  -54.9400 C   0  0  0  0  0  0  0  0  0  0  0  0
    6.5690    0.1600  -55.9600 C   0  0  0  0  0  0  0  0  0  0  0  0
    7.0730    1.3380  -56.5390 C   0  0  0  0  0  0  0  0  0  0  0  0
    8.2930    1.8840  -56.0880 C   0  0  0  0  0  0  0  0  0  0  0  0
    8.9570    1.2100  -55.0430 C   0  0  0  0  0  0  0  0  0  0  0  0
    8.8240    3.0820  -56.6340 N   0  0  0  0  0  0  0  0  0  0  0  0
   10.1670    3.2990  -56.8060 C   0  0  0  0  0  0  0  0  0  0  0  0
   10.8200    3.6380  -57.9250 C   0  0  0  0  0  0  0  0  0  0  0  0
   10.2950    3.8340  -59.3370 C   0  0  1  0  0  0  0  0  0  0  0  0
   10.2320    2.5050  -60.1230 C   0  0  0  0  0  0  0  0  0  0  0  0
    8.8330    2.0770  -60.5960 C   0  0  2  0  0  0  0  0  0  0  0  0
    8.1850    3.2660  -61.2820 C   0  0  0  0  0  0  0  0  0  0  0  0
    7.8400    4.2890  -60.2210 C   0  0  2  0  0  0  0  0  0  0  0  0
    9.0910    4.7940  -59.4760 C   0  0  0  0  0  0  0  0  0  0  0  0
    6.7370    3.7530  -59.2920 C   0  0  0  0  0  0  0  0  0  0  0  0
    6.6740    2.2100  -59.0550 C   0  0  2  0  0  0  0  0  0  0  0  0
    5.5440    1.5800  -59.9390 C   0  0  0  0  0  0  0  0  0  0  0  0
    4.1000    1.8960  -59.4970 C   0  0  2  0  0  0  0  0  0  0  0  0
    3.3040    2.5810  -60.6070 C   0  0  0  0  0  0  0  0  0  0  0  0
    4.0330    2.7000  -58.2020 C   0  0  0  0  0  0  0  0  0  0  0  0
    4.9720    2.1780  -57.2190 N   0  0  0  0  0  0  0  0  0  0  0  0
    6.1910    1.9450  -57.5900 C   0  0  0  0  0  0  0  0  0  0  0  0
    8.0030    1.4880  -59.4330 C   0  0  0  0  0  0  0  0  0  0  0  0
    8.9431   -1.8940  -51.9838 H   0  0  0  0  0  0  0  0  0  0  0  0
    7.9756   -2.1353  -53.4779 H   0  0  0  0  0  0  0  0  0  0  0  0
    9.7342   -2.5010  -53.4779 H   0  0  0  0  0  0  0  0  0  0  0  0
    6.8578   -1.4225  -54.5065 H   0  0  0  0  0  0  0  0  0  0  0  0
    5.6138   -0.2522  -56.3172 H   0  0  0  0  0  0  0  0  0  0  0  0
    9.9007    1.6254  -54.6598 H   0  0  0  0  0  0  0  0  0  0  0  0
    8.2920    3.3860  -57.4360 H   0  0  0  0  0  0  0  0  0  0  0  0
   10.7895    3.1789  -55.9071 H   0  0  0  0  0  0  0  0  0  0  0  0
   11.9013    3.7991  -57.8031 H   0  0  0  0  0  0  0  0  0  0  0  0
   11.0557    4.4249  -59.8682 H   0  0  0  0  0  0  0  0  0  0  0  0
   10.8728    2.6067  -61.0112 H   0  0  0  0  0  0  0  0  0  0  0  0
   10.5634    1.7252  -59.4215 H   0  0  0  0  0  0  0  0  0  0  0  0
    8.8981    1.2583  -61.3278 H   0  0  0  0  0  0  0  0  0  0  0  0
    8.8846    3.7040  -62.0091 H   0  0  0  0  0  0  0  0  0  0  0  0
    7.2772    2.9499  -61.8168 H   0  0  0  0  0  0  0  0  0  0  0  0
    7.4269    5.1805  -60.7155 H   0  0  0  0  0  0  0  0  0  0  0  0
    9.4472    5.6895  -60.0063 H   0  0  0  0  0  0  0  0  0  0  0  0
    8.7479    4.9527  -58.4430 H   0  0  0  0  0  0  0  0  0  0  0  0
    6.8730    4.2309  -58.3106 H   0  0  0  0  0  0  0  0  0  0  0  0
    5.7965    3.9936  -59.8092 H   0  0  0  0  0  0  0  0  0  0  0  0
    5.6722    1.9499  -60.9670 H   0  0  0  0  0  0  0  0  0  0  0  0
    5.6575    0.4902  -59.8421 H   0  0  0  0  0  0  0  0  0  0  0  0
    3.6312    0.9227  -59.2896 H   0  0  0  0  0  0  0  0  0  0  0  0
    2.5420    3.2368  -60.1606 H   0  0  0  0  0  0  0  0  0  0  0  0
    3.9843    3.1804  -61.2297 H   0  0  0  0  0  0  0  0  0  0  0  0
    2.8127    1.8189  -61.2297 H   0  0  0  0  0  0  0  0  0  0  0  0
    4.2819    3.7498  -58.4162 H   0  0  0  0  0  0  0  0  0  0  0  0
    3.0151    2.6233  -57.7921 H   0  0  0  0  0  0  0  0  0  0  0  0
    8.6434    1.4886  -58.5387 H   0  0  0  0  0  0  0  0  0  0  0  0
    7.6896    0.4955  -59.7889 H   0  0  0  0  0  0  0  0  0  0  0  0
  1  2  1  0
  2  3  1  0
  3  4  1  0
  4  5  2  0
  5  6  1  0
  6  7  2  0
  7  8  1  0
  7  9  1  0
  9 10  1  0
 10 11  2  0
 11 12  1  0
 12 13  1  0
 13 14  1  0
 14 15  1  0
 15 16  1  0
 16 17  1  0
 16 18  1  0
 18 19  1  0
 19 20  1  6
 20 21  1  0
 21 22  1  0
 21 23  1  0
 23 24  1  0
 24 25  2  0
 19 26  1  0
  8  3  2  0
 17 12  1  0
 25 19  1  0
 25  6  1  0
 26 14  1  0
  1 27  1  0
  1 28  1  0
  1 29  1  0
  4 30  1  0
  5 31  1  0
  8 32  1  0
  9 33  1  0
 10 34  1  0
 11 35  1  0
 12 36  1  6
 13 37  1  0
 13 38  1  0
 14 39  1  6
 15 40  1  0
 15 41  1  0
 16 42  1  6
 17 43  1  0
 17 44  1  0
 18 45  1  0
 18 46  1  0
 20 47  1  0
 20 48  1  0
 21 49  1  1
 22 50  1  0
 22 51  1  0
 22 52  1  0
 23 53  1  0
 23 54  1  0
 26 55  1  0
 26 56  1  0
M  END
>  <meeko>  (177) 
{"is_sidechain": false}

$$$$

     RDKit          3D

 56 60  0  0  0  0  0  0  0  0999 V2000
    8.1970   -1.4960  -52.7910 C   0  0  0  0  0  0  0  0  0  0  0  0
    8.8800   -0.4160  -53.4170 O   0  0  0  0  0  0  0  0  0  0  0  0
    8.2830    0.1410  -54.5150 C   0  0  0  0  0  0  0  0  0  0  0  0
    7.1650   -0.3540  -55.1750 C   0  0  0  0  0  0  0  0  0  0  0  0
    6.6570    0.3310  -56.2790 C   0  0  0  0  0  0  0  0  0  0  0  0
    7.2700    1.5070  -56.7500 C   0  0  0  0  0  0  0  0  0  0  0  0
    8.4110    2.0200  -56.0990 C   0  0  0  0  0  0  0  0  0  0  0  0
    8.8890    1.3170  -54.9760 C   0  0  0  0  0  0  0  0  0  0  0  0
    9.0460    3.2150  -56.5320 N   0  0  0  0  0  0  0  0  0  0  0  0
   10.4040    3.4080  -56.4800 C   0  0  0  0  0  0  0  0  0  0  0  0
   11.2330    3.7600  -57.4710 C   0  0  0  0  0  0  0  0  0  0  0  0
   10.9430    3.9970  -58.9410 C   0  0  1  0  0  0  0  0  0  0  0  0
   10.9880    2.6850  -59.7560 C   0  0  0  0  0  0  0  0  0  0  0  0
    9.6740    2.2900  -60.4540 C   0  0  2  0  0  0  0  0  0  0  0  0
    9.1600    3.5010  -61.2110 C   0  0  0  0  0  0  0  0  0  0  0  0
    8.6720    4.5150  -60.1990 C   0  0  2  0  0  0  0  0  0  0  0  0
    9.7930    4.9820  -59.2530 C   0  0  0  0  0  0  0  0  0  0  0  0
    7.4250    3.9870  -59.4710 C   0  0  0  0  0  0  0  0  0  0  0  0
    7.3050    2.4430  -59.2720 C   0  0  2  0  0  0  0  0  0  0  0  0
    6.3130    1.8260  -60.3090 C   0  0  0  0  0  0  0  0  0  0  0  0
    4.8660    2.3430  -60.1990 C   0  0  1  0  0  0  0  0  0  0  0  0
    3.8770    1.2150  -60.5130 C   0  0  0  0  0  0  0  0  0  0  0  0
    4.5600    2.9830  -58.8440 C   0  0  0  0  0  0  0  0  0  0  0  0
    5.3170    2.3810  -57.7540 N   0  0  0  0  0  0  0  0  0  0  0  0
    6.5810    2.1500  -57.9160 C   0  0  0  0  0  0  0  0  0  0  0  0
    8.6610    1.6970  -59.4500 C   0  0  0  0  0  0  0  0  0  0  0  0
    8.2649   -1.3887  -51.6984 H   0  0  0  0  0  0  0  0  0  0  0  0
    7.1400   -1.4871  -53.0954 H   0  0  0  0  0  0  0  0  0  0  0  0
    8.6582   -2.4472  -53.0954 H   0  0  0  0  0  0  0  0  0  0  0  0
    6.6833   -1.2805  -54.8291 H   0  0  0  0  0  0  0  0  0  0  0  0
    5.7624   -0.0545  -56.7899 H   0  0  0  0  0  0  0  0  0  0  0  0
    9.7691    1.7050  -54.4422 H   0  0  0  0  0  0  0  0  0  0  0  0
    8.6570    3.5430  -57.4030 H   0  0  0  0  0  0  0  0  0  0  0  0
   10.8721    3.2535  -55.4966 H   0  0  0  0  0  0  0  0  0  0  0  0
   12.2831    3.8982  -57.1742 H   0  0  0  0  0  0  0  0  0  0  0  0
   11.7856    4.5895  -59.3269 H   0  0  0  0  0  0  0  0  0  0  0  0
   11.7627    2.7934  -60.5294 H   0  0  0  0  0  0  0  0  0  0  0  0
   11.1943    1.8860  -59.0287 H   0  0  0  0  0  0  0  0  0  0  0  0
    9.8436    1.4829  -61.1819 H   0  0  0  0  0  0  0  0  0  0  0  0
    9.9710    3.9360  -61.8136 H   0  0  0  0  0  0  0  0  0  0  0  0
    8.3407    3.2100  -61.8848 H   0  0  0  0  0  0  0  0  0  0  0  0
    8.3651    5.4245  -60.7362 H   0  0  0  0  0  0  0  0  0  0  0  0
   10.2447    5.8796  -59.7006 H   0  0  0  0  0  0  0  0  0  0  0  0
    9.2900    5.1290  -58.2858 H   0  0  0  0  0  0  0  0  0  0  0  0
    7.4053    4.4501  -58.4734 H   0  0  0  0  0  0  0  0  0  0  0  0
    6.5841    4.2505  -60.1294 H   0  0  0  0  0  0  0  0  0  0  0  0
    6.6841    2.0573  -61.3183 H   0  0  0  0  0  0  0  0  0  0  0  0
    6.2750    0.7467  -60.0998 H   0  0  0  0  0  0  0  0  0  0  0  0
    4.7510    3.1427  -60.9455 H   0  0  0  0  0  0  0  0  0  0  0  0
    3.5003    0.7854  -59.5730 H   0  0  0  0  0  0  0  0  0  0  0  0
    3.0351    1.6171  -61.0957 H   0  0  0  0  0  0  0  0  0  0  0  0
    4.3858    0.4329  -61.0957 H   0  0  0  0  0  0  0  0  0  0  0  0
    4.8087    4.0533  -58.8961 H   0  0  0  0  0  0  0  0  0  0  0  0
    3.4920    2.8233  -58.6347 H   0  0  0  0  0  0  0  0  0  0  0  0
    9.1518    1.6660  -58.4660 H   0  0  0  0  0  0  0  0  0  0  0  0
    8.3893    0.7177  -59.8710 H   0  0  0  0  0  0  0  0  0  0  0  0
  1  2  1  0
  2  3  1  0
  3  4  1  0
  4  5  2  0
  5  6  1  0
  6  7  2  0
  7  8  1  0
  7  9  1  0
  9 10  1  0
 10 11  2  0
 11 12  1  0
 12 13  1  0
 13 14  1  0
 14 15  1  0
 15 16  1  0
 16 17  1  0
 16 18  1  0
 18 19  1  0
 19 20  1  6
 20 21  1  0
 21 22  1  0
 21 23  1  0
 23 24  1  0
 24 25  2  0
 19 26  1  0
  8  3  2  0
 17 12  1  0
 25 19  1  0
 25  6  1  0
 26 14  1  0
  1 27  1  0
  1 28  1  0
  1 29  1  0
  4 30  1  0
  5 31  1  0
  8 32  1  0
  9 33  1  0
 10 34  1  0
 11 35  1  0
 12 36  1  6
 13 37  1  0
 13 38  1  0
 14 39  1  6
 15 40  1  0
 15 41  1  0
 16 42  1  6
 17 43  1  0
 17 44  1  0
 18 45  1  0
 18 46  1  0
 20 47  1  0
 20 48  1  0
 21 49  1  6
 22 50  1  0
 22 51  1  0
 22 52  1  0
 23 53  1  0
 23 54  1  0
 26 55  1  0
 26 56  1  0
M  END
>  <meeko>  (178) 
{"is_sidechain": false}

$$$$

     RDKit          3D

 56 60  0  0  0  0  0  0  0  0999 V2000
    7.5380   -0.9800  -52.9710 C   0  0  0  0  0  0  0  0  0  0  0  0
    8.5930   -0.4090  -53.7360 O   0  0  0  0  0  0  0  0  0  0  0  0
    8.2500    0.4260  -54.7730 C   0  0  0  0  0  0  0  0  0  0  0  0
    6.8760    0.2570  -55.1810 C   0  0  0  0  0  0  0  0  0  0  0  0
    6.4030    0.8040  -56.3110 C   0  0  0  0  0  0  0  0  0  0  0  0
    7.2640    1.6140  -57.1780 C   0  0  0  0  0  0  0  0  0  0  0  0
    8.4780    2.1970  -56.4700 C   0  0  0  0  0  0  0  0  0  0  0  0
    9.0340    1.3340  -55.3740 C   0  0  0  0  0  0  0  0  0  0  0  0
    8.9190    3.3700  -56.8080 N   0  0  0  0  0  0  0  0  0  0  0  0
    9.9910    3.9160  -56.1770 C   0  0  0  0  0  0  0  0  0  0  0  0
   10.9800    4.5150  -56.8490 C   0  0  0  0  0  0  0  0  0  0  0  0
   11.0800    4.6840  -58.3520 C   0  0  1  0  0  0  0  0  0  0  0  0
   11.5380    3.3950  -59.0720 C   0  0  0  0  0  0  0  0  0  0  0  0
   10.5620    2.8110  -60.1110 C   0  0  2  0  0  0  0  0  0  0  0  0
   10.0310    3.9520  -60.9620 C   0  0  0  0  0  0  0  0  0  0  0  0
    9.1030    4.7900  -60.1070 C   0  0  2  0  0  0  0  0  0  0  0  0
    9.9060    5.4740  -58.9830 C   0  0  0  0  0  0  0  0  0  0  0  0
    7.8840    3.9970  -59.5910 C   0  0  0  0  0  0  0  0  0  0  0  0
    7.9790    2.4410  -59.5880 C   0  0  2  0  0  0  0  0  0  0  0  0
    7.5200    1.8330  -60.9810 C   0  0  0  0  0  0  0  0  0  0  0  0
    6.0410    1.9770  -61.3780 C   0  0  2  0  0  0  0  0  0  0  0  0
    5.8140    3.0190  -62.4730 C   0  0  0  0  0  0  0  0  0  0  0  0
    5.1520    2.2280  -60.1730 C   0  0  0  0  0  0  0  0  0  0  0  0
    5.6990    1.5370  -59.0180 N   0  0  0  0  0  0  0  0  0  0  0  0
    6.9770    1.8530  -58.4950 C   0  0  0  0  0  0  0  0  0  0  0  0
    9.4650    1.9470  -59.4450 C   0  0  0  0  0  0  0  0  0  0  0  0
    7.7565   -0.8617  -51.8994 H   0  0  0  0  0  0  0  0  0  0  0  0
    6.5934   -0.4700  -53.2111 H   0  0  0  0  0  0  0  0  0  0  0  0
    7.4484   -2.0497  -53.2111 H   0  0  0  0  0  0  0  0  0  0  0  0
    6.1987   -0.3359  -54.5488 H   0  0  0  0  0  0  0  0  0  0  0  0
    5.3518    0.6420  -56.5916 H   0  0  0  0  0  0  0  0  0  0  0  0
   10.0835    1.4462  -55.0641 H   0  0  0  0  0  0  0  0  0  0  0  0
   10.0473    3.8638  -55.0797 H   0  0  0  0  0  0  0  0  0  0  0  0
   11.8052    4.9272  -56.2498 H   0  0  0  0  0  0  0  0  0  0  0  0
   11.9158    5.3740  -58.5399 H   0  0  0  0  0  0  0  0  0  0  0  0
   12.4837    3.6172  -59.5881 H   0  0  0  0  0  0  0  0  0  0  0  0
   11.6195    2.6317  -58.2841 H   0  0  0  0  0  0  0  0  0  0  0  0
   11.0833    2.1098  -60.7792 H   0  0  0  0  0  0  0  0  0  0  0  0
   10.8677    4.5704  -61.3192 H   0  0  0  0  0  0  0  0  0  0  0  0
    9.4892    3.5552  -61.8332 H   0  0  0  0  0  0  0  0  0  0  0  0
    8.6682    5.5788  -60.7385 H   0  0  0  0  0  0  0  0  0  0  0  0
   10.3212    6.4051  -59.3960 H   0  0  0  0  0  0  0  0  0  0  0  0
    9.1837    5.6000  -58.1630 H   0  0  0  0  0  0  0  0  0  0  0  0
    7.6990    4.3166  -58.5548 H   0  0  0  0  0  0  0  0  0  0  0  0
    7.0812    4.2247  -60.3077 H   0  0  0  0  0  0  0  0  0  0  0  0
    8.1183    2.3213  -61.7644 H   0  0  0  0  0  0  0  0  0  0  0  0
    7.6714    0.7490  -60.8716 H   0  0  0  0  0  0  0  0  0  0  0  0
    5.7484    1.0083  -61.8092 H   0  0  0  0  0  0  0  0  0  0  0  0
    5.6014    3.9949  -62.0121 H   0  0  0  0  0  0  0  0  0  0  0  0
    6.7162    3.0972  -63.0975 H   0  0  0  0  0  0  0  0  0  0  0  0
    4.9611    2.7148  -63.0975 H   0  0  0  0  0  0  0  0  0  0  0  0
    5.1080    3.3078  -59.9679 H   0  0  0  0  0  0  0  0  0  0  0  0
    4.1385    1.8535  -60.3795 H   0  0  0  0  0  0  0  0  0  0  0  0
    4.9940    1.4370  -58.2940 H   0  0  0  0  0  0  0  0  0  0  0  0
    9.6938    1.8914  -58.3705 H   0  0  0  0  0  0  0  0  0  0  0  0
    9.4977    0.9852  -59.9778 H   0  0  0  0  0  0  0  0  0  0  0  0
  1  2  1  0
  2  3  1  0
  3  4  1  0
  4  5  2  0
  5  6  1  0
  6  7  1  0
  7  8  1  0
  7  9  2  0
  9 10  1  0
 10 11  2  0
 11 12  1  0
 12 13  1  0
 13 14  1  0
 14 15  1  0
 15 16  1  0
 16 17  1  0
 16 18  1  0
 18 19  1  0
 19 20  1  6
 20 21  1  0
 21 22  1  0
 21 23  1  0
 23 24  1  0
 24 25  1  0
 19 26  1  0
  8  3  2  0
 17 12  1  0
 25 19  1  0
 25  6  2  0
 26 14  1  0
  1 27  1  0
  1 28  1  0
  1 29  1  0
  4 30  1  0
  5 31  1  0
  8 32  1  0
 10 33  1  0
 11 34  1  0
 12 35  1  1
 13 36  1  0
 13 37  1  0
 14 38  1  6
 15 39  1  0
 15 40  1  0
 16 41  1  6
 17 42  1  0
 17 43  1  0
 18 44  1  0
 18 45  1  0
 20 46  1  0
 20 47  1  0
 21 48  1  6
 22 49  1  0
 22 50  1  0
 22 51  1  0
 23 52  1  0
 23 53  1  0
 24 54  1  0
 26 55  1  0
 26 56  1  0
M  END
>  <meeko>  (179) 
{"is_sidechain": false}

$$$$

     RDKit          3D

 56 60  0  0  0  0  0  0  0  0999 V2000
    7.3040   -0.4530  -52.9220 C   0  0  0  0  0  0  0  0  0  0  0  0
    8.1580   -0.5990  -54.0570 O   0  0  0  0  0  0  0  0  0  0  0  0
    7.8430    0.3190  -55.0340 C   0  0  0  0  0  0  0  0  0  0  0  0
    6.4430    0.4860  -55.3400 C   0  0  0  0  0  0  0  0  0  0  0  0
    6.0650    1.1980  -56.4120 C   0  0  0  0  0  0  0  0  0  0  0  0
    7.0660    1.8210  -57.2940 C   0  0  0  0  0  0  0  0  0  0  0  0
    8.3470    2.1740  -56.5500 C   0  0  0  0  0  0  0  0  0  0  0  0
    8.7700    1.1320  -55.5560 C   0  0  0  0  0  0  0  0  0  0  0  0
    8.9500    3.2970  -56.7760 N   0  0  0  0  0  0  0  0  0  0  0  0
   10.0810    3.6200  -56.0980 C   0  0  0  0  0  0  0  0  0  0  0  0
   11.1340    4.1620  -56.7200 C   0  0  0  0  0  0  0  0  0  0  0  0
   11.2210    4.4660  -58.2000 C   0  0  1  0  0  0  0  0  0  0  0  0
   11.5110    3.1970  -59.0370 C   0  0  0  0  0  0  0  0  0  0  0  0
   10.4890    2.8540  -60.1370 C   0  0  2  0  0  0  0  0  0  0  0  0
   10.1040    4.1450  -60.8390 C   0  0  0  0  0  0  0  0  0  0  0  0
    9.2470    4.9630  -59.8920 C   0  0  2  0  0  0  0  0  0  0  0  0
   10.1190    5.4330  -58.7100 C   0  0  0  0  0  0  0  0  0  0  0  0
    7.9460    4.2460  -59.4460 C   0  0  0  0  0  0  0  0  0  0  0  0
    7.8710    2.6990  -59.6620 C   0  0  2  0  0  0  0  0  0  0  0  0
    7.3820    2.4420  -61.1470 C   0  0  0  0  0  0  0  0  0  0  0  0
    5.8830    2.6330  -61.3720 C   0  0  1  0  0  0  0  0  0  0  0  0
    5.5220    2.4800  -62.8490 C   0  0  0  0  0  0  0  0  0  0  0  0
    5.1770    1.5880  -60.5400 C   0  0  0  0  0  0  0  0  0  0  0  0
    5.5660    1.7090  -59.1550 N   0  0  0  0  0  0  0  0  0  0  0  0
    6.8290    2.0580  -58.6260 C   0  0  0  0  0  0  0  0  0  0  0  0
    9.2920    2.0390  -59.5850 C   0  0  0  0  0  0  0  0  0  0  0  0
    7.8973   -0.5544  -52.0013 H   0  0  0  0  0  0  0  0  0  0  0  0
    6.8298    0.5393  -52.9452 H   0  0  0  0  0  0  0  0  0  0  0  0
    6.5271   -1.2314  -52.9452 H   0  0  0  0  0  0  0  0  0  0  0  0
    5.6822    0.0274  -54.6913 H   0  0  0  0  0  0  0  0  0  0  0  0
    4.9945    1.3179  -56.6349 H   0  0  0  0  0  0  0  0  0  0  0  0
    9.8255    1.0377  -55.2609 H   0  0  0  0  0  0  0  0  0  0  0  0
   10.1325    3.4322  -55.0154 H   0  0  0  0  0  0  0  0  0  0  0  0
   12.0112    4.4076  -56.1034 H   0  0  0  0  0  0  0  0  0  0  0  0
   12.1175    5.0810  -58.3678 H   0  0  0  0  0  0  0  0  0  0  0  0
   12.4902    3.3311  -59.5199 H   0  0  0  0  0  0  0  0  0  0  0  0
   11.4654    2.3602  -58.3245 H   0  0  0  0  0  0  0  0  0  0  0  0
   10.9345    2.1817  -60.8851 H   0  0  0  0  0  0  0  0  0  0  0  0
   11.0103    4.7098  -61.1028 H   0  0  0  0  0  0  0  0  0  0  0  0
    9.5461    3.9240  -61.7609 H   0  0  0  0  0  0  0  0  0  0  0  0
    8.8778    5.8451  -60.4358 H   0  0  0  0  0  0  0  0  0  0  0  0
   10.6158    6.3649  -59.0178 H   0  0  0  0  0  0  0  0  0  0  0  0
    9.4188    5.5276  -57.8669 H   0  0  0  0  0  0  0  0  0  0  0  0
    7.8156    4.4364  -58.3705 H   0  0  0  0  0  0  0  0  0  0  0  0
    7.1586    4.6605  -60.0926 H   0  0  0  0  0  0  0  0  0  0  0  0
    7.9184    3.1379  -61.8088 H   0  0  0  0  0  0  0  0  0  0  0  0
    7.5945    1.3847  -61.3635 H   0  0  0  0  0  0  0  0  0  0  0  0
    5.5760    3.6467  -61.0750 H   0  0  0  0  0  0  0  0  0  0  0  0
    4.5125    2.0521  -62.9373 H   0  0  0  0  0  0  0  0  0  0  0  0
    5.5464    3.4658  -63.3364 H   0  0  0  0  0  0  0  0  0  0  0  0
    6.2473    1.8119  -63.3364 H   0  0  0  0  0  0  0  0  0  0  0  0
    4.0894    1.7287  -60.6258 H   0  0  0  0  0  0  0  0  0  0  0  0
    5.4557    0.5887  -60.9057 H   0  0  0  0  0  0  0  0  0  0  0  0
    5.0340    1.0770  -58.5680 H   0  0  0  0  0  0  0  0  0  0  0  0
    9.4992    1.8249  -58.5261 H   0  0  0  0  0  0  0  0  0  0  0  0
    9.2276    1.1568  -60.2389 H   0  0  0  0  0  0  0  0  0  0  0  0
  1  2  1  0
  2  3  1  0
  3  4  1  0
  4  5  2  0
  5  6  1  0
  6  7  1  0
  7  8  1  0
  7  9  2  0
  9 10  1  0
 10 11  2  0
 11 12  1  0
 12 13  1  0
 13 14  1  0
 14 15  1  0
 15 16  1  0
 16 17  1  0
 16 18  1  0
 18 19  1  0
 19 20  1  6
 20 21  1  0
 21 22  1  0
 21 23  1  0
 23 24  1  0
 24 25  1  0
 19 26  1  0
  8  3  2  0
 17 12  1  0
 25 19  1  0
 25  6  2  0
 26 14  1  0
  1 27  1  0
  1 28  1  0
  1 29  1  0
  4 30  1  0
  5 31  1  0
  8 32  1  0
 10 33  1  0
 11 34  1  0
 12 35  1  1
 13 36  1  0
 13 37  1  0
 14 38  1  6
 15 39  1  0
 15 40  1  0
 16 41  1  6
 17 42  1  0
 17 43  1  0
 18 44  1  0
 18 45  1  0
 20 46  1  0
 20 47  1  0
 21 48  1  1
 22 49  1  0
 22 50  1  0
 22 51  1  0
 23 52  1  0
 23 53  1  0
 24 54  1  0
 26 55  1  0
 26 56  1  0
M  END
>  <meeko>  (180) 
{"is_sidechain": false}

$$$$

     RDKit          3D

 56 60  0  0  0  0  0  0  0  0999 V2000
    8.2830   -2.5180  -54.2220 C   0  0  0  0  0  0  0  0  0  0  0  0
    9.3050   -1.5360  -54.3510 O   0  0  0  0  0  0  0  0  0  0  0  0
    8.9640   -0.3500  -54.9560 C   0  0  0  0  0  0  0  0  0  0  0  0
    7.5670   -0.0080  -54.7590 C   0  0  0  0  0  0  0  0  0  0  0  0
    6.9710    0.9500  -55.4880 C   0  0  0  0  0  0  0  0  0  0  0  0
    7.7460    1.6500  -56.5210 C   0  0  0  0  0  0  0  0  0  0  0  0
    9.2040    1.7710  -56.1240 C   0  0  0  0  0  0  0  0  0  0  0  0
    9.7800    0.4850  -55.6240 C   0  0  0  0  0  0  0  0  0  0  0  0
    9.9710    2.8170  -56.0730 N   0  0  0  0  0  0  0  0  0  0  0  0
    9.3670    4.0300  -56.1570 C   0  0  0  0  0  0  0  0  0  0  0  0
    9.6150    4.9920  -57.0490 C   0  0  0  0  0  0  0  0  0  0  0  0
   10.4820    5.0340  -58.2840 C   0  0  1  0  0  0  0  0  0  0  0  0
   11.2280    3.7650  -58.7490 C   0  0  0  0  0  0  0  0  0  0  0  0
   10.5140    2.8500  -59.7710 C   0  0  2  0  0  0  0  0  0  0  0  0
    9.8770    3.6560  -60.8840 C   0  0  0  0  0  0  0  0  0  0  0  0
    8.8770    4.6080  -60.2540 C   0  0  2  0  0  0  0  0  0  0  0  0
    9.6670    5.6490  -59.4430 C   0  0  0  0  0  0  0  0  0  0  0  0
    7.8010    3.8890  -59.4050 C   0  0  0  0  0  0  0  0  0  0  0  0
    7.9820    2.3640  -59.0790 C   0  0  2  0  0  0  0  0  0  0  0  0
    7.2540    1.5290  -60.2200 C   0  0  0  0  0  0  0  0  0  0  0  0
    5.7140    1.6140  -60.3120 C   0  0  2  0  0  0  0  0  0  0  0  0
    5.2440    2.2780  -61.6060 C   0  0  0  0  0  0  0  0  0  0  0  0
    5.0820    2.2690  -59.0930 C   0  0  0  0  0  0  0  0  0  0  0  0
    5.8100    1.8840  -57.9080 N   0  0  0  0  0  0  0  0  0  0  0  0
    7.2070    1.9850  -57.7340 C   0  0  0  0  0  0  0  0  0  0  0  0
    9.4830    1.8880  -59.1690 C   0  0  0  0  0  0  0  0  0  0  0  0
    8.0875   -2.7059  -53.1559 H   0  0  0  0  0  0  0  0  0  0  0  0
    7.3635   -2.1559  -54.7052 H   0  0  0  0  0  0  0  0  0  0  0  0
    8.6081   -3.4512  -54.7052 H   0  0  0  0  0  0  0  0  0  0  0  0
    6.9839   -0.5449  -53.9963 H   0  0  0  0  0  0  0  0  0  0  0  0
    5.9158    1.2071  -55.3136 H   0  0  0  0  0  0  0  0  0  0  0  0
   10.8361    0.2302  -55.7967 H   0  0  0  0  0  0  0  0  0  0  0  0
    8.5890    4.2433  -55.4092 H   0  0  0  0  0  0  0  0  0  0  0  0
    9.0862    5.9347  -56.8448 H   0  0  0  0  0  0  0  0  0  0  0  0
   11.3319    5.6544  -57.9634 H   0  0  0  0  0  0  0  0  0  0  0  0
   12.1765    4.0883  -59.2028 H   0  0  0  0  0  0  0  0  0  0  0  0
   11.3251    3.1496  -57.8425 H   0  0  0  0  0  0  0  0  0  0  0  0
   11.3177    2.2180  -60.1767 H   0  0  0  0  0  0  0  0  0  0  0  0
   10.6487    4.2262  -61.4219 H   0  0  0  0  0  0  0  0  0  0  0  0
    9.3744    2.9903  -61.6011 H   0  0  0  0  0  0  0  0  0  0  0  0
    8.3029    5.1071  -61.0486 H   0  0  0  0  0  0  0  0  0  0  0  0
   10.3614    6.1659  -60.1217 H   0  0  0  0  0  0  0  0  0  0  0  0
    8.9340    6.3364  -58.9955 H   0  0  0  0  0  0  0  0  0  0  0  0
    7.7420    4.4194  -58.4431 H   0  0  0  0  0  0  0  0  0  0  0  0
    6.9023    3.9183  -60.0386 H   0  0  0  0  0  0  0  0  0  0  0  0
    7.6585    1.8711  -61.1840 H   0  0  0  0  0  0  0  0  0  0  0  0
    7.4558    0.4788  -59.9625 H   0  0  0  0  0  0  0  0  0  0  0  0
    5.3618    0.5721  -60.3303 H   0  0  0  0  0  0  0  0  0  0  0  0
    4.6240    3.1539  -61.3644 H   0  0  0  0  0  0  0  0  0  0  0  0
    6.1180    2.5979  -62.1924 H   0  0  0  0  0  0  0  0  0  0  0  0
    4.6518    1.5601  -62.1924 H   0  0  0  0  0  0  0  0  0  0  0  0
    5.1165    3.3627  -59.2053 H   0  0  0  0  0  0  0  0  0  0  0  0
    4.0355    1.9423  -59.0026 H   0  0  0  0  0  0  0  0  0  0  0  0
    5.2720    1.9890  -57.0530 H   0  0  0  0  0  0  0  0  0  0  0  0
    9.8130    1.6550  -58.1459 H   0  0  0  0  0  0  0  0  0  0  0  0
    9.4585    1.0413  -59.8707 H   0  0  0  0  0  0  0  0  0  0  0  0
  1  2  1  0
  2  3  1  0
  3  4  1  0
  4  5  2  0
  5  6  1  0
  6  7  1  0
  7  8  1  0
  7  9  2  0
  9 10  1  0
 10 11  2  0
 11 12  1  0
 12 13  1  0
 13 14  1  0
 14 15  1  0
 15 16  1  0
 16 17  1  0
 16 18  1  0
 18 19  1  0
 19 20  1  6
 20 21  1  0
 21 22  1  0
 21 23  1  0
 23 24  1  0
 24 25  1  0
 19 26  1  0
  8  3  2  0
 17 12  1  0
 25 19  1  0
 25  6  2  0
 26 14  1  0
  1 27  1  0
  1 28  1  0
  1 29  1  0
  4 30  1  0
  5 31  1  0
  8 32  1  0
 10 33  1  0
 11 34  1  0
 12 35  1  1
 13 36  1  0
 13 37  1  0
 14 38  1  6
 15 39  1  0
 15 40  1  0
 16 41  1  6
 17 42  1  0
 17 43  1  0
 18 44  1  0
 18 45  1  0
 20 46  1  0
 20 47  1  0
 21 48  1  6
 22 49  1  0
 22 50  1  0
 22 51  1  0
 23 52  1  0
 23 53  1  0
 24 54  1  0
 26 55  1  0
 26 56  1  0
M  END
>  <meeko>  (181) 
{"is_sidechain": false}

$$$$

     RDKit          3D

 56 60  0  0  0  0  0  0  0  0999 V2000
   13.1500    7.8940  -60.3500 C   0  0  0  0  0  0  0  0  0  0  0  0
   13.3160    6.9000  -59.3450 O   0  0  0  0  0  0  0  0  0  0  0  0
   12.5470    5.7660  -59.4510 C   0  0  0  0  0  0  0  0  0  0  0  0
   13.2860    4.5600  -59.1220 C   0  0  0  0  0  0  0  0  0  0  0  0
   12.6590    3.3940  -58.8940 C   0  0  0  0  0  0  0  0  0  0  0  0
   11.1920    3.3450  -58.9590 C   0  0  0  0  0  0  0  0  0  0  0  0
   10.6560    4.3290  -59.9810 C   0  0  0  0  0  0  0  0  0  0  0  0
   11.2670    5.6880  -59.8570 C   0  0  0  0  0  0  0  0  0  0  0  0
    9.8360    4.1420  -60.9700 N   0  0  0  0  0  0  0  0  0  0  0  0
    9.5750    2.8550  -61.3190 C   0  0  0  0  0  0  0  0  0  0  0  0
    8.3790    2.2660  -61.3820 C   0  0  0  0  0  0  0  0  0  0  0  0
    6.9990    2.7220  -60.9770 C   0  0  1  0  0  0  0  0  0  0  0  0
    6.3220    1.6000  -60.1610 C   0  0  0  0  0  0  0  0  0  0  0  0
    6.5960    1.6910  -58.6500 C   0  0  2  0  0  0  0  0  0  0  0  0
    6.0130    3.0000  -58.1510 C   0  0  0  0  0  0  0  0  0  0  0  0
    6.8330    4.1270  -58.7450 C   0  0  2  0  0  0  0  0  0  0  0  0
    6.8080    4.0930  -60.2910 C   0  0  0  0  0  0  0  0  0  0  0  0
    8.2330    4.1360  -58.1210 C   0  0  0  0  0  0  0  0  0  0  0  0
    8.8920    2.7520  -57.7480 C   0  0  2  0  0  0  0  0  0  0  0  0
    8.8040    2.7100  -56.1600 C   0  0  0  0  0  0  0  0  0  0  0  0
    9.5190    1.5560  -55.4240 C   0  0  1  0  0  0  0  0  0  0  0  0
    8.5380    0.6270  -54.7070 C   0  0  0  0  0  0  0  0  0  0  0  0
   10.4630    0.7720  -56.3230 C   0  0  0  0  0  0  0  0  0  0  0  0
   11.1080    1.6750  -57.2470 N   0  0  0  0  0  0  0  0  0  0  0  0
   10.4490    2.6070  -58.0780 C   0  0  0  0  0  0  0  0  0  0  0  0
    8.0960    1.5220  -58.3110 C   0  0  0  0  0  0  0  0  0  0  0  0
   12.9866    8.8724  -59.8746 H   0  0  0  0  0  0  0  0  0  0  0  0
   14.0534    7.9369  -60.9761 H   0  0  0  0  0  0  0  0  0  0  0  0
   12.2817    7.6410  -60.9761 H   0  0  0  0  0  0  0  0  0  0  0  0
   14.3833    4.6022  -59.0581 H   0  0  0  0  0  0  0  0  0  0  0  0
   13.2367    2.4872  -58.6615 H   0  0  0  0  0  0  0  0  0  0  0  0
   10.6888    6.5942  -60.0901 H   0  0  0  0  0  0  0  0  0  0  0  0
   10.4433    2.2311  -61.5776 H   0  0  0  0  0  0  0  0  0  0  0  0
    8.4042    1.2537  -61.8117 H   0  0  0  0  0  0  0  0  0  0  0  0
    6.5144    2.9167  -61.9451 H   0  0  0  0  0  0  0  0  0  0  0  0
    5.2355    1.6590  -60.3222 H   0  0  0  0  0  0  0  0  0  0  0  0
    6.7437    0.6459  -60.5100 H   0  0  0  0  0  0  0  0  0  0  0  0
    6.1062    0.8559  -58.1277 H   0  0  0  0  0  0  0  0  0  0  0  0
    4.9649    3.0898  -58.4725 H   0  0  0  0  0  0  0  0  0  0  0  0
    6.0427    3.0403  -57.0521 H   0  0  0  0  0  0  0  0  0  0  0  0
    6.3792    5.0959  -58.4894 H   0  0  0  0  0  0  0  0  0  0  0  0
    5.8343    4.4902  -60.6137 H   0  0  0  0  0  0  0  0  0  0  0  0
    7.6827    4.6848  -60.5987 H   0  0  0  0  0  0  0  0  0  0  0  0
    8.9049    4.6354  -58.8346 H   0  0  0  0  0  0  0  0  0  0  0  0
    8.0971    4.6425  -57.1540 H   0  0  0  0  0  0  0  0  0  0  0  0
    9.2304    3.6516  -55.7839 H   0  0  0  0  0  0  0  0  0  0  0  0
    7.7364    2.5507  -55.9484 H   0  0  0  0  0  0  0  0  0  0  0  0
   10.1403    2.0382  -54.6549 H   0  0  0  0  0  0  0  0  0  0  0  0
    8.6558    0.7386  -53.6190 H   0  0  0  0  0  0  0  0  0  0  0  0
    7.5088    0.8893  -54.9932 H   0  0  0  0  0  0  0  0  0  0  0  0
    8.7439   -0.4150  -54.9932 H   0  0  0  0  0  0  0  0  0  0  0  0
   11.2248    0.2715  -55.7072 H   0  0  0  0  0  0  0  0  0  0  0  0
    9.8926    0.0178  -56.8850 H   0  0  0  0  0  0  0  0  0  0  0  0
   11.9720    1.3090  -57.6310 H   0  0  0  0  0  0  0  0  0  0  0  0
    8.6018    1.2064  -59.2354 H   0  0  0  0  0  0  0  0  0  0  0  0
    8.0990    0.8025  -57.4790 H   0  0  0  0  0  0  0  0  0  0  0  0
  1  2  1  0
  2  3  1  0
  3  4  1  0
  4  5  2  0
  5  6  1  0
  6  7  1  0
  7  8  1  0
  7  9  2  0
  9 10  1  0
 10 11  2  0
 11 12  1  0
 12 13  1  0
 13 14  1  0
 14 15  1  0
 15 16  1  0
 16 17  1  0
 16 18  1  0
 18 19  1  0
 19 20  1  1
 20 21  1  0
 21 22  1  0
 21 23  1  0
 23 24  1  0
 24 25  1  0
 19 26  1  0
  8  3  2  0
 17 12  1  0
 25 19  1  0
 25  6  2  0
 26 14  1  0
  1 27  1  0
  1 28  1  0
  1 29  1  0
  4 30  1  0
  5 31  1  0
  8 32  1  0
 10 33  1  0
 11 34  1  0
 12 35  1  6
 13 36  1  0
 13 37  1  0
 14 38  1  1
 15 39  1  0
 15 40  1  0
 16 41  1  1
 17 42  1  0
 17 43  1  0
 18 44  1  0
 18 45  1  0
 20 46  1  0
 20 47  1  0
 21 48  1  1
 22 49  1  0
 22 50  1  0
 22 51  1  0
 23 52  1  0
 23 53  1  0
 24 54  1  0
 26 55  1  0
 26 56  1  0
M  END
>  <meeko>  (182) 
{"is_sidechain": false}

$$$$

     RDKit          3D

 54 58  0  0  0  0  0  0  0  0999 V2000
    3.6600    0.7410  -61.9800 C   0  0  0  0  0  0  0  0  0  0  0  0
    4.4130    1.5780  -60.9910 C   0  0  0  0  0  0  0  0  0  0  0  0
    3.6540    2.1430  -59.8900 C   0  0  0  0  0  0  0  0  0  0  0  0
    4.2810    2.6470  -58.8170 C   0  0  0  0  0  0  0  0  0  0  0  0
    5.7500    2.6240  -58.7380 C   0  0  0  0  0  0  0  0  0  0  0  0
    6.3790    2.7560  -60.1140 C   0  0  0  0  0  0  0  0  0  0  0  0
    5.7250    1.8510  -61.1150 C   0  0  0  0  0  0  0  0  0  0  0  0
    7.2760    3.5380  -60.5940 N   0  0  0  0  0  0  0  0  0  0  0  0
    7.8880    4.5750  -59.8310 C   0  0  0  0  0  0  0  0  0  0  0  0
    9.1890    4.7220  -60.4840 N   0  0  0  0  0  0  0  0  0  0  0  0
   10.3570    5.2590  -59.7620 C   0  0  0  0  0  0  0  0  0  0  0  0
   10.8670    4.3920  -58.5950 C   0  0  1  0  0  0  0  0  0  0  0  0
   10.2470    4.8090  -57.2430 C   0  0  0  0  0  0  0  0  0  0  0  0
    9.8140    3.6980  -56.2730 C   0  0  2  0  0  0  0  0  0  0  0  0
   10.6210    2.4320  -56.4770 C   0  0  0  0  0  0  0  0  0  0  0  0
   10.3550    1.9180  -57.8810 C   0  0  2  0  0  0  0  0  0  0  0  0
   11.0120    2.8800  -58.8890 C   0  0  0  0  0  0  0  0  0  0  0  0
    8.8560    1.6960  -58.1930 C   0  0  0  0  0  0  0  0  0  0  0  0
    7.8420    2.1610  -57.1220 C   0  0  2  0  0  0  0  0  0  0  0  0
    7.6350    0.9920  -56.1000 C   0  0  0  0  0  0  0  0  0  0  0  0
    6.3210    1.2990  -55.3920 C   0  0  0  0  0  0  0  0  0  0  0  0
    5.5930    2.0560  -56.3970 N   0  0  0  0  0  0  0  0  0  0  0  0
    6.3500    2.3600  -57.5450 C   0  0  0  0  0  0  0  0  0  0  0  0
    8.3010    3.4350  -56.3460 C   0  0  0  0  0  0  0  0  0  0  0  0
    3.0180    0.0274  -61.4428 H   0  0  0  0  0  0  0  0  0  0  0  0
    3.0369    1.3913  -62.6116 H   0  0  0  0  0  0  0  0  0  0  0  0
    4.3723    0.1899  -62.6116 H   0  0  0  0  0  0  0  0  0  0  0  0
    2.5551    2.1578  -59.9363 H   0  0  0  0  0  0  0  0  0  0  0  0
    3.6947    3.0793  -57.9927 H   0  0  0  0  0  0  0  0  0  0  0  0
    6.3095    1.4163  -61.9392 H   0  0  0  0  0  0  0  0  0  0  0  0
    7.3066    5.5070  -59.8885 H   0  0  0  0  0  0  0  0  0  0  0  0
    7.9593    4.3462  -58.7574 H   0  0  0  0  0  0  0  0  0  0  0  0
    9.0110    5.2730  -61.3310 H   0  0  0  0  0  0  0  0  0  0  0  0
    9.3680    3.7830  -60.8520 H   0  0  0  0  0  0  0  0  0  0  0  0
   11.1789    5.3742  -60.4839 H   0  0  0  0  0  0  0  0  0  0  0  0
   10.0269    6.2077  -59.3137 H   0  0  0  0  0  0  0  0  0  0  0  0
   11.9334    4.6334  -58.4744 H   0  0  0  0  0  0  0  0  0  0  0  0
   10.9903    5.4284  -56.7197 H   0  0  0  0  0  0  0  0  0  0  0  0
    9.3094    5.3154  -57.5159 H   0  0  0  0  0  0  0  0  0  0  0  0
   10.0268    4.0537  -55.2541 H   0  0  0  0  0  0  0  0  0  0  0  0
   11.6924    2.6506  -56.3577 H   0  0  0  0  0  0  0  0  0  0  0  0
   10.3309    1.6739  -55.7346 H   0  0  0  0  0  0  0  0  0  0  0  0
   10.8036    0.9171  -57.9647 H   0  0  0  0  0  0  0  0  0  0  0  0
   12.0866    2.6473  -58.9215 H   0  0  0  0  0  0  0  0  0  0  0  0
   10.4802    2.7155  -59.8378 H   0  0  0  0  0  0  0  0  0  0  0  0
    8.6269    2.2354  -59.1239 H   0  0  0  0  0  0  0  0  0  0  0  0
    8.7334    0.6043  -58.2490 H   0  0  0  0  0  0  0  0  0  0  0  0
    7.5723    0.0279  -56.6260 H   0  0  0  0  0  0  0  0  0  0  0  0
    8.4728    0.9161  -55.3912 H   0  0  0  0  0  0  0  0  0  0  0  0
    5.7871    0.3748  -55.1261 H   0  0  0  0  0  0  0  0  0  0  0  0
    6.4496    1.8398  -54.4428 H   0  0  0  0  0  0  0  0  0  0  0  0
    4.6550    1.7010  -56.5760 H   0  0  0  0  0  0  0  0  0  0  0  0
    7.8355    4.3054  -56.8315 H   0  0  0  0  0  0  0  0  0  0  0  0
    7.9892    3.2643  -55.3050 H   0  0  0  0  0  0  0  0  0  0  0  0
  1  2  1  0
  2  3  1  0
  3  4  2  0
  4  5  1  0
  5  6  1  0
  6  7  1  0
  6  8  2  0
  8  9  1  0
  9 10  1  0
 10 11  1  0
 11 12  1  0
 12 13  1  0
 13 14  1  0
 14 15  1  0
 15 16  1  0
 16 17  1  0
 16 18  1  0
 18 19  1  0
 19 20  1  1
 20 21  1  0
 21 22  1  0
 22 23  1  0
 19 24  1  0
  7  2  2  0
 17 12  1  0
 23 19  1  0
 23  5  2  0
 24 14  1  0
  1 25  1  0
  1 26  1  0
  1 27  1  0
  3 28  1  0
  4 29  1  0
  7 30  1  0
  9 31  1  0
  9 32  1  0
 10 33  1  0
 10 34  1  0
 11 35  1  0
 11 36  1  0
 12 37  1  1
 13 38  1  0
 13 39  1  0
 14 40  1  1
 15 41  1  0
 15 42  1  0
 16 43  1  1
 17 44  1  0
 17 45  1  0
 18 46  1  0
 18 47  1  0
 20 48  1  0
 20 49  1  0
 21 50  1  0
 21 51  1  0
 22 52  1  0
 24 53  1  0
 24 54  1  0
M  CHG  1  10   1
M  END
>  <meeko>  (183) 
{"is_sidechain": false}

$$$$

     RDKit          3D

 54 58  0  0  0  0  0  0  0  0999 V2000
    8.8760   -1.0120  -53.2650 C   0  0  0  0  0  0  0  0  0  0  0  0
    8.2210   -0.2570  -54.3860 C   0  0  0  0  0  0  0  0  0  0  0  0
    6.8990   -0.5150  -54.7240 C   0  0  0  0  0  0  0  0  0  0  0  0
    6.2830    0.2310  -55.7240 C   0  0  0  0  0  0  0  0  0  0  0  0
    6.9680    1.2490  -56.4200 C   0  0  0  0  0  0  0  0  0  0  0  0
    8.3260    1.5170  -56.1070 C   0  0  0  0  0  0  0  0  0  0  0  0
    8.9080    0.7690  -55.0560 C   0  0  0  0  0  0  0  0  0  0  0  0
    9.0330    2.5730  -56.7220 N   0  0  0  0  0  0  0  0  0  0  0  0
   10.4570    2.6380  -56.6130 C   0  0  0  0  0  0  0  0  0  0  0  0
   10.7760    3.8850  -57.3060 N   0  0  0  0  0  0  0  0  0  0  0  0
   11.3260    3.8360  -58.6900 C   0  0  0  0  0  0  0  0  0  0  0  0
   10.2780    3.6700  -59.8080 C   0  0  1  0  0  0  0  0  0  0  0  0
    9.8400    2.2040  -60.0210 C   0  0  0  0  0  0  0  0  0  0  0  0
    8.4340    1.9590  -60.6070 C   0  0  2  0  0  0  0  0  0  0  0  0
    7.8510    3.2160  -61.2260 C   0  0  0  0  0  0  0  0  0  0  0  0
    7.7700    4.2860  -60.1500 C   0  0  2  0  0  0  0  0  0  0  0  0
    9.1820    4.7560  -59.7780 C   0  0  0  0  0  0  0  0  0  0  0  0
    6.9890    3.8410  -58.8950 C   0  0  0  0  0  0  0  0  0  0  0  0
    6.5210    2.3630  -58.8620 C   0  0  2  0  0  0  0  0  0  0  0  0
    5.1020    2.2880  -59.4780 C   0  0  0  0  0  0  0  0  0  0  0  0
    4.1980    2.7130  -58.3350 C   0  0  0  0  0  0  0  0  0  0  0  0
    4.8580    2.1950  -57.1310 N   0  0  0  0  0  0  0  0  0  0  0  0
    6.1020    1.9530  -57.4350 C   0  0  0  0  0  0  0  0  0  0  0  0
    7.4590    1.3580  -59.5700 C   0  0  0  0  0  0  0  0  0  0  0  0
    8.5286   -0.6116  -52.3011 H   0  0  0  0  0  0  0  0  0  0  0  0
    8.6111   -2.0772  -53.3364 H   0  0  0  0  0  0  0  0  0  0  0  0
    9.9680   -0.9001  -53.3364 H   0  0  0  0  0  0  0  0  0  0  0  0
    6.3406   -1.3066  -54.2028 H   0  0  0  0  0  0  0  0  0  0  0  0
    5.2336    0.0213  -55.9787 H   0  0  0  0  0  0  0  0  0  0  0  0
    9.9394    1.0002  -54.7516 H   0  0  0  0  0  0  0  0  0  0  0  0
    8.7240    2.5930  -57.6860 H   0  0  0  0  0  0  0  0  0  0  0  0
   10.7728    2.6774  -55.5600 H   0  0  0  0  0  0  0  0  0  0  0  0
   10.9676    1.7605  -57.0364 H   0  0  0  0  0  0  0  0  0  0  0  0
   11.4550    4.3810  -56.7180 H   0  0  0  0  0  0  0  0  0  0  0  0
    9.9180    4.4410  -57.2280 H   0  0  0  0  0  0  0  0  0  0  0  0
   11.8723    4.7732  -58.8723 H   0  0  0  0  0  0  0  0  0  0  0  0
   11.9628    2.9401  -58.7335 H   0  0  0  0  0  0  0  0  0  0  0  0
   10.7733    3.8871  -60.7659 H   0  0  0  0  0  0  0  0  0  0  0  0
   10.5669    1.7386  -60.7029 H   0  0  0  0  0  0  0  0  0  0  0  0
    9.8012    1.7732  -59.0096 H   0  0  0  0  0  0  0  0  0  0  0  0
    8.5632    1.2151  -61.4069 H   0  0  0  0  0  0  0  0  0  0  0  0
    8.4982    3.5613  -62.0456 H   0  0  0  0  0  0  0  0  0  0  0  0
    6.8491    3.0092  -61.6302 H   0  0  0  0  0  0  0  0  0  0  0  0
    7.1982    5.1243  -60.5746 H   0  0  0  0  0  0  0  0  0  0  0  0
    9.4716    5.5481  -60.4842 H   0  0  0  0  0  0  0  0  0  0  0  0
    9.1207    5.0915  -58.7322 H   0  0  0  0  0  0  0  0  0  0  0  0
    7.6369    4.0064  -58.0216 H   0  0  0  0  0  0  0  0  0  0  0  0
    6.0662    4.4396  -58.8977 H   0  0  0  0  0  0  0  0  0  0  0  0
    5.0068    2.9755  -60.3314 H   0  0  0  0  0  0  0  0  0  0  0  0
    4.8569    1.2900  -59.8704 H   0  0  0  0  0  0  0  0  0  0  0  0
    4.1153    3.8090  -58.2918 H   0  0  0  0  0  0  0  0  0  0  0  0
    3.1733    2.3291  -58.4477 H   0  0  0  0  0  0  0  0  0  0  0  0
    8.0579    0.8541  -58.7971 H   0  0  0  0  0  0  0  0  0  0  0  0
    6.7996    0.6847  -60.1373 H   0  0  0  0  0  0  0  0  0  0  0  0
  1  2  1  0
  2  3  1  0
  3  4  2  0
  4  5  1  0
  5  6  2  0
  6  7  1  0
  6  8  1  0
  8  9  1  0
  9 10  1  0
 10 11  1  0
 11 12  1  0
 12 13  1  0
 13 14  1  0
 14 15  1  0
 15 16  1  0
 16 17  1  0
 16 18  1  0
 18 19  1  0
 19 20  1  6
 20 21  1  0
 21 22  1  0
 22 23  2  0
 19 24  1  0
  7  2  2  0
 17 12  1  0
 23 19  1  0
 23  5  1  0
 24 14  1  0
  1 25  1  0
  1 26  1  0
  1 27  1  0
  3 28  1  0
  4 29  1  0
  7 30  1  0
  8 31  1  0
  9 32  1  0
  9 33  1  0
 10 34  1  0
 10 35  1  0
 11 36  1  0
 11 37  1  0
 12 38  1  6
 13 39  1  0
 13 40  1  0
 14 41  1  6
 15 42  1  0
 15 43  1  0
 16 44  1  6
 17 45  1  0
 17 46  1  0
 18 47  1  0
 18 48  1  0
 20 49  1  0
 20 50  1  0
 21 51  1  0
 21 52  1  0
 24 53  1  0
 24 54  1  0
M  CHG  1  10   1
M  END
>  <meeko>  (184) 
{"is_sidechain": false}

$$$$

     RDKit          3D

 54 58  0  0  0  0  0  0  0  0999 V2000
   13.8160    6.8520  -60.2630 C   0  0  0  0  0  0  0  0  0  0  0  0
   12.7700    5.8810  -59.8010 C   0  0  0  0  0  0  0  0  0  0  0  0
   11.3900    6.3260  -59.8500 C   0  0  0  0  0  0  0  0  0  0  0  0
   10.3680    5.4670  -59.7040 C   0  0  0  0  0  0  0  0  0  0  0  0
   10.6240    4.0520  -59.4780 C   0  0  0  0  0  0  0  0  0  0  0  0
   11.9840    3.7680  -58.8440 C   0  0  0  0  0  0  0  0  0  0  0  0
   13.0750    4.6580  -59.3370 C   0  0  0  0  0  0  0  0  0  0  0  0
   12.2790    2.9980  -57.8490 N   0  0  0  0  0  0  0  0  0  0  0  0
   11.3090    2.1520  -57.2240 C   0  0  0  0  0  0  0  0  0  0  0  0
   10.6330    2.7740  -56.0650 N   0  0  0  0  0  0  0  0  0  0  0  0
    9.7010    3.9070  -56.2950 C   0  0  0  0  0  0  0  0  0  0  0  0
    8.2500    3.5590  -56.7290 C   0  0  1  0  0  0  0  0  0  0  0  0
    7.6530    4.6820  -57.6240 C   0  0  0  0  0  0  0  0  0  0  0  0
    6.7200    4.2860  -58.7780 C   0  0  2  0  0  0  0  0  0  0  0  0
    5.9480    3.0330  -58.3970 C   0  0  0  0  0  0  0  0  0  0  0  0
    6.9400    1.8910  -58.2740 C   0  0  2  0  0  0  0  0  0  0  0  0
    7.8990    2.1040  -57.1010 C   0  0  0  0  0  0  0  0  0  0  0  0
    7.6630    1.6560  -59.6140 C   0  0  0  0  0  0  0  0  0  0  0  0
    8.3580    2.9000  -60.2880 C   0  0  2  0  0  0  0  0  0  0  0  0
    8.6300    2.5420  -61.7730 C   0  0  0  0  0  0  0  0  0  0  0  0
    9.7950    1.5460  -61.7180 C   0  0  0  0  0  0  0  0  0  0  0  0
   10.5040    1.9150  -60.4740 N   0  0  0  0  0  0  0  0  0  0  0  0
    9.8430    3.0090  -59.8610 C   0  0  0  0  0  0  0  0  0  0  0  0
    7.3820    4.0850  -60.1660 C   0  0  0  0  0  0  0  0  0  0  0  0
   14.3057    7.3066  -59.3892 H   0  0  0  0  0  0  0  0  0  0  0  0
   14.5657    6.3224  -60.8693 H   0  0  0  0  0  0  0  0  0  0  0  0
   13.3436    7.6389  -60.8693 H   0  0  0  0  0  0  0  0  0  0  0  0
   11.1755    7.3929  -60.0106 H   0  0  0  0  0  0  0  0  0  0  0  0
    9.3325    5.8345  -59.7554 H   0  0  0  0  0  0  0  0  0  0  0  0
   14.1202    4.3156  -59.3207 H   0  0  0  0  0  0  0  0  0  0  0  0
   10.5454    1.8892  -57.9709 H   0  0  0  0  0  0  0  0  0  0  0  0
   11.8484    1.2712  -56.8455 H   0  0  0  0  0  0  0  0  0  0  0  0
   10.1930    2.0500  -55.4900 H   0  0  0  0  0  0  0  0  0  0  0  0
   11.4210    3.1360  -55.5150 H   0  0  0  0  0  0  0  0  0  0  0  0
    9.6374    4.4782  -55.3571 H   0  0  0  0  0  0  0  0  0  0  0  0
   10.1274    4.4549  -57.1482 H   0  0  0  0  0  0  0  0  0  0  0  0
    7.6843    3.5544  -55.7856 H   0  0  0  0  0  0  0  0  0  0  0  0
    7.0850    5.3545  -56.9643 H   0  0  0  0  0  0  0  0  0  0  0  0
    8.5291    5.1184  -58.1259 H   0  0  0  0  0  0  0  0  0  0  0  0
    6.0613    5.1567  -58.9118 H   0  0  0  0  0  0  0  0  0  0  0  0
    5.4357    3.1878  -57.4359 H   0  0  0  0  0  0  0  0  0  0  0  0
    5.1921    2.8022  -59.1620 H   0  0  0  0  0  0  0  0  0  0  0  0
    6.3875    0.9680  -58.0440 H   0  0  0  0  0  0  0  0  0  0  0  0
    7.4455    1.6366  -56.2145 H   0  0  0  0  0  0  0  0  0  0  0  0
    8.8500    1.6595  -57.4297 H   0  0  0  0  0  0  0  0  0  0  0  0
    8.4399    0.8966  -59.4416 H   0  0  0  0  0  0  0  0  0  0  0  0
    6.8687    1.3615  -60.3157 H   0  0  0  0  0  0  0  0  0  0  0  0
    7.7433    2.0789  -62.2305 H   0  0  0  0  0  0  0  0  0  0  0  0
    8.8640    3.4278  -62.3818 H   0  0  0  0  0  0  0  0  0  0  0  0
    9.4258    0.5110  -61.6682 H   0  0  0  0  0  0  0  0  0  0  0  0
   10.4395    1.5899  -62.6084 H   0  0  0  0  0  0  0  0  0  0  0  0
   10.5410    1.0890  -59.8800 H   0  0  0  0  0  0  0  0  0  0  0  0
    7.9366    5.0032  -60.4095 H   0  0  0  0  0  0  0  0  0  0  0  0
    6.5560    3.8587  -60.8564 H   0  0  0  0  0  0  0  0  0  0  0  0
  1  2  1  0
  2  3  1  0
  3  4  2  0
  4  5  1  0
  5  6  1  0
  6  7  1  0
  6  8  2  0
  8  9  1  0
  9 10  1  0
 10 11  1  0
 11 12  1  0
 12 13  1  0
 13 14  1  0
 14 15  1  0
 15 16  1  0
 16 17  1  0
 16 18  1  0
 18 19  1  0
 19 20  1  6
 20 21  1  0
 21 22  1  0
 22 23  1  0
 19 24  1  0
  7  2  2  0
 17 12  1  0
 23 19  1  0
 23  5  2  0
 24 14  1  0
  1 25  1  0
  1 26  1  0
  1 27  1  0
  3 28  1  0
  4 29  1  0
  7 30  1  0
  9 31  1  0
  9 32  1  0
 10 33  1  0
 10 34  1  0
 11 35  1  0
 11 36  1  0
 12 37  1  1
 13 38  1  0
 13 39  1  0
 14 40  1  6
 15 41  1  0
 15 42  1  0
 16 43  1  1
 17 44  1  0
 17 45  1  0
 18 46  1  0
 18 47  1  0
 20 48  1  0
 20 49  1  0
 21 50  1  0
 21 51  1  0
 22 52  1  0
 24 53  1  0
 24 54  1  0
M  CHG  1  10   1
M  END
>  <meeko>  (185) 
{"is_sidechain": false}

$$$$

     RDKit          3D

 54 58  0  0  0  0  0  0  0  0999 V2000
    7.6760   -0.4110  -52.6050 C   0  0  0  0  0  0  0  0  0  0  0  0
    7.6400    0.0490  -54.0340 C   0  0  0  0  0  0  0  0  0  0  0  0
    6.5330   -0.4200  -54.8360 C   0  0  0  0  0  0  0  0  0  0  0  0
    6.2770    0.1020  -56.0430 C   0  0  0  0  0  0  0  0  0  0  0  0
    7.1190    1.1490  -56.6270 C   0  0  0  0  0  0  0  0  0  0  0  0
    8.5060    1.2720  -56.0030 C   0  0  0  0  0  0  0  0  0  0  0  0
    8.5760    0.8530  -54.5620 C   0  0  0  0  0  0  0  0  0  0  0  0
    9.5250    1.6400  -56.7040 N   0  0  0  0  0  0  0  0  0  0  0  0
   10.8420    1.6240  -56.1440 C   0  0  0  0  0  0  0  0  0  0  0  0
   11.7670    1.8540  -57.2610 N   0  0  0  0  0  0  0  0  0  0  0  0
   12.2730    3.2310  -57.5090 C   0  0  0  0  0  0  0  0  0  0  0  0
   11.2730    4.1890  -58.1770 C   0  0  1  0  0  0  0  0  0  0  0  0
   10.7450    3.6880  -59.5390 C   0  0  0  0  0  0  0  0  0  0  0  0
    9.2660    3.9840  -59.8310 C   0  0  2  0  0  0  0  0  0  0  0  0
    8.9070    5.3410  -59.2400 C   0  0  0  0  0  0  0  0  0  0  0  0
    8.8830    5.2130  -57.7300 C   0  0  2  0  0  0  0  0  0  0  0  0
   10.2590    4.7900  -57.1800 C   0  0  0  0  0  0  0  0  0  0  0  0
    7.7630    4.2600  -57.2560 C   0  0  0  0  0  0  0  0  0  0  0  0
    7.2900    3.2020  -58.2900 C   0  0  2  0  0  0  0  0  0  0  0  0
    6.0480    3.7830  -59.0620 C   0  0  0  0  0  0  0  0  0  0  0  0
    5.1880    2.5790  -59.4070 C   0  0  0  0  0  0  0  0  0  0  0  0
    5.4180    1.7290  -58.2640 N   0  0  0  0  0  0  0  0  0  0  0  0
    6.6540    1.9290  -57.6420 C   0  0  0  0  0  0  0  0  0  0  0  0
    8.3690    2.8260  -59.3350 C   0  0  0  0  0  0  0  0  0  0  0  0
    7.6078    0.4606  -51.9374 H   0  0  0  0  0  0  0  0  0  0  0  0
    6.8279   -1.0854  -52.4154 H   0  0  0  0  0  0  0  0  0  0  0  0
    8.6187   -0.9452  -52.4154 H   0  0  0  0  0  0  0  0  0  0  0  0
    5.8876   -1.2217  -54.4476 H   0  0  0  0  0  0  0  0  0  0  0  0
    5.4102   -0.2659  -56.6115 H   0  0  0  0  0  0  0  0  0  0  0  0
    9.4043    1.2094  -53.9321 H   0  0  0  0  0  0  0  0  0  0  0  0
   10.9463    2.4207  -55.3928 H   0  0  0  0  0  0  0  0  0  0  0  0
   11.0514    0.6682  -55.6415 H   0  0  0  0  0  0  0  0  0  0  0  0
   11.2360    1.5100  -58.0690 H   0  0  0  0  0  0  0  0  0  0  0  0
   12.5630    1.2180  -57.1580 H   0  0  0  0  0  0  0  0  0  0  0  0
   12.5647    3.6651  -56.5413 H   0  0  0  0  0  0  0  0  0  0  0  0
   13.1098    3.1246  -58.2150 H   0  0  0  0  0  0  0  0  0  0  0  0
   11.8306    5.0825  -58.4944 H   0  0  0  0  0  0  0  0  0  0  0  0
   11.3465    4.1610  -60.3292 H   0  0  0  0  0  0  0  0  0  0  0  0
   10.8306    2.5918  -59.5084 H   0  0  0  0  0  0  0  0  0  0  0  0
    9.0888    4.0449  -60.9149 H   0  0  0  0  0  0  0  0  0  0  0  0
    9.6588    6.0867  -59.5379 H   0  0  0  0  0  0  0  0  0  0  0  0
    7.9224    5.6653  -59.6079 H   0  0  0  0  0  0  0  0  0  0  0  0
    8.6562    6.2081  -57.3198 H   0  0  0  0  0  0  0  0  0  0  0  0
   10.7240    5.6821  -56.7351 H   0  0  0  0  0  0  0  0  0  0  0  0
   10.0398    3.9725  -56.4774 H   0  0  0  0  0  0  0  0  0  0  0  0
    8.1301    3.7235  -56.3687 H   0  0  0  0  0  0  0  0  0  0  0  0
    6.8892    4.8999  -57.0638 H   0  0  0  0  0  0  0  0  0  0  0  0
    5.4907    4.4835  -58.4227 H   0  0  0  0  0  0  0  0  0  0  0  0
    6.3494    4.3413  -59.9606 H   0  0  0  0  0  0  0  0  0  0  0  0
    4.1269    2.8547  -59.4965 H   0  0  0  0  0  0  0  0  0  0  0  0
    5.4341    2.1119  -60.3720 H   0  0  0  0  0  0  0  0  0  0  0  0
    5.0900    0.7720  -58.3430 H   0  0  0  0  0  0  0  0  0  0  0  0
    9.0220    2.0637  -58.8850 H   0  0  0  0  0  0  0  0  0  0  0  0
    7.8159    2.4796  -60.2205 H   0  0  0  0  0  0  0  0  0  0  0  0
  1  2  1  0
  2  3  1  0
  3  4  2  0
  4  5  1  0
  5  6  1  0
  6  7  1  0
  6  8  2  0
  8  9  1  0
  9 10  1  0
 10 11  1  0
 11 12  1  0
 12 13  1  0
 13 14  1  0
 14 15  1  0
 15 16  1  0
 16 17  1  0
 16 18  1  0
 18 19  1  0
 19 20  1  6
 20 21  1  0
 21 22  1  0
 22 23  1  0
 19 24  1  0
  7  2  2  0
 17 12  1  0
 23 19  1  0
 23  5  2  0
 24 14  1  0
  1 25  1  0
  1 26  1  0
  1 27  1  0
  3 28  1  0
  4 29  1  0
  7 30  1  0
  9 31  1  0
  9 32  1  0
 10 33  1  0
 10 34  1  0
 11 35  1  0
 11 36  1  0
 12 37  1  6
 13 38  1  0
 13 39  1  0
 14 40  1  6
 15 41  1  0
 15 42  1  0
 16 43  1  1
 17 44  1  0
 17 45  1  0
 18 46  1  0
 18 47  1  0
 20 48  1  0
 20 49  1  0
 21 50  1  0
 21 51  1  0
 22 52  1  0
 24 53  1  0
 24 54  1  0
M  CHG  1  10   1
M  END
>  <meeko>  (186) 
{"is_sidechain": false}

$$$$

     RDKit          3D

 54 58  0  0  0  0  0  0  0  0999 V2000
    2.5360    2.2020  -60.6870 C   0  0  0  0  0  0  0  0  0  0  0  0
    4.0190    2.0720  -60.4980 C   0  0  0  0  0  0  0  0  0  0  0  0
    4.7870    1.6600  -61.6520 C   0  0  0  0  0  0  0  0  0  0  0  0
    6.1230    1.7560  -61.6640 C   0  0  0  0  0  0  0  0  0  0  0  0
    6.8680    2.2570  -60.5040 C   0  0  0  0  0  0  0  0  0  0  0  0
    6.1160    2.1420  -59.1870 C   0  0  0  0  0  0  0  0  0  0  0  0
    4.6260    2.3020  -59.3220 C   0  0  0  0  0  0  0  0  0  0  0  0
    6.7300    1.8700  -58.0860 N   0  0  0  0  0  0  0  0  0  0  0  0
    5.9870    1.6460  -56.8780 C   0  0  0  0  0  0  0  0  0  0  0  0
    6.8660    1.2860  -55.7330 N   0  0  0  0  0  0  0  0  0  0  0  0
    8.2880    0.9950  -56.0600 C   0  0  0  0  0  0  0  0  0  0  0  0
    9.2310    2.2000  -55.8490 C   0  0  1  0  0  0  0  0  0  0  0  0
   10.6070    1.9110  -56.4930 C   0  0  0  0  0  0  0  0  0  0  0  0
   10.8900    2.7110  -57.7750 C   0  0  2  0  0  0  0  0  0  0  0  0
   10.7430    4.1870  -57.4280 C   0  0  0  0  0  0  0  0  0  0  0  0
    9.2680    4.4780  -57.2470 C   0  0  2  0  0  0  0  0  0  0  0  0
    8.6890    3.6350  -56.0870 C   0  0  0  0  0  0  0  0  0  0  0  0
    8.4980    4.3280  -58.5750 C   0  0  0  0  0  0  0  0  0  0  0  0
    9.1220    3.3520  -59.6120 C   0  0  2  0  0  0  0  0  0  0  0  0
   10.0240    4.1890  -60.5910 C   0  0  0  0  0  0  0  0  0  0  0  0
   10.0700    3.4070  -61.8900 C   0  0  0  0  0  0  0  0  0  0  0  0
    8.7880    2.7410  -61.8950 N   0  0  0  0  0  0  0  0  0  0  0  0
    8.1410    2.7170  -60.6500 C   0  0  0  0  0  0  0  0  0  0  0  0
    9.9880    2.2510  -58.9470 C   0  0  0  0  0  0  0  0  0  0  0  0
    2.0435    2.2452  -59.7043 H   0  0  0  0  0  0  0  0  0  0  0  0
    2.3171    3.1228  -61.2476 H   0  0  0  0  0  0  0  0  0  0  0  0
    2.1603    1.3333  -61.2476 H   0  0  0  0  0  0  0  0  0  0  0  0
    4.2654    1.2612  -62.5345 H   0  0  0  0  0  0  0  0  0  0  0  0
    6.6748    1.4518  -62.5656 H   0  0  0  0  0  0  0  0  0  0  0  0
    4.0291    2.6097  -58.4508 H   0  0  0  0  0  0  0  0  0  0  0  0
    5.4362    2.5642  -56.6261 H   0  0  0  0  0  0  0  0  0  0  0  0
    5.3029    0.8030  -57.0551 H   0  0  0  0  0  0  0  0  0  0  0  0
    6.4640    0.4470  -55.3010 H   0  0  0  0  0  0  0  0  0  0  0  0
    6.8150    2.0170  -55.0170 H   0  0  0  0  0  0  0  0  0  0  0  0
    8.6302    0.1694  -55.4187 H   0  0  0  0  0  0  0  0  0  0  0  0
    8.3269    0.7388  -57.1290 H   0  0  0  0  0  0  0  0  0  0  0  0
    9.3392    2.2659  -54.7563 H   0  0  0  0  0  0  0  0  0  0  0  0
   11.3884    2.1525  -55.7574 H   0  0  0  0  0  0  0  0  0  0  0  0
   10.6016    0.8493  -56.7808 H   0  0  0  0  0  0  0  0  0  0  0  0
   11.9132    2.5313  -58.1366 H   0  0  0  0  0  0  0  0  0  0  0  0
   11.2845    4.4076  -56.4963 H   0  0  0  0  0  0  0  0  0  0  0  0
   11.1613    4.8127  -58.2302 H   0  0  0  0  0  0  0  0  0  0  0  0
    9.1413    5.5313  -56.9562 H   0  0  0  0  0  0  0  0  0  0  0  0
    8.8624    4.2017  -55.1603 H   0  0  0  0  0  0  0  0  0  0  0  0
    7.6409    3.4734  -56.3792 H   0  0  0  0  0  0  0  0  0  0  0  0
    7.4856    3.9681  -58.3394 H   0  0  0  0  0  0  0  0  0  0  0  0
    8.5209    5.3210  -59.0476 H   0  0  0  0  0  0  0  0  0  0  0  0
    9.5849    5.1835  -60.7590 H   0  0  0  0  0  0  0  0  0  0  0  0
   11.0318    4.3427  -60.1777 H   0  0  0  0  0  0  0  0  0  0  0  0
   10.1735    4.0781  -62.7554 H   0  0  0  0  0  0  0  0  0  0  0  0
   10.9244    2.7176  -61.9586 H   0  0  0  0  0  0  0  0  0  0  0  0
    8.1880    2.9570  -62.6870 H   0  0  0  0  0  0  0  0  0  0  0  0
    9.3093    1.4745  -58.5644 H   0  0  0  0  0  0  0  0  0  0  0  0
   10.6761    1.9016  -59.7309 H   0  0  0  0  0  0  0  0  0  0  0  0
  1  2  1  0
  2  3  1  0
  3  4  2  0
  4  5  1  0
  5  6  1  0
  6  7  1  0
  6  8  2  0
  8  9  1  0
  9 10  1  0
 10 11  1  0
 11 12  1  0
 12 13  1  0
 13 14  1  0
 14 15  1  0
 15 16  1  0
 16 17  1  0
 16 18  1  0
 18 19  1  0
 19 20  1  6
 20 21  1  0
 21 22  1  0
 22 23  1  0
 19 24  1  0
  7  2  2  0
 17 12  1  0
 23 19  1  0
 23  5  2  0
 24 14  1  0
  1 25  1  0
  1 26  1  0
  1 27  1  0
  3 28  1  0
  4 29  1  0
  7 30  1  0
  9 31  1  0
  9 32  1  0
 10 33  1  0
 10 34  1  0
 11 35  1  0
 11 36  1  0
 12 37  1  1
 13 38  1  0
 13 39  1  0
 14 40  1  6
 15 41  1  0
 15 42  1  0
 16 43  1  1
 17 44  1  0
 17 45  1  0
 18 46  1  0
 18 47  1  0
 20 48  1  0
 20 49  1  0
 21 50  1  0
 21 51  1  0
 22 52  1  0
 24 53  1  0
 24 54  1  0
M  CHG  1  10   1
M  END
>  <meeko>  (187) 
{"is_sidechain": false}

$$$$

     RDKit          3D

 54 58  0  0  0  0  0  0  0  0999 V2000
   13.3420    6.0640  -59.7370 C   0  0  0  0  0  0  0  0  0  0  0  0
   12.3240    5.3510  -59.2340 C   0  0  0  0  0  0  0  0  0  0  0  0
   10.9840    5.9320  -59.1310 C   0  0  0  0  0  0  0  0  0  0  0  0
    9.9360    5.1200  -58.8860 C   0  0  0  0  0  0  0  0  0  0  0  0
   10.1760    3.6680  -58.8730 C   0  0  0  0  0  0  0  0  0  0  0  0
   11.5070    3.2560  -58.3100 C   0  0  0  0  0  0  0  0  0  0  0  0
   12.5600    4.0530  -58.5960 C   0  0  0  0  0  0  0  0  0  0  0  0
   11.6140    2.2220  -57.3730 N   0  0  0  0  0  0  0  0  0  0  0  0
   10.5680    1.3860  -56.8840 C   0  0  0  0  0  0  0  0  0  0  0  0
    9.7460    2.2980  -56.0890 N   0  0  0  0  0  0  0  0  0  0  0  0
    8.3970    1.9010  -55.6290 C   0  0  0  0  0  0  0  0  0  0  0  0
    7.2490    2.1280  -56.6440 C   0  0  1  0  0  0  0  0  0  0  0  0
    7.1150    3.5670  -57.2030 C   0  0  0  0  0  0  0  0  0  0  0  0
    6.2490    3.7340  -58.4750 C   0  0  2  0  0  0  0  0  0  0  0  0
    5.3730    2.5010  -58.6700 C   0  0  0  0  0  0  0  0  0  0  0  0
    6.2870    1.3070  -58.9040 C   0  0  2  0  0  0  0  0  0  0  0  0
    7.1490    0.9980  -57.6770 C   0  0  0  0  0  0  0  0  0  0  0  0
    7.1540    1.5360  -60.1560 C   0  0  0  0  0  0  0  0  0  0  0  0
    7.9920    2.8750  -60.2120 C   0  0  2  0  0  0  0  0  0  0  0  0
    8.5170    3.0030  -61.6660 C   0  0  0  0  0  0  0  0  0  0  0  0
    9.6530    1.9590  -61.7440 C   0  0  0  0  0  0  0  0  0  0  0  0
   10.0920    1.8060  -60.3330 N   0  0  0  0  0  0  0  0  0  0  0  0
    9.4020    2.7720  -59.5610 C   0  0  0  0  0  0  0  0  0  0  0  0
    7.0240    3.9990  -59.7990 C   0  0  0  0  0  0  0  0  0  0  0  0
   14.3442    5.6164  -59.8092 H   0  0  0  0  0  0  0  0  0  0  0  0
   13.1750    7.0966  -60.0774 H   0  0  0  0  0  0  0  0  0  0  0  0
   10.8345    7.0151  -59.2517 H   0  0  0  0  0  0  0  0  0  0  0  0
    8.9322    5.5302  -58.7015 H   0  0  0  0  0  0  0  0  0  0  0  0
   13.5833    3.7310  -58.3526 H   0  0  0  0  0  0  0  0  0  0  0  0
   12.5170    1.7540  -57.4640 H   0  0  0  0  0  0  0  0  0  0  0  0
    9.9880    0.9558  -57.7138 H   0  0  0  0  0  0  0  0  0  0  0  0
   10.9402    0.5286  -56.3041 H   0  0  0  0  0  0  0  0  0  0  0  0
   10.3390    2.5440  -55.2920 H   0  0  0  0  0  0  0  0  0  0  0  0
    9.7220    3.1670  -56.6210 H   0  0  0  0  0  0  0  0  0  0  0  0
    8.4250    0.8290  -55.3842 H   0  0  0  0  0  0  0  0  0  0  0  0
    8.1702    2.5483  -54.7690 H   0  0  0  0  0  0  0  0  0  0  0  0
    6.3256    2.0566  -56.0506 H   0  0  0  0  0  0  0  0  0  0  0  0
    6.6738    4.1929  -56.4133 H   0  0  0  0  0  0  0  0  0  0  0  0
    8.1323    3.8600  -57.5019 H   0  0  0  0  0  0  0  0  0  0  0  0
    5.6604    4.6435  -58.2842 H   0  0  0  0  0  0  0  0  0  0  0  0
    4.7609    2.3321  -57.7718 H   0  0  0  0  0  0  0  0  0  0  0  0
    4.7008    2.6418  -59.5292 H   0  0  0  0  0  0  0  0  0  0  0  0
    5.6532    0.4245  -59.0756 H   0  0  0  0  0  0  0  0  0  0  0  0
    6.7230    0.1163  -57.1759 H   0  0  0  0  0  0  0  0  0  0  0  0
    8.1700    0.8402  -58.0547 H   0  0  0  0  0  0  0  0  0  0  0  0
    7.8626    0.6976  -60.2271 H   0  0  0  0  0  0  0  0  0  0  0  0
    6.4396    1.6105  -60.9891 H   0  0  0  0  0  0  0  0  0  0  0  0
    7.7225    2.7718  -62.3908 H   0  0  0  0  0  0  0  0  0  0  0  0
    8.8589    4.0207  -61.9056 H   0  0  0  0  0  0  0  0  0  0  0  0
    9.2809    1.0043  -62.1442 H   0  0  0  0  0  0  0  0  0  0  0  0
   10.4700    2.2688  -62.4122 H   0  0  0  0  0  0  0  0  0  0  0  0
    9.8610    0.8590  -60.0400 H   0  0  0  0  0  0  0  0  0  0  0  0
    7.6055    4.9247  -59.6766 H   0  0  0  0  0  0  0  0  0  0  0  0
    6.2674    4.0663  -60.5946 H   0  0  0  0  0  0  0  0  0  0  0  0
  1  2  2  0
  2  3  1  0
  3  4  2  0
  4  5  1  0
  5  6  1  0
  6  7  2  0
  6  8  1  0
  8  9  1  0
  9 10  1  0
 10 11  1  0
 11 12  1  0
 12 13  1  0
 13 14  1  0
 14 15  1  0
 15 16  1  0
 16 17  1  0
 16 18  1  0
 18 19  1  0
 19 20  1  6
 20 21  1  0
 21 22  1  0
 22 23  1  0
 19 24  1  0
  7  2  1  0
 17 12  1  0
 23 19  1  0
 23  5  2  0
 24 14  1  0
  1 25  1  0
  1 26  1  0
  3 27  1  0
  4 28  1  0
  7 29  1  0
  8 30  1  0
  9 31  1  0
  9 32  1  0
 10 33  1  0
 10 34  1  0
 11 35  1  0
 11 36  1  0
 12 37  1  1
 13 38  1  0
 13 39  1  0
 14 40  1  1
 15 41  1  0
 15 42  1  0
 16 43  1  6
 17 44  1  0
 17 45  1  0
 18 46  1  0
 18 47  1  0
 20 48  1  0
 20 49  1  0
 21 50  1  0
 21 51  1  0
 22 52  1  0
 24 53  1  0
 24 54  1  0
M  CHG  1  10   1
M  END
>  <meeko>  (188) 
{"is_sidechain": false}

$$$$

     RDKit          3D

 54 58  0  0  0  0  0  0  0  0999 V2000
    7.9270    0.2060  -52.5610 C   0  0  0  0  0  0  0  0  0  0  0  0
    7.7400    0.2980  -53.8860 C   0  0  0  0  0  0  0  0  0  0  0  0
    6.5620   -0.2960  -54.5070 C   0  0  0  0  0  0  0  0  0  0  0  0
    6.2680    0.0240  -55.7800 C   0  0  0  0  0  0  0  0  0  0  0  0
    7.0830    1.0440  -56.4780 C   0  0  0  0  0  0  0  0  0  0  0  0
    8.5180    1.1260  -56.0510 C   0  0  0  0  0  0  0  0  0  0  0  0
    8.7870    0.8420  -54.7550 C   0  0  0  0  0  0  0  0  0  0  0  0
    9.4750    1.3700  -57.0320 N   0  0  0  0  0  0  0  0  0  0  0  0
   10.8890    1.2330  -56.9220 C   0  0  0  0  0  0  0  0  0  0  0  0
   11.2930    2.5840  -56.5540 N   0  0  0  0  0  0  0  0  0  0  0  0
   11.9090    3.4600  -57.5870 C   0  0  0  0  0  0  0  0  0  0  0  0
   10.8960    4.2520  -58.4350 C   0  0  1  0  0  0  0  0  0  0  0  0
   10.2000    3.3950  -59.5180 C   0  0  0  0  0  0  0  0  0  0  0  0
    8.7740    3.7930  -59.9530 C   0  0  2  0  0  0  0  0  0  0  0  0
    8.4230    5.1950  -59.4950 C   0  0  0  0  0  0  0  0  0  0  0  0
    8.5320    5.2420  -57.9800 C   0  0  2  0  0  0  0  0  0  0  0  0
   10.0190    5.2110  -57.5980 C   0  0  0  0  0  0  0  0  0  0  0  0
    7.7730    4.1060  -57.2560 C   0  0  0  0  0  0  0  0  0  0  0  0
    6.9890    3.1150  -58.1510 C   0  0  2  0  0  0  0  0  0  0  0  0
    5.6070    3.7910  -58.4710 C   0  0  0  0  0  0  0  0  0  0  0  0
    4.6380    2.6500  -58.7150 C   0  0  0  0  0  0  0  0  0  0  0  0
    5.1580    1.6140  -57.8520 N   0  0  0  0  0  0  0  0  0  0  0  0
    6.4800    1.8170  -57.4300 C   0  0  0  0  0  0  0  0  0  0  0  0
    7.7110    2.7730  -59.4840 C   0  0  0  0  0  0  0  0  0  0  0  0
    8.8178    0.6563  -52.0987 H   0  0  0  0  0  0  0  0  0  0  0  0
    7.1896   -0.3197  -51.9367 H   0  0  0  0  0  0  0  0  0  0  0  0
    5.9247   -0.9938  -53.9441 H   0  0  0  0  0  0  0  0  0  0  0  0
    5.4306   -0.4672  -56.2971 H   0  0  0  0  0  0  0  0  0  0  0  0
    9.7952    1.0202  -54.3528 H   0  0  0  0  0  0  0  0  0  0  0  0
    9.1280    0.9590  -57.9020 H   0  0  0  0  0  0  0  0  0  0  0  0
   11.1613    0.5072  -56.1416 H   0  0  0  0  0  0  0  0  0  0  0  0
   11.3721    0.8576  -57.8362 H   0  0  0  0  0  0  0  0  0  0  0  0
   10.4150    2.9830  -56.2100 H   0  0  0  0  0  0  0  0  0  0  0  0
   11.9100    2.5240  -55.7380 H   0  0  0  0  0  0  0  0  0  0  0  0
   12.5694    4.1786  -57.0795 H   0  0  0  0  0  0  0  0  0  0  0  0
   12.4486    2.7974  -58.2797 H   0  0  0  0  0  0  0  0  0  0  0  0
   11.4651    4.9606  -59.0547 H   0  0  0  0  0  0  0  0  0  0  0  0
   10.8354    3.4234  -60.4155 H   0  0  0  0  0  0  0  0  0  0  0  0
   10.0780    2.4073  -59.0494 H   0  0  0  0  0  0  0  0  0  0  0  0
    8.7677    3.7842  -61.0529 H   0  0  0  0  0  0  0  0  0  0  0  0
    9.1217    5.9181  -59.9410 H   0  0  0  0  0  0  0  0  0  0  0  0
    7.4010    5.4525  -59.8101 H   0  0  0  0  0  0  0  0  0  0  0  0
    8.0509    6.1738  -57.6480 H   0  0  0  0  0  0  0  0  0  0  0  0
   10.4211    6.2282  -57.7145 H   0  0  0  0  0  0  0  0  0  0  0  0
   10.0599    4.8367  -56.5644 H   0  0  0  0  0  0  0  0  0  0  0  0
    8.5100    3.5255  -56.6817 H   0  0  0  0  0  0  0  0  0  0  0  0
    7.0100    4.6107  -56.6451 H   0  0  0  0  0  0  0  0  0  0  0  0
    5.2729    4.4023  -57.6197 H   0  0  0  0  0  0  0  0  0  0  0  0
    5.6743    4.4594  -59.3420 H   0  0  0  0  0  0  0  0  0  0  0  0
    3.6133    2.9296  -58.4289 H   0  0  0  0  0  0  0  0  0  0  0  0
    4.5683    2.3497  -59.7709 H   0  0  0  0  0  0  0  0  0  0  0  0
    4.5230    1.3040  -57.1190 H   0  0  0  0  0  0  0  0  0  0  0  0
    8.2087    1.8001  -59.3585 H   0  0  0  0  0  0  0  0  0  0  0  0
    6.9292    2.7784  -60.2578 H   0  0  0  0  0  0  0  0  0  0  0  0
  1  2  2  0
  2  3  1  0
  3  4  2  0
  4  5  1  0
  5  6  1  0
  6  7  2  0
  6  8  1  0
  8  9  1  0
  9 10  1  0
 10 11  1  0
 11 12  1  0
 12 13  1  0
 13 14  1  0
 14 15  1  0
 15 16  1  0
 16 17  1  0
 16 18  1  0
 18 19  1  0
 19 20  1  6
 20 21  1  0
 21 22  1  0
 22 23  1  0
 19 24  1  0
  7  2  1  0
 17 12  1  0
 23 19  1  0
 23  5  2  0
 24 14  1  0
  1 25  1  0
  1 26  1  0
  3 27  1  0
  4 28  1  0
  7 29  1  0
  8 30  1  0
  9 31  1  0
  9 32  1  0
 10 33  1  0
 10 34  1  0
 11 35  1  0
 11 36  1  0
 12 37  1  6
 13 38  1  0
 13 39  1  0
 14 40  1  6
 15 41  1  0
 15 42  1  0
 16 43  1  1
 17 44  1  0
 17 45  1  0
 18 46  1  0
 18 47  1  0
 20 48  1  0
 20 49  1  0
 21 50  1  0
 21 51  1  0
 22 52  1  0
 24 53  1  0
 24 54  1  0
M  CHG  1  10   1
M  END
>  <meeko>  (189) 
{"is_sidechain": false}

$$$$

     RDKit          3D

 45 49  0  0  0  0  0  0  0  0999 V2000
    2.5340    2.2120  -62.8460 N   0  0  0  0  0  0  0  0  0  0  0  0
    3.2510    2.0530  -61.9460 C   0  0  0  0  0  0  0  0  0  0  0  0
    4.1340    1.8560  -60.8350 C   0  0  0  0  0  0  0  0  0  0  0  0
    3.9700    2.6060  -59.6660 C   0  0  0  0  0  0  0  0  0  0  0  0
    4.8360    2.4160  -58.5860 C   0  0  0  0  0  0  0  0  0  0  0  0
    5.8760    1.4810  -58.6710 C   0  0  0  0  0  0  0  0  0  0  0  0
    6.7860    1.2730  -57.5400 C   0  0  0  0  0  0  0  0  0  0  0  0
    7.9100    1.9570  -57.2220 C   0  0  0  0  0  0  0  0  0  0  0  0
    8.5580    1.6440  -56.0360 N   0  0  0  0  0  0  0  0  0  0  0  0
    9.8110    2.1830  -55.5630 C   0  0  0  0  0  0  0  0  0  0  0  0
    9.9880    3.6100  -56.0500 C   0  0  0  0  0  0  0  0  0  0  0  0
    9.7850    3.7030  -57.5670 C   0  0  2  0  0  0  0  0  0  0  0  0
    9.8180    5.1960  -58.0090 C   0  0  0  0  0  0  0  0  0  0  0  0
    9.5810    5.3110  -59.5300 C   0  0  2  0  0  0  0  0  0  0  0  0
    8.2210    4.6690  -59.8520 C   0  0  0  0  0  0  0  0  0  0  0  0
    8.2510    3.2280  -59.3540 C   0  0  0  0  0  0  0  0  0  0  0  0
    8.4440    3.0780  -58.0160 C   0  0  0  0  0  0  0  0  0  0  0  0
    9.2680    2.4510  -60.1930 C   0  0  0  0  0  0  0  0  0  0  0  0
   10.6630    3.0530  -59.8790 C   0  0  1  0  0  0  0  0  0  0  0  0
   10.6850    4.5420  -60.2840 C   0  0  0  0  0  0  0  0  0  0  0  0
   10.9170    2.9590  -58.3540 C   0  0  0  0  0  0  0  0  0  0  0  0
    6.0310    0.7260  -59.8380 C   0  0  0  0  0  0  0  0  0  0  0  0
    5.1660    0.9140  -60.9180 C   0  0  0  0  0  0  0  0  0  0  0  0
    3.1589    3.3458  -59.5967 H   0  0  0  0  0  0  0  0  0  0  0  0
    4.7007    3.0028  -57.6655 H   0  0  0  0  0  0  0  0  0  0  0  0
    6.5196    0.4513  -56.8590 H   0  0  0  0  0  0  0  0  0  0  0  0
    8.2430    0.7960  -55.5760 H   0  0  0  0  0  0  0  0  0  0  0  0
    9.8189    2.1713  -54.4631 H   0  0  0  0  0  0  0  0  0  0  0  0
   10.6352    1.5672  -55.9523 H   0  0  0  0  0  0  0  0  0  0  0  0
    9.2515    4.2550  -55.5485 H   0  0  0  0  0  0  0  0  0  0  0  0
   11.0114    3.9364  -55.8131 H   0  0  0  0  0  0  0  0  0  0  0  0
    9.0305    5.7494  -57.4764 H   0  0  0  0  0  0  0  0  0  0  0  0
   10.8048    5.6182  -57.7682 H   0  0  0  0  0  0  0  0  0  0  0  0
    9.5969    6.3674  -59.8362 H   0  0  0  0  0  0  0  0  0  0  0  0
    7.4172    5.2227  -59.3447 H   0  0  0  0  0  0  0  0  0  0  0  0
    8.0328    4.6953  -60.9355 H   0  0  0  0  0  0  0  0  0  0  0  0
    9.2462    1.3850  -59.9226 H   0  0  0  0  0  0  0  0  0  0  0  0
    9.0368    2.5300  -61.2655 H   0  0  0  0  0  0  0  0  0  0  0  0
   11.4346    2.5006  -60.4353 H   0  0  0  0  0  0  0  0  0  0  0  0
   11.6654    4.9732  -60.0331 H   0  0  0  0  0  0  0  0  0  0  0  0
   10.5069    4.6241  -61.3664 H   0  0  0  0  0  0  0  0  0  0  0  0
   10.9328    1.9010  -58.0534 H   0  0  0  0  0  0  0  0  0  0  0  0
   11.8832    3.4311  -58.1226 H   0  0  0  0  0  0  0  0  0  0  0  0
    6.8376   -0.0189  -59.9054 H   0  0  0  0  0  0  0  0  0  0  0  0
    5.2958    0.3210  -61.8353 H   0  0  0  0  0  0  0  0  0  0  0  0
  1  2  3  0
  2  3  1  0
  3  4  1  0
  4  5  2  0
  5  6  1  0
  6  7  1  0
  7  8  2  0
  8  9  1  0
  9 10  1  0
 10 11  1  0
 12 11  1  1
 12 13  1  0
 13 14  1  0
 14 15  1  0
 15 16  1  0
 16 17  2  0
 16 18  1  0
 18 19  1  0
 19 20  1  0
 19 21  1  0
  6 22  2  0
 22 23  1  0
 23  3  2  0
 17  8  1  0
 17 12  1  0
 21 12  1  0
 20 14  1  0
  4 24  1  0
  5 25  1  0
  7 26  1  0
  9 27  1  0
 10 28  1  0
 10 29  1  0
 11 30  1  0
 11 31  1  0
 13 32  1  0
 13 33  1  0
 14 34  1  6
 15 35  1  0
 15 36  1  0
 18 37  1  0
 18 38  1  0
 19 39  1  6
 20 40  1  0
 20 41  1  0
 21 42  1  0
 21 43  1  0
 22 44  1  0
 23 45  1  0
M  END
>  <meeko>  (190) 
{"is_sidechain": false}

$$$$

     RDKit          3D

 45 49  0  0  0  0  0  0  0  0999 V2000
    3.2460    0.5290  -62.8720 N   0  0  0  0  0  0  0  0  0  0  0  0
    3.7490    0.8610  -61.8790 C   0  0  0  0  0  0  0  0  0  0  0  0
    4.3660    1.2760  -60.6550 C   0  0  0  0  0  0  0  0  0  0  0  0
    3.7670    2.2610  -59.8640 C   0  0  0  0  0  0  0  0  0  0  0  0
    4.3700    2.6680  -58.6710 C   0  0  0  0  0  0  0  0  0  0  0  0
    5.5780    2.0930  -58.2560 C   0  0  0  0  0  0  0  0  0  0  0  0
    6.2440    2.5360  -56.9720 C   0  0  0  0  0  0  0  0  0  0  0  0
    7.7590    2.3470  -57.0120 C   0  0  0  0  0  0  0  0  0  0  0  0
    8.2810    1.5900  -56.1070 N   0  0  0  0  0  0  0  0  0  0  0  0
    9.7220    1.3500  -56.0740 C   0  0  0  0  0  0  0  0  0  0  0  0
   10.4000    1.5250  -57.4260 C   0  0  0  0  0  0  0  0  0  0  0  0
   10.0350    2.8610  -58.0670 C   0  0  2  0  0  0  0  0  0  0  0  0
   10.5670    4.0930  -57.2700 C   0  0  0  0  0  0  0  0  0  0  0  0
   10.0620    5.4070  -57.9230 C   0  0  2  0  0  0  0  0  0  0  0  0
    8.5080    5.3900  -57.9680 C   0  0  0  0  0  0  0  0  0  0  0  0
    8.0900    4.1270  -58.7330 C   0  0  0  0  0  0  0  0  0  0  0  0
    8.5240    3.0000  -58.1210 C   0  0  0  0  0  0  0  0  0  0  0  0
    8.5670    4.2800  -60.1780 C   0  0  0  0  0  0  0  0  0  0  0  0
   10.1100    4.2680  -60.1810 C   0  0  1  0  0  0  0  0  0  0  0  0
   10.6150    5.4750  -59.3630 C   0  0  0  0  0  0  0  0  0  0  0  0
   10.5920    2.9570  -59.5150 C   0  0  0  0  0  0  0  0  0  0  0  0
    6.1740    1.1060  -59.0530 C   0  0  0  0  0  0  0  0  0  0  0  0
    5.5720    0.6990  -60.2460 C   0  0  0  0  0  0  0  0  0  0  0  0
    2.8178    2.7171  -60.1819 H   0  0  0  0  0  0  0  0  0  0  0  0
    3.8934    3.4443  -58.0543 H   0  0  0  0  0  0  0  0  0  0  0  0
    6.0243    3.6013  -56.8084 H   0  0  0  0  0  0  0  0  0  0  0  0
    5.8480    1.9151  -56.1549 H   0  0  0  0  0  0  0  0  0  0  0  0
   10.1760    2.0562  -55.3632 H   0  0  0  0  0  0  0  0  0  0  0  0
    9.8678    0.3020  -55.7732 H   0  0  0  0  0  0  0  0  0  0  0  0
   11.4903    1.4814  -57.2872 H   0  0  0  0  0  0  0  0  0  0  0  0
   10.0568    0.7185  -58.0907 H   0  0  0  0  0  0  0  0  0  0  0  0
   10.2051    4.0395  -56.2326 H   0  0  0  0  0  0  0  0  0  0  0  0
   11.6669    4.0833  -57.2829 H   0  0  0  0  0  0  0  0  0  0  0  0
   10.4005    6.2787  -57.3437 H   0  0  0  0  0  0  0  0  0  0  0  0
    8.1016    5.3635  -56.9462 H   0  0  0  0  0  0  0  0  0  0  0  0
    8.1218    6.2927  -58.4640 H   0  0  0  0  0  0  0  0  0  0  0  0
    8.1871    3.4455  -60.7857 H   0  0  0  0  0  0  0  0  0  0  0  0
    8.1938    5.2234  -60.6031 H   0  0  0  0  0  0  0  0  0  0  0  0
   10.4959    4.3291  -61.2093 H   0  0  0  0  0  0  0  0  0  0  0  0
   11.7144    5.4594  -59.3319 H   0  0  0  0  0  0  0  0  0  0  0  0
   10.2679    6.4039  -59.8391 H   0  0  0  0  0  0  0  0  0  0  0  0
   10.2339    2.0976  -60.1009 H   0  0  0  0  0  0  0  0  0  0  0  0
   11.6914    2.9524  -59.4803 H   0  0  0  0  0  0  0  0  0  0  0  0
    7.1230    0.6484  -58.7366 H   0  0  0  0  0  0  0  0  0  0  0  0
    6.0475   -0.0765  -60.8645 H   0  0  0  0  0  0  0  0  0  0  0  0
  1  2  3  0
  2  3  1  0
  3  4  1  0
  4  5  2  0
  5  6  1  0
  6  7  1  0
  7  8  1  0
  8  9  2  0
  9 10  1  0
 10 11  1  0
 12 11  1  1
 12 13  1  0
 13 14  1  0
 14 15  1  0
 15 16  1  0
 16 17  2  0
 16 18  1  0
 18 19  1  0
 19 20  1  0
 19 21  1  0
  6 22  2  0
 22 23  1  0
 23  3  2  0
 17  8  1  0
 17 12  1  0
 21 12  1  0
 20 14  1  0
  4 24  1  0
  5 25  1  0
  7 26  1  0
  7 27  1  0
 10 28  1  0
 10 29  1  0
 11 30  1  0
 11 31  1  0
 13 32  1  0
 13 33  1  0
 14 34  1  1
 15 35  1  0
 15 36  1  0
 18 37  1  0
 18 38  1  0
 19 39  1  6
 20 40  1  0
 20 41  1  0
 21 42  1  0
 21 43  1  0
 22 44  1  0
 23 45  1  0
M  END
>  <meeko>  (191) 
{"is_sidechain": false}

$$$$

     RDKit          3D

 45 49  0  0  0  0  0  0  0  0999 V2000
    7.2540   -3.7020  -50.1430 N   0  0  0  0  0  0  0  0  0  0  0  0
    7.5970   -2.9680  -50.9730 C   0  0  0  0  0  0  0  0  0  0  0  0
    8.0180   -2.0620  -52.0020 C   0  0  0  0  0  0  0  0  0  0  0  0
    9.1430   -2.3560  -52.7790 C   0  0  0  0  0  0  0  0  0  0  0  0
    9.5510   -1.4700  -53.7810 C   0  0  0  0  0  0  0  0  0  0  0  0
    8.8360   -0.2910  -54.0180 C   0  0  0  0  0  0  0  0  0  0  0  0
    9.2630    0.6580  -55.0550 C   0  0  0  0  0  0  0  0  0  0  0  0
    8.4670    1.2240  -55.9890 C   0  0  0  0  0  0  0  0  0  0  0  0
    7.1110    0.9510  -56.0770 N   0  0  0  0  0  0  0  0  0  0  0  0
    6.1480    1.7100  -56.8430 C   0  0  0  0  0  0  0  0  0  0  0  0
    6.7690    2.1660  -58.1520 C   0  0  0  0  0  0  0  0  0  0  0  0
    8.0890    2.9080  -57.9120 C   0  0  2  0  0  0  0  0  0  0  0  0
    8.7880    3.1830  -59.2760 C   0  0  0  0  0  0  0  0  0  0  0  0
   10.1380    3.8960  -59.0540 C   0  0  2  0  0  0  0  0  0  0  0  0
   11.0120    3.0010  -58.1580 C   0  0  0  0  0  0  0  0  0  0  0  0
   10.2520    2.7390  -56.8600 C   0  0  0  0  0  0  0  0  0  0  0  0
    9.0530    2.1140  -57.0050 C   0  0  0  0  0  0  0  0  0  0  0  0
   10.1280    4.0700  -56.1110 C   0  0  0  0  0  0  0  0  0  0  0  0
    9.2250    4.9950  -56.9700 C   0  0  1  0  0  0  0  0  0  0  0  0
    9.8990    5.2400  -58.3360 C   0  0  0  0  0  0  0  0  0  0  0  0
    7.8660    4.2920  -57.2140 C   0  0  0  0  0  0  0  0  0  0  0  0
    7.7170    0.0050  -53.2330 C   0  0  0  0  0  0  0  0  0  0  0  0
    7.3070   -0.8800  -52.2300 C   0  0  0  0  0  0  0  0  0  0  0  0
    9.7067   -3.2838  -52.6020 H   0  0  0  0  0  0  0  0  0  0  0  0
   10.4396   -1.7015  -54.3866 H   0  0  0  0  0  0  0  0  0  0  0  0
   10.3279    0.9330  -55.0728 H   0  0  0  0  0  0  0  0  0  0  0  0
    6.7310    0.5030  -55.2480 H   0  0  0  0  0  0  0  0  0  0  0  0
    5.2726    1.0788  -57.0555 H   0  0  0  0  0  0  0  0  0  0  0  0
    5.8397    2.5923  -56.2629 H   0  0  0  0  0  0  0  0  0  0  0  0
    6.9619    1.2860  -58.7831 H   0  0  0  0  0  0  0  0  0  0  0  0
    6.0686    2.8539  -58.6482 H   0  0  0  0  0  0  0  0  0  0  0  0
    8.9632    2.2278  -59.7927 H   0  0  0  0  0  0  0  0  0  0  0  0
    8.1392    3.8289  -59.8858 H   0  0  0  0  0  0  0  0  0  0  0  0
   10.6316    4.0802  -60.0196 H   0  0  0  0  0  0  0  0  0  0  0  0
   11.2161    2.0485  -58.6689 H   0  0  0  0  0  0  0  0  0  0  0  0
   11.9701    3.4972  -57.9440 H   0  0  0  0  0  0  0  0  0  0  0  0
    9.6702    3.9064  -55.1243 H   0  0  0  0  0  0  0  0  0  0  0  0
   11.1173    4.5246  -55.9543 H   0  0  0  0  0  0  0  0  0  0  0  0
    9.0733    5.9499  -56.4454 H   0  0  0  0  0  0  0  0  0  0  0  0
    9.2471    5.8733  -58.9556 H   0  0  0  0  0  0  0  0  0  0  0  0
   10.8649    5.7419  -58.1776 H   0  0  0  0  0  0  0  0  0  0  0  0
    7.3601    4.1351  -56.2499 H   0  0  0  0  0  0  0  0  0  0  0  0
    7.2464    4.9260  -57.8652 H   0  0  0  0  0  0  0  0  0  0  0  0
    7.1576    0.9364  -53.4047 H   0  0  0  0  0  0  0  0  0  0  0  0
    6.4229   -0.6452  -51.6191 H   0  0  0  0  0  0  0  0  0  0  0  0
  1  2  3  0
  2  3  1  0
  3  4  1  0
  4  5  2  0
  5  6  1  0
  6  7  1  0
  7  8  2  0
  8  9  1  0
  9 10  1  0
 10 11  1  0
 12 11  1  6
 12 13  1  0
 13 14  1  0
 14 15  1  0
 15 16  1  0
 16 17  2  0
 16 18  1  0
 18 19  1  0
 19 20  1  0
 19 21  1  0
  6 22  2  0
 22 23  1  0
 23  3  2  0
 17  8  1  0
 17 12  1  0
 21 12  1  0
 20 14  1  0
  4 24  1  0
  5 25  1  0
  7 26  1  0
  9 27  1  0
 10 28  1  0
 10 29  1  0
 11 30  1  0
 11 31  1  0
 13 32  1  0
 13 33  1  0
 14 34  1  6
 15 35  1  0
 15 36  1  0
 18 37  1  0
 18 38  1  0
 19 39  1  1
 20 40  1  0
 20 41  1  0
 21 42  1  0
 21 43  1  0
 22 44  1  0
 23 45  1  0
M  END
>  <meeko>  (192) 
{"is_sidechain": false}

$$$$

     RDKit          3D

 58 63  0  0  0  0  0  0  0  0999 V2000
    4.9420   -3.5560  -50.0840 F   0  0  0  0  0  0  0  0  0  0  0  0
    5.8650   -4.2290  -50.8240 C   0  0  0  0  0  0  0  0  0  0  0  0
    5.1590   -4.8540  -51.8130 F   0  0  0  0  0  0  0  0  0  0  0  0
    6.3320   -5.2320  -50.0260 F   0  0  0  0  0  0  0  0  0  0  0  0
    6.9840   -3.3590  -51.3730 C   0  0  0  0  0  0  0  0  0  0  0  0
    8.2820   -3.8440  -51.3540 C   0  0  0  0  0  0  0  0  0  0  0  0
    9.2570   -3.0040  -51.8350 C   0  0  0  0  0  0  0  0  0  0  0  0
    9.0050   -1.7720  -52.3070 N   0  0  0  0  0  0  0  0  0  0  0  0
    7.7180   -1.3840  -52.3000 C   0  0  0  0  0  0  0  0  0  0  0  0
    7.3830   -0.1070  -52.7240 O   0  0  0  0  0  0  0  0  0  0  0  0
    7.6350    0.2580  -54.0330 C   0  0  0  0  0  0  0  0  0  0  0  0
    7.0080   -0.6150  -55.0130 C   0  0  0  0  0  0  0  0  0  0  0  0
    6.9630   -0.2710  -56.3100 C   0  0  0  0  0  0  0  0  0  0  0  0
    7.5520    1.0030  -56.7210 C   0  0  0  0  0  0  0  0  0  0  0  0
    8.7540    1.3880  -55.8810 C   0  0  0  0  0  0  0  0  0  0  0  0
    8.5000    1.2170  -54.4190 C   0  0  0  0  0  0  0  0  0  0  0  0
    9.9460    1.7560  -56.2380 N   0  0  0  0  0  0  0  0  0  0  0  0
   10.3040    1.5190  -57.5260 C   0  0  0  0  0  0  0  0  0  0  0  0
   10.7420    2.4030  -58.4250 C   0  0  0  0  0  0  0  0  0  0  0  0
   10.8480    3.9090  -58.4230 C   0  0  1  0  0  0  0  0  0  0  0  0
   10.2530    4.4490  -59.7420 C   0  0  0  0  0  0  0  0  0  0  0  0
    8.7400    4.7190  -59.6650 C   0  0  2  0  0  0  0  0  0  0  0  0
    8.5150    5.8040  -58.6270 C   0  0  0  0  0  0  0  0  0  0  0  0
    8.8770    5.2380  -57.2650 C   0  0  2  0  0  0  0  0  0  0  0  0
   10.3340    4.7220  -57.2170 C   0  0  0  0  0  0  0  0  0  0  0  0
    7.8250    4.2050  -56.8540 C   0  0  0  0  0  0  0  0  0  0  0  0
    7.2260    3.3130  -57.9830 C   0  0  2  0  0  0  0  0  0  0  0  0
    5.7300    3.7640  -58.1710 C   0  0  0  0  0  0  0  0  0  0  0  0
    5.0180    2.5810  -58.8140 C   0  0  0  0  0  0  0  0  0  0  0  0
    5.7520    1.4500  -58.2870 N   0  0  0  0  0  0  0  0  0  0  0  0
    6.9420    1.8120  -57.6260 C   0  0  0  0  0  0  0  0  0  0  0  0
    7.9230    3.4370  -59.3810 C   0  0  0  0  0  0  0  0  0  0  0  0
    6.6930   -2.1150  -51.8360 N   0  0  0  0  0  0  0  0  0  0  0  0
    8.5192   -4.8486  -50.9738 H   0  0  0  0  0  0  0  0  0  0  0  0
   10.2982   -3.3589  -51.8335 H   0  0  0  0  0  0  0  0  0  0  0  0
    6.5656   -1.5681  -54.6877 H   0  0  0  0  0  0  0  0  0  0  0  0
    6.4919   -0.9350  -57.0497 H   0  0  0  0  0  0  0  0  0  0  0  0
    9.0044    1.8553  -53.6786 H   0  0  0  0  0  0  0  0  0  0  0  0
   10.2237    0.4768  -57.8686 H   0  0  0  0  0  0  0  0  0  0  0  0
   11.0982    1.9400  -59.3571 H   0  0  0  0  0  0  0  0  0  0  0  0
   11.9307    4.0749  -58.3220 H   0  0  0  0  0  0  0  0  0  0  0  0
   10.7627    5.3905  -59.9947 H   0  0  0  0  0  0  0  0  0  0  0  0
   10.4059    3.6746  -60.5081 H   0  0  0  0  0  0  0  0  0  0  0  0
    8.3732    5.0656  -60.6424 H   0  0  0  0  0  0  0  0  0  0  0  0
    9.1523    6.6721  -58.8512 H   0  0  0  0  0  0  0  0  0  0  0  0
    7.4640    6.1284  -58.6372 H   0  0  0  0  0  0  0  0  0  0  0  0
    8.8562    6.0396  -56.5121 H   0  0  0  0  0  0  0  0  0  0  0  0
   10.9894    5.5988  -57.1088 H   0  0  0  0  0  0  0  0  0  0  0  0
   10.3495    4.0121  -56.3769 H   0  0  0  0  0  0  0  0  0  0  0  0
    8.2890    3.5360  -56.1143 H   0  0  0  0  0  0  0  0  0  0  0  0
    6.9769    4.7967  -56.4790 H   0  0  0  0  0  0  0  0  0  0  0  0
    5.2762    4.0013  -57.1975 H   0  0  0  0  0  0  0  0  0  0  0  0
    5.6547    4.6685  -58.7924 H   0  0  0  0  0  0  0  0  0  0  0  0
    3.9602    2.5430  -58.5146 H   0  0  0  0  0  0  0  0  0  0  0  0
    5.0046    2.6217  -59.9132 H   0  0  0  0  0  0  0  0  0  0  0  0
    5.1910    0.7620  -57.7920 H   0  0  0  0  0  0  0  0  0  0  0  0
    8.6070    2.5818  -59.4842 H   0  0  0  0  0  0  0  0  0  0  0  0
    7.0941    3.4695  -60.1034 H   0  0  0  0  0  0  0  0  0  0  0  0
  1  2  1  0
  2  3  1  0
  2  4  1  0
  2  5  1  0
  5  6  1  0
  6  7  2  0
  7  8  1  0
  8  9  2  0
  9 10  1  0
 10 11  1  0
 11 12  1  0
 12 13  2  0
 13 14  1  0
 14 15  1  0
 15 16  1  0
 15 17  2  0
 17 18  1  0
 18 19  2  0
 19 20  1  0
 20 21  1  0
 21 22  1  0
 22 23  1  0
 23 24  1  0
 24 25  1  0
 24 26  1  0
 26 27  1  0
 27 28  1  6
 28 29  1  0
 29 30  1  0
 30 31  1  0
 27 32  1  0
  9 33  1  0
 33  5  2  0
 16 11  2  0
 25 20  1  0
 31 27  1  0
 31 14  2  0
 32 22  1  0
  6 34  1  0
  7 35  1  0
 12 36  1  0
 13 37  1  0
 16 38  1  0
 18 39  1  0
 19 40  1  0
 20 41  1  6
 21 42  1  0
 21 43  1  0
 22 44  1  6
 23 45  1  0
 23 46  1  0
 24 47  1  1
 25 48  1  0
 25 49  1  0
 26 50  1  0
 26 51  1  0
 28 52  1  0
 28 53  1  0
 29 54  1  0
 29 55  1  0
 30 56  1  0
 32 57  1  0
 32 58  1  0
M  END
>  <meeko>  (193) 
{"is_sidechain": false}

$$$$

     RDKit          3D

 58 63  0  0  0  0  0  0  0  0999 V2000
    7.7950   -2.5670  -49.3990 F   0  0  0  0  0  0  0  0  0  0  0  0
    8.1310   -3.4240  -50.4030 C   0  0  0  0  0  0  0  0  0  0  0  0
    9.3950   -3.8570  -50.1250 F   0  0  0  0  0  0  0  0  0  0  0  0
    7.3290   -4.5180  -50.2360 F   0  0  0  0  0  0  0  0  0  0  0  0
    8.0180   -2.8270  -51.7960 C   0  0  0  0  0  0  0  0  0  0  0  0
    8.1760   -3.6510  -52.8990 C   0  0  0  0  0  0  0  0  0  0  0  0
    8.0880   -3.0490  -54.1310 C   0  0  0  0  0  0  0  0  0  0  0  0
    7.8700   -1.7340  -54.3000 N   0  0  0  0  0  0  0  0  0  0  0  0
    7.7400   -1.0050  -53.1820 C   0  0  0  0  0  0  0  0  0  0  0  0
    7.5020    0.3480  -53.3920 O   0  0  0  0  0  0  0  0  0  0  0  0
    7.4940    0.7700  -54.6980 C   0  0  0  0  0  0  0  0  0  0  0  0
    6.2810    0.8490  -55.3640 C   0  0  0  0  0  0  0  0  0  0  0  0
    6.2680    1.2310  -56.7030 C   0  0  0  0  0  0  0  0  0  0  0  0
    7.4630    1.5320  -57.3920 C   0  0  0  0  0  0  0  0  0  0  0  0
    8.6990    1.4320  -56.7210 C   0  0  0  0  0  0  0  0  0  0  0  0
    8.6930    1.0230  -55.3720 C   0  0  0  0  0  0  0  0  0  0  0  0
    9.9280    1.6000  -57.4320 N   0  0  0  0  0  0  0  0  0  0  0  0
   11.0810    2.0410  -56.8230 C   0  0  0  0  0  0  0  0  0  0  0  0
   11.8870    3.0280  -57.2280 C   0  0  0  0  0  0  0  0  0  0  0  0
   11.7960    3.9020  -58.4570 C   0  0  1  0  0  0  0  0  0  0  0  0
   11.6960    3.1380  -59.7950 C   0  0  0  0  0  0  0  0  0  0  0  0
   10.4460    3.3760  -60.6590 C   0  0  2  0  0  0  0  0  0  0  0  0
   10.0260    4.8350  -60.5980 C   0  0  0  0  0  0  0  0  0  0  0  0
    9.6200    5.1620  -59.1710 C   0  0  2  0  0  0  0  0  0  0  0  0
   10.8700    5.1230  -58.2760 C   0  0  0  0  0  0  0  0  0  0  0  0
    8.5000    4.2510  -58.6310 C   0  0  0  0  0  0  0  0  0  0  0  0
    8.1100    3.0560  -59.5250 C   0  0  2  0  0  0  0  0  0  0  0  0
    7.0040    3.4780  -60.5230 C   0  0  0  0  0  0  0  0  0  0  0  0
    6.2520    2.1870  -60.7830 C   0  0  0  0  0  0  0  0  0  0  0  0
    6.2860    1.4700  -59.5040 N   0  0  0  0  0  0  0  0  0  0  0  0
    7.2730    1.9740  -58.8110 C   0  0  0  0  0  0  0  0  0  0  0  0
    9.2860    2.4250  -60.3110 C   0  0  0  0  0  0  0  0  0  0  0  0
    7.8050   -1.4930  -51.9310 N   0  0  0  0  0  0  0  0  0  0  0  0
    8.3620   -4.7300  -52.7938 H   0  0  0  0  0  0  0  0  0  0  0  0
    8.2021   -3.6772  -55.0268 H   0  0  0  0  0  0  0  0  0  0  0  0
    5.3418    0.6132  -54.8421 H   0  0  0  0  0  0  0  0  0  0  0  0
    5.3074    1.2996  -57.2346 H   0  0  0  0  0  0  0  0  0  0  0  0
    9.6481    0.9007  -54.8402 H   0  0  0  0  0  0  0  0  0  0  0  0
   10.1150    0.6750  -57.8320 H   0  0  0  0  0  0  0  0  0  0  0  0
   11.3725    1.5224  -55.8978 H   0  0  0  0  0  0  0  0  0  0  0  0
   12.7431    3.2342  -56.5688 H   0  0  0  0  0  0  0  0  0  0  0  0
   12.7883    4.3649  -58.5623 H   0  0  0  0  0  0  0  0  0  0  0  0
   12.5718    3.4167  -60.3994 H   0  0  0  0  0  0  0  0  0  0  0  0
   11.6394    2.0777  -59.5077 H   0  0  0  0  0  0  0  0  0  0  0  0
   10.7184    3.1402  -61.6983 H   0  0  0  0  0  0  0  0  0  0  0  0
   10.8673    5.4760  -60.9003 H   0  0  0  0  0  0  0  0  0  0  0  0
    9.1810    5.0121  -61.2796 H   0  0  0  0  0  0  0  0  0  0  0  0
    9.1898    6.1743  -59.1625 H   0  0  0  0  0  0  0  0  0  0  0  0
   11.4610    6.0270  -58.4844 H   0  0  0  0  0  0  0  0  0  0  0  0
   10.4933    5.0581  -57.2446 H   0  0  0  0  0  0  0  0  0  0  0  0
    8.8296    3.8517  -57.6605 H   0  0  0  0  0  0  0  0  0  0  0  0
    7.6029    4.8851  -58.5758 H   0  0  0  0  0  0  0  0  0  0  0  0
    6.3421    4.2362  -60.0792 H   0  0  0  0  0  0  0  0  0  0  0  0
    7.4052    3.9329  -61.4407 H   0  0  0  0  0  0  0  0  0  0  0  0
    5.2145    2.3964  -61.0825 H   0  0  0  0  0  0  0  0  0  0  0  0
    6.7009    1.6020  -61.5992 H   0  0  0  0  0  0  0  0  0  0  0  0
    9.6940    1.6024  -59.7053 H   0  0  0  0  0  0  0  0  0  0  0  0
    8.8634    2.1040  -61.2745 H   0  0  0  0  0  0  0  0  0  0  0  0
  1  2  1  0
  2  3  1  0
  2  4  1  0
  2  5  1  0
  5  6  1  0
  6  7  2  0
  7  8  1  0
  8  9  2  0
  9 10  1  0
 10 11  1  0
 11 12  1  0
 12 13  2  0
 13 14  1  0
 14 15  2  0
 15 16  1  0
 15 17  1  0
 17 18  1  0
 18 19  2  0
 19 20  1  0
 20 21  1  0
 21 22  1  0
 22 23  1  0
 23 24  1  0
 24 25  1  0
 24 26  1  0
 26 27  1  0
 27 28  1  6
 28 29  1  0
 29 30  1  0
 30 31  2  0
 27 32  1  0
  9 33  1  0
 33  5  2  0
 16 11  2  0
 25 20  1  0
 31 27  1  0
 31 14  1  0
 32 22  1  0
  6 34  1  0
  7 35  1  0
 12 36  1  0
 13 37  1  0
 16 38  1  0
 17 39  1  0
 18 40  1  0
 19 41  1  0
 20 42  1  6
 21 43  1  0
 21 44  1  0
 22 45  1  6
 23 46  1  0
 23 47  1  0
 24 48  1  6
 25 49  1  0
 25 50  1  0
 26 51  1  0
 26 52  1  0
 28 53  1  0
 28 54  1  0
 29 55  1  0
 29 56  1  0
 32 57  1  0
 32 58  1  0
M  END
>  <meeko>  (194) 
{"is_sidechain": false}

$$$$

     RDKit          3D

 58 63  0  0  0  0  0  0  0  0999 V2000
    7.1960   -4.2780  -49.9130 F   0  0  0  0  0  0  0  0  0  0  0  0
    8.0710   -3.2760  -50.2140 C   0  0  0  0  0  0  0  0  0  0  0  0
    7.7920   -2.2720  -49.3310 F   0  0  0  0  0  0  0  0  0  0  0  0
    9.3050   -3.7370  -49.8680 F   0  0  0  0  0  0  0  0  0  0  0  0
    7.9560   -2.8250  -51.6610 C   0  0  0  0  0  0  0  0  0  0  0  0
    8.2750   -3.7200  -52.6700 C   0  0  0  0  0  0  0  0  0  0  0  0
    8.1740   -3.2520  -53.9580 C   0  0  0  0  0  0  0  0  0  0  0  0
    7.7960   -1.9990  -54.2590 N   0  0  0  0  0  0  0  0  0  0  0  0
    7.5170   -1.1910  -53.2240 C   0  0  0  0  0  0  0  0  0  0  0  0
    7.1100    0.1190  -53.4460 O   0  0  0  0  0  0  0  0  0  0  0  0
    7.1990    0.5720  -54.7370 C   0  0  0  0  0  0  0  0  0  0  0  0
    6.0340    0.8050  -55.4540 C   0  0  0  0  0  0  0  0  0  0  0  0
    6.1260    1.2950  -56.7570 C   0  0  0  0  0  0  0  0  0  0  0  0
    7.3750    1.5920  -57.3460 C   0  0  0  0  0  0  0  0  0  0  0  0
    8.5460    1.3950  -56.5960 C   0  0  0  0  0  0  0  0  0  0  0  0
    8.4420    0.8730  -55.2940 C   0  0  0  0  0  0  0  0  0  0  0  0
    9.8320    1.6470  -57.1000 N   0  0  0  0  0  0  0  0  0  0  0  0
   10.4730    2.6280  -56.5570 C   0  0  0  0  0  0  0  0  0  0  0  0
   11.8350    3.0210  -57.0330 C   0  0  0  0  0  0  0  0  0  0  0  0
   11.8290    4.0560  -58.1810 C   0  0  1  0  0  0  0  0  0  0  0  0
   11.8340    3.4090  -59.5830 C   0  0  0  0  0  0  0  0  0  0  0  0
   10.5620    3.5720  -60.4300 C   0  0  2  0  0  0  0  0  0  0  0  0
   10.0910    5.0170  -60.3520 C   0  0  0  0  0  0  0  0  0  0  0  0
    9.6310    5.2940  -58.9310 C   0  0  2  0  0  0  0  0  0  0  0  0
   10.8510    5.2380  -57.9900 C   0  0  0  0  0  0  0  0  0  0  0  0
    8.4700    4.3740  -58.4970 C   0  0  0  0  0  0  0  0  0  0  0  0
    8.1980    3.1530  -59.4040 C   0  0  2  0  0  0  0  0  0  0  0  0
    7.2020    3.5430  -60.5280 C   0  0  0  0  0  0  0  0  0  0  0  0
    6.4730    2.2510  -60.8290 C   0  0  0  0  0  0  0  0  0  0  0  0
    6.3740    1.5720  -59.5380 N   0  0  0  0  0  0  0  0  0  0  0  0
    7.3050    2.0650  -58.7660 C   0  0  0  0  0  0  0  0  0  0  0  0
    9.4700    2.5540  -60.0460 C   0  0  0  0  0  0  0  0  0  0  0  0
    7.5820   -1.5470  -51.9310 N   0  0  0  0  0  0  0  0  0  0  0  0
    8.5922   -4.7503  -52.4513 H   0  0  0  0  0  0  0  0  0  0  0  0
    8.4148   -3.9378  -54.7836 H   0  0  0  0  0  0  0  0  0  0  0  0
    5.0514    0.6061  -55.0012 H   0  0  0  0  0  0  0  0  0  0  0  0
    5.2057    1.4535  -57.3384 H   0  0  0  0  0  0  0  0  0  0  0  0
    9.3552    0.6994  -54.7058 H   0  0  0  0  0  0  0  0  0  0  0  0
   10.0087    3.1844  -55.7295 H   0  0  0  0  0  0  0  0  0  0  0  0
   12.3869    3.4504  -56.1839 H   0  0  0  0  0  0  0  0  0  0  0  0
   12.3069    2.1101  -57.4301 H   0  0  0  0  0  0  0  0  0  0  0  0
   12.8040    4.5611  -58.1160 H   0  0  0  0  0  0  0  0  0  0  0  0
   12.6684    3.8491  -60.1488 H   0  0  0  0  0  0  0  0  0  0  0  0
   11.9186    2.3278  -59.3989 H   0  0  0  0  0  0  0  0  0  0  0  0
   10.7967    3.3461  -61.4807 H   0  0  0  0  0  0  0  0  0  0  0  0
   10.9190    5.6925  -60.6130 H   0  0  0  0  0  0  0  0  0  0  0  0
    9.2633    5.1839  -61.0571 H   0  0  0  0  0  0  0  0  0  0  0  0
    9.2058    6.3070  -58.8764 H   0  0  0  0  0  0  0  0  0  0  0  0
   11.4220    6.1676  -58.1307 H   0  0  0  0  0  0  0  0  0  0  0  0
   10.4299    5.1015  -56.9830 H   0  0  0  0  0  0  0  0  0  0  0  0
    8.6964    3.9997  -57.4877 H   0  0  0  0  0  0  0  0  0  0  0  0
    7.5631    4.9939  -58.5543 H   0  0  0  0  0  0  0  0  0  0  0  0
    6.5014    4.3163  -60.1798 H   0  0  0  0  0  0  0  0  0  0  0  0
    7.7023    3.9650  -61.4121 H   0  0  0  0  0  0  0  0  0  0  0  0
    5.4724    2.4561  -61.2373 H   0  0  0  0  0  0  0  0  0  0  0  0
    6.9972    1.6424  -61.5805 H   0  0  0  0  0  0  0  0  0  0  0  0
    9.9072    1.8416  -59.3309 H   0  0  0  0  0  0  0  0  0  0  0  0
    9.1432    2.0916  -60.9891 H   0  0  0  0  0  0  0  0  0  0  0  0
  1  2  1  0
  2  3  1  0
  2  4  1  0
  2  5  1  0
  5  6  1  0
  6  7  2  0
  7  8  1  0
  8  9  2  0
  9 10  1  0
 10 11  1  0
 11 12  1  0
 12 13  2  0
 13 14  1  0
 14 15  2  0
 15 16  1  0
 15 17  1  0
 17 18  2  0
 18 19  1  0
 19 20  1  0
 20 21  1  0
 21 22  1  0
 22 23  1  0
 23 24  1  0
 24 25  1  0
 24 26  1  0
 26 27  1  0
 27 28  1  6
 28 29  1  0
 29 30  1  0
 30 31  2  0
 27 32  1  0
  9 33  1  0
 33  5  2  0
 16 11  2  0
 25 20  1  0
 31 27  1  0
 31 14  1  0
 32 22  1  0
  6 34  1  0
  7 35  1  0
 12 36  1  0
 13 37  1  0
 16 38  1  0
 18 39  1  0
 19 40  1  0
 19 41  1  0
 20 42  1  1
 21 43  1  0
 21 44  1  0
 22 45  1  6
 23 46  1  0
 23 47  1  0
 24 48  1  6
 25 49  1  0
 25 50  1  0
 26 51  1  0
 26 52  1  0
 28 53  1  0
 28 54  1  0
 29 55  1  0
 29 56  1  0
 32 57  1  0
 32 58  1  0
M  END
>  <meeko>  (195) 
{"is_sidechain": false}

$$$$

     RDKit          3D

 58 63  0  0  0  0  0  0  0  0999 V2000
   11.9210   -2.3340  -57.5740 F   0  0  0  0  0  0  0  0  0  0  0  0
   11.5230   -3.3900  -56.8090 C   0  0  0  0  0  0  0  0  0  0  0  0
   10.7610   -4.1680  -57.6360 F   0  0  0  0  0  0  0  0  0  0  0  0
   12.6430   -4.1220  -56.5530 F   0  0  0  0  0  0  0  0  0  0  0  0
   10.7650   -2.9560  -55.5660 C   0  0  0  0  0  0  0  0  0  0  0  0
   10.3670   -3.9140  -54.6470 C   0  0  0  0  0  0  0  0  0  0  0  0
    9.6710   -3.4610  -53.5520 C   0  0  0  0  0  0  0  0  0  0  0  0
    9.3640   -2.1700  -53.3500 N   0  0  0  0  0  0  0  0  0  0  0  0
    9.7680   -1.3090  -54.2970 C   0  0  0  0  0  0  0  0  0  0  0  0
    9.4540    0.0220  -54.0510 O   0  0  0  0  0  0  0  0  0  0  0  0
    8.6140    0.6220  -54.9560 C   0  0  0  0  0  0  0  0  0  0  0  0
    7.6250   -0.1440  -55.5630 C   0  0  0  0  0  0  0  0  0  0  0  0
    6.7880    0.4490  -56.5060 C   0  0  0  0  0  0  0  0  0  0  0  0
    6.9780    1.7910  -56.8770 C   0  0  0  0  0  0  0  0  0  0  0  0
    7.9870    2.5630  -56.2830 C   0  0  0  0  0  0  0  0  0  0  0  0
    8.7960    1.9620  -55.3070 C   0  0  0  0  0  0  0  0  0  0  0  0
    8.1390    3.9280  -56.5450 N   0  0  0  0  0  0  0  0  0  0  0  0
    9.1500    4.3790  -57.2190 C   0  0  0  0  0  0  0  0  0  0  0  0
   10.2680    3.6110  -57.8800 C   0  0  0  0  0  0  0  0  0  0  0  0
   10.0040    3.2320  -59.3520 C   0  0  1  0  0  0  0  0  0  0  0  0
    9.4710    1.7870  -59.4990 C   0  0  0  0  0  0  0  0  0  0  0  0
    8.3980    1.4980  -60.5620 C   0  0  2  0  0  0  0  0  0  0  0  0
    8.2150    2.6150  -61.5690 C   0  0  0  0  0  0  0  0  0  0  0  0
    7.9700    3.9020  -60.8070 C   0  0  2  0  0  0  0  0  0  0  0  0
    9.2890    4.3270  -60.1610 C   0  0  0  0  0  0  0  0  0  0  0  0
    6.8050    3.8160  -59.7940 C   0  0  0  0  0  0  0  0  0  0  0  0
    6.2780    2.4140  -59.3650 C   0  0  2  0  0  0  0  0  0  0  0  0
    4.7830    2.3010  -59.7610 C   0  0  0  0  0  0  0  0  0  0  0  0
    4.0680    3.0440  -58.6490 C   0  0  0  0  0  0  0  0  0  0  0  0
    4.8190    2.6860  -57.4390 N   0  0  0  0  0  0  0  0  0  0  0  0
    6.0080    2.3410  -57.8460 C   0  0  0  0  0  0  0  0  0  0  0  0
    7.0260    1.1980  -59.9470 C   0  0  0  0  0  0  0  0  0  0  0  0
   10.4630   -1.6430  -55.3980 N   0  0  0  0  0  0  0  0  0  0  0  0
   10.5961   -4.9808  -54.7867 H   0  0  0  0  0  0  0  0  0  0  0  0
    9.3480   -4.1963  -52.8003 H   0  0  0  0  0  0  0  0  0  0  0  0
    7.5048   -1.2058  -55.3018 H   0  0  0  0  0  0  0  0  0  0  0  0
    5.9753   -0.1356  -56.9618 H   0  0  0  0  0  0  0  0  0  0  0  0
    9.5819    2.5521  -54.8129 H   0  0  0  0  0  0  0  0  0  0  0  0
    9.1999    5.4729  -57.3236 H   0  0  0  0  0  0  0  0  0  0  0  0
   11.1775    4.2286  -57.8425 H   0  0  0  0  0  0  0  0  0  0  0  0
   10.3658    2.6650  -57.3272 H   0  0  0  0  0  0  0  0  0  0  0  0
   10.9787    3.1957  -59.8605 H   0  0  0  0  0  0  0  0  0  0  0  0
   10.3346    1.1456  -59.7286 H   0  0  0  0  0  0  0  0  0  0  0  0
    8.9590    1.5938  -58.5448 H   0  0  0  0  0  0  0  0  0  0  0  0
    8.7851    0.6097  -61.0827 H   0  0  0  0  0  0  0  0  0  0  0  0
    9.1209    2.7134  -62.1851 H   0  0  0  0  0  0  0  0  0  0  0  0
    7.3634    2.3959  -62.2298 H   0  0  0  0  0  0  0  0  0  0  0  0
    7.6362    4.6744  -61.5154 H   0  0  0  0  0  0  0  0  0  0  0  0
    9.9683    4.6581  -60.9603 H   0  0  0  0  0  0  0  0  0  0  0  0
    9.0356    5.1210  -59.4431 H   0  0  0  0  0  0  0  0  0  0  0  0
    7.1350    4.3299  -58.8791 H   0  0  0  0  0  0  0  0  0  0  0  0
    5.9556    4.2638  -60.3307 H   0  0  0  0  0  0  0  0  0  0  0  0
    4.5968    2.7765  -60.7353 H   0  0  0  0  0  0  0  0  0  0  0  0
    4.4447    1.2599  -59.8687 H   0  0  0  0  0  0  0  0  0  0  0  0
    4.0999    4.1299  -58.8215 H   0  0  0  0  0  0  0  0  0  0  0  0
    3.0031    2.7772  -58.5795 H   0  0  0  0  0  0  0  0  0  0  0  0
    7.1705    0.4693  -59.1358 H   0  0  0  0  0  0  0  0  0  0  0  0
    6.4007    0.8260  -60.7720 H   0  0  0  0  0  0  0  0  0  0  0  0
  1  2  1  0
  2  3  1  0
  2  4  1  0
  2  5  1  0
  5  6  1  0
  6  7  2  0
  7  8  1  0
  8  9  2  0
  9 10  1  0
 10 11  1  0
 11 12  1  0
 12 13  2  0
 13 14  1  0
 14 15  2  0
 15 16  1  0
 15 17  1  0
 17 18  2  0
 18 19  1  0
 19 20  1  0
 20 21  1  0
 21 22  1  0
 22 23  1  0
 23 24  1  0
 24 25  1  0
 24 26  1  0
 26 27  1  0
 27 28  1  6
 28 29  1  0
 29 30  1  0
 30 31  2  0
 27 32  1  0
  9 33  1  0
 33  5  2  0
 16 11  2  0
 25 20  1  0
 31 27  1  0
 31 14  1  0
 32 22  1  0
  6 34  1  0
  7 35  1  0
 12 36  1  0
 13 37  1  0
 16 38  1  0
 18 39  1  0
 19 40  1  0
 19 41  1  0
 20 42  1  6
 21 43  1  0
 21 44  1  0
 22 45  1  6
 23 46  1  0
 23 47  1  0
 24 48  1  6
 25 49  1  0
 25 50  1  0
 26 51  1  0
 26 52  1  0
 28 53  1  0
 28 54  1  0
 29 55  1  0
 29 56  1  0
 32 57  1  0
 32 58  1  0
M  END
>  <meeko>  (196) 
{"is_sidechain": false}

$$$$

     RDKit          3D

 58 63  0  0  0  0  0  0  0  0999 V2000
   10.4060   -4.1090  -57.1070 F   0  0  0  0  0  0  0  0  0  0  0  0
   11.2840   -3.2730  -56.4850 C   0  0  0  0  0  0  0  0  0  0  0  0
   11.5310   -2.2610  -57.3650 F   0  0  0  0  0  0  0  0  0  0  0  0
   12.4550   -3.9700  -56.3950 F   0  0  0  0  0  0  0  0  0  0  0  0
   10.8100   -2.7610  -55.1340 C   0  0  0  0  0  0  0  0  0  0  0  0
   11.5310   -3.0980  -53.9990 C   0  0  0  0  0  0  0  0  0  0  0  0
   11.0670   -2.5950  -52.8080 C   0  0  0  0  0  0  0  0  0  0  0  0
    9.9830   -1.8070  -52.7100 N   0  0  0  0  0  0  0  0  0  0  0  0
    9.3520   -1.5140  -53.8600 C   0  0  0  0  0  0  0  0  0  0  0  0
    8.1950   -0.7520  -53.8390 O   0  0  0  0  0  0  0  0  0  0  0  0
    7.9670    0.1730  -54.8410 C   0  0  0  0  0  0  0  0  0  0  0  0
    6.6130    0.1560  -55.3460 C   0  0  0  0  0  0  0  0  0  0  0  0
    6.2820    0.7980  -56.4750 C   0  0  0  0  0  0  0  0  0  0  0  0
    7.2760    1.5480  -57.2370 C   0  0  0  0  0  0  0  0  0  0  0  0
    8.5340    1.9310  -56.4730 C   0  0  0  0  0  0  0  0  0  0  0  0
    8.9020    0.9750  -55.3790 C   0  0  0  0  0  0  0  0  0  0  0  0
    9.1720    3.0160  -56.7860 N   0  0  0  0  0  0  0  0  0  0  0  0
   10.3020    3.3990  -56.1440 C   0  0  0  0  0  0  0  0  0  0  0  0
   11.2850    4.0430  -56.7840 C   0  0  0  0  0  0  0  0  0  0  0  0
   11.3200    4.4370  -58.2500 C   0  0  1  0  0  0  0  0  0  0  0  0
   11.6480    3.2580  -59.1920 C   0  0  0  0  0  0  0  0  0  0  0  0
   10.5640    2.8790  -60.2170 C   0  0  2  0  0  0  0  0  0  0  0  0
   10.0290    4.1440  -60.8640 C   0  0  0  0  0  0  0  0  0  0  0  0
    9.2470    4.9270  -59.8250 C   0  0  2  0  0  0  0  0  0  0  0  0
   10.1840    5.3930  -58.6910 C   0  0  0  0  0  0  0  0  0  0  0  0
    8.0150    4.1530  -59.3120 C   0  0  0  0  0  0  0  0  0  0  0  0
    8.0340    2.6140  -59.5280 C   0  0  2  0  0  0  0  0  0  0  0  0
    7.3200    2.2730  -60.8860 C   0  0  0  0  0  0  0  0  0  0  0  0
    5.8430    2.1360  -60.5650 C   0  0  0  0  0  0  0  0  0  0  0  0
    5.8560    1.6500  -59.2050 N   0  0  0  0  0  0  0  0  0  0  0  0
    7.0580    1.9100  -58.5290 C   0  0  0  0  0  0  0  0  0  0  0  0
    9.4620    1.9960  -59.5960 C   0  0  0  0  0  0  0  0  0  0  0  0
    9.7140   -1.9610  -55.0720 N   0  0  0  0  0  0  0  0  0  0  0  0
   12.4269   -3.7343  -54.0494 H   0  0  0  0  0  0  0  0  0  0  0  0
   11.6110   -2.8505  -51.8867 H   0  0  0  0  0  0  0  0  0  0  0  0
    5.8384   -0.3950  -54.7926 H   0  0  0  0  0  0  0  0  0  0  0  0
    5.2429    0.7591  -56.8338 H   0  0  0  0  0  0  0  0  0  0  0  0
    9.9392    0.9296  -55.0156 H   0  0  0  0  0  0  0  0  0  0  0  0
   10.4138    3.1756  -55.0728 H   0  0  0  0  0  0  0  0  0  0  0  0
   12.1640    4.3170  -56.1821 H   0  0  0  0  0  0  0  0  0  0  0  0
   12.1971    5.0910  -58.3641 H   0  0  0  0  0  0  0  0  0  0  0  0
   12.5595    3.5189  -59.7498 H   0  0  0  0  0  0  0  0  0  0  0  0
   11.7504    2.3803  -58.5369 H   0  0  0  0  0  0  0  0  0  0  0  0
   11.0095    2.2558  -61.0064 H   0  0  0  0  0  0  0  0  0  0  0  0
   10.8666    4.7535  -61.2341 H   0  0  0  0  0  0  0  0  0  0  0  0
    9.3750    3.8854  -61.7098 H   0  0  0  0  0  0  0  0  0  0  0  0
    8.8393    5.8278  -60.3071 H   0  0  0  0  0  0  0  0  0  0  0  0
   10.6547    6.3312  -59.0199 H   0  0  0  0  0  0  0  0  0  0  0  0
    9.5315    5.4711  -57.8089 H   0  0  0  0  0  0  0  0  0  0  0  0
    7.9273    4.3394  -58.2315 H   0  0  0  0  0  0  0  0  0  0  0  0
    7.1660    4.5235  -59.9052 H   0  0  0  0  0  0  0  0  0  0  0  0
    7.4786    3.0823  -61.6139 H   0  0  0  0  0  0  0  0  0  0  0  0
    7.7213    1.3496  -61.3291 H   0  0  0  0  0  0  0  0  0  0  0  0
    5.3306    3.1069  -60.6341 H   0  0  0  0  0  0  0  0  0  0  0  0
    5.3055    1.4736  -61.2595 H   0  0  0  0  0  0  0  0  0  0  0  0
    5.5120    0.7030  -59.0670 H   0  0  0  0  0  0  0  0  0  0  0  0
    9.7694    1.7505  -58.5688 H   0  0  0  0  0  0  0  0  0  0  0  0
    9.3724    1.1276  -60.2653 H   0  0  0  0  0  0  0  0  0  0  0  0
  1  2  1  0
  2  3  1  0
  2  4  1  0
  2  5  1  0
  5  6  1  0
  6  7  2  0
  7  8  1  0
  8  9  2  0
  9 10  1  0
 10 11  1  0
 11 12  1  0
 12 13  2  0
 13 14  1  0
 14 15  1  0
 15 16  1  0
 15 17  2  0
 17 18  1  0
 18 19  2  0
 19 20  1  0
 20 21  1  0
 21 22  1  0
 22 23  1  0
 23 24  1  0
 24 25  1  0
 24 26  1  0
 26 27  1  0
 27 28  1  6
 28 29  1  0
 29 30  1  0
 30 31  1  0
 27 32  1  0
  9 33  1  0
 33  5  2  0
 16 11  2  0
 25 20  1  0
 31 27  1  0
 31 14  2  0
 32 22  1  0
  6 34  1  0
  7 35  1  0
 12 36  1  0
 13 37  1  0
 16 38  1  0
 18 39  1  0
 19 40  1  0
 20 41  1  1
 21 42  1  0
 21 43  1  0
 22 44  1  6
 23 45  1  0
 23 46  1  0
 24 47  1  6
 25 48  1  0
 25 49  1  0
 26 50  1  0
 26 51  1  0
 28 52  1  0
 28 53  1  0
 29 54  1  0
 29 55  1  0
 30 56  1  0
 32 57  1  0
 32 58  1  0
M  END
>  <meeko>  (197) 
{"is_sidechain": false}

$$$$

     RDKit          3D

 58 63  0  0  0  0  0  0  0  0999 V2000
   11.1950   -3.2040  -57.4590 F   0  0  0  0  0  0  0  0  0  0  0  0
   11.0080   -4.0630  -56.4200 C   0  0  0  0  0  0  0  0  0  0  0  0
   10.0040   -4.9020  -56.8120 F   0  0  0  0  0  0  0  0  0  0  0  0
   12.1280   -4.8400  -56.3650 F   0  0  0  0  0  0  0  0  0  0  0  0
   10.7110   -3.3840  -55.0920 C   0  0  0  0  0  0  0  0  0  0  0  0
   11.7260   -3.2730  -54.1540 C   0  0  0  0  0  0  0  0  0  0  0  0
   11.4070   -2.6290  -52.9830 C   0  0  0  0  0  0  0  0  0  0  0  0
   10.1930   -2.1180  -52.7280 N   0  0  0  0  0  0  0  0  0  0  0  0
    9.2660   -2.2680  -53.6900 C   0  0  0  0  0  0  0  0  0  0  0  0
    7.9830   -1.7610  -53.5140 O   0  0  0  0  0  0  0  0  0  0  0  0
    7.5830   -0.8020  -54.4100 C   0  0  0  0  0  0  0  0  0  0  0  0
    6.3610   -0.9290  -55.0580 C   0  0  0  0  0  0  0  0  0  0  0  0
    5.9920    0.0270  -56.0030 C   0  0  0  0  0  0  0  0  0  0  0  0
    6.8440    1.1020  -56.3370 C   0  0  0  0  0  0  0  0  0  0  0  0
    8.0890    1.2190  -55.6800 C   0  0  0  0  0  0  0  0  0  0  0  0
    8.4490    0.2430  -54.7290 C   0  0  0  0  0  0  0  0  0  0  0  0
    9.0620    2.1820  -56.0200 N   0  0  0  0  0  0  0  0  0  0  0  0
    9.7140    2.0490  -57.2200 C   0  0  0  0  0  0  0  0  0  0  0  0
   10.2560    3.0630  -57.8930 C   0  0  0  0  0  0  0  0  0  0  0  0
   10.3900    3.1100  -59.4010 C   0  0  1  0  0  0  0  0  0  0  0  0
    9.9090    1.8710  -60.2070 C   0  0  0  0  0  0  0  0  0  0  0  0
    8.4010    1.7960  -60.5830 C   0  0  2  0  0  0  0  0  0  0  0  0
    7.9470    3.1260  -61.1600 C   0  0  0  0  0  0  0  0  0  0  0  0
    8.1400    4.1940  -60.0890 C   0  0  2  0  0  0  0  0  0  0  0  0
    9.6610    4.3820  -59.8900 C   0  0  0  0  0  0  0  0  0  0  0  0
    7.3750    3.8700  -58.7740 C   0  0  0  0  0  0  0  0  0  0  0  0
    6.6880    2.4720  -58.7020 C   0  0  2  0  0  0  0  0  0  0  0  0
    5.2540    2.6450  -59.2790 C   0  0  0  0  0  0  0  0  0  0  0  0
    4.4750    3.2260  -58.1110 C   0  0  0  0  0  0  0  0  0  0  0  0
    5.0300    2.5550  -56.9330 N   0  0  0  0  0  0  0  0  0  0  0  0
    6.2050    2.0920  -57.2740 C   0  0  0  0  0  0  0  0  0  0  0  0
    7.4350    1.3470  -59.4630 C   0  0  0  0  0  0  0  0  0  0  0  0
    9.4730   -2.8720  -54.8700 N   0  0  0  0  0  0  0  0  0  0  0  0
   12.7320   -3.6785  -54.3374 H   0  0  0  0  0  0  0  0  0  0  0  0
   12.1875   -2.5271  -52.2146 H   0  0  0  0  0  0  0  0  0  0  0  0
    5.6934   -1.7726  -54.8285 H   0  0  0  0  0  0  0  0  0  0  0  0
    5.0144   -0.0582  -56.5000 H   0  0  0  0  0  0  0  0  0  0  0  0
    9.4278    0.3067  -54.2311 H   0  0  0  0  0  0  0  0  0  0  0  0
    9.6970    2.4170  -55.2600 H   0  0  0  0  0  0  0  0  0  0  0  0
    9.7943    1.0413  -57.6538 H   0  0  0  0  0  0  0  0  0  0  0  0
   10.6304    3.9216  -57.3162 H   0  0  0  0  0  0  0  0  0  0  0  0
   11.4717    3.1163  -59.6008 H   0  0  0  0  0  0  0  0  0  0  0  0
   10.4834    1.8454  -61.1447 H   0  0  0  0  0  0  0  0  0  0  0  0
   10.0705    1.0186  -59.5308 H   0  0  0  0  0  0  0  0  0  0  0  0
    8.3433    0.9901  -61.3294 H   0  0  0  0  0  0  0  0  0  0  0  0
    8.5491    3.3733  -62.0468 H   0  0  0  0  0  0  0  0  0  0  0  0
    6.8901    3.0719  -61.4600 H   0  0  0  0  0  0  0  0  0  0  0  0
    7.6976    5.1460  -60.4177 H   0  0  0  0  0  0  0  0  0  0  0  0
   10.1012    4.6857  -60.8512 H   0  0  0  0  0  0  0  0  0  0  0  0
    9.7890    5.1444  -59.1075 H   0  0  0  0  0  0  0  0  0  0  0  0
    8.0936    3.9336  -57.9436 H   0  0  0  0  0  0  0  0  0  0  0  0
    6.5561    4.6027  -58.7224 H   0  0  0  0  0  0  0  0  0  0  0  0
    5.2544    3.3358  -60.1350 H   0  0  0  0  0  0  0  0  0  0  0  0
    4.8258    1.7049  -59.6569 H   0  0  0  0  0  0  0  0  0  0  0  0
    4.6247    4.3138  -58.0459 H   0  0  0  0  0  0  0  0  0  0  0  0
    3.3908    3.0693  -58.2108 H   0  0  0  0  0  0  0  0  0  0  0  0
    8.0195    0.7763  -58.7264 H   0  0  0  0  0  0  0  0  0  0  0  0
    6.6497    0.7678  -59.9707 H   0  0  0  0  0  0  0  0  0  0  0  0
  1  2  1  0
  2  3  1  0
  2  4  1  0
  2  5  1  0
  5  6  1  0
  6  7  2  0
  7  8  1  0
  8  9  2  0
  9 10  1  0
 10 11  1  0
 11 12  1  0
 12 13  2  0
 13 14  1  0
 14 15  2  0
 15 16  1  0
 15 17  1  0
 17 18  1  0
 18 19  2  0
 19 20  1  0
 20 21  1  0
 21 22  1  0
 22 23  1  0
 23 24  1  0
 24 25  1  0
 24 26  1  0
 26 27  1  0
 27 28  1  6
 28 29  1  0
 29 30  1  0
 30 31  2  0
 27 32  1  0
  9 33  1  0
 33  5  2  0
 16 11  2  0
 25 20  1  0
 31 27  1  0
 31 14  1  0
 32 22  1  0
  6 34  1  0
  7 35  1  0
 12 36  1  0
 13 37  1  0
 16 38  1  0
 17 39  1  0
 18 40  1  0
 19 41  1  0
 20 42  1  1
 21 43  1  0
 21 44  1  0
 22 45  1  6
 23 46  1  0
 23 47  1  0
 24 48  1  6
 25 49  1  0
 25 50  1  0
 26 51  1  0
 26 52  1  0
 28 53  1  0
 28 54  1  0
 29 55  1  0
 29 56  1  0
 32 57  1  0
 32 58  1  0
M  END
>  <meeko>  (198) 
{"is_sidechain": false}

$$$$

     RDKit          3D

 58 63  0  0  0  0  0  0  0  0999 V2000
   10.3970   -4.9680  -56.4600 F   0  0  0  0  0  0  0  0  0  0  0  0
   11.3370   -4.2760  -55.7590 C   0  0  0  0  0  0  0  0  0  0  0  0
   11.9910   -3.5100  -56.6820 F   0  0  0  0  0  0  0  0  0  0  0  0
   12.2530   -5.1940  -55.3360 F   0  0  0  0  0  0  0  0  0  0  0  0
   10.7800   -3.4440  -54.6150 C   0  0  0  0  0  0  0  0  0  0  0  0
   11.5030   -3.3540  -53.4370 C   0  0  0  0  0  0  0  0  0  0  0  0
   10.9500   -2.5940  -52.4330 C   0  0  0  0  0  0  0  0  0  0  0  0
    9.7680   -1.9660  -52.5450 N   0  0  0  0  0  0  0  0  0  0  0  0
    9.1200   -2.1290  -53.7080 C   0  0  0  0  0  0  0  0  0  0  0  0
    7.9210   -1.4410  -53.8220 O   0  0  0  0  0  0  0  0  0  0  0  0
    7.8690   -0.3410  -54.6580 C   0  0  0  0  0  0  0  0  0  0  0  0
    6.5550   -0.0310  -55.1430 C   0  0  0  0  0  0  0  0  0  0  0  0
    6.3740    0.8460  -56.1370 C   0  0  0  0  0  0  0  0  0  0  0  0
    7.4910    1.5470  -56.8250 C   0  0  0  0  0  0  0  0  0  0  0  0
    8.7740    1.5640  -55.9620 C   0  0  0  0  0  0  0  0  0  0  0  0
    8.9280    0.3760  -55.0570 C   0  0  0  0  0  0  0  0  0  0  0  0
    9.7480    2.4040  -55.7910 N   0  0  0  0  0  0  0  0  0  0  0  0
    9.8360    3.5290  -56.5300 C   0  0  0  0  0  0  0  0  0  0  0  0
   10.9720    3.7160  -57.2060 C   0  0  0  0  0  0  0  0  0  0  0  0
   11.2490    4.5950  -58.3880 C   0  0  1  0  0  0  0  0  0  0  0  0
   11.6710    3.6540  -59.5420 C   0  0  0  0  0  0  0  0  0  0  0  0
   10.4810    3.0660  -60.3300 C   0  0  2  0  0  0  0  0  0  0  0  0
    9.7500    4.2550  -60.9440 C   0  0  0  0  0  0  0  0  0  0  0  0
    9.0870    5.0350  -59.8210 C   0  0  2  0  0  0  0  0  0  0  0  0
   10.1420    5.5730  -58.8270 C   0  0  0  0  0  0  0  0  0  0  0  0
    7.9740    4.2050  -59.1650 C   0  0  0  0  0  0  0  0  0  0  0  0
    8.1070    2.6460  -59.2410 C   0  0  2  0  0  0  0  0  0  0  0  0
    7.2670    2.1500  -60.4820 C   0  0  0  0  0  0  0  0  0  0  0  0
    5.8200    2.2030  -60.0400 C   0  0  0  0  0  0  0  0  0  0  0  0
    5.9340    1.8530  -58.6440 N   0  0  0  0  0  0  0  0  0  0  0  0
    7.2350    2.0020  -58.0930 C   0  0  0  0  0  0  0  0  0  0  0  0
    9.5570    2.1370  -59.4800 C   0  0  0  0  0  0  0  0  0  0  0  0
    9.5780   -2.8290  -54.7590 N   0  0  0  0  0  0  0  0  0  0  0  0
   12.4695   -3.8640  -53.3110 H   0  0  0  0  0  0  0  0  0  0  0  0
   11.5050   -2.4952  -51.4884 H   0  0  0  0  0  0  0  0  0  0  0  0
    5.6815   -0.5227  -54.6900 H   0  0  0  0  0  0  0  0  0  0  0  0
    5.3453    1.0599  -56.4625 H   0  0  0  0  0  0  0  0  0  0  0  0
    9.9326    0.0879  -54.7139 H   0  0  0  0  0  0  0  0  0  0  0  0
    9.0122    4.2567  -56.5735 H   0  0  0  0  0  0  0  0  0  0  0  0
   11.8339    3.1384  -56.8407 H   0  0  0  0  0  0  0  0  0  0  0  0
   12.0397    5.2970  -58.0846 H   0  0  0  0  0  0  0  0  0  0  0  0
   12.3029    4.2225  -60.2402 H   0  0  0  0  0  0  0  0  0  0  0  0
   12.2052    2.8069  -59.0870 H   0  0  0  0  0  0  0  0  0  0  0  0
   10.8422    2.3850  -61.1147 H   0  0  0  0  0  0  0  0  0  0  0  0
   10.4668    4.9002  -61.4731 H   0  0  0  0  0  0  0  0  0  0  0  0
    8.9940    3.9066  -61.6631 H   0  0  0  0  0  0  0  0  0  0  0  0
    8.5910    5.9239  -60.2379 H   0  0  0  0  0  0  0  0  0  0  0  0
   10.6309    6.4387  -59.2976 H   0  0  0  0  0  0  0  0  0  0  0  0
    9.5807    5.8015  -57.9090 H   0  0  0  0  0  0  0  0  0  0  0  0
    7.9366    4.4829  -58.1013 H   0  0  0  0  0  0  0  0  0  0  0  0
    7.0664    4.4414  -59.7398 H   0  0  0  0  0  0  0  0  0  0  0  0
    7.4295    2.8121  -61.3453 H   0  0  0  0  0  0  0  0  0  0  0  0
    7.5608    1.1371  -60.7944 H   0  0  0  0  0  0  0  0  0  0  0  0
    5.3969    3.2102  -60.1688 H   0  0  0  0  0  0  0  0  0  0  0  0
    5.1506    1.5459  -60.6145 H   0  0  0  0  0  0  0  0  0  0  0  0
    5.2070    2.2550  -58.0580 H   0  0  0  0  0  0  0  0  0  0  0  0
   10.0312    2.0001  -58.4970 H   0  0  0  0  0  0  0  0  0  0  0  0
    9.4521    1.2109  -60.0642 H   0  0  0  0  0  0  0  0  0  0  0  0
  1  2  1  0
  2  3  1  0
  2  4  1  0
  2  5  1  0
  5  6  1  0
  6  7  2  0
  7  8  1  0
  8  9  2  0
  9 10  1  0
 10 11  1  0
 11 12  1  0
 12 13  2  0
 13 14  1  0
 14 15  1  0
 15 16  1  0
 15 17  2  0
 17 18  1  0
 18 19  2  0
 19 20  1  0
 20 21  1  0
 21 22  1  0
 22 23  1  0
 23 24  1  0
 24 25  1  0
 24 26  1  0
 26 27  1  0
 27 28  1  6
 28 29  1  0
 29 30  1  0
 30 31  1  0
 27 32  1  0
  9 33  1  0
 33  5  2  0
 16 11  2  0
 25 20  1  0
 31 27  1  0
 31 14  2  0
 32 22  1  0
  6 34  1  0
  7 35  1  0
 12 36  1  0
 13 37  1  0
 16 38  1  0
 18 39  1  0
 19 40  1  0
 20 41  1  1
 21 42  1  0
 21 43  1  0
 22 44  1  6
 23 45  1  0
 23 46  1  0
 24 47  1  6
 25 48  1  0
 25 49  1  0
 26 50  1  0
 26 51  1  0
 28 52  1  0
 28 53  1  0
 29 54  1  0
 29 55  1  0
 30 56  1  0
 32 57  1  0
 32 58  1  0
M  END
>  <meeko>  (199) 
{"is_sidechain": false}

$$$$

     RDKit          3D

 50 54  0  0  0  0  0  0  0  0999 V2000
    6.6790   -2.1520  -54.1890 C   0  0  0  0  0  0  0  0  0  0  0  0
    8.3310   -1.4190  -54.0900 S   0  0  0  0  0  0  0  0  0  0  0  0
    8.0630    0.0400  -54.9910 C   0  0  0  0  0  0  0  0  0  0  0  0
    6.6980    0.5340  -55.1050 C   0  0  0  0  0  0  0  0  0  0  0  0
    6.3810    1.4790  -56.0050 C   0  0  0  0  0  0  0  0  0  0  0  0
    7.4250    2.0010  -56.8830 C   0  0  0  0  0  0  0  0  0  0  0  0
    8.7900    2.0050  -56.2270 C   0  0  0  0  0  0  0  0  0  0  0  0
    9.0900    0.7120  -55.5410 C   0  0  0  0  0  0  0  0  0  0  0  0
    9.6670    2.9540  -56.1100 N   0  0  0  0  0  0  0  0  0  0  0  0
    9.2420    4.2190  -56.3590 C   0  0  0  0  0  0  0  0  0  0  0  0
    9.7420    5.0900  -57.2380 C   0  0  0  0  0  0  0  0  0  0  0  0
   10.7860    4.9760  -58.3230 C   0  0  1  0  0  0  0  0  0  0  0  0
   11.4510    3.6150  -58.6190 C   0  0  0  0  0  0  0  0  0  0  0  0
   10.8120    2.7260  -59.7110 C   0  0  2  0  0  0  0  0  0  0  0  0
   10.4050    3.5260  -60.9360 C   0  0  0  0  0  0  0  0  0  0  0  0
    9.4400    4.6130  -60.4900 C   0  0  2  0  0  0  0  0  0  0  0  0
   10.2250    5.6060  -59.6150 C   0  0  0  0  0  0  0  0  0  0  0  0
    8.1910    4.0510  -59.7730 C   0  0  0  0  0  0  0  0  0  0  0  0
    8.2070    2.5390  -59.3620 C   0  0  2  0  0  0  0  0  0  0  0  0
    7.4460    1.7460  -60.4880 C   0  0  0  0  0  0  0  0  0  0  0  0
    5.9640    1.9710  -60.2240 C   0  0  0  0  0  0  0  0  0  0  0  0
    5.9210    2.1190  -58.7830 N   0  0  0  0  0  0  0  0  0  0  0  0
    7.1920    2.2620  -58.1970 C   0  0  0  0  0  0  0  0  0  0  0  0
    9.6200    1.8940  -59.2350 C   0  0  0  0  0  0  0  0  0  0  0  0
    6.2925   -2.3235  -53.1735 H   0  0  0  0  0  0  0  0  0  0  0  0
    6.0060   -1.4680  -54.7268 H   0  0  0  0  0  0  0  0  0  0  0  0
    6.7345   -3.1099  -54.7268 H   0  0  0  0  0  0  0  0  0  0  0  0
    5.9167    0.1280  -54.4457 H   0  0  0  0  0  0  0  0  0  0  0  0
    5.3498    1.8545  -56.0799 H   0  0  0  0  0  0  0  0  0  0  0  0
   10.1173    0.3224  -55.4875 H   0  0  0  0  0  0  0  0  0  0  0  0
    8.3836    4.5675  -55.7659 H   0  0  0  0  0  0  0  0  0  0  0  0
    9.3044    6.0958  -57.1552 H   0  0  0  0  0  0  0  0  0  0  0  0
   11.6412    5.5214  -57.8974 H   0  0  0  0  0  0  0  0  0  0  0  0
   12.4886    3.8156  -58.9241 H   0  0  0  0  0  0  0  0  0  0  0  0
   11.3344    3.0400  -57.6885 H   0  0  0  0  0  0  0  0  0  0  0  0
   11.6133    2.0211  -59.9773 H   0  0  0  0  0  0  0  0  0  0  0  0
   11.2940    3.9822  -61.3959 H   0  0  0  0  0  0  0  0  0  0  0  0
    9.9249    2.8705  -61.6775 H   0  0  0  0  0  0  0  0  0  0  0  0
    9.0374    5.1306  -61.3732 H   0  0  0  0  0  0  0  0  0  0  0  0
   11.0662    6.0001  -60.2042 H   0  0  0  0  0  0  0  0  0  0  0  0
    9.5225    6.3962  -59.3117 H   0  0  0  0  0  0  0  0  0  0  0  0
    8.0462    4.6396  -58.8551 H   0  0  0  0  0  0  0  0  0  0  0  0
    7.3843    4.1289  -60.5168 H   0  0  0  0  0  0  0  0  0  0  0  0
    7.7211    2.1316  -61.4808 H   0  0  0  0  0  0  0  0  0  0  0  0
    7.7021    0.6763  -60.4736 H   0  0  0  0  0  0  0  0  0  0  0  0
    5.6040    2.8801  -60.7279 H   0  0  0  0  0  0  0  0  0  0  0  0
    5.3234    1.1600  -60.6008 H   0  0  0  0  0  0  0  0  0  0  0  0
    5.3060    1.4690  -58.3010 H   0  0  0  0  0  0  0  0  0  0  0  0
    9.7828    1.6596  -58.1727 H   0  0  0  0  0  0  0  0  0  0  0  0
    9.5959    1.0224  -59.9057 H   0  0  0  0  0  0  0  0  0  0  0  0
  1  2  1  0
  2  3  1  0
  3  4  1  0
  4  5  2  0
  5  6  1  0
  6  7  1  0
  7  8  1  0
  7  9  2  0
  9 10  1  0
 10 11  2  0
 11 12  1  0
 12 13  1  0
 13 14  1  0
 14 15  1  0
 15 16  1  0
 16 17  1  0
 16 18  1  0
 18 19  1  0
 19 20  1  6
 20 21  1  0
 21 22  1  0
 22 23  1  0
 19 24  1  0
  8  3  2  0
 17 12  1  0
 23 19  1  0
 23  6  2  0
 24 14  1  0
  1 25  1  0
  1 26  1  0
  1 27  1  0
  4 28  1  0
  5 29  1  0
  8 30  1  0
 10 31  1  0
 11 32  1  0
 12 33  1  1
 13 34  1  0
 13 35  1  0
 14 36  1  6
 15 37  1  0
 15 38  1  0
 16 39  1  6
 17 40  1  0
 17 41  1  0
 18 42  1  0
 18 43  1  0
 20 44  1  0
 20 45  1  0
 21 46  1  0
 21 47  1  0
 22 48  1  0
 24 49  1  0
 24 50  1  0
M  END
>  <meeko>  (200) 
{"is_sidechain": false}

$$$$

     RDKit          3D

 50 54  0  0  0  0  0  0  0  0999 V2000
    6.8780   -1.2180  -54.5180 C   0  0  0  0  0  0  0  0  0  0  0  0
    8.6300   -1.6690  -54.4170 S   0  0  0  0  0  0  0  0  0  0  0  0
    9.3410   -0.3220  -55.3450 C   0  0  0  0  0  0  0  0  0  0  0  0
   10.6820   -0.3880  -55.7160 C   0  0  0  0  0  0  0  0  0  0  0  0
   11.2530    0.6540  -56.4450 C   0  0  0  0  0  0  0  0  0  0  0  0
   10.4820    1.7640  -56.8270 C   0  0  0  0  0  0  0  0  0  0  0  0
    9.1300    1.8500  -56.4650 C   0  0  0  0  0  0  0  0  0  0  0  0
    8.5760    0.7920  -55.7170 C   0  0  0  0  0  0  0  0  0  0  0  0
    8.3890    3.0430  -56.7140 N   0  0  0  0  0  0  0  0  0  0  0  0
    7.0140    3.0210  -56.8200 C   0  0  0  0  0  0  0  0  0  0  0  0
    6.3020    3.0040  -57.9550 C   0  0  0  0  0  0  0  0  0  0  0  0
    6.8520    3.0710  -59.3690 C   0  0  1  0  0  0  0  0  0  0  0  0
    7.4270    4.4710  -59.6600 C   0  0  0  0  0  0  0  0  0  0  0  0
    8.8320    4.4970  -60.2660 C   0  0  2  0  0  0  0  0  0  0  0  0
    8.9340    3.4320  -61.3380 C   0  0  0  0  0  0  0  0  0  0  0  0
    8.9290    2.0750  -60.6630 C   0  0  2  0  0  0  0  0  0  0  0  0
    7.7030    1.8440  -59.7610 C   0  0  0  0  0  0  0  0  0  0  0  0
   10.2590    1.8830  -59.9190 C   0  0  0  0  0  0  0  0  0  0  0  0
   10.7780    3.0990  -59.1150 C   0  0  2  0  0  0  0  0  0  0  0  0
   12.2180    3.4380  -59.5740 C   0  0  0  0  0  0  0  0  0  0  0  0
   12.8350    4.0810  -58.3430 C   0  0  0  0  0  0  0  0  0  0  0  0
   12.2800    3.3180  -57.2160 N   0  0  0  0  0  0  0  0  0  0  0  0
   11.1860    2.7650  -57.6640 C   0  0  0  0  0  0  0  0  0  0  0  0
    9.9260    4.3970  -59.1860 C   0  0  0  0  0  0  0  0  0  0  0  0
    6.4675   -1.1123  -53.5030 H   0  0  0  0  0  0  0  0  0  0  0  0
    6.7754   -0.2642  -55.0562 H   0  0  0  0  0  0  0  0  0  0  0  0
    6.3276   -2.0037  -55.0562 H   0  0  0  0  0  0  0  0  0  0  0  0
   11.2893   -1.2608  -55.4342 H   0  0  0  0  0  0  0  0  0  0  0  0
   12.3161    0.6065  -56.7233 H   0  0  0  0  0  0  0  0  0  0  0  0
    7.5186    0.8415  -55.4181 H   0  0  0  0  0  0  0  0  0  0  0  0
    8.6660    3.6850  -55.9640 H   0  0  0  0  0  0  0  0  0  0  0  0
    6.4450    3.0170  -55.8786 H   0  0  0  0  0  0  0  0  0  0  0  0
    5.2090    2.9345  -57.8522 H   0  0  0  0  0  0  0  0  0  0  0  0
    6.0252    2.9688  -60.0873 H   0  0  0  0  0  0  0  0  0  0  0  0
    6.7469    4.9770  -60.3610 H   0  0  0  0  0  0  0  0  0  0  0  0
    7.5118    4.9700  -58.6833 H   0  0  0  0  0  0  0  0  0  0  0  0
    9.0063    5.4701  -60.7484 H   0  0  0  0  0  0  0  0  0  0  0  0
    8.0765    3.5100  -62.0225 H   0  0  0  0  0  0  0  0  0  0  0  0
    9.8603    3.5641  -61.9164 H   0  0  0  0  0  0  0  0  0  0  0  0
    8.8383    1.3027  -61.4410 H   0  0  0  0  0  0  0  0  0  0  0  0
    7.0399    1.1392  -60.2840 H   0  0  0  0  0  0  0  0  0  0  0  0
    8.1243    1.4858  -58.8101 H   0  0  0  0  0  0  0  0  0  0  0  0
   10.1318    1.0464  -59.2162 H   0  0  0  0  0  0  0  0  0  0  0  0
   11.0104    1.7082  -60.7031 H   0  0  0  0  0  0  0  0  0  0  0  0
   12.7653    2.5274  -59.8592 H   0  0  0  0  0  0  0  0  0  0  0  0
   12.2453    4.0899  -60.4596 H   0  0  0  0  0  0  0  0  0  0  0  0
   13.9315    3.9968  -58.3679 H   0  0  0  0  0  0  0  0  0  0  0  0
   12.6101    5.1555  -58.2735 H   0  0  0  0  0  0  0  0  0  0  0  0
    9.4317    4.5154  -58.2105 H   0  0  0  0  0  0  0  0  0  0  0  0
   10.6485    5.1801  -59.4596 H   0  0  0  0  0  0  0  0  0  0  0  0
  1  2  1  0
  2  3  1  0
  3  4  1  0
  4  5  2  0
  5  6  1  0
  6  7  2  0
  7  8  1  0
  7  9  1  0
  9 10  1  0
 10 11  2  0
 11 12  1  0
 12 13  1  0
 13 14  1  0
 14 15  1  0
 15 16  1  0
 16 17  1  0
 16 18  1  0
 18 19  1  0
 19 20  1  6
 20 21  1  0
 21 22  1  0
 22 23  2  0
 19 24  1  0
  8  3  2  0
 17 12  1  0
 23 19  1  0
 23  6  1  0
 24 14  1  0
  1 25  1  0
  1 26  1  0
  1 27  1  0
  4 28  1  0
  5 29  1  0
  8 30  1  0
  9 31  1  0
 10 32  1  0
 11 33  1  0
 12 34  1  6
 13 35  1  0
 13 36  1  0
 14 37  1  6
 15 38  1  0
 15 39  1  0
 16 40  1  6
 17 41  1  0
 17 42  1  0
 18 43  1  0
 18 44  1  0
 20 45  1  0
 20 46  1  0
 21 47  1  0
 21 48  1  0
 24 49  1  0
 24 50  1  0
M  END
>  <meeko>  (201) 
{"is_sidechain": false}

$$$$

     RDKit          3D

 50 54  0  0  0  0  0  0  0  0999 V2000
    8.6630   -1.4780  -53.2010 C   0  0  0  0  0  0  0  0  0  0  0  0
    7.3290   -0.2620  -53.0340 S   0  0  0  0  0  0  0  0  0  0  0  0
    7.3480    0.4280  -54.6760 C   0  0  0  0  0  0  0  0  0  0  0  0
    6.1510    0.6420  -55.3450 C   0  0  0  0  0  0  0  0  0  0  0  0
    6.1580    1.1930  -56.6300 C   0  0  0  0  0  0  0  0  0  0  0  0
    7.3590    1.5310  -57.2900 C   0  0  0  0  0  0  0  0  0  0  0  0
    8.5710    1.2710  -56.6290 C   0  0  0  0  0  0  0  0  0  0  0  0
    8.5460    0.7410  -55.3210 C   0  0  0  0  0  0  0  0  0  0  0  0
    9.8160    1.6040  -57.1700 N   0  0  0  0  0  0  0  0  0  0  0  0
   10.6040    2.3820  -56.5100 C   0  0  0  0  0  0  0  0  0  0  0  0
   11.9060    2.8260  -57.1150 C   0  0  0  0  0  0  0  0  0  0  0  0
   11.7880    3.9170  -58.1900 C   0  0  1  0  0  0  0  0  0  0  0  0
   11.7310    3.3510  -59.6230 C   0  0  0  0  0  0  0  0  0  0  0  0
   10.4210    3.5860  -60.3830 C   0  0  2  0  0  0  0  0  0  0  0  0
   10.0210    5.0460  -60.2340 C   0  0  0  0  0  0  0  0  0  0  0  0
    9.5920    5.2810  -58.7980 C   0  0  2  0  0  0  0  0  0  0  0  0
   10.7720    5.0310  -57.8360 C   0  0  0  0  0  0  0  0  0  0  0  0
    8.3070    4.4890  -58.4640 C   0  0  0  0  0  0  0  0  0  0  0  0
    8.0560    3.2230  -59.3190 C   0  0  2  0  0  0  0  0  0  0  0  0
    7.0670    3.5820  -60.4600 C   0  0  0  0  0  0  0  0  0  0  0  0
    6.3380    2.2900  -60.7380 C   0  0  0  0  0  0  0  0  0  0  0  0
    6.2680    1.6100  -59.4460 N   0  0  0  0  0  0  0  0  0  0  0  0
    7.1980    2.1100  -58.6740 C   0  0  0  0  0  0  0  0  0  0  0  0
    9.3300    2.5960  -59.9320 C   0  0  0  0  0  0  0  0  0  0  0  0
    9.0034   -1.7883  -52.2021 H   0  0  0  0  0  0  0  0  0  0  0  0
    8.2925   -2.3555  -53.7511 H   0  0  0  0  0  0  0  0  0  0  0  0
    9.5026   -1.0280  -53.7511 H   0  0  0  0  0  0  0  0  0  0  0  0
    5.1973    0.3783  -54.8645 H   0  0  0  0  0  0  0  0  0  0  0  0
    5.1999    1.3681  -57.1413 H   0  0  0  0  0  0  0  0  0  0  0  0
    9.4969    0.5698  -54.7952 H   0  0  0  0  0  0  0  0  0  0  0  0
   10.3229    2.7215  -55.5022 H   0  0  0  0  0  0  0  0  0  0  0  0
   12.5431    3.2126  -56.3059 H   0  0  0  0  0  0  0  0  0  0  0  0
   12.3253    1.9433  -57.6199 H   0  0  0  0  0  0  0  0  0  0  0  0
   12.7391    4.4696  -58.1883 H   0  0  0  0  0  0  0  0  0  0  0  0
   12.5440    3.8144  -60.2012 H   0  0  0  0  0  0  0  0  0  0  0  0
   11.8221    2.2600  -59.5164 H   0  0  0  0  0  0  0  0  0  0  0  0
   10.5618    3.3876  -61.4558 H   0  0  0  0  0  0  0  0  0  0  0  0
   10.8774    5.6924  -60.4764 H   0  0  0  0  0  0  0  0  0  0  0  0
    9.1937    5.2829  -60.9191 H   0  0  0  0  0  0  0  0  0  0  0  0
    9.3164    6.3371  -58.6617 H   0  0  0  0  0  0  0  0  0  0  0  0
   11.3353    5.9728  -57.7607 H   0  0  0  0  0  0  0  0  0  0  0  0
   10.2953    4.6776  -56.9097 H   0  0  0  0  0  0  0  0  0  0  0  0
    8.3658    4.1787  -57.4103 H   0  0  0  0  0  0  0  0  0  0  0  0
    7.4707    5.1690  -58.6835 H   0  0  0  0  0  0  0  0  0  0  0  0
    6.3648    4.3643  -60.1359 H   0  0  0  0  0  0  0  0  0  0  0  0
    7.5769    3.9782  -61.3505 H   0  0  0  0  0  0  0  0  0  0  0  0
    5.3279    2.4913  -61.1242 H   0  0  0  0  0  0  0  0  0  0  0  0
    6.8502    1.6817  -61.4980 H   0  0  0  0  0  0  0  0  0  0  0  0
    9.7725    1.9283  -59.1781 H   0  0  0  0  0  0  0  0  0  0  0  0
    8.9975    2.0845  -60.8473 H   0  0  0  0  0  0  0  0  0  0  0  0
  1  2  1  0
  2  3  1  0
  3  4  1  0
  4  5  2  0
  5  6  1  0
  6  7  2  0
  7  8  1  0
  7  9  1  0
  9 10  2  0
 10 11  1  0
 11 12  1  0
 12 13  1  0
 13 14  1  0
 14 15  1  0
 15 16  1  0
 16 17  1  0
 16 18  1  0
 18 19  1  0
 19 20  1  6
 20 21  1  0
 21 22  1  0
 22 23  2  0
 19 24  1  0
  8  3  2  0
 17 12  1  0
 23 19  1  0
 23  6  1  0
 24 14  1  0
  1 25  1  0
  1 26  1  0
  1 27  1  0
  4 28  1  0
  5 29  1  0
  8 30  1  0
 10 31  1  0
 11 32  1  0
 11 33  1  0
 12 34  1  6
 13 35  1  0
 13 36  1  0
 14 37  1  6
 15 38  1  0
 15 39  1  0
 16 40  1  6
 17 41  1  0
 17 42  1  0
 18 43  1  0
 18 44  1  0
 20 45  1  0
 20 46  1  0
 21 47  1  0
 21 48  1  0
 24 49  1  0
 24 50  1  0
M  END
>  <meeko>  (202) 
{"is_sidechain": false}

$$$$

     RDKit          3D

 50 54  0  0  0  0  0  0  0  0999 V2000
    3.6470    1.8030  -62.2770 C   0  0  0  0  0  0  0  0  0  0  0  0
    2.9360    2.3110  -60.6880 S   0  0  0  0  0  0  0  0  0  0  0  0
    4.3700    2.1140  -59.6470 C   0  0  0  0  0  0  0  0  0  0  0  0
    4.2880    2.2700  -58.2660 C   0  0  0  0  0  0  0  0  0  0  0  0
    5.4290    2.1100  -57.4790 C   0  0  0  0  0  0  0  0  0  0  0  0
    6.6710    1.8140  -58.0700 C   0  0  0  0  0  0  0  0  0  0  0  0
    6.7710    1.6630  -59.4570 C   0  0  0  0  0  0  0  0  0  0  0  0
    5.6040    1.8100  -60.2300 C   0  0  0  0  0  0  0  0  0  0  0  0
    7.9320    1.2540  -60.1250 N   0  0  0  0  0  0  0  0  0  0  0  0
    8.6820    2.1120  -60.7480 C   0  0  0  0  0  0  0  0  0  0  0  0
    8.5500    3.6110  -60.7740 C   0  0  0  0  0  0  0  0  0  0  0  0
    9.8000    4.4080  -60.3130 C   0  0  1  0  0  0  0  0  0  0  0  0
    9.4470    5.5330  -59.3140 C   0  0  0  0  0  0  0  0  0  0  0  0
    9.5800    5.1550  -57.8240 C   0  0  2  0  0  0  0  0  0  0  0  0
   10.9800    4.6200  -57.5630 C   0  0  0  0  0  0  0  0  0  0  0  0
   11.1530    3.3280  -58.3470 C   0  0  2  0  0  0  0  0  0  0  0  0
   11.0420    3.6160  -59.8560 C   0  0  0  0  0  0  0  0  0  0  0  0
   10.1910    2.2350  -57.8540 C   0  0  0  0  0  0  0  0  0  0  0  0
    8.9510    2.7220  -57.0610 C   0  0  2  0  0  0  0  0  0  0  0  0
    9.2310    2.5550  -55.5480 C   0  0  0  0  0  0  0  0  0  0  0  0
    8.9040    1.0920  -55.2930 C   0  0  0  0  0  0  0  0  0  0  0  0
    7.7590    0.8090  -56.1680 N   0  0  0  0  0  0  0  0  0  0  0  0
    7.7980    1.7050  -57.1150 C   0  0  0  0  0  0  0  0  0  0  0  0
    8.4920    4.1670  -57.3710 C   0  0  0  0  0  0  0  0  0  0  0  0
    4.5302    1.1720  -62.0985 H   0  0  0  0  0  0  0  0  0  0  0  0
    2.8989    1.2337  -62.8482 H   0  0  0  0  0  0  0  0  0  0  0  0
    3.9432    2.6952  -62.8482 H   0  0  0  0  0  0  0  0  0  0  0  0
    3.3251    2.5190  -57.7960 H   0  0  0  0  0  0  0  0  0  0  0  0
    5.3568    2.2163  -56.3865 H   0  0  0  0  0  0  0  0  0  0  0  0
    5.6643    1.6824  -61.3209 H   0  0  0  0  0  0  0  0  0  0  0  0
    9.5165    1.6913  -61.3281 H   0  0  0  0  0  0  0  0  0  0  0  0
    8.3202    3.9116  -61.8069 H   0  0  0  0  0  0  0  0  0  0  0  0
    7.7578    3.8535  -60.0504 H   0  0  0  0  0  0  0  0  0  0  0  0
   10.1360    4.8480  -61.2635 H   0  0  0  0  0  0  0  0  0  0  0  0
   10.1157    6.3841  -59.5100 H   0  0  0  0  0  0  0  0  0  0  0  0
    8.3836    5.7626  -59.4766 H   0  0  0  0  0  0  0  0  0  0  0  0
    9.4268    6.0613  -57.2197 H   0  0  0  0  0  0  0  0  0  0  0  0
   11.7270    5.3573  -57.8921 H   0  0  0  0  0  0  0  0  0  0  0  0
   11.1189    4.4319  -56.4881 H   0  0  0  0  0  0  0  0  0  0  0  0
   12.1605    2.9241  -58.1687 H   0  0  0  0  0  0  0  0  0  0  0  0
   11.9326    4.1888  -60.1539 H   0  0  0  0  0  0  0  0  0  0  0  0
   10.9531    2.6303  -60.3360 H   0  0  0  0  0  0  0  0  0  0  0  0
    9.8307    1.6828  -58.7345 H   0  0  0  0  0  0  0  0  0  0  0  0
   10.7735    1.6274  -57.1459 H   0  0  0  0  0  0  0  0  0  0  0  0
   10.2845    2.7699  -55.3158 H   0  0  0  0  0  0  0  0  0  0  0  0
    8.6440    3.2434  -54.9223 H   0  0  0  0  0  0  0  0  0  0  0  0
    9.7596    0.4519  -55.5542 H   0  0  0  0  0  0  0  0  0  0  0  0
    8.6786    0.8938  -54.2347 H   0  0  0  0  0  0  0  0  0  0  0  0
    7.7374    4.1130  -58.1695 H   0  0  0  0  0  0  0  0  0  0  0  0
    8.1211    4.5640  -56.4145 H   0  0  0  0  0  0  0  0  0  0  0  0
  1  2  1  0
  2  3  1  0
  3  4  1  0
  4  5  2  0
  5  6  1  0
  6  7  2  0
  7  8  1  0
  7  9  1  0
  9 10  2  0
 10 11  1  0
 11 12  1  0
 12 13  1  0
 13 14  1  0
 14 15  1  0
 15 16  1  0
 16 17  1  0
 16 18  1  0
 18 19  1  0
 19 20  1  1
 20 21  1  0
 21 22  1  0
 22 23  2  0
 19 24  1  0
  8  3  2  0
 17 12  1  0
 23 19  1  0
 23  6  1  0
 24 14  1  0
  1 25  1  0
  1 26  1  0
  1 27  1  0
  4 28  1  0
  5 29  1  0
  8 30  1  0
 10 31  1  0
 11 32  1  0
 11 33  1  0
 12 34  1  6
 13 35  1  0
 13 36  1  0
 14 37  1  1
 15 38  1  0
 15 39  1  0
 16 40  1  6
 17 41  1  0
 17 42  1  0
 18 43  1  0
 18 44  1  0
 20 45  1  0
 20 46  1  0
 21 47  1  0
 21 48  1  0
 24 49  1  0
 24 50  1  0
M  END
>  <meeko>  (203) 
{"is_sidechain": false}

$$$$

     RDKit          3D

 50 54  0  0  0  0  0  0  0  0999 V2000
    3.4010    0.7740  -62.7790 C   0  0  0  0  0  0  0  0  0  0  0  0
    4.8060    1.8700  -63.0920 S   0  0  0  0  0  0  0  0  0  0  0  0
    5.3010    2.1820  -61.4570 C   0  0  0  0  0  0  0  0  0  0  0  0
    4.3720    1.8900  -60.3860 C   0  0  0  0  0  0  0  0  0  0  0  0
    4.7640    1.9130  -59.1050 C   0  0  0  0  0  0  0  0  0  0  0  0
    6.1370    2.2570  -58.7440 C   0  0  0  0  0  0  0  0  0  0  0  0
    6.9120    3.0330  -59.7970 C   0  0  0  0  0  0  0  0  0  0  0  0
    6.4970    2.7350  -61.2070 C   0  0  0  0  0  0  0  0  0  0  0  0
    7.8280    3.8740  -59.4290 N   0  0  0  0  0  0  0  0  0  0  0  0
    8.5590    4.5840  -60.3220 C   0  0  0  0  0  0  0  0  0  0  0  0
    9.8400    4.8950  -60.0880 C   0  0  0  0  0  0  0  0  0  0  0  0
   10.6630    4.5380  -58.8640 C   0  0  1  0  0  0  0  0  0  0  0  0
   10.1120    5.0950  -57.5280 C   0  0  0  0  0  0  0  0  0  0  0  0
    9.7700    4.0870  -56.4130 C   0  0  2  0  0  0  0  0  0  0  0  0
   10.7750    2.9490  -56.4050 C   0  0  0  0  0  0  0  0  0  0  0  0
   10.6510    2.1850  -57.7120 C   0  0  2  0  0  0  0  0  0  0  0  0
   11.1530    3.0740  -58.8630 C   0  0  0  0  0  0  0  0  0  0  0  0
    9.2290    1.6470  -57.9740 C   0  0  0  0  0  0  0  0  0  0  0  0
    8.1130    2.1350  -57.0030 C   0  0  2  0  0  0  0  0  0  0  0  0
    8.0950    1.1400  -55.7850 C   0  0  0  0  0  0  0  0  0  0  0  0
    6.6570    1.0860  -55.3040 C   0  0  0  0  0  0  0  0  0  0  0  0
    5.9050    1.3210  -56.5150 N   0  0  0  0  0  0  0  0  0  0  0  0
    6.6530    1.9410  -57.5260 C   0  0  0  0  0  0  0  0  0  0  0  0
    8.3140    3.5830  -56.4770 C   0  0  0  0  0  0  0  0  0  0  0  0
    3.2577    0.6622  -61.6941 H   0  0  0  0  0  0  0  0  0  0  0  0
    2.4931    1.2049  -63.2263 H   0  0  0  0  0  0  0  0  0  0  0  0
    3.5979   -0.2115  -63.2263 H   0  0  0  0  0  0  0  0  0  0  0  0
    3.3272    1.6452  -60.6278 H   0  0  0  0  0  0  0  0  0  0  0  0
    4.0407    1.6691  -58.3129 H   0  0  0  0  0  0  0  0  0  0  0  0
    7.1762    2.9709  -62.0395 H   0  0  0  0  0  0  0  0  0  0  0  0
    8.0892    4.9124  -61.2608 H   0  0  0  0  0  0  0  0  0  0  0  0
   10.3531    5.4738  -60.8701 H   0  0  0  0  0  0  0  0  0  0  0  0
   11.5994    5.1079  -58.9554 H   0  0  0  0  0  0  0  0  0  0  0  0
   10.8671    5.7859  -57.1248 H   0  0  0  0  0  0  0  0  0  0  0  0
    9.1463    5.5488  -57.7955 H   0  0  0  0  0  0  0  0  0  0  0  0
    9.8462    4.6204  -55.4540 H   0  0  0  0  0  0  0  0  0  0  0  0
   11.7930    3.3541  -56.3075 H   0  0  0  0  0  0  0  0  0  0  0  0
   10.5764    2.2777  -55.5565 H   0  0  0  0  0  0  0  0  0  0  0  0
   11.2816    1.2865  -57.6414 H   0  0  0  0  0  0  0  0  0  0  0  0
   12.2520    3.0890  -58.8193 H   0  0  0  0  0  0  0  0  0  0  0  0
   10.7394    2.6270  -59.7790 H   0  0  0  0  0  0  0  0  0  0  0  0
    8.9406    1.9462  -58.9925 H   0  0  0  0  0  0  0  0  0  0  0  0
    9.2953    0.5599  -57.8195 H   0  0  0  0  0  0  0  0  0  0  0  0
    8.4284    0.1413  -56.1035 H   0  0  0  0  0  0  0  0  0  0  0  0
    8.7730    1.4729  -54.9853 H   0  0  0  0  0  0  0  0  0  0  0  0
    6.4195    0.1014  -54.8750 H   0  0  0  0  0  0  0  0  0  0  0  0
    6.4369    1.8117  -54.5072 H   0  0  0  0  0  0  0  0  0  0  0  0
    5.3310    0.5490  -56.8440 H   0  0  0  0  0  0  0  0  0  0  0  0
    7.7527    4.2609  -57.1368 H   0  0  0  0  0  0  0  0  0  0  0  0
    7.9604    3.5701  -55.4355 H   0  0  0  0  0  0  0  0  0  0  0  0
  1  2  1  0
  2  3  1  0
  3  4  1  0
  4  5  2  0
  5  6  1  0
  6  7  1  0
  7  8  1  0
  7  9  2  0
  9 10  1  0
 10 11  2  0
 11 12  1  0
 12 13  1  0
 13 14  1  0
 14 15  1  0
 15 16  1  0
 16 17  1  0
 16 18  1  0
 18 19  1  0
 19 20  1  1
 20 21  1  0
 21 22  1  0
 22 23  1  0
 19 24  1  0
  8  3  2  0
 17 12  1  0
 23 19  1  0
 23  6  2  0
 24 14  1  0
  1 25  1  0
  1 26  1  0
  1 27  1  0
  4 28  1  0
  5 29  1  0
  8 30  1  0
 10 31  1  0
 11 32  1  0
 12 33  1  6
 13 34  1  0
 13 35  1  0
 14 36  1  1
 15 37  1  0
 15 38  1  0
 16 39  1  1
 17 40  1  0
 17 41  1  0
 18 42  1  0
 18 43  1  0
 20 44  1  0
 20 45  1  0
 21 46  1  0
 21 47  1  0
 22 48  1  0
 24 49  1  0
 24 50  1  0
M  END
>  <meeko>  (204) 
{"is_sidechain": false}

$$$$

     RDKit          3D

 50 54  0  0  0  0  0  0  0  0999 V2000
    3.2000    0.9430  -62.1040 C   0  0  0  0  0  0  0  0  0  0  0  0
    2.9040    2.2660  -60.9000 S   0  0  0  0  0  0  0  0  0  0  0  0
    4.4070    2.1550  -59.9460 C   0  0  0  0  0  0  0  0  0  0  0  0
    4.3760    2.4850  -58.5930 C   0  0  0  0  0  0  0  0  0  0  0  0
    5.5400    2.4020  -57.8260 C   0  0  0  0  0  0  0  0  0  0  0  0
    6.7570    1.9980  -58.4050 C   0  0  0  0  0  0  0  0  0  0  0  0
    6.7940    1.6270  -59.7640 C   0  0  0  0  0  0  0  0  0  0  0  0
    5.6070    1.7170  -60.5180 C   0  0  0  0  0  0  0  0  0  0  0  0
    7.9780    1.2860  -60.4500 N   0  0  0  0  0  0  0  0  0  0  0  0
    9.0000    2.1800  -60.6590 C   0  0  0  0  0  0  0  0  0  0  0  0
    8.9720    3.5030  -60.4560 C   0  0  0  0  0  0  0  0  0  0  0  0
   10.1570    4.4160  -60.2710 C   0  0  1  0  0  0  0  0  0  0  0  0
    9.7740    5.5990  -59.3480 C   0  0  0  0  0  0  0  0  0  0  0  0
    9.7630    5.2710  -57.8370 C   0  0  2  0  0  0  0  0  0  0  0  0
   11.1240    4.7290  -57.4260 C   0  0  0  0  0  0  0  0  0  0  0  0
   11.3770    3.4390  -58.1930 C   0  0  2  0  0  0  0  0  0  0  0  0
   11.4190    3.7290  -59.7100 C   0  0  0  0  0  0  0  0  0  0  0  0
   10.3630    2.3520  -57.7790 C   0  0  0  0  0  0  0  0  0  0  0  0
    9.0090    2.8320  -57.1640 C   0  0  2  0  0  0  0  0  0  0  0  0
    9.0770    2.5610  -55.6370 C   0  0  0  0  0  0  0  0  0  0  0  0
    8.7860    1.0700  -55.5400 C   0  0  0  0  0  0  0  0  0  0  0  0
    7.7670    0.8290  -56.5690 N   0  0  0  0  0  0  0  0  0  0  0  0
    7.8610    1.8190  -57.4160 C   0  0  0  0  0  0  0  0  0  0  0  0
    8.6270    4.3140  -57.4180 C   0  0  0  0  0  0  0  0  0  0  0  0
    3.4102    0.0034  -61.5720 H   0  0  0  0  0  0  0  0  0  0  0  0
    2.3082    0.8154  -62.7352 H   0  0  0  0  0  0  0  0  0  0  0  0
    4.0612    1.2076  -62.7352 H   0  0  0  0  0  0  0  0  0  0  0  0
    3.4338    2.8112  -58.1284 H   0  0  0  0  0  0  0  0  0  0  0  0
    5.5050    2.6555  -56.7562 H   0  0  0  0  0  0  0  0  0  0  0  0
    5.6239    1.4363  -61.5815 H   0  0  0  0  0  0  0  0  0  0  0  0
    7.8630    0.6070  -61.1980 H   0  0  0  0  0  0  0  0  0  0  0  0
    9.9459    1.7626  -61.0347 H   0  0  0  0  0  0  0  0  0  0  0  0
    7.9785    3.9739  -60.4204 H   0  0  0  0  0  0  0  0  0  0  0  0
   10.4171    4.7629  -61.2820 H   0  0  0  0  0  0  0  0  0  0  0  0
   10.4970    6.4109  -59.5158 H   0  0  0  0  0  0  0  0  0  0  0  0
    8.7416    5.8728  -59.6110 H   0  0  0  0  0  0  0  0  0  0  0  0
    9.5595    6.2102  -57.3017 H   0  0  0  0  0  0  0  0  0  0  0  0
   11.9055    5.4645  -57.6675 H   0  0  0  0  0  0  0  0  0  0  0  0
   11.1434    4.5358  -56.3433 H   0  0  0  0  0  0  0  0  0  0  0  0
   12.3640    3.0288  -57.9331 H   0  0  0  0  0  0  0  0  0  0  0  0
   12.2817    4.3814  -59.9102 H   0  0  0  0  0  0  0  0  0  0  0  0
   11.4891    2.7521  -60.2108 H   0  0  0  0  0  0  0  0  0  0  0  0
   10.1273    1.7610  -58.6763 H   0  0  0  0  0  0  0  0  0  0  0  0
   10.8594    1.7962  -56.9699 H   0  0  0  0  0  0  0  0  0  0  0  0
   10.0748    2.7958  -55.2379 H   0  0  0  0  0  0  0  0  0  0  0  0
    8.3759    3.1780  -55.0558 H   0  0  0  0  0  0  0  0  0  0  0  0
    9.6929    0.4823  -55.7452 H   0  0  0  0  0  0  0  0  0  0  0  0
    8.4468    0.7735  -54.5365 H   0  0  0  0  0  0  0  0  0  0  0  0
    7.8699    4.3290  -58.2159 H   0  0  0  0  0  0  0  0  0  0  0  0
    8.2830    4.6902  -56.4433 H   0  0  0  0  0  0  0  0  0  0  0  0
  1  2  1  0
  2  3  1  0
  3  4  1  0
  4  5  2  0
  5  6  1  0
  6  7  2  0
  7  8  1  0
  7  9  1  0
  9 10  1  0
 10 11  2  0
 11 12  1  0
 12 13  1  0
 13 14  1  0
 14 15  1  0
 15 16  1  0
 16 17  1  0
 16 18  1  0
 18 19  1  0
 19 20  1  1
 20 21  1  0
 21 22  1  0
 22 23  2  0
 19 24  1  0
  8  3  2  0
 17 12  1  0
 23 19  1  0
 23  6  1  0
 24 14  1  0
  1 25  1  0
  1 26  1  0
  1 27  1  0
  4 28  1  0
  5 29  1  0
  8 30  1  0
  9 31  1  0
 10 32  1  0
 11 33  1  0
 12 34  1  6
 13 35  1  0
 13 36  1  0
 14 37  1  1
 15 38  1  0
 15 39  1  0
 16 40  1  1
 17 41  1  0
 17 42  1  0
 18 43  1  0
 18 44  1  0
 20 45  1  0
 20 46  1  0
 21 47  1  0
 21 48  1  0
 24 49  1  0
 24 50  1  0
M  END
>  <meeko>  (205) 
{"is_sidechain": false}

$$$$

     RDKit          3D

 50 54  0  0  0  0  0  0  0  0999 V2000
    7.3950   -1.2440  -52.7250 C   0  0  0  0  0  0  0  0  0  0  0  0
    8.7720   -1.1590  -53.8950 S   0  0  0  0  0  0  0  0  0  0  0  0
    8.1910    0.1040  -54.9360 C   0  0  0  0  0  0  0  0  0  0  0  0
    6.7690    0.1430  -55.2400 C   0  0  0  0  0  0  0  0  0  0  0  0
    6.2820    0.9510  -56.1960 C   0  0  0  0  0  0  0  0  0  0  0  0
    7.1930    1.8050  -56.9460 C   0  0  0  0  0  0  0  0  0  0  0  0
    8.4720    2.1390  -56.2340 C   0  0  0  0  0  0  0  0  0  0  0  0
    9.0400    1.0290  -55.4180 C   0  0  0  0  0  0  0  0  0  0  0  0
    8.9380    3.3370  -56.3550 N   0  0  0  0  0  0  0  0  0  0  0  0
   10.2810    3.5360  -56.4760 C   0  0  0  0  0  0  0  0  0  0  0  0
   10.5520    4.6660  -57.1400 C   0  0  0  0  0  0  0  0  0  0  0  0
   11.2650    4.7400  -58.4750 C   0  0  1  0  0  0  0  0  0  0  0  0
   11.6350    3.3940  -59.1590 C   0  0  0  0  0  0  0  0  0  0  0  0
   10.5630    2.7360  -60.0770 C   0  0  2  0  0  0  0  0  0  0  0  0
   10.0310    3.7800  -61.0410 C   0  0  0  0  0  0  0  0  0  0  0  0
    9.3120    4.8480  -60.2230 C   0  0  2  0  0  0  0  0  0  0  0  0
   10.4040    5.6140  -59.4320 C   0  0  0  0  0  0  0  0  0  0  0  0
    8.1550    4.2780  -59.3410 C   0  0  0  0  0  0  0  0  0  0  0  0
    8.0130    2.7220  -59.3260 C   0  0  2  0  0  0  0  0  0  0  0  0
    7.2270    2.3160  -60.6330 C   0  0  0  0  0  0  0  0  0  0  0  0
    5.7540    2.3680  -60.2610 C   0  0  0  0  0  0  0  0  0  0  0  0
    5.7820    1.8820  -58.9060 N   0  0  0  0  0  0  0  0  0  0  0  0
    6.9900    2.1510  -58.2480 C   0  0  0  0  0  0  0  0  0  0  0  0
    9.4090    2.0090  -59.3420 C   0  0  0  0  0  0  0  0  0  0  0  0
    7.7854   -1.2199  -51.6969 H   0  0  0  0  0  0  0  0  0  0  0  0
    6.7258   -0.3855  -52.8833 H   0  0  0  0  0  0  0  0  0  0  0  0
    6.8365   -2.1783  -52.8833 H   0  0  0  0  0  0  0  0  0  0  0  0
    6.0791   -0.5018  -54.6759 H   0  0  0  0  0  0  0  0  0  0  0  0
    5.2033    0.9677  -56.4109 H   0  0  0  0  0  0  0  0  0  0  0  0
   10.1196    0.9681  -55.2162 H   0  0  0  0  0  0  0  0  0  0  0  0
   11.0462    2.8534  -56.0778 H   0  0  0  0  0  0  0  0  0  0  0  0
   10.2327    5.6135  -56.6815 H   0  0  0  0  0  0  0  0  0  0  0  0
   12.2486    5.1818  -58.2572 H   0  0  0  0  0  0  0  0  0  0  0  0
   12.5304    3.5714  -59.7728 H   0  0  0  0  0  0  0  0  0  0  0  0
   11.7669    2.6845  -58.3288 H   0  0  0  0  0  0  0  0  0  0  0  0
   11.0763    1.9271  -60.6175 H   0  0  0  0  0  0  0  0  0  0  0  0
   10.8639    4.2334  -61.5983 H   0  0  0  0  0  0  0  0  0  0  0  0
    9.3402    3.3195  -61.7627 H   0  0  0  0  0  0  0  0  0  0  0  0
    8.7786    5.5480  -60.8829 H   0  0  0  0  0  0  0  0  0  0  0  0
   11.0794    6.0899  -60.1582 H   0  0  0  0  0  0  0  0  0  0  0  0
    9.8702    6.3320  -58.7921 H   0  0  0  0  0  0  0  0  0  0  0  0
    8.3241    4.6112  -58.3064 H   0  0  0  0  0  0  0  0  0  0  0  0
    7.2244    4.6581  -59.7878 H   0  0  0  0  0  0  0  0  0  0  0  0
    7.4424    3.0252  -61.4458 H   0  0  0  0  0  0  0  0  0  0  0  0
    7.5205    1.3175  -60.9892 H   0  0  0  0  0  0  0  0  0  0  0  0
    5.3630    3.3949  -60.3114 H   0  0  0  0  0  0  0  0  0  0  0  0
    5.1017    1.7891  -60.9314 H   0  0  0  0  0  0  0  0  0  0  0  0
    4.9510    2.0520  -58.3470 H   0  0  0  0  0  0  0  0  0  0  0  0
    9.7200    1.8654  -58.2967 H   0  0  0  0  0  0  0  0  0  0  0  0
    9.2487    1.0810  -59.9105 H   0  0  0  0  0  0  0  0  0  0  0  0
  1  2  1  0
  2  3  1  0
  3  4  1  0
  4  5  2  0
  5  6  1  0
  6  7  1  0
  7  8  1  0
  7  9  2  0
  9 10  1  0
 10 11  2  0
 11 12  1  0
 12 13  1  0
 13 14  1  0
 14 15  1  0
 15 16  1  0
 16 17  1  0
 16 18  1  0
 18 19  1  0
 19 20  1  6
 20 21  1  0
 21 22  1  0
 22 23  1  0
 19 24  1  0
  8  3  2  0
 17 12  1  0
 23 19  1  0
 23  6  2  0
 24 14  1  0
  1 25  1  0
  1 26  1  0
  1 27  1  0
  4 28  1  0
  5 29  1  0
  8 30  1  0
 10 31  1  0
 11 32  1  0
 12 33  1  1
 13 34  1  0
 13 35  1  0
 14 36  1  6
 15 37  1  0
 15 38  1  0
 16 39  1  6
 17 40  1  0
 17 41  1  0
 18 42  1  0
 18 43  1  0
 20 44  1  0
 20 45  1  0
 21 46  1  0
 21 47  1  0
 22 48  1  0
 24 49  1  0
 24 50  1  0
M  END
>  <meeko>  (206) 
{"is_sidechain": false}

$$$$

     RDKit          3D

 50 54  0  0  0  0  0  0  0  0999 V2000
    9.5350   -1.7970  -53.4500 C   0  0  0  0  0  0  0  0  0  0  0  0
    7.7380   -1.6150  -53.5690 S   0  0  0  0  0  0  0  0  0  0  0  0
    7.6590   -0.2760  -54.6680 C   0  0  0  0  0  0  0  0  0  0  0  0
    6.3720    0.1480  -55.1460 C   0  0  0  0  0  0  0  0  0  0  0  0
    6.2650    1.0360  -56.1430 C   0  0  0  0  0  0  0  0  0  0  0  0
    7.4420    1.6360  -56.8230 C   0  0  0  0  0  0  0  0  0  0  0  0
    8.6970    1.5950  -55.9250 C   0  0  0  0  0  0  0  0  0  0  0  0
    8.7590    0.4020  -55.0110 C   0  0  0  0  0  0  0  0  0  0  0  0
    9.7060    2.3860  -55.7320 N   0  0  0  0  0  0  0  0  0  0  0  0
    9.8750    3.4920  -56.4870 C   0  0  0  0  0  0  0  0  0  0  0  0
   11.0430    3.6060  -57.1270 C   0  0  0  0  0  0  0  0  0  0  0  0
   11.4020    4.4380  -58.3220 C   0  0  1  0  0  0  0  0  0  0  0  0
   11.8140    3.4500  -59.4380 C   0  0  0  0  0  0  0  0  0  0  0  0
   10.6220    2.9030  -60.2560 C   0  0  2  0  0  0  0  0  0  0  0  0
    9.9760    4.1130  -60.9220 C   0  0  0  0  0  0  0  0  0  0  0  0
    9.3160    4.9540  -59.8410 C   0  0  2  0  0  0  0  0  0  0  0  0
   10.3630    5.4610  -58.8220 C   0  0  0  0  0  0  0  0  0  0  0  0
    8.1400    4.1980  -59.2060 C   0  0  0  0  0  0  0  0  0  0  0  0
    8.1930    2.6320  -59.2420 C   0  0  2  0  0  0  0  0  0  0  0  0
    7.3710    2.1500  -60.5000 C   0  0  0  0  0  0  0  0  0  0  0  0
    5.9150    2.2880  -60.1090 C   0  0  0  0  0  0  0  0  0  0  0  0
    5.9640    1.9680  -58.7030 N   0  0  0  0  0  0  0  0  0  0  0  0
    7.2510    2.0660  -58.1120 C   0  0  0  0  0  0  0  0  0  0  0  0
    9.6230    2.0440  -59.4180 C   0  0  0  0  0  0  0  0  0  0  0  0
    9.8312   -1.8270  -52.3910 H   0  0  0  0  0  0  0  0  0  0  0  0
    9.8424   -2.7309  -53.9433 H   0  0  0  0  0  0  0  0  0  0  0  0
   10.0234   -0.9437  -53.9433 H   0  0  0  0  0  0  0  0  0  0  0  0
    5.4610   -0.2628  -54.6863 H   0  0  0  0  0  0  0  0  0  0  0  0
    5.2593    1.3349  -56.4736 H   0  0  0  0  0  0  0  0  0  0  0  0
    9.7333    0.0795  -54.6151 H   0  0  0  0  0  0  0  0  0  0  0  0
    9.0920    4.2599  -56.5713 H   0  0  0  0  0  0  0  0  0  0  0  0
   11.8631    2.9991  -56.7159 H   0  0  0  0  0  0  0  0  0  0  0  0
   12.2175    5.1060  -58.0079 H   0  0  0  0  0  0  0  0  0  0  0  0
   12.4980    3.9688  -60.1257 H   0  0  0  0  0  0  0  0  0  0  0  0
   12.2876    2.5882  -58.9451 H   0  0  0  0  0  0  0  0  0  0  0  0
   10.9732    2.1852  -61.0120 H   0  0  0  0  0  0  0  0  0  0  0  0
   10.7435    4.7072  -61.4395 H   0  0  0  0  0  0  0  0  0  0  0  0
    9.2278    3.7866  -61.6594 H   0  0  0  0  0  0  0  0  0  0  0  0
    8.8818    5.8567  -60.2956 H   0  0  0  0  0  0  0  0  0  0  0  0
   10.9123    6.2889  -59.2940 H   0  0  0  0  0  0  0  0  0  0  0  0
    9.7831    5.7400  -57.9299 H   0  0  0  0  0  0  0  0  0  0  0  0
    8.0814    4.5031  -58.1508 H   0  0  0  0  0  0  0  0  0  0  0  0
    7.2663    4.4666  -59.8179 H   0  0  0  0  0  0  0  0  0  0  0  0
    7.5965    2.7819  -61.3717 H   0  0  0  0  0  0  0  0  0  0  0  0
    7.6221    1.1163  -60.7799 H   0  0  0  0  0  0  0  0  0  0  0  0
    5.5493    3.3120  -60.2757 H   0  0  0  0  0  0  0  0  0  0  0  0
    5.2318    1.6516  -60.6906 H   0  0  0  0  0  0  0  0  0  0  0  0
    5.2360    2.4170  -58.1520 H   0  0  0  0  0  0  0  0  0  0  0  0
   10.0558    1.9078  -58.4159 H   0  0  0  0  0  0  0  0  0  0  0  0
    9.4903    1.1102  -59.9840 H   0  0  0  0  0  0  0  0  0  0  0  0
  1  2  1  0
  2  3  1  0
  3  4  1  0
  4  5  2  0
  5  6  1  0
  6  7  1  0
  7  8  1  0
  7  9  2  0
  9 10  1  0
 10 11  2  0
 11 12  1  0
 12 13  1  0
 13 14  1  0
 14 15  1  0
 15 16  1  0
 16 17  1  0
 16 18  1  0
 18 19  1  0
 19 20  1  6
 20 21  1  0
 21 22  1  0
 22 23  1  0
 19 24  1  0
  8  3  2  0
 17 12  1  0
 23 19  1  0
 23  6  2  0
 24 14  1  0
  1 25  1  0
  1 26  1  0
  1 27  1  0
  4 28  1  0
  5 29  1  0
  8 30  1  0
 10 31  1  0
 11 32  1  0
 12 33  1  1
 13 34  1  0
 13 35  1  0
 14 36  1  6
 15 37  1  0
 15 38  1  0
 16 39  1  6
 17 40  1  0
 17 41  1  0
 18 42  1  0
 18 43  1  0
 20 44  1  0
 20 45  1  0
 21 46  1  0
 21 47  1  0
 22 48  1  0
 24 49  1  0
 24 50  1  0
M  END
>  <meeko>  (207) 
{"is_sidechain": false}

$$$$

     RDKit          3D

 17 18  0  0  0  0  0  0  0  0999 V2000
   10.9890   -2.5440  -52.9500 O   0  0  0  0  0  0  0  0  0  0  0  0
   11.2030   -2.8680  -54.1090 C   0  0  0  0  0  0  0  0  0  0  0  0
   11.1530   -1.8230  -55.2010 C   0  0  0  0  0  0  0  0  0  0  0  0
   11.3660   -2.0700  -56.4570 N   0  0  0  0  0  0  0  0  0  0  0  0
   11.6620   -3.4010  -56.8120 C   0  0  0  0  0  0  0  0  0  0  0  0
   11.8950   -3.7020  -58.1540 C   0  0  0  0  0  0  0  0  0  0  0  0
   12.1920   -5.0110  -58.5460 C   0  0  0  0  0  0  0  0  0  0  0  0
   12.2550   -6.0300  -57.5940 C   0  0  0  0  0  0  0  0  0  0  0  0
   12.0230   -5.7450  -56.2480 C   0  0  0  0  0  0  0  0  0  0  0  0
   11.7290   -4.4370  -55.8650 C   0  0  0  0  0  0  0  0  0  0  0  0
   11.4950   -4.1430  -54.5170 N   0  0  0  0  0  0  0  0  0  0  0  0
   10.9212   -0.7872  -54.9121 H   0  0  0  0  0  0  0  0  0  0  0  0
   11.8447   -2.9039  -58.9093 H   0  0  0  0  0  0  0  0  0  0  0  0
   12.3763   -5.2381  -59.6064 H   0  0  0  0  0  0  0  0  0  0  0  0
   12.4878   -7.0590  -57.9054 H   0  0  0  0  0  0  0  0  0  0  0  0
   12.0716   -6.5456  -55.4952 H   0  0  0  0  0  0  0  0  0  0  0  0
   11.5350   -4.8620  -53.8080 H   0  0  0  0  0  0  0  0  0  0  0  0
  1  2  2  0
  2  3  1  0
  3  4  2  0
  4  5  1  0
  5  6  2  0
  6  7  1  0
  7  8  2  0
  8  9  1  0
  9 10  2  0
 10 11  1  0
 11  2  1  0
 10  5  1  0
  3 12  1  0
  6 13  1  0
  7 14  1  0
  8 15  1  0
  9 16  1  0
 11 17  1  0
M  END
>  <meeko>  (208) 
{"is_sidechain": false}

$$$$

     RDKit          3D

 17 18  0  0  0  0  0  0  0  0999 V2000
   10.9990   -2.5910  -52.9030 O   0  0  0  0  0  0  0  0  0  0  0  0
   11.2130   -2.8340  -54.2190 C   0  0  0  0  0  0  0  0  0  0  0  0
   11.1410   -1.8350  -55.1650 C   0  0  0  0  0  0  0  0  0  0  0  0
   11.3550   -2.0840  -56.4770 N   0  0  0  0  0  0  0  0  0  0  0  0
   11.6420   -3.3610  -56.8000 C   0  0  0  0  0  0  0  0  0  0  0  0
   11.8750   -3.6950  -58.1290 C   0  0  0  0  0  0  0  0  0  0  0  0
   12.1750   -5.0040  -58.5070 C   0  0  0  0  0  0  0  0  0  0  0  0
   12.2430   -5.9990  -57.5410 C   0  0  0  0  0  0  0  0  0  0  0  0
   12.0110   -5.6790  -56.2020 C   0  0  0  0  0  0  0  0  0  0  0  0
   11.7120   -4.3800  -55.8100 C   0  0  0  0  0  0  0  0  0  0  0  0
   11.4950   -4.1140  -54.5040 N   0  0  0  0  0  0  0  0  0  0  0  0
   10.9720   -1.6170  -52.9110 H   0  0  0  0  0  0  0  0  0  0  0  0
   10.9036   -0.8096  -54.8453 H   0  0  0  0  0  0  0  0  0  0  0  0
   11.8217   -2.9109  -58.8987 H   0  0  0  0  0  0  0  0  0  0  0  0
   12.3567   -5.2465  -59.5645 H   0  0  0  0  0  0  0  0  0  0  0  0
   12.4785   -7.0341  -57.8292 H   0  0  0  0  0  0  0  0  0  0  0  0
   12.0661   -6.4718  -55.4415 H   0  0  0  0  0  0  0  0  0  0  0  0
  1  2  1  0
  2  3  1  0
  3  4  2  0
  4  5  1  0
  5  6  2  0
  6  7  1  0
  7  8  2  0
  8  9  1  0
  9 10  2  0
 10 11  1  0
 11  2  2  0
 10  5  1  0
  1 12  1  0
  3 13  1  0
  6 14  1  0
  7 15  1  0
  8 16  1  0
  9 17  1  0
M  END
>  <meeko>  (209) 
{"is_sidechain": false}

$$$$

     RDKit          3D

 47 51  0  0  0  0  0  0  0  0999 V2000
    9.4520   -1.2460  -53.3830 Cl  0  0  0  0  0  0  0  0  0  0  0  0
    8.5650   -0.3170  -54.5180 C   0  0  0  0  0  0  0  0  0  0  0  0
    7.2630   -0.6270  -54.8240 C   0  0  0  0  0  0  0  0  0  0  0  0
    6.6240    0.1670  -55.7710 C   0  0  0  0  0  0  0  0  0  0  0  0
    7.2700    1.2730  -56.3760 C   0  0  0  0  0  0  0  0  0  0  0  0
    8.6040    1.4820  -55.9750 C   0  0  0  0  0  0  0  0  0  0  0  0
    9.2510    0.6920  -55.0760 N   0  0  0  0  0  0  0  0  0  0  0  0
    9.4500    2.4650  -56.5270 N   0  0  0  0  0  0  0  0  0  0  0  0
    9.1430    3.7480  -56.2420 N   0  0  0  0  0  0  0  0  0  0  0  0
    9.4780    4.6290  -57.1360 C   0  0  0  0  0  0  0  0  0  0  0  0
   10.0470    4.4780  -58.5520 C   0  0  1  0  0  0  0  0  0  0  0  0
   10.4220    3.1110  -59.1550 C   0  0  0  0  0  0  0  0  0  0  0  0
    9.3760    2.3870  -60.0410 C   0  0  2  0  0  0  0  0  0  0  0  0
    8.6910    3.3600  -60.9810 C   0  0  0  0  0  0  0  0  0  0  0  0
    8.0360    4.4390  -60.1390 C   0  0  2  0  0  0  0  0  0  0  0  0
    9.1490    5.2910  -59.5070 C   0  0  0  0  0  0  0  0  0  0  0  0
    7.0830    3.8780  -59.0590 C   0  0  0  0  0  0  0  0  0  0  0  0
    7.0010    2.3200  -58.8700 C   0  0  2  0  0  0  0  0  0  0  0  0
    5.8510    1.7870  -59.8120 C   0  0  0  0  0  0  0  0  0  0  0  0
    4.4630    2.3820  -59.5260 C   0  0  0  0  0  0  0  0  0  0  0  0
    4.2740    2.6490  -58.1080 N   0  0  0  0  0  0  0  0  0  0  0  0
    5.1950    2.2600  -57.1670 C   0  0  0  0  0  0  0  0  0  0  0  0
    6.4920    1.9930  -57.4350 C   0  0  0  0  0  0  0  0  0  0  0  0
    8.3120    1.5690  -59.2890 C   0  0  0  0  0  0  0  0  0  0  0  0
    6.7461   -1.4689  -54.3401 H   0  0  0  0  0  0  0  0  0  0  0  0
    5.5889   -0.0705  -56.0578 H   0  0  0  0  0  0  0  0  0  0  0  0
   10.3380    2.2060  -56.0820 H   0  0  0  0  0  0  0  0  0  0  0  0
    9.3261    5.6717  -56.8202 H   0  0  0  0  0  0  0  0  0  0  0  0
   11.0722    4.8563  -58.4261 H   0  0  0  0  0  0  0  0  0  0  0  0
   11.3213    3.2620  -59.7702 H   0  0  0  0  0  0  0  0  0  0  0  0
   10.5408    2.4525  -58.2820 H   0  0  0  0  0  0  0  0  0  0  0  0
    9.9726    1.6524  -60.6018 H   0  0  0  0  0  0  0  0  0  0  0  0
    9.4323    3.8117  -61.6566 H   0  0  0  0  0  0  0  0  0  0  0  0
    7.9375    2.8387  -61.5897 H   0  0  0  0  0  0  0  0  0  0  0  0
    7.3998    5.0526  -60.7938 H   0  0  0  0  0  0  0  0  0  0  0  0
    9.7745    5.7064  -60.3109 H   0  0  0  0  0  0  0  0  0  0  0  0
    8.6673    6.0848  -58.9172 H   0  0  0  0  0  0  0  0  0  0  0  0
    7.3957    4.3064  -58.0953 H   0  0  0  0  0  0  0  0  0  0  0  0
    6.0798    4.1606  -59.4109 H   0  0  0  0  0  0  0  0  0  0  0  0
    6.1198    2.0270  -60.8513 H   0  0  0  0  0  0  0  0  0  0  0  0
    5.7713    0.7058  -59.6259 H   0  0  0  0  0  0  0  0  0  0  0  0
    4.3573    3.3244  -60.0834 H   0  0  0  0  0  0  0  0  0  0  0  0
    3.7045    1.6504  -59.8414 H   0  0  0  0  0  0  0  0  0  0  0  0
    3.3070    2.6480  -57.7920 H   0  0  0  0  0  0  0  0  0  0  0  0
    4.8543    2.1590  -56.1260 H   0  0  0  0  0  0  0  0  0  0  0  0
    8.7792    1.1803  -58.3721 H   0  0  0  0  0  0  0  0  0  0  0  0
    7.9844    0.8004  -60.0045 H   0  0  0  0  0  0  0  0  0  0  0  0
  1  2  1  0
  2  3  1  0
  3  4  2  0
  4  5  1  0
  5  6  2  0
  6  7  1  0
  6  8  1  0
  8  9  1  0
  9 10  2  0
 10 11  1  0
 11 12  1  0
 12 13  1  0
 13 14  1  0
 14 15  1  0
 15 16  1  0
 15 17  1  0
 17 18  1  0
 18 19  1  6
 19 20  1  0
 20 21  1  0
 21 22  1  0
 22 23  2  0
 18 24  1  0
  7  2  2  0
 16 11  1  0
 23 18  1  0
 23  5  1  0
 24 13  1  0
  3 25  1  0
  4 26  1  0
  8 27  1  0
 10 28  1  0
 11 29  1  1
 12 30  1  0
 12 31  1  0
 13 32  1  6
 14 33  1  0
 14 34  1  0
 15 35  1  6
 16 36  1  0
 16 37  1  0
 17 38  1  0
 17 39  1  0
 19 40  1  0
 19 41  1  0
 20 42  1  0
 20 43  1  0
 21 44  1  0
 22 45  1  0
 24 46  1  0
 24 47  1  0
M  END
>  <meeko>  (210) 
{"is_sidechain": false}

$$$$

     RDKit          3D

 47 51  0  0  0  0  0  0  0  0999 V2000
    7.5300    0.0220  -53.0000 Cl  0  0  0  0  0  0  0  0  0  0  0  0
    7.4710    0.6300  -54.6020 C   0  0  0  0  0  0  0  0  0  0  0  0
    6.2760    1.0360  -55.1590 C   0  0  0  0  0  0  0  0  0  0  0  0
    6.3000    1.5100  -56.4670 C   0  0  0  0  0  0  0  0  0  0  0  0
    7.5100    1.5700  -57.1850 C   0  0  0  0  0  0  0  0  0  0  0  0
    8.6660    1.1600  -56.5000 C   0  0  0  0  0  0  0  0  0  0  0  0
    8.6570    0.6750  -55.2280 N   0  0  0  0  0  0  0  0  0  0  0  0
    9.9460    1.2430  -57.0740 N   0  0  0  0  0  0  0  0  0  0  0  0
   10.4900    2.2870  -56.6570 N   0  0  0  0  0  0  0  0  0  0  0  0
   11.8300    2.5200  -57.1790 C   0  0  0  0  0  0  0  0  0  0  0  0
   11.9030    3.8360  -57.9900 C   0  0  1  0  0  0  0  0  0  0  0  0
   11.8600    3.6230  -59.5200 C   0  0  0  0  0  0  0  0  0  0  0  0
   10.5170    3.9450  -60.1950 C   0  0  2  0  0  0  0  0  0  0  0  0
   10.0990    5.3430  -59.7690 C   0  0  0  0  0  0  0  0  0  0  0  0
    9.7200    5.2980  -58.3000 C   0  0  2  0  0  0  0  0  0  0  0  0
   10.9870    4.9730  -57.4710 C   0  0  0  0  0  0  0  0  0  0  0  0
    8.5190    4.3580  -58.0270 C   0  0  0  0  0  0  0  0  0  0  0  0
    8.1850    3.2970  -59.1290 C   0  0  2  0  0  0  0  0  0  0  0  0
    7.1560    3.9510  -60.1320 C   0  0  0  0  0  0  0  0  0  0  0  0
    6.6820    3.0110  -61.2470 C   0  0  0  0  0  0  0  0  0  0  0  0
    6.3650    1.7030  -60.7090 N   0  0  0  0  0  0  0  0  0  0  0  0
    6.6510    1.3380  -59.4220 C   0  0  0  0  0  0  0  0  0  0  0  0
    7.4530    2.0360  -58.5930 C   0  0  0  0  0  0  0  0  0  0  0  0
    9.4710    2.8540  -59.8910 C   0  0  0  0  0  0  0  0  0  0  0  0
    5.3366    0.9867  -54.5888 H   0  0  0  0  0  0  0  0  0  0  0  0
    5.3658    1.8407  -56.9443 H   0  0  0  0  0  0  0  0  0  0  0  0
   12.5359    2.5794  -56.3375 H   0  0  0  0  0  0  0  0  0  0  0  0
   12.0884    1.6871  -57.8495 H   0  0  0  0  0  0  0  0  0  0  0  0
   12.9136    4.2221  -57.7911 H   0  0  0  0  0  0  0  0  0  0  0  0
   12.6298    4.2648  -59.9734 H   0  0  0  0  0  0  0  0  0  0  0  0
   12.0287    2.5479  -59.6803 H   0  0  0  0  0  0  0  0  0  0  0  0
   10.6124    3.9419  -61.2909 H   0  0  0  0  0  0  0  0  0  0  0  0
   10.9348    6.0427  -59.9166 H   0  0  0  0  0  0  0  0  0  0  0  0
    9.2442    5.6840  -60.3715 H   0  0  0  0  0  0  0  0  0  0  0  0
    9.3532    6.2840  -57.9788 H   0  0  0  0  0  0  0  0  0  0  0  0
   11.5935    5.8894  -57.4213 H   0  0  0  0  0  0  0  0  0  0  0  0
   10.6070    4.6108  -56.5044 H   0  0  0  0  0  0  0  0  0  0  0  0
    8.7283    3.8137  -57.0943 H   0  0  0  0  0  0  0  0  0  0  0  0
    7.6404    5.0188  -57.9895 H   0  0  0  0  0  0  0  0  0  0  0  0
    6.2759    4.2781  -59.5590 H   0  0  0  0  0  0  0  0  0  0  0  0
    7.6789    4.7853  -60.6225 H   0  0  0  0  0  0  0  0  0  0  0  0
    5.7840    3.4349  -61.7202 H   0  0  0  0  0  0  0  0  0  0  0  0
    7.4876    2.9045  -61.9884 H   0  0  0  0  0  0  0  0  0  0  0  0
    5.6490    1.1660  -61.1910 H   0  0  0  0  0  0  0  0  0  0  0  0
    6.1962    0.4131  -59.0378 H   0  0  0  0  0  0  0  0  0  0  0  0
    9.9654    2.0803  -59.2852 H   0  0  0  0  0  0  0  0  0  0  0  0
    9.1165    2.5166  -60.8762 H   0  0  0  0  0  0  0  0  0  0  0  0
  1  2  1  0
  2  3  1  0
  3  4  2  0
  4  5  1  0
  5  6  2  0
  6  7  1  0
  6  8  1  0
  8  9  2  0
  9 10  1  0
 10 11  1  0
 11 12  1  0
 12 13  1  0
 13 14  1  0
 14 15  1  0
 15 16  1  0
 15 17  1  0
 17 18  1  0
 18 19  1  6
 19 20  1  0
 20 21  1  0
 21 22  1  0
 22 23  2  0
 18 24  1  0
  7  2  2  0
 16 11  1  0
 23 18  1  0
 23  5  1  0
 24 13  1  0
  3 25  1  0
  4 26  1  0
 10 27  1  0
 10 28  1  0
 11 29  1  6
 12 30  1  0
 12 31  1  0
 13 32  1  6
 14 33  1  0
 14 34  1  0
 15 35  1  1
 16 36  1  0
 16 37  1  0
 17 38  1  0
 17 39  1  0
 19 40  1  0
 19 41  1  0
 20 42  1  0
 20 43  1  0
 21 44  1  0
 22 45  1  0
 24 46  1  0
 24 47  1  0
M  END
>  <meeko>  (211) 
{"is_sidechain": false}

$$$$

     RDKit          3D

 47 51  0  0  0  0  0  0  0  0999 V2000
    8.5020   -1.4320  -54.3550 Cl  0  0  0  0  0  0  0  0  0  0  0  0
    9.2900   -0.2120  -55.2680 C   0  0  0  0  0  0  0  0  0  0  0  0
   10.5650   -0.4100  -55.7580 C   0  0  0  0  0  0  0  0  0  0  0  0
   11.1390    0.6180  -56.4960 C   0  0  0  0  0  0  0  0  0  0  0  0
   10.4300    1.8120  -56.7260 C   0  0  0  0  0  0  0  0  0  0  0  0
    9.1400    1.8990  -56.1820 C   0  0  0  0  0  0  0  0  0  0  0  0
    8.5650    0.9020  -55.4560 N   0  0  0  0  0  0  0  0  0  0  0  0
    8.3460    3.0490  -56.3110 N   0  0  0  0  0  0  0  0  0  0  0  0
    7.3940    3.0490  -57.1290 N   0  0  0  0  0  0  0  0  0  0  0  0
    7.1660    1.9700  -58.0970 C   0  0  0  0  0  0  0  0  0  0  0  0
    7.0350    2.5080  -59.5580 C   0  0  1  0  0  0  0  0  0  0  0  0
    7.2870    4.0120  -59.7920 C   0  0  0  0  0  0  0  0  0  0  0  0
    8.7190    4.4060  -60.2060 C   0  0  2  0  0  0  0  0  0  0  0  0
    9.1630    3.5520  -61.3810 C   0  0  0  0  0  0  0  0  0  0  0  0
    9.2290    2.1070  -60.9190 C   0  0  2  0  0  0  0  0  0  0  0  0
    7.7990    1.6310  -60.5780 C   0  0  0  0  0  0  0  0  0  0  0  0
   10.2190    1.8990  -59.7540 C   0  0  0  0  0  0  0  0  0  0  0  0
   10.7350    3.1700  -58.9970 C   0  0  2  0  0  0  0  0  0  0  0  0
   12.0730    3.6250  -59.7080 C   0  0  0  0  0  0  0  0  0  0  0  0
   12.8450    4.7110  -58.9470 C   0  0  0  0  0  0  0  0  0  0  0  0
   13.0370    4.2980  -57.5730 N   0  0  0  0  0  0  0  0  0  0  0  0
   12.1650    3.4590  -56.9350 C   0  0  0  0  0  0  0  0  0  0  0  0
   11.1110    2.8610  -57.5210 C   0  0  0  0  0  0  0  0  0  0  0  0
    9.7220    4.3610  -59.0420 C   0  0  0  0  0  0  0  0  0  0  0  0
   11.1076   -1.3484  -55.5709 H   0  0  0  0  0  0  0  0  0  0  0  0
   12.1538    0.4979  -56.9030 H   0  0  0  0  0  0  0  0  0  0  0  0
    8.0122    1.2686  -58.0520 H   0  0  0  0  0  0  0  0  0  0  0  0
    6.2207    1.4730  -57.8334 H   0  0  0  0  0  0  0  0  0  0  0  0
    5.9540    2.4152  -59.7390 H   0  0  0  0  0  0  0  0  0  0  0  0
    6.6038    4.3471  -60.5863 H   0  0  0  0  0  0  0  0  0  0  0  0
    7.1193    4.4937  -58.8174 H   0  0  0  0  0  0  0  0  0  0  0  0
    8.6990    5.4601  -60.5198 H   0  0  0  0  0  0  0  0  0  0  0  0
    8.4400    3.6470  -62.2046 H   0  0  0  0  0  0  0  0  0  0  0  0
   10.1493    3.8818  -61.7393 H   0  0  0  0  0  0  0  0  0  0  0  0
    9.6273    1.4878  -61.7363 H   0  0  0  0  0  0  0  0  0  0  0  0
    7.2166    1.6096  -61.5109 H   0  0  0  0  0  0  0  0  0  0  0  0
    7.9119    0.6440  -60.1056 H   0  0  0  0  0  0  0  0  0  0  0  0
    9.7228    1.2549  -59.0131 H   0  0  0  0  0  0  0  0  0  0  0  0
   11.1172    1.4748  -60.2266 H   0  0  0  0  0  0  0  0  0  0  0  0
   12.7255    2.7457  -59.8128 H   0  0  0  0  0  0  0  0  0  0  0  0
   11.7871    4.0578  -60.6780 H   0  0  0  0  0  0  0  0  0  0  0  0
   13.8245    4.8655  -59.4231 H   0  0  0  0  0  0  0  0  0  0  0  0
   12.2724    5.6499  -58.9695 H   0  0  0  0  0  0  0  0  0  0  0  0
   13.5600    4.9330  -56.9760 H   0  0  0  0  0  0  0  0  0  0  0  0
   12.3374    3.2588  -55.8672 H   0  0  0  0  0  0  0  0  0  0  0  0
    9.1404    4.3323  -58.1088 H   0  0  0  0  0  0  0  0  0  0  0  0
   10.3499    5.2531  -59.1831 H   0  0  0  0  0  0  0  0  0  0  0  0
  1  2  1  0
  2  3  1  0
  3  4  2  0
  4  5  1  0
  5  6  2  0
  6  7  1  0
  6  8  1  0
  8  9  2  0
  9 10  1  0
 10 11  1  0
 11 12  1  0
 12 13  1  0
 13 14  1  0
 14 15  1  0
 15 16  1  0
 15 17  1  0
 17 18  1  0
 18 19  1  6
 19 20  1  0
 20 21  1  0
 21 22  1  0
 22 23  2  0
 18 24  1  0
  7  2  2  0
 16 11  1  0
 23 18  1  0
 23  5  1  0
 24 13  1  0
  3 25  1  0
  4 26  1  0
 10 27  1  0
 10 28  1  0
 11 29  1  6
 12 30  1  0
 12 31  1  0
 13 32  1  6
 14 33  1  0
 14 34  1  0
 15 35  1  6
 16 36  1  0
 16 37  1  0
 17 38  1  0
 17 39  1  0
 19 40  1  0
 19 41  1  0
 20 42  1  0
 20 43  1  0
 21 44  1  0
 22 45  1  0
 24 46  1  0
 24 47  1  0
M  END
>  <meeko>  (212) 
{"is_sidechain": false}

$$$$

     RDKit          3D

 47 51  0  0  0  0  0  0  0  0999 V2000
    8.0410    0.0580  -53.0750 Cl  0  0  0  0  0  0  0  0  0  0  0  0
    7.7320    0.6440  -54.6570 C   0  0  0  0  0  0  0  0  0  0  0  0
    6.4510    0.7190  -55.1450 C   0  0  0  0  0  0  0  0  0  0  0  0
    6.2940    1.2090  -56.4340 C   0  0  0  0  0  0  0  0  0  0  0  0
    7.4090    1.6130  -57.2120 C   0  0  0  0  0  0  0  0  0  0  0  0
    8.6710    1.4770  -56.6130 C   0  0  0  0  0  0  0  0  0  0  0  0
    8.8230    0.9990  -55.3520 N   0  0  0  0  0  0  0  0  0  0  0  0
    9.8450    1.7900  -57.3520 N   0  0  0  0  0  0  0  0  0  0  0  0
   10.9770    1.9520  -56.6120 N   0  0  0  0  0  0  0  0  0  0  0  0
   11.8160    2.8500  -57.0260 C   0  0  0  0  0  0  0  0  0  0  0  0
   11.7300    3.7660  -58.2340 C   0  0  1  0  0  0  0  0  0  0  0  0
   11.5850    3.0210  -59.5710 C   0  0  0  0  0  0  0  0  0  0  0  0
   10.3850    3.3970  -60.4570 C   0  0  2  0  0  0  0  0  0  0  0  0
   10.1010    4.8840  -60.3570 C   0  0  0  0  0  0  0  0  0  0  0  0
    9.6540    5.1940  -58.9400 C   0  0  2  0  0  0  0  0  0  0  0  0
   10.8380    4.9900  -57.9760 C   0  0  0  0  0  0  0  0  0  0  0  0
    8.4130    4.3960  -58.4970 C   0  0  0  0  0  0  0  0  0  0  0  0
    7.9630    3.2140  -59.4010 C   0  0  2  0  0  0  0  0  0  0  0  0
    6.9360    3.7690  -60.4540 C   0  0  0  0  0  0  0  0  0  0  0  0
    6.2840    2.6970  -61.3330 C   0  0  0  0  0  0  0  0  0  0  0  0
    6.1750    1.3620  -60.7400 N   0  0  0  0  0  0  0  0  0  0  0  0
    6.5550    1.1460  -59.5300 C   0  0  0  0  0  0  0  0  0  0  0  0
    7.0740    2.2060  -58.5820 C   0  0  1  0  0  0  0  0  0  0  0  0
    9.1350    2.5400  -60.1810 C   0  0  0  0  0  0  0  0  0  0  0  0
    5.5871    0.4046  -54.5410 H   0  0  0  0  0  0  0  0  0  0  0  0
    5.2833    1.2857  -56.8613 H   0  0  0  0  0  0  0  0  0  0  0  0
    9.9450    0.9900  -57.9790 H   0  0  0  0  0  0  0  0  0  0  0  0
   12.7219    2.9649  -56.4127 H   0  0  0  0  0  0  0  0  0  0  0  0
   12.7159    4.2303  -58.3836 H   0  0  0  0  0  0  0  0  0  0  0  0
   12.4987    3.2069  -60.1546 H   0  0  0  0  0  0  0  0  0  0  0  0
   11.4154    1.9701  -59.2939 H   0  0  0  0  0  0  0  0  0  0  0  0
   10.6618    3.1698  -61.4971 H   0  0  0  0  0  0  0  0  0  0  0  0
   11.0130    5.4526  -60.5913 H   0  0  0  0  0  0  0  0  0  0  0  0
    9.3135    5.1665  -61.0712 H   0  0  0  0  0  0  0  0  0  0  0  0
    9.3367    6.2469  -58.9151 H   0  0  0  0  0  0  0  0  0  0  0  0
   11.4744    5.8853  -58.0343 H   0  0  0  0  0  0  0  0  0  0  0  0
   10.3832    4.8156  -56.9897 H   0  0  0  0  0  0  0  0  0  0  0  0
    8.6234    3.9861  -57.4982 H   0  0  0  0  0  0  0  0  0  0  0  0
    7.5835    5.1170  -58.5427 H   0  0  0  0  0  0  0  0  0  0  0  0
    6.1396    4.2987  -59.9107 H   0  0  0  0  0  0  0  0  0  0  0  0
    7.5050    4.4239  -61.1303 H   0  0  0  0  0  0  0  0  0  0  0  0
    5.2687    3.0383  -61.5834 H   0  0  0  0  0  0  0  0  0  0  0  0
    6.9468    2.5826  -62.2034 H   0  0  0  0  0  0  0  0  0  0  0  0
    6.4985    0.1131  -59.1560 H   0  0  0  0  0  0  0  0  0  0  0  0
    6.3570    2.9334  -58.1736 H   0  0  0  0  0  0  0  0  0  0  0  0
    9.4572    1.6631  -59.6003 H   0  0  0  0  0  0  0  0  0  0  0  0
    8.7208    2.3163  -61.1752 H   0  0  0  0  0  0  0  0  0  0  0  0
  1  2  1  0
  2  3  1  0
  3  4  2  0
  4  5  1  0
  5  6  2  0
  6  7  1  0
  6  8  1  0
  8  9  1  0
  9 10  2  0
 10 11  1  0
 11 12  1  0
 12 13  1  0
 13 14  1  0
 14 15  1  0
 15 16  1  0
 15 17  1  0
 17 18  1  0
 18 19  1  6
 19 20  1  0
 20 21  1  0
 21 22  2  0
 22 23  1  0
 18 24  1  0
  7  2  2  0
 16 11  1  0
 23 18  1  0
 23  5  1  0
 24 13  1  0
  3 25  1  0
  4 26  1  0
  8 27  1  0
 10 28  1  0
 11 29  1  6
 12 30  1  0
 12 31  1  0
 13 32  1  6
 14 33  1  0
 14 34  1  0
 15 35  1  6
 16 36  1  0
 16 37  1  0
 17 38  1  0
 17 39  1  0
 19 40  1  0
 19 41  1  0
 20 42  1  0
 20 43  1  0
 22 44  1  0
 23 45  1  1
 24 46  1  0
 24 47  1  0
M  END
>  <meeko>  (213) 
{"is_sidechain": false}

$$$$

     RDKit          3D

 47 51  0  0  0  0  0  0  0  0999 V2000
    9.2810   -0.7240  -53.1040 Cl  0  0  0  0  0  0  0  0  0  0  0  0
    8.3460   -0.0830  -54.3910 C   0  0  0  0  0  0  0  0  0  0  0  0
    7.1160   -0.6090  -54.7000 C   0  0  0  0  0  0  0  0  0  0  0  0
    6.4300   -0.0310  -55.7590 C   0  0  0  0  0  0  0  0  0  0  0  0
    6.9770    1.0560  -56.4860 C   0  0  0  0  0  0  0  0  0  0  0  0
    8.2350    1.5200  -56.0700 C   0  0  0  0  0  0  0  0  0  0  0  0
    8.9050    0.9510  -55.0350 N   0  0  0  0  0  0  0  0  0  0  0  0
    8.8190    2.6530  -56.7000 N   0  0  0  0  0  0  0  0  0  0  0  0
   10.1490    2.8270  -56.4720 N   0  0  0  0  0  0  0  0  0  0  0  0
   10.8480    3.3100  -57.4530 C   0  0  0  0  0  0  0  0  0  0  0  0
   10.3950    3.7230  -58.8450 C   0  0  1  0  0  0  0  0  0  0  0  0
   10.2460    2.5200  -59.7910 C   0  0  0  0  0  0  0  0  0  0  0  0
    8.8670    2.3260  -60.4450 C   0  0  2  0  0  0  0  0  0  0  0  0
    8.3160    3.6760  -60.8680 C   0  0  0  0  0  0  0  0  0  0  0  0
    8.0040    4.4780  -59.6180 C   0  0  2  0  0  0  0  0  0  0  0  0
    9.2980    4.7990  -58.8510 C   0  0  0  0  0  0  0  0  0  0  0  0
    6.9290    3.8090  -58.7410 C   0  0  0  0  0  0  0  0  0  0  0  0
    6.6830    2.2820  -58.9530 C   0  0  2  0  0  0  0  0  0  0  0  0
    5.4860    2.1180  -59.9560 C   0  0  0  0  0  0  0  0  0  0  0  0
    4.1540    2.6840  -59.4550 C   0  0  0  0  0  0  0  0  0  0  0  0
    3.9770    2.7140  -58.0010 N   0  0  0  0  0  0  0  0  0  0  0  0
    4.8770    2.2310  -57.2190 C   0  0  0  0  0  0  0  0  0  0  0  0
    6.1420    1.5370  -57.6760 C   0  0  2  0  0  0  0  0  0  0  0  0
    7.9100    1.5280  -59.5390 C   0  0  0  0  0  0  0  0  0  0  0  0
    6.6929   -1.4514  -54.1332 H   0  0  0  0  0  0  0  0  0  0  0  0
    5.4419   -0.4243  -56.0399 H   0  0  0  0  0  0  0  0  0  0  0  0
    8.2870    3.4350  -56.3100 H   0  0  0  0  0  0  0  0  0  0  0  0
   11.9211    3.4391  -57.2486 H   0  0  0  0  0  0  0  0  0  0  0  0
   11.2130    4.2870  -59.3171 H   0  0  0  0  0  0  0  0  0  0  0  0
   10.9848    2.6360  -60.5977 H   0  0  0  0  0  0  0  0  0  0  0  0
   10.3949    1.6326  -59.1582 H   0  0  0  0  0  0  0  0  0  0  0  0
    8.9753    1.7123  -61.3514 H   0  0  0  0  0  0  0  0  0  0  0  0
    9.0631    4.2088  -61.4746 H   0  0  0  0  0  0  0  0  0  0  0  0
    7.4042    3.5412  -61.4684 H   0  0  0  0  0  0  0  0  0  0  0  0
    7.5608    5.4357  -59.9284 H   0  0  0  0  0  0  0  0  0  0  0  0
    9.7289    5.7087  -59.2947 H   0  0  0  0  0  0  0  0  0  0  0  0
    8.9886    4.8949  -57.7998 H   0  0  0  0  0  0  0  0  0  0  0  0
    7.2216    3.9542  -57.6906 H   0  0  0  0  0  0  0  0  0  0  0  0
    5.9846    4.2913  -59.0334 H   0  0  0  0  0  0  0  0  0  0  0  0
    5.7484    2.6343  -60.8912 H   0  0  0  0  0  0  0  0  0  0  0  0
    5.3356    1.0364  -60.0887 H   0  0  0  0  0  0  0  0  0  0  0  0
    4.0653    3.7156  -59.8265 H   0  0  0  0  0  0  0  0  0  0  0  0
    3.3794    2.0016  -59.8348 H   0  0  0  0  0  0  0  0  0  0  0  0
    4.7148    2.3299  -56.1355 H   0  0  0  0  0  0  0  0  0  0  0  0
    6.0554    0.5310  -58.1124 H   0  0  0  0  0  0  0  0  0  0  0  0
    8.4988    1.1474  -58.6914 H   0  0  0  0  0  0  0  0  0  0  0  0
    7.4791    0.7574  -60.1951 H   0  0  0  0  0  0  0  0  0  0  0  0
  1  2  1  0
  2  3  1  0
  3  4  2  0
  4  5  1  0
  5  6  2  0
  6  7  1  0
  6  8  1  0
  8  9  1  0
  9 10  2  0
 10 11  1  0
 11 12  1  0
 12 13  1  0
 13 14  1  0
 14 15  1  0
 15 16  1  0
 15 17  1  0
 17 18  1  0
 18 19  1  6
 19 20  1  0
 20 21  1  0
 21 22  2  0
 22 23  1  0
 18 24  1  0
  7  2  2  0
 16 11  1  0
 23 18  1  0
 23  5  1  0
 24 13  1  0
  3 25  1  0
  4 26  1  0
  8 27  1  0
 10 28  1  0
 11 29  1  6
 12 30  1  0
 12 31  1  0
 13 32  1  6
 14 33  1  0
 14 34  1  0
 15 35  1  6
 16 36  1  0
 16 37  1  0
 17 38  1  0
 17 39  1  0
 19 40  1  0
 19 41  1  0
 20 42  1  0
 20 43  1  0
 22 44  1  0
 23 45  1  6
 24 46  1  0
 24 47  1  0
M  END
>  <meeko>  (214) 
{"is_sidechain": false}

$$$$

     RDKit          3D

 47 51  0  0  0  0  0  0  0  0999 V2000
    8.7050   -0.5800  -53.5200 Cl  0  0  0  0  0  0  0  0  0  0  0  0
    8.1620    0.3940  -54.8220 C   0  0  0  0  0  0  0  0  0  0  0  0
    7.0810    0.0060  -55.5920 C   0  0  0  0  0  0  0  0  0  0  0  0
    6.6800    0.8460  -56.6250 C   0  0  0  0  0  0  0  0  0  0  0  0
    7.3690    2.0460  -56.8580 C   0  0  0  0  0  0  0  0  0  0  0  0
    8.4820    2.3140  -56.0390 C   0  0  0  0  0  0  0  0  0  0  0  0
    8.8690    1.5180  -55.0140 N   0  0  0  0  0  0  0  0  0  0  0  0
    9.3260    3.4150  -56.2910 N   0  0  0  0  0  0  0  0  0  0  0  0
   10.2380    3.0210  -57.0470 N   0  0  0  0  0  0  0  0  0  0  0  0
   11.1770    4.0450  -57.4880 C   0  0  0  0  0  0  0  0  0  0  0  0
   11.4580    3.9260  -59.0110 C   0  0  1  0  0  0  0  0  0  0  0  0
   11.2930    2.5060  -59.6140 C   0  0  0  0  0  0  0  0  0  0  0  0
    9.9870    2.2200  -60.4020 C   0  0  2  0  0  0  0  0  0  0  0  0
    9.7200    3.3690  -61.3580 C   0  0  0  0  0  0  0  0  0  0  0  0
    9.4660    4.6200  -60.5350 C   0  0  2  0  0  0  0  0  0  0  0  0
   10.7860    5.0300  -59.8570 C   0  0  0  0  0  0  0  0  0  0  0  0
    8.3460    4.4540  -59.4950 C   0  0  0  0  0  0  0  0  0  0  0  0
    7.6910    3.0410  -59.3380 C   0  0  2  0  0  0  0  0  0  0  0  0
    6.6310    2.8690  -60.4780 C   0  0  0  0  0  0  0  0  0  0  0  0
    5.5180    1.9090  -60.0840 C   0  0  0  0  0  0  0  0  0  0  0  0
    4.7260    2.4950  -59.0100 N   0  0  0  0  0  0  0  0  0  0  0  0
    5.4110    3.0320  -58.0590 C   0  0  0  0  0  0  0  0  0  0  0  0
    6.9300    3.0330  -57.9350 C   0  0  1  0  0  0  0  0  0  0  0  0
    8.7610    1.9040  -59.5080 C   0  0  0  0  0  0  0  0  0  0  0  0
    6.5540   -0.9389  -55.3933 H   0  0  0  0  0  0  0  0  0  0  0  0
    5.8241    0.5703  -57.2585 H   0  0  0  0  0  0  0  0  0  0  0  0
   10.7517    5.0374  -57.2774 H   0  0  0  0  0  0  0  0  0  0  0  0
   12.1242    3.9079  -56.9458 H   0  0  0  0  0  0  0  0  0  0  0  0
   12.5402    4.1117  -59.0772 H   0  0  0  0  0  0  0  0  0  0  0  0
   12.1370    2.3367  -60.2988 H   0  0  0  0  0  0  0  0  0  0  0  0
   11.2555    1.8310  -58.7463 H   0  0  0  0  0  0  0  0  0  0  0  0
   10.1445    1.2936  -60.9738 H   0  0  0  0  0  0  0  0  0  0  0  0
   10.5931    3.5224  -62.0093 H   0  0  0  0  0  0  0  0  0  0  0  0
    8.8470    3.1445  -61.9884 H   0  0  0  0  0  0  0  0  0  0  0  0
    9.1149    5.4087  -61.2167 H   0  0  0  0  0  0  0  0  0  0  0  0
   11.4926    5.3347  -60.6430 H   0  0  0  0  0  0  0  0  0  0  0  0
   10.5327    5.8405  -59.1578 H   0  0  0  0  0  0  0  0  0  0  0  0
    8.7651    4.7306  -58.5163 H   0  0  0  0  0  0  0  0  0  0  0  0
    7.5315    5.0943  -59.8646 H   0  0  0  0  0  0  0  0  0  0  0  0
    6.1894    3.8510  -60.7030 H   0  0  0  0  0  0  0  0  0  0  0  0
    7.1435    2.4513  -61.3571 H   0  0  0  0  0  0  0  0  0  0  0  0
    4.8722    1.7199  -60.9542 H   0  0  0  0  0  0  0  0  0  0  0  0
    5.9573    0.9612  -59.7394 H   0  0  0  0  0  0  0  0  0  0  0  0
    4.8458    3.5371  -57.2619 H   0  0  0  0  0  0  0  0  0  0  0  0
    7.2802    4.0026  -57.5513 H   0  0  0  0  0  0  0  0  0  0  0  0
    9.1375    1.6500  -58.5061 H   0  0  0  0  0  0  0  0  0  0  0  0
    8.2327    1.0893  -60.0249 H   0  0  0  0  0  0  0  0  0  0  0  0
  1  2  1  0
  2  3  1  0
  3  4  2  0
  4  5  1  0
  5  6  2  0
  6  7  1  0
  6  8  1  0
  8  9  2  0
  9 10  1  0
 10 11  1  0
 11 12  1  0
 12 13  1  0
 13 14  1  0
 14 15  1  0
 15 16  1  0
 15 17  1  0
 17 18  1  0
 18 19  1  6
 19 20  1  0
 20 21  1  0
 21 22  2  0
 22 23  1  0
 18 24  1  0
  7  2  2  0
 16 11  1  0
 23 18  1  0
 23  5  1  0
 24 13  1  0
  3 25  1  0
  4 26  1  0
 10 27  1  0
 10 28  1  0
 11 29  1  1
 12 30  1  0
 12 31  1  0
 13 32  1  6
 14 33  1  0
 14 34  1  0
 15 35  1  6
 16 36  1  0
 16 37  1  0
 17 38  1  0
 17 39  1  0
 19 40  1  0
 19 41  1  0
 20 42  1  0
 20 43  1  0
 22 44  1  0
 23 45  1  1
 24 46  1  0
 24 47  1  0
M  END
>  <meeko>  (215) 
{"is_sidechain": false}

$$$$

     RDKit          3D

 47 51  0  0  0  0  0  0  0  0999 V2000
    8.9540   -0.8810  -52.9080 Cl  0  0  0  0  0  0  0  0  0  0  0  0
    8.2250   -0.1910  -54.2970 C   0  0  0  0  0  0  0  0  0  0  0  0
    7.0680   -0.7170  -54.8250 C   0  0  0  0  0  0  0  0  0  0  0  0
    6.5370   -0.0900  -55.9460 C   0  0  0  0  0  0  0  0  0  0  0  0
    7.1650    1.0380  -56.5270 C   0  0  0  0  0  0  0  0  0  0  0  0
    8.3450    1.4640  -55.9100 C   0  0  0  0  0  0  0  0  0  0  0  0
    8.8630    0.8760  -54.7990 N   0  0  0  0  0  0  0  0  0  0  0  0
    9.0920    2.5660  -56.3440 N   0  0  0  0  0  0  0  0  0  0  0  0
   10.1310    2.1720  -56.9120 N   0  0  0  0  0  0  0  0  0  0  0  0
   11.0560    3.2560  -57.2410 C   0  0  0  0  0  0  0  0  0  0  0  0
   10.7520    3.9200  -58.5970 C   0  0  1  0  0  0  0  0  0  0  0  0
   10.5950    2.9190  -59.7630 C   0  0  0  0  0  0  0  0  0  0  0  0
    9.1840    2.7850  -60.3670 C   0  0  2  0  0  0  0  0  0  0  0  0
    8.6130    4.1750  -60.5860 C   0  0  0  0  0  0  0  0  0  0  0  0
    8.3560    4.8080  -59.2270 C   0  0  2  0  0  0  0  0  0  0  0  0
    9.6950    5.0430  -58.5100 C   0  0  0  0  0  0  0  0  0  0  0  0
    7.3600    4.0060  -58.3630 C   0  0  0  0  0  0  0  0  0  0  0  0
    7.0370    2.5630  -58.8560 C   0  0  2  0  0  0  0  0  0  0  0  0
    5.8840    2.7110  -59.9460 C   0  0  0  0  0  0  0  0  0  0  0  0
    4.4880    2.2700  -59.4840 C   0  0  0  0  0  0  0  0  0  0  0  0
    4.2200    2.6550  -58.0950 N   0  0  0  0  0  0  0  0  0  0  0  0
    5.1650    2.3310  -57.2760 C   0  0  0  0  0  0  0  0  0  0  0  0
    6.4460    1.6440  -57.7260 C   0  0  2  0  0  0  0  0  0  0  0  0
    8.2610    1.8790  -59.5260 C   0  0  0  0  0  0  0  0  0  0  0  0
    6.5834   -1.5976  -54.3781 H   0  0  0  0  0  0  0  0  0  0  0  0
    5.6091   -0.4784  -56.3912 H   0  0  0  0  0  0  0  0  0  0  0  0
   10.9916    4.0219  -56.4541 H   0  0  0  0  0  0  0  0  0  0  0  0
   12.0629    2.8183  -57.3089 H   0  0  0  0  0  0  0  0  0  0  0  0
   11.6644    4.4659  -58.8791 H   0  0  0  0  0  0  0  0  0  0  0  0
   11.2749    3.2342  -60.5682 H   0  0  0  0  0  0  0  0  0  0  0  0
   10.8232    1.9325  -59.3332 H   0  0  0  0  0  0  0  0  0  0  0  0
    9.2557    2.2760  -61.3395 H   0  0  0  0  0  0  0  0  0  0  0  0
    9.3315    4.7870  -61.1510 H   0  0  0  0  0  0  0  0  0  0  0  0
    7.6751    4.1126  -61.1574 H   0  0  0  0  0  0  0  0  0  0  0  0
    7.8663    5.7791  -59.3918 H   0  0  0  0  0  0  0  0  0  0  0  0
   10.1432    5.9524  -58.9368 H   0  0  0  0  0  0  0  0  0  0  0  0
    9.4366    5.1054  -57.4426 H   0  0  0  0  0  0  0  0  0  0  0  0
    7.7795    3.9294  -57.3490 H   0  0  0  0  0  0  0  0  0  0  0  0
    6.4098    4.5576  -58.4159 H   0  0  0  0  0  0  0  0  0  0  0  0
    5.8268    3.7696  -60.2394 H   0  0  0  0  0  0  0  0  0  0  0  0
    6.1580    2.0401  -60.7736 H   0  0  0  0  0  0  0  0  0  0  0  0
    3.7346    2.7391  -60.1338 H   0  0  0  0  0  0  0  0  0  0  0  0
    4.4412    1.1728  -59.5466 H   0  0  0  0  0  0  0  0  0  0  0  0
    5.0383    2.5615  -56.2079 H   0  0  0  0  0  0  0  0  0  0  0  0
    6.4370    0.6883  -58.2705 H   0  0  0  0  0  0  0  0  0  0  0  0
    8.8708    1.4303  -58.7280 H   0  0  0  0  0  0  0  0  0  0  0  0
    7.8356    1.1570  -60.2386 H   0  0  0  0  0  0  0  0  0  0  0  0
  1  2  1  0
  2  3  1  0
  3  4  2  0
  4  5  1  0
  5  6  2  0
  6  7  1  0
  6  8  1  0
  8  9  2  0
  9 10  1  0
 10 11  1  0
 11 12  1  0
 12 13  1  0
 13 14  1  0
 14 15  1  0
 15 16  1  0
 15 17  1  0
 17 18  1  0
 18 19  1  6
 19 20  1  0
 20 21  1  0
 21 22  2  0
 22 23  1  0
 18 24  1  0
  7  2  2  0
 16 11  1  0
 23 18  1  0
 23  5  1  0
 24 13  1  0
  3 25  1  0
  4 26  1  0
 10 27  1  0
 10 28  1  0
 11 29  1  6
 12 30  1  0
 12 31  1  0
 13 32  1  6
 14 33  1  0
 14 34  1  0
 15 35  1  6
 16 36  1  0
 16 37  1  0
 17 38  1  0
 17 39  1  0
 19 40  1  0
 19 41  1  0
 20 42  1  0
 20 43  1  0
 22 44  1  0
 23 45  1  6
 24 46  1  0
 24 47  1  0
M  END
>  <meeko>  (216) 
{"is_sidechain": false}

$$$$

     RDKit          3D

 47 51  0  0  0  0  0  0  0  0999 V2000
    8.8220   -0.0290  -53.7660 Cl  0  0  0  0  0  0  0  0  0  0  0  0
    8.1400    0.8160  -55.0930 C   0  0  0  0  0  0  0  0  0  0  0  0
    7.1900    0.2170  -55.8970 C   0  0  0  0  0  0  0  0  0  0  0  0
    6.6790    0.9560  -56.9590 C   0  0  0  0  0  0  0  0  0  0  0  0
    7.1290    2.2700  -57.1810 C   0  0  0  0  0  0  0  0  0  0  0  0
    8.1180    2.7630  -56.3140 C   0  0  0  0  0  0  0  0  0  0  0  0
    8.6160    2.0600  -55.2690 N   0  0  0  0  0  0  0  0  0  0  0  0
    8.6360    4.0600  -56.4610 N   0  0  0  0  0  0  0  0  0  0  0  0
    9.7500    4.2270  -57.0170 N   0  0  0  0  0  0  0  0  0  0  0  0
   10.6100    3.1300  -57.4780 C   0  0  0  0  0  0  0  0  0  0  0  0
   11.1350    3.3590  -58.9210 C   0  0  1  0  0  0  0  0  0  0  0  0
   10.9760    2.1030  -59.8090 C   0  0  0  0  0  0  0  0  0  0  0  0
    9.6920    2.0690  -60.6650 C   0  0  2  0  0  0  0  0  0  0  0  0
    9.6480    3.3240  -61.5200 C   0  0  0  0  0  0  0  0  0  0  0  0
    9.4790    4.5170  -60.6010 C   0  0  2  0  0  0  0  0  0  0  0  0
   10.7010    4.6420  -59.6630 C   0  0  0  0  0  0  0  0  0  0  0  0
    8.1430    4.4660  -59.8440 C   0  0  0  0  0  0  0  0  0  0  0  0
    7.4230    3.0780  -59.6940 C   0  0  2  0  0  0  0  0  0  0  0  0
    6.4050    2.9430  -60.8750 C   0  0  0  0  0  0  0  0  0  0  0  0
    5.3390    1.8900  -60.6020 C   0  0  0  0  0  0  0  0  0  0  0  0
    4.4960    2.2950  -59.4860 N   0  0  0  0  0  0  0  0  0  0  0  0
    5.0920    2.8630  -58.4950 C   0  0  0  0  0  0  0  0  0  0  0  0
    6.5890    3.1040  -58.3390 C   0  0  1  0  0  0  0  0  0  0  0  0
    8.4280    1.8790  -59.7980 C   0  0  0  0  0  0  0  0  0  0  0  0
    6.8487   -0.8107  -55.7039 H   0  0  0  0  0  0  0  0  0  0  0  0
    5.9236    0.5131  -57.6247 H   0  0  0  0  0  0  0  0  0  0  0  0
   11.4704    3.0453  -56.7979 H   0  0  0  0  0  0  0  0  0  0  0  0
   10.0081    2.2093  -57.4812 H   0  0  0  0  0  0  0  0  0  0  0  0
   12.2024    3.5496  -58.7358 H   0  0  0  0  0  0  0  0  0  0  0  0
   11.8402    2.0530  -60.4877 H   0  0  0  0  0  0  0  0  0  0  0  0
   10.9108    1.2464  -59.1220 H   0  0  0  0  0  0  0  0  0  0  0  0
    9.7107    1.1945  -61.3321 H   0  0  0  0  0  0  0  0  0  0  0  0
   10.5852    3.4210  -62.0876 H   0  0  0  0  0  0  0  0  0  0  0  0
    8.8104    3.2703  -62.2310 H   0  0  0  0  0  0  0  0  0  0  0  0
    9.4387    5.4316  -61.2109 H   0  0  0  0  0  0  0  0  0  0  0  0
   11.5538    4.9822  -60.2688 H   0  0  0  0  0  0  0  0  0  0  0  0
   10.3916    5.3436  -58.8743 H   0  0  0  0  0  0  0  0  0  0  0  0
    8.3293    4.8473  -58.8292 H   0  0  0  0  0  0  0  0  0  0  0  0
    7.4571    5.0612  -60.4647 H   0  0  0  0  0  0  0  0  0  0  0  0
    5.9117    3.9140  -61.0295 H   0  0  0  0  0  0  0  0  0  0  0  0
    6.9656    2.6305  -61.7683 H   0  0  0  0  0  0  0  0  0  0  0  0
    4.7157    1.7647  -61.4997 H   0  0  0  0  0  0  0  0  0  0  0  0
    5.8335    0.9408  -60.3481 H   0  0  0  0  0  0  0  0  0  0  0  0
    4.4509    3.2119  -57.6721 H   0  0  0  0  0  0  0  0  0  0  0  0
    6.7408    4.1557  -58.0547 H   0  0  0  0  0  0  0  0  0  0  0  0
    8.7633    1.6430  -58.7773 H   0  0  0  0  0  0  0  0  0  0  0  0
    7.8603    1.0865  -60.3076 H   0  0  0  0  0  0  0  0  0  0  0  0
  1  2  1  0
  2  3  1  0
  3  4  2  0
  4  5  1  0
  5  6  2  0
  6  7  1  0
  6  8  1  0
  8  9  2  0
  9 10  1  0
 10 11  1  0
 11 12  1  0
 12 13  1  0
 13 14  1  0
 14 15  1  0
 15 16  1  0
 15 17  1  0
 17 18  1  0
 18 19  1  6
 19 20  1  0
 20 21  1  0
 21 22  2  0
 22 23  1  0
 18 24  1  0
  7  2  2  0
 16 11  1  0
 23 18  1  0
 23  5  1  0
 24 13  1  0
  3 25  1  0
  4 26  1  0
 10 27  1  0
 10 28  1  0
 11 29  1  1
 12 30  1  0
 12 31  1  0
 13 32  1  6
 14 33  1  0
 14 34  1  0
 15 35  1  6
 16 36  1  0
 16 37  1  0
 17 38  1  0
 17 39  1  0
 19 40  1  0
 19 41  1  0
 20 42  1  0
 20 43  1  0
 22 44  1  0
 23 45  1  1
 24 46  1  0
 24 47  1  0
M  END
>  <meeko>  (217) 
{"is_sidechain": false}

$$$$

     RDKit          3D

 47 51  0  0  0  0  0  0  0  0999 V2000
    8.8540   -1.5410  -54.4440 Cl  0  0  0  0  0  0  0  0  0  0  0  0
    9.4660   -0.2080  -55.3330 C   0  0  0  0  0  0  0  0  0  0  0  0
   10.7030   -0.2770  -55.9440 C   0  0  0  0  0  0  0  0  0  0  0  0
   11.1410    0.8370  -56.6520 C   0  0  0  0  0  0  0  0  0  0  0  0
   10.3340    1.9850  -56.7190 C   0  0  0  0  0  0  0  0  0  0  0  0
    9.0780    1.9270  -56.0880 C   0  0  0  0  0  0  0  0  0  0  0  0
    8.6460    0.8550  -55.3850 N   0  0  0  0  0  0  0  0  0  0  0  0
    8.1950    3.0170  -56.1260 N   0  0  0  0  0  0  0  0  0  0  0  0
    7.2540    3.0280  -56.9580 N   0  0  0  0  0  0  0  0  0  0  0  0
    6.9050    1.8920  -57.8190 C   0  0  0  0  0  0  0  0  0  0  0  0
    6.6680    2.3110  -59.3020 C   0  0  1  0  0  0  0  0  0  0  0  0
    6.7980    3.8080  -59.6620 C   0  0  0  0  0  0  0  0  0  0  0  0
    8.1600    4.2670  -60.2300 C   0  0  2  0  0  0  0  0  0  0  0  0
    8.6010    3.3350  -61.3430 C   0  0  0  0  0  0  0  0  0  0  0  0
    8.8010    1.9520  -60.7520 C   0  0  2  0  0  0  0  0  0  0  0  0
    7.4260    1.4100  -60.3040 C   0  0  0  0  0  0  0  0  0  0  0  0
    9.8250    1.9260  -59.5980 C   0  0  0  0  0  0  0  0  0  0  0  0
   10.3290    3.2960  -59.0210 C   0  0  2  0  0  0  0  0  0  0  0  0
   11.5760    3.7040  -59.8750 C   0  0  0  0  0  0  0  0  0  0  0  0
   12.4440    4.7530  -59.1990 C   0  0  0  0  0  0  0  0  0  0  0  0
   13.0370    4.2110  -57.9840 N   0  0  0  0  0  0  0  0  0  0  0  0
   12.2510    3.5200  -57.2330 C   0  0  0  0  0  0  0  0  0  0  0  0
   10.7760    3.2260  -57.4900 C   0  0  2  0  0  0  0  0  0  0  0  0
    9.2420    4.4230  -59.1520 C   0  0  0  0  0  0  0  0  0  0  0  0
   11.3216   -1.1838  -55.8728 H   0  0  0  0  0  0  0  0  0  0  0  0
   12.1173    0.8193  -57.1585 H   0  0  0  0  0  0  0  0  0  0  0  0
    7.7262    1.1609  -57.7869 H   0  0  0  0  0  0  0  0  0  0  0  0
    5.9647    1.4648  -57.4403 H   0  0  0  0  0  0  0  0  0  0  0  0
    5.5870    2.1364  -59.4063 H   0  0  0  0  0  0  0  0  0  0  0  0
    6.0282    4.0387  -60.4132 H   0  0  0  0  0  0  0  0  0  0  0  0
    6.6845    4.3464  -58.7095 H   0  0  0  0  0  0  0  0  0  0  0  0
    8.0180    5.2745  -60.6482 H   0  0  0  0  0  0  0  0  0  0  0  0
    7.8285    3.2975  -62.1252 H   0  0  0  0  0  0  0  0  0  0  0  0
    9.5384    3.6957  -61.7915 H   0  0  0  0  0  0  0  0  0  0  0  0
    9.2301    1.3012  -61.5281 H   0  0  0  0  0  0  0  0  0  0  0  0
    6.7977    1.2897  -61.1989 H   0  0  0  0  0  0  0  0  0  0  0  0
    7.6226    0.4627  -59.7806 H   0  0  0  0  0  0  0  0  0  0  0  0
    9.3651    1.3716  -58.7666 H   0  0  0  0  0  0  0  0  0  0  0  0
   10.7229    1.4707  -60.0413 H   0  0  0  0  0  0  0  0  0  0  0  0
   12.1866    2.8067  -60.0540 H   0  0  0  0  0  0  0  0  0  0  0  0
   11.2026    4.1417  -60.8126 H   0  0  0  0  0  0  0  0  0  0  0  0
   13.2447    5.0604  -59.8878 H   0  0  0  0  0  0  0  0  0  0  0  0
   11.8195    5.6197  -58.9368 H   0  0  0  0  0  0  0  0  0  0  0  0
   12.6868    3.0998  -56.3145 H   0  0  0  0  0  0  0  0  0  0  0  0
   10.1982    4.0648  -57.0747 H   0  0  0  0  0  0  0  0  0  0  0  0
    8.7279    4.4943  -58.1821 H   0  0  0  0  0  0  0  0  0  0  0  0
    9.8090    5.3131  -59.4624 H   0  0  0  0  0  0  0  0  0  0  0  0
  1  2  1  0
  2  3  1  0
  3  4  2  0
  4  5  1  0
  5  6  2  0
  6  7  1  0
  6  8  1  0
  8  9  2  0
  9 10  1  0
 10 11  1  0
 11 12  1  0
 12 13  1  0
 13 14  1  0
 14 15  1  0
 15 16  1  0
 15 17  1  0
 17 18  1  0
 18 19  1  6
 19 20  1  0
 20 21  1  0
 21 22  2  0
 22 23  1  0
 18 24  1  0
  7  2  2  0
 16 11  1  0
 23 18  1  0
 23  5  1  0
 24 13  1  0
  3 25  1  0
  4 26  1  0
 10 27  1  0
 10 28  1  0
 11 29  1  6
 12 30  1  0
 12 31  1  0
 13 32  1  6
 14 33  1  0
 14 34  1  0
 15 35  1  6
 16 36  1  0
 16 37  1  0
 17 38  1  0
 17 39  1  0
 19 40  1  0
 19 41  1  0
 20 42  1  0
 20 43  1  0
 22 44  1  0
 23 45  1  1
 24 46  1  0
 24 47  1  0
M  END
>  <meeko>  (218) 
{"is_sidechain": false}

$$$$

     RDKit          3D

 47 51  0  0  0  0  0  0  0  0999 V2000
    2.8790    2.5390  -60.5890 Cl  0  0  0  0  0  0  0  0  0  0  0  0
    4.2880    2.3470  -59.6310 C   0  0  0  0  0  0  0  0  0  0  0  0
    4.2670    2.6170  -58.2820 C   0  0  0  0  0  0  0  0  0  0  0  0
    5.4510    2.4410  -57.5780 C   0  0  0  0  0  0  0  0  0  0  0  0
    6.6220    2.0030  -58.2310 C   0  0  0  0  0  0  0  0  0  0  0  0
    6.5300    1.7710  -59.6190 C   0  0  0  0  0  0  0  0  0  0  0  0
    5.3740    1.9370  -60.3120 N   0  0  0  0  0  0  0  0  0  0  0  0
    7.6070    1.3750  -60.4400 N   0  0  0  0  0  0  0  0  0  0  0  0
    8.7830    2.0320  -60.2790 N   0  0  0  0  0  0  0  0  0  0  0  0
    8.8600    3.2140  -60.7920 C   0  0  0  0  0  0  0  0  0  0  0  0
   10.0720    4.1020  -60.5340 C   0  0  1  0  0  0  0  0  0  0  0  0
    9.6460    5.3600  -59.7590 C   0  0  0  0  0  0  0  0  0  0  0  0
    9.6590    5.2020  -58.2210 C   0  0  2  0  0  0  0  0  0  0  0  0
   11.0360    4.7340  -57.7850 C   0  0  0  0  0  0  0  0  0  0  0  0
   11.2690    3.3420  -58.3460 C   0  0  2  0  0  0  0  0  0  0  0  0
   11.2660    3.3820  -59.8890 C   0  0  0  0  0  0  0  0  0  0  0  0
   10.2800    2.3230  -57.7500 C   0  0  0  0  0  0  0  0  0  0  0  0
    8.9250    2.8680  -57.1690 C   0  0  2  0  0  0  0  0  0  0  0  0
    9.0750    3.0100  -55.6050 C   0  0  0  0  0  0  0  0  0  0  0  0
    9.3540    1.6850  -54.8720 C   0  0  0  0  0  0  0  0  0  0  0  0
    8.5860    0.5900  -55.4380 N   0  0  0  0  0  0  0  0  0  0  0  0
    7.7500    0.7550  -56.5130 C   0  0  0  0  0  0  0  0  0  0  0  0
    7.8030    1.8080  -57.3500 C   0  0  0  0  0  0  0  0  0  0  0  0
    8.5260    4.2750  -57.7300 C   0  0  0  0  0  0  0  0  0  0  0  0
    3.3491    2.9586  -57.7812 H   0  0  0  0  0  0  0  0  0  0  0  0
    5.4760    2.6457  -56.4975 H   0  0  0  0  0  0  0  0  0  0  0  0
    7.2170    1.3550  -61.3830 H   0  0  0  0  0  0  0  0  0  0  0  0
    8.0399    3.5856  -61.4239 H   0  0  0  0  0  0  0  0  0  0  0  0
   10.4567    4.4061  -61.5186 H   0  0  0  0  0  0  0  0  0  0  0  0
   10.3327    6.1768  -60.0261 H   0  0  0  0  0  0  0  0  0  0  0  0
    8.6031    5.5638  -60.0433 H   0  0  0  0  0  0  0  0  0  0  0  0
    9.4600    6.1761  -57.7504 H   0  0  0  0  0  0  0  0  0  0  0  0
   11.8019    5.4230  -58.1706 H   0  0  0  0  0  0  0  0  0  0  0  0
   11.0984    4.7143  -56.6869 H   0  0  0  0  0  0  0  0  0  0  0  0
   12.2661    2.9910  -58.0418 H   0  0  0  0  0  0  0  0  0  0  0  0
   12.1846    3.8914  -60.2157 H   0  0  0  0  0  0  0  0  0  0  0  0
   11.1968    2.3341  -60.2161 H   0  0  0  0  0  0  0  0  0  0  0  0
   10.0305    1.6048  -58.5450 H   0  0  0  0  0  0  0  0  0  0  0  0
   10.8057    1.9046  -56.8790 H   0  0  0  0  0  0  0  0  0  0  0  0
    9.9076    3.6990  -55.4000 H   0  0  0  0  0  0  0  0  0  0  0  0
    8.1103    3.3810  -55.2286 H   0  0  0  0  0  0  0  0  0  0  0  0
   10.4254    1.4499  -54.9545 H   0  0  0  0  0  0  0  0  0  0  0  0
    9.0586    1.8049  -53.8192 H   0  0  0  0  0  0  0  0  0  0  0  0
    8.3470   -0.1670  -54.8030 H   0  0  0  0  0  0  0  0  0  0  0  0
    6.9915   -0.0189  -56.7023 H   0  0  0  0  0  0  0  0  0  0  0  0
    7.8467    4.1091  -58.5791 H   0  0  0  0  0  0  0  0  0  0  0  0
    8.0896    4.8029  -56.8692 H   0  0  0  0  0  0  0  0  0  0  0  0
  1  2  1  0
  2  3  1  0
  3  4  2  0
  4  5  1  0
  5  6  2  0
  6  7  1  0
  6  8  1  0
  8  9  1  0
  9 10  2  0
 10 11  1  0
 11 12  1  0
 12 13  1  0
 13 14  1  0
 14 15  1  0
 15 16  1  0
 15 17  1  0
 17 18  1  0
 18 19  1  1
 19 20  1  0
 20 21  1  0
 21 22  1  0
 22 23  2  0
 18 24  1  0
  7  2  2  0
 16 11  1  0
 23 18  1  0
 23  5  1  0
 24 13  1  0
  3 25  1  0
  4 26  1  0
  8 27  1  0
 10 28  1  0
 11 29  1  6
 12 30  1  0
 12 31  1  0
 13 32  1  1
 14 33  1  0
 14 34  1  0
 15 35  1  1
 16 36  1  0
 16 37  1  0
 17 38  1  0
 17 39  1  0
 19 40  1  0
 19 41  1  0
 20 42  1  0
 20 43  1  0
 21 44  1  0
 22 45  1  0
 24 46  1  0
 24 47  1  0
M  END
>  <meeko>  (219) 
{"is_sidechain": false}

$$$$

     RDKit          3D

 13 14  0  0  0  0  0  0  0  0999 V2000
   12.3330    6.8970  -60.4690 O   0  0  0  0  0  0  0  0  0  0  0  0
   12.1910    5.9260  -59.7320 C   0  0  0  0  0  0  0  0  0  0  0  0
   11.0550    5.1670  -59.7760 N   0  0  0  0  0  0  0  0  0  0  0  0
   10.9470    4.1630  -58.9890 C   0  0  0  0  0  0  0  0  0  0  0  0
    9.7900    3.4200  -59.0610 N   0  0  0  0  0  0  0  0  0  0  0  0
    9.7230    2.4160  -58.2500 C   0  0  0  0  0  0  0  0  0  0  0  0
   10.8180    2.0570  -57.2820 C   0  0  0  0  0  0  0  0  0  0  0  0
   11.9230    2.7210  -57.1760 N   0  0  0  0  0  0  0  0  0  0  0  0
   12.0430    3.8020  -58.0200 C   0  0  0  0  0  0  0  0  0  0  0  0
   13.1190    4.5030  -57.9620 N   0  0  0  0  0  0  0  0  0  0  0  0
   13.2060    5.6070  -58.8450 O   0  0  0  0  0  0  0  0  0  0  0  0
    8.8180    1.7910  -58.2682 H   0  0  0  0  0  0  0  0  0  0  0  0
   10.6708    1.1834  -56.6299 H   0  0  0  0  0  0  0  0  0  0  0  0
  1  2  2  0
  2  3  1  0
  3  4  2  0
  4  5  1  0
  5  6  2  0
  6  7  1  0
  7  8  2  0
  8  9  1  0
  9 10  2  0
 10 11  1  0
 11  2  1  0
  9  4  1  0
  6 12  1  0
  7 13  1  0
M  END
>  <meeko>  (220) 
{"is_sidechain": false}

$$$$

     RDKit          3D

 51 54  0  0  0  0  0  0  0  0999 V2000
    7.9180   -3.2580  -50.0930 C   0  0  0  0  0  0  0  0  0  0  0  0
    7.3870   -2.8930  -51.4770 C   0  0  2  0  0  0  0  0  0  0  0  0
    7.8410   -3.9110  -52.5370 C   0  0  0  0  0  0  0  0  0  0  0  0
    8.2430   -3.2390  -53.8480 C   0  0  0  0  0  0  0  0  0  0  0  0
    7.3440   -2.1880  -54.2000 O   0  0  0  0  0  0  0  0  0  0  0  0
    7.2960   -1.1670  -53.2640 C   0  0  0  0  0  0  0  0  0  0  0  0
    6.7630    0.0230  -53.5890 C   0  0  0  0  0  0  0  0  0  0  0  0
    6.2030    0.3960  -54.9270 C   0  0  0  0  0  0  0  0  0  0  0  0
    7.2500    1.0370  -55.7170 N   0  0  0  0  0  0  0  0  0  0  0  0
    6.9500    1.5920  -56.8440 C   0  0  0  0  0  0  0  0  0  0  0  0
    5.6600    1.5880  -57.3240 N   0  0  0  0  0  0  0  0  0  0  0  0
    5.4130    1.7940  -58.5290 N   0  0  0  0  0  0  0  0  0  0  0  0
    6.3680    2.1540  -59.4360 C   0  0  0  0  0  0  0  0  0  0  0  0
    6.0700    2.2730  -60.7480 C   0  0  0  0  0  0  0  0  0  0  0  0
    7.0640    2.7230  -61.7050 C   0  0  0  0  0  0  0  0  0  0  0  0
    8.2770    3.0630  -61.2450 C   0  0  0  0  0  0  0  0  0  0  0  0
    8.5940    2.9840  -59.9090 N   0  0  0  0  0  0  0  0  0  0  0  0
    7.7150    2.4850  -58.9500 C   0  0  0  0  0  0  0  0  0  0  0  0
    8.0100    2.2700  -57.6540 C   0  0  0  0  0  0  0  0  0  0  0  0
    9.3170    2.5670  -56.9520 C   0  0  0  0  0  0  0  0  0  0  0  0
   10.5440    1.9640  -57.6540 C   0  0  0  0  0  0  0  0  0  0  0  0
   11.6940    2.8340  -57.1740 C   0  0  0  0  0  0  0  0  0  0  0  0
   11.1030    4.2350  -57.1970 C   0  0  0  0  0  0  0  0  0  0  0  0
    9.6590    4.0570  -56.7310 C   0  0  0  0  0  0  0  0  0  0  0  0
    7.7960   -1.4710  -51.8730 C   0  0  0  0  0  0  0  0  0  0  0  0
    7.2707   -2.8131  -49.3229 H   0  0  0  0  0  0  0  0  0  0  0  0
    7.9242   -4.3521  -49.9795 H   0  0  0  0  0  0  0  0  0  0  0  0
    8.9417   -2.8718  -49.9795 H   0  0  0  0  0  0  0  0  0  0  0  0
    6.2886   -2.9261  -51.4274 H   0  0  0  0  0  0  0  0  0  0  0  0
    8.7046   -4.4686  -52.1455 H   0  0  0  0  0  0  0  0  0  0  0  0
    6.9937   -4.5803  -52.7468 H   0  0  0  0  0  0  0  0  0  0  0  0
    9.2546   -2.8211  -53.7388 H   0  0  0  0  0  0  0  0  0  0  0  0
    8.2133   -3.9968  -54.6448 H   0  0  0  0  0  0  0  0  0  0  0  0
    6.7356    0.7914  -52.8024 H   0  0  0  0  0  0  0  0  0  0  0  0
    5.8513   -0.5084  -55.4450 H   0  0  0  0  0  0  0  0  0  0  0  0
    5.3582    1.0884  -54.7970 H   0  0  0  0  0  0  0  0  0  0  0  0
    5.0568    2.0247  -61.0971 H   0  0  0  0  0  0  0  0  0  0  0  0
    6.8290    2.7835  -62.7779 H   0  0  0  0  0  0  0  0  0  0  0  0
    9.0393    3.4147  -61.9557 H   0  0  0  0  0  0  0  0  0  0  0  0
    9.5580    3.1440  -59.6460 H   0  0  0  0  0  0  0  0  0  0  0  0
    9.1215    2.0958  -55.9774 H   0  0  0  0  0  0  0  0  0  0  0  0
   10.6925    0.9162  -57.3541 H   0  0  0  0  0  0  0  0  0  0  0  0
   10.4462    1.9512  -58.7496 H   0  0  0  0  0  0  0  0  0  0  0  0
   12.0032    2.5530  -56.1564 H   0  0  0  0  0  0  0  0  0  0  0  0
   12.5969    2.7365  -57.7947 H   0  0  0  0  0  0  0  0  0  0  0  0
   11.6520    4.8985  -56.5126 H   0  0  0  0  0  0  0  0  0  0  0  0
   11.1638    4.6950  -58.1943 H   0  0  0  0  0  0  0  0  0  0  0  0
    9.5672    4.3156  -55.6658 H   0  0  0  0  0  0  0  0  0  0  0  0
    8.9737    4.7130  -57.2878 H   0  0  0  0  0  0  0  0  0  0  0  0
    8.8926   -1.3866  -51.8520 H   0  0  0  0  0  0  0  0  0  0  0  0
    7.3569   -0.7545  -51.1632 H   0  0  0  0  0  0  0  0  0  0  0  0
  1  2  1  0
  2  3  1  0
  3  4  1  0
  4  5  1  0
  5  6  1  0
  6  7  2  0
  7  8  1  0
  8  9  1  0
  9 10  2  0
 10 11  1  0
 11 12  2  0
 12 13  1  0
 13 14  2  0
 14 15  1  0
 15 16  2  0
 16 17  1  0
 17 18  1  0
 18 19  2  0
 19 20  1  0
 20 21  1  0
 21 22  1  0
 22 23  1  0
 23 24  1  0
  6 25  1  0
 25  2  1  0
 19 10  1  0
 24 20  1  0
 18 13  1  0
  1 26  1  0
  1 27  1  0
  1 28  1  0
  2 29  1  1
  3 30  1  0
  3 31  1  0
  4 32  1  0
  4 33  1  0
  7 34  1  0
  8 35  1  0
  8 36  1  0
 14 37  1  0
 15 38  1  0
 16 39  1  0
 17 40  1  0
 20 41  1  0
 21 42  1  0
 21 43  1  0
 22 44  1  0
 22 45  1  0
 23 46  1  0
 23 47  1  0
 24 48  1  0
 24 49  1  0
 25 50  1  0
 25 51  1  0
M  END
>  <meeko>  (221) 
{"is_sidechain": false}

$$$$

     RDKit          3D

 51 54  0  0  0  0  0  0  0  0999 V2000
   13.4010    3.9890  -59.0970 C   0  0  0  0  0  0  0  0  0  0  0  0
   11.8860    4.0570  -58.9280 C   0  0  2  0  0  0  0  0  0  0  0  0
   11.4070    5.5070  -58.7560 C   0  0  0  0  0  0  0  0  0  0  0  0
   10.2590    5.6200  -57.7570 C   0  0  0  0  0  0  0  0  0  0  0  0
    9.3380    4.5350  -57.8890 O   0  0  0  0  0  0  0  0  0  0  0  0
    9.9150    3.3050  -57.6050 C   0  0  0  0  0  0  0  0  0  0  0  0
    9.1440    2.2540  -57.2740 C   0  0  0  0  0  0  0  0  0  0  0  0
    7.6510    2.2160  -57.0970 C   0  0  0  0  0  0  0  0  0  0  0  0
    6.9740    3.2250  -57.9040 N   0  0  0  0  0  0  0  0  0  0  0  0
    5.9330    2.7880  -58.7350 C   0  0  0  0  0  0  0  0  0  0  0  0
    4.7250    2.5410  -58.1770 N   0  0  0  0  0  0  0  0  0  0  0  0
    3.6570    2.1450  -58.9190 N   0  0  0  0  0  0  0  0  0  0  0  0
    3.7940    1.9880  -60.2350 C   0  0  0  0  0  0  0  0  0  0  0  0
    2.6990    1.5990  -60.9950 C   0  0  0  0  0  0  0  0  0  0  0  0
    2.8080    1.4270  -62.3680 C   0  0  0  0  0  0  0  0  0  0  0  0
    4.0390    1.6560  -62.9400 C   0  0  0  0  0  0  0  0  0  0  0  0
    5.1250    2.0330  -62.2320 N   0  0  0  0  0  0  0  0  0  0  0  0
    5.0190    2.1990  -60.8870 C   0  0  0  0  0  0  0  0  0  0  0  0
    6.1310    2.5880  -60.1080 C   0  0  0  0  0  0  0  0  0  0  0  0
    7.4600    2.7220  -60.8460 C   0  0  0  0  0  0  0  0  0  0  0  0
    8.4120    3.9060  -60.6380 C   0  0  0  0  0  0  0  0  0  0  0  0
    9.6700    3.4650  -61.3740 C   0  0  0  0  0  0  0  0  0  0  0  0
    9.7840    1.9750  -61.0720 C   0  0  0  0  0  0  0  0  0  0  0  0
    8.4040    1.5340  -60.5750 C   0  0  0  0  0  0  0  0  0  0  0  0
   11.4130    3.1860  -57.7590 C   0  0  0  0  0  0  0  0  0  0  0  0
   13.8798    3.9675  -58.1069 H   0  0  0  0  0  0  0  0  0  0  0  0
   13.6674    3.0780  -59.6530 H   0  0  0  0  0  0  0  0  0  0  0  0
   13.7479    4.8725  -59.6530 H   0  0  0  0  0  0  0  0  0  0  0  0
   11.4367    3.6581  -59.8494 H   0  0  0  0  0  0  0  0  0  0  0  0
   12.2489    6.1182  -58.3988 H   0  0  0  0  0  0  0  0  0  0  0  0
   11.0417    5.8600  -59.7317 H   0  0  0  0  0  0  0  0  0  0  0  0
   10.6715    5.6161  -56.7373 H   0  0  0  0  0  0  0  0  0  0  0  0
    9.7185    6.5566  -57.9585 H   0  0  0  0  0  0  0  0  0  0  0  0
    9.6717    1.3025  -57.1124 H   0  0  0  0  0  0  0  0  0  0  0  0
    7.2845    1.2218  -57.3925 H   0  0  0  0  0  0  0  0  0  0  0  0
    7.4311    2.4262  -56.0399 H   0  0  0  0  0  0  0  0  0  0  0  0
    6.6000    3.9330  -57.2710 H   0  0  0  0  0  0  0  0  0  0  0  0
    1.7313    1.4246  -60.5019 H   0  0  0  0  0  0  0  0  0  0  0  0
    1.9441    1.1196  -62.9756 H   0  0  0  0  0  0  0  0  0  0  0  0
    4.1429    1.5254  -64.0273 H   0  0  0  0  0  0  0  0  0  0  0  0
    7.0060    2.8303  -61.8421 H   0  0  0  0  0  0  0  0  0  0  0  0
    7.9997    4.8269  -61.0760 H   0  0  0  0  0  0  0  0  0  0  0  0
    8.5887    4.1400  -59.5778 H   0  0  0  0  0  0  0  0  0  0  0  0
    9.5681    3.6361  -62.4558 H   0  0  0  0  0  0  0  0  0  0  0  0
   10.5606    4.0265  -61.0553 H   0  0  0  0  0  0  0  0  0  0  0  0
   10.0566    1.4210  -61.9824 H   0  0  0  0  0  0  0  0  0  0  0  0
   10.5632    1.7762  -60.3214 H   0  0  0  0  0  0  0  0  0  0  0  0
    8.0658    0.6431  -61.1244 H   0  0  0  0  0  0  0  0  0  0  0  0
    8.4241    1.2685  -59.5077 H   0  0  0  0  0  0  0  0  0  0  0  0
   11.9030    3.5206  -56.8327 H   0  0  0  0  0  0  0  0  0  0  0  0
   11.6751    2.1366  -57.9589 H   0  0  0  0  0  0  0  0  0  0  0  0
  1  2  1  0
  2  3  1  0
  3  4  1  0
  4  5  1  0
  5  6  1  0
  6  7  2  0
  7  8  1  0
  8  9  1  0
  9 10  1  0
 10 11  1  0
 11 12  2  0
 12 13  1  0
 13 14  2  0
 14 15  1  0
 15 16  2  0
 16 17  1  0
 17 18  2  0
 18 19  1  0
 19 20  1  0
 20 21  1  0
 21 22  1  0
 22 23  1  0
 23 24  1  0
  6 25  1  0
 25  2  1  0
 19 10  2  0
 24 20  1  0
 18 13  1  0
  1 26  1  0
  1 27  1  0
  1 28  1  0
  2 29  1  6
  3 30  1  0
  3 31  1  0
  4 32  1  0
  4 33  1  0
  7 34  1  0
  8 35  1  0
  8 36  1  0
  9 37  1  0
 14 38  1  0
 15 39  1  0
 16 40  1  0
 20 41  1  0
 21 42  1  0
 21 43  1  0
 22 44  1  0
 22 45  1  0
 23 46  1  0
 23 47  1  0
 24 48  1  0
 24 49  1  0
 25 50  1  0
 25 51  1  0
M  END
>  <meeko>  (222) 
{"is_sidechain": false}

$$$$

     RDKit          3D

 51 54  0  0  0  0  0  0  0  0999 V2000
   10.2740   -2.3720  -53.3040 C   0  0  0  0  0  0  0  0  0  0  0  0
    9.4430   -1.1370  -53.6400 C   0  0  2  0  0  0  0  0  0  0  0  0
    7.9440   -1.3920  -53.4170 C   0  0  0  0  0  0  0  0  0  0  0  0
    7.0780   -0.7110  -54.4740 C   0  0  0  0  0  0  0  0  0  0  0  0
    7.5780    0.5830  -54.8090 O   0  0  0  0  0  0  0  0  0  0  0  0
    8.8430    0.5420  -55.3760 C   0  0  0  0  0  0  0  0  0  0  0  0
    9.2880    1.5820  -56.1010 C   0  0  0  0  0  0  0  0  0  0  0  0
    8.4820    2.8000  -56.4310 C   0  0  0  0  0  0  0  0  0  0  0  0
    8.4590    3.0030  -57.8750 N   0  0  0  0  0  0  0  0  0  0  0  0
    7.4230    2.7020  -58.5890 C   0  0  0  0  0  0  0  0  0  0  0  0
    6.2330    2.2090  -58.0870 N   0  0  0  0  0  0  0  0  0  0  0  0
    5.1350    1.8670  -58.8050 N   0  0  0  0  0  0  0  0  0  0  0  0
    5.2490    2.0310  -60.0880 C   0  0  0  0  0  0  0  0  0  0  0  0
    4.0900    1.6660  -60.9370 C   0  0  0  0  0  0  0  0  0  0  0  0
    4.1500    1.8080  -62.2610 C   0  0  0  0  0  0  0  0  0  0  0  0
    5.3960    2.3330  -62.8370 C   0  0  0  0  0  0  0  0  0  0  0  0
    6.4600    2.6840  -62.1970 N   0  0  0  0  0  0  0  0  0  0  0  0
    6.4560    2.5650  -60.8220 C   0  0  0  0  0  0  0  0  0  0  0  0
    7.5320    2.9140  -60.0820 C   0  0  0  0  0  0  0  0  0  0  0  0
    8.8260    3.4820  -60.6340 C   0  0  0  0  0  0  0  0  0  0  0  0
    9.2440    4.8030  -59.9640 C   0  0  0  0  0  0  0  0  0  0  0  0
   10.7580    4.8260  -60.1120 C   0  0  0  0  0  0  0  0  0  0  0  0
   11.1500    3.3820  -59.8540 C   0  0  0  0  0  0  0  0  0  0  0  0
   10.0660    2.5630  -60.5510 C   0  0  0  0  0  0  0  0  0  0  0  0
    9.7060   -0.6580  -55.0720 C   0  0  0  0  0  0  0  0  0  0  0  0
   10.3462   -2.4793  -52.2116 H   0  0  0  0  0  0  0  0  0  0  0  0
    9.7923   -3.2649  -53.7291 H   0  0  0  0  0  0  0  0  0  0  0  0
   11.2826   -2.2621  -53.7291 H   0  0  0  0  0  0  0  0  0  0  0  0
    9.7560   -0.3369  -52.9531 H   0  0  0  0  0  0  0  0  0  0  0  0
    7.7601   -2.4759  -53.4534 H   0  0  0  0  0  0  0  0  0  0  0  0
    7.6728   -0.9718  -52.4373 H   0  0  0  0  0  0  0  0  0  0  0  0
    7.0649   -1.3342  -55.3803 H   0  0  0  0  0  0  0  0  0  0  0  0
    6.0642   -0.5925  -54.0639 H   0  0  0  0  0  0  0  0  0  0  0  0
   10.3197    1.5353  -56.4798 H   0  0  0  0  0  0  0  0  0  0  0  0
    7.4533    2.6670  -56.0648 H   0  0  0  0  0  0  0  0  0  0  0  0
    8.9374    3.6776  -55.9489 H   0  0  0  0  0  0  0  0  0  0  0  0
    6.1490    2.1210  -57.0800 H   0  0  0  0  0  0  0  0  0  0  0  0
    3.1735    1.2750  -60.4709 H   0  0  0  0  0  0  0  0  0  0  0  0
    3.2959    1.5413  -62.9008 H   0  0  0  0  0  0  0  0  0  0  0  0
    5.4246    2.4380  -63.9316 H   0  0  0  0  0  0  0  0  0  0  0  0
    8.5523    3.6191  -61.6906 H   0  0  0  0  0  0  0  0  0  0  0  0
    8.7877    5.6630  -60.4761 H   0  0  0  0  0  0  0  0  0  0  0  0
    8.9195    4.8676  -58.9149 H   0  0  0  0  0  0  0  0  0  0  0  0
   11.0513    5.1401  -61.1246 H   0  0  0  0  0  0  0  0  0  0  0  0
   11.2488    5.5362  -59.4303 H   0  0  0  0  0  0  0  0  0  0  0  0
   12.1389    3.1645  -60.2839 H   0  0  0  0  0  0  0  0  0  0  0  0
   11.2229    3.1531  -58.7806 H   0  0  0  0  0  0  0  0  0  0  0  0
   10.3952    2.2730  -61.5597 H   0  0  0  0  0  0  0  0  0  0  0  0
    9.8449    1.6361  -60.0014 H   0  0  0  0  0  0  0  0  0  0  0  0
    9.4675   -1.4675  -55.7775 H   0  0  0  0  0  0  0  0  0  0  0  0
   10.7652   -0.3787  -55.1729 H   0  0  0  0  0  0  0  0  0  0  0  0
  1  2  1  0
  2  3  1  0
  3  4  1  0
  4  5  1  0
  5  6  1  0
  6  7  2  0
  7  8  1  0
  8  9  1  0
  9 10  2  0
 10 11  1  0
 11 12  1  0
 12 13  2  0
 13 14  1  0
 14 15  2  0
 15 16  1  0
 16 17  2  0
 17 18  1  0
 18 19  2  0
 19 20  1  0
 20 21  1  0
 21 22  1  0
 22 23  1  0
 23 24  1  0
  6 25  1  0
 25  2  1  0
 19 10  1  0
 24 20  1  0
 18 13  1  0
  1 26  1  0
  1 27  1  0
  1 28  1  0
  2 29  1  1
  3 30  1  0
  3 31  1  0
  4 32  1  0
  4 33  1  0
  7 34  1  0
  8 35  1  0
  8 36  1  0
 11 37  1  0
 14 38  1  0
 15 39  1  0
 16 40  1  0
 20 41  1  0
 21 42  1  0
 21 43  1  0
 22 44  1  0
 22 45  1  0
 23 46  1  0
 23 47  1  0
 24 48  1  0
 24 49  1  0
 25 50  1  0
 25 51  1  0
M  END
>  <meeko>  (223) 
{"is_sidechain": false}

$$$$

     RDKit          3D

 51 54  0  0  0  0  0  0  0  0999 V2000
    7.8160   -2.9150  -50.6470 C   0  0  0  0  0  0  0  0  0  0  0  0
    7.9510   -2.4750  -52.1030 C   0  0  2  0  0  0  0  0  0  0  0  0
    9.4030   -2.6020  -52.5940 C   0  0  0  0  0  0  0  0  0  0  0  0
    9.8270   -1.4160  -53.4560 C   0  0  0  0  0  0  0  0  0  0  0  0
    8.7990   -1.0290  -54.3680 O   0  0  0  0  0  0  0  0  0  0  0  0
    7.6280   -0.6330  -53.7410 C   0  0  0  0  0  0  0  0  0  0  0  0
    6.6940    0.0470  -54.4260 C   0  0  0  0  0  0  0  0  0  0  0  0
    6.7880    0.4520  -55.8670 C   0  0  0  0  0  0  0  0  0  0  0  0
    7.6510    1.6140  -55.9370 N   0  0  0  0  0  0  0  0  0  0  0  0
    7.9020    2.2790  -57.0140 C   0  0  0  0  0  0  0  0  0  0  0  0
    8.9100    3.2100  -56.8540 N   0  0  0  0  0  0  0  0  0  0  0  0
    9.7930    3.5560  -57.8320 N   0  0  0  0  0  0  0  0  0  0  0  0
    9.4100    3.2360  -59.0310 C   0  0  0  0  0  0  0  0  0  0  0  0
   10.3100    3.5630  -60.1610 C   0  0  0  0  0  0  0  0  0  0  0  0
    9.9210    3.3470  -61.4180 C   0  0  0  0  0  0  0  0  0  0  0  0
    8.5740    2.7940  -61.6310 C   0  0  0  0  0  0  0  0  0  0  0  0
    7.7280    2.4390  -60.7240 N   0  0  0  0  0  0  0  0  0  0  0  0
    8.1030    2.5720  -59.4030 C   0  0  0  0  0  0  0  0  0  0  0  0
    7.3050    2.1450  -58.3950 C   0  0  0  0  0  0  0  0  0  0  0  0
    5.8830    1.6690  -58.5910 C   0  0  0  0  0  0  0  0  0  0  0  0
    4.8160    2.7820  -58.6680 C   0  0  0  0  0  0  0  0  0  0  0  0
    3.6970    2.1540  -59.4850 C   0  0  0  0  0  0  0  0  0  0  0  0
    4.4480    1.3890  -60.5610 C   0  0  0  0  0  0  0  0  0  0  0  0
    5.6540    0.7930  -59.8410 C   0  0  0  0  0  0  0  0  0  0  0  0
    7.4280   -1.0490  -52.3050 C   0  0  0  0  0  0  0  0  0  0  0  0
    8.0736   -2.0753  -49.9848 H   0  0  0  0  0  0  0  0  0  0  0  0
    6.7799   -3.2299  -50.4537 H   0  0  0  0  0  0  0  0  0  0  0  0
    8.4972   -3.7568  -50.4537 H   0  0  0  0  0  0  0  0  0  0  0  0
    7.3302   -3.1509  -52.7094 H   0  0  0  0  0  0  0  0  0  0  0  0
   10.0685   -2.6603  -51.7201 H   0  0  0  0  0  0  0  0  0  0  0  0
    9.4720   -3.5096  -53.2117 H   0  0  0  0  0  0  0  0  0  0  0  0
   10.0601   -0.5643  -52.8000 H   0  0  0  0  0  0  0  0  0  0  0  0
   10.7082   -1.7167  -54.0417 H   0  0  0  0  0  0  0  0  0  0  0  0
    5.7807    0.3316  -53.8829 H   0  0  0  0  0  0  0  0  0  0  0  0
    7.2151   -0.3694  -56.4610 H   0  0  0  0  0  0  0  0  0  0  0  0
    5.7913    0.6846  -56.2701 H   0  0  0  0  0  0  0  0  0  0  0  0
    9.2840    3.1980  -55.9060 H   0  0  0  0  0  0  0  0  0  0  0  0
   11.3055    3.9867  -59.9620 H   0  0  0  0  0  0  0  0  0  0  0  0
   10.5837    3.5742  -62.2660 H   0  0  0  0  0  0  0  0  0  0  0  0
    8.2540    2.6700  -62.6761 H   0  0  0  0  0  0  0  0  0  0  0  0
    5.7561    1.0792  -57.6712 H   0  0  0  0  0  0  0  0  0  0  0  0
    4.4618    3.0558  -57.6632 H   0  0  0  0  0  0  0  0  0  0  0  0
    5.2005    3.7105  -59.1152 H   0  0  0  0  0  0  0  0  0  0  0  0
    3.0899    1.4752  -58.8680 H   0  0  0  0  0  0  0  0  0  0  0  0
    2.9898    2.8922  -59.8913 H   0  0  0  0  0  0  0  0  0  0  0  0
    3.8166    0.5938  -60.9841 H   0  0  0  0  0  0  0  0  0  0  0  0
    4.7419    2.0338  -61.4023 H   0  0  0  0  0  0  0  0  0  0  0  0
    5.4471   -0.2463  -59.5460 H   0  0  0  0  0  0  0  0  0  0  0  0
    6.5423    0.7787  -60.4896 H   0  0  0  0  0  0  0  0  0  0  0  0
    7.9771   -0.3612  -51.6452 H   0  0  0  0  0  0  0  0  0  0  0  0
    6.3556   -1.0164  -52.0622 H   0  0  0  0  0  0  0  0  0  0  0  0
  1  2  1  0
  2  3  1  0
  3  4  1  0
  4  5  1  0
  5  6  1  0
  6  7  2  0
  7  8  1  0
  8  9  1  0
  9 10  2  0
 10 11  1  0
 11 12  1  0
 12 13  2  0
 13 14  1  0
 14 15  2  0
 15 16  1  0
 16 17  2  0
 17 18  1  0
 18 19  2  0
 19 20  1  0
 20 21  1  0
 21 22  1  0
 22 23  1  0
 23 24  1  0
  6 25  1  0
 25  2  1  0
 19 10  1  0
 24 20  1  0
 18 13  1  0
  1 26  1  0
  1 27  1  0
  1 28  1  0
  2 29  1  6
  3 30  1  0
  3 31  1  0
  4 32  1  0
  4 33  1  0
  7 34  1  0
  8 35  1  0
  8 36  1  0
 11 37  1  0
 14 38  1  0
 15 39  1  0
 16 40  1  0
 20 41  1  0
 21 42  1  0
 21 43  1  0
 22 44  1  0
 22 45  1  0
 23 46  1  0
 23 47  1  0
 24 48  1  0
 24 49  1  0
 25 50  1  0
 25 51  1  0
M  END
>  <meeko>  (224) 
{"is_sidechain": false}

$$$$

     RDKit          3D

 51 54  0  0  0  0  0  0  0  0999 V2000
    9.3950   -3.4730  -54.7300 C   0  0  0  0  0  0  0  0  0  0  0  0
    8.9070   -2.7530  -53.4710 C   0  0  2  0  0  0  0  0  0  0  0  0
    7.4190   -3.0550  -53.2130 C   0  0  0  0  0  0  0  0  0  0  0  0
    6.6600   -1.7990  -52.8010 C   0  0  0  0  0  0  0  0  0  0  0  0
    6.7510   -0.7900  -53.8120 O   0  0  0  0  0  0  0  0  0  0  0  0
    8.0430   -0.5200  -54.2370 C   0  0  0  0  0  0  0  0  0  0  0  0
    8.2540    0.3370  -55.2480 C   0  0  0  0  0  0  0  0  0  0  0  0
    7.1880    1.0600  -56.0140 C   0  0  0  0  0  0  0  0  0  0  0  0
    7.5330    2.4690  -56.0230 N   0  0  0  0  0  0  0  0  0  0  0  0
    7.5690    3.1450  -57.1110 C   0  0  0  0  0  0  0  0  0  0  0  0
    8.0790    4.4210  -56.9940 N   0  0  0  0  0  0  0  0  0  0  0  0
    8.9440    4.7790  -57.8310 N   0  0  0  0  0  0  0  0  0  0  0  0
    9.1040    4.1160  -59.0210 C   0  0  0  0  0  0  0  0  0  0  0  0
   10.1040    4.4190  -59.8750 C   0  0  0  0  0  0  0  0  0  0  0  0
   10.1390    3.8480  -61.2100 C   0  0  0  0  0  0  0  0  0  0  0  0
    9.0940    3.1080  -61.6130 C   0  0  0  0  0  0  0  0  0  0  0  0
    8.0270    2.8420  -60.7850 N   0  0  0  0  0  0  0  0  0  0  0  0
    8.0310    3.1900  -59.4360 C   0  0  0  0  0  0  0  0  0  0  0  0
    7.1520    2.7750  -58.5030 C   0  0  0  0  0  0  0  0  0  0  0  0
    5.8790    2.0020  -58.7210 C   0  0  0  0  0  0  0  0  0  0  0  0
    4.6530    2.8810  -59.0310 C   0  0  0  0  0  0  0  0  0  0  0  0
    3.7170    1.9420  -59.7730 C   0  0  0  0  0  0  0  0  0  0  0  0
    4.6590    1.1710  -60.6830 C   0  0  0  0  0  0  0  0  0  0  0  0
    5.9150    0.9460  -59.8430 C   0  0  0  0  0  0  0  0  0  0  0  0
    9.1700   -1.2400  -53.5450 C   0  0  0  0  0  0  0  0  0  0  0  0
    9.9907   -4.3518  -54.4422 H   0  0  0  0  0  0  0  0  0  0  0  0
    8.5291   -3.7963  -55.3264 H   0  0  0  0  0  0  0  0  0  0  0  0
   10.0160   -2.7885  -55.3264 H   0  0  0  0  0  0  0  0  0  0  0  0
    9.4847   -3.1381  -52.6178 H   0  0  0  0  0  0  0  0  0  0  0  0
    6.9709   -3.4583  -54.1331 H   0  0  0  0  0  0  0  0  0  0  0  0
    7.3510   -3.7852  -52.3931 H   0  0  0  0  0  0  0  0  0  0  0  0
    5.6019   -2.0541  -52.6416 H   0  0  0  0  0  0  0  0  0  0  0  0
    7.1059   -1.4081  -51.8745 H   0  0  0  0  0  0  0  0  0  0  0  0
    9.2980    0.5247  -55.5391 H   0  0  0  0  0  0  0  0  0  0  0  0
    7.1426    0.6784  -57.0447 H   0  0  0  0  0  0  0  0  0  0  0  0
    6.2045    0.9062  -55.5459 H   0  0  0  0  0  0  0  0  0  0  0  0
   10.9016    5.1062  -59.5564 H   0  0  0  0  0  0  0  0  0  0  0  0
   10.9996    4.0176  -61.8737 H   0  0  0  0  0  0  0  0  0  0  0  0
    9.0902    2.7021  -62.6354 H   0  0  0  0  0  0  0  0  0  0  0  0
    7.3590    2.1470  -61.0970 H   0  0  0  0  0  0  0  0  0  0  0  0
    5.7880    1.5049  -57.7440 H   0  0  0  0  0  0  0  0  0  0  0  0
    4.1879    3.2470  -58.1038 H   0  0  0  0  0  0  0  0  0  0  0  0
    4.9076    3.7785  -59.6138 H   0  0  0  0  0  0  0  0  0  0  0  0
    3.1996    1.2666  -59.0757 H   0  0  0  0  0  0  0  0  0  0  0  0
    2.9189    2.4666  -60.3188 H   0  0  0  0  0  0  0  0  0  0  0  0
    4.2127    0.2099  -60.9780 H   0  0  0  0  0  0  0  0  0  0  0  0
    4.8742    1.7147  -61.6147 H   0  0  0  0  0  0  0  0  0  0  0  0
    5.9097   -0.0666  -59.4134 H   0  0  0  0  0  0  0  0  0  0  0  0
    6.8260    1.0404  -60.4522 H   0  0  0  0  0  0  0  0  0  0  0  0
   10.1021   -1.0655  -54.1025 H   0  0  0  0  0  0  0  0  0  0  0  0
    9.2507   -0.8519  -52.5189 H   0  0  0  0  0  0  0  0  0  0  0  0
  1  2  1  0
  2  3  1  0
  3  4  1  0
  4  5  1  0
  5  6  1  0
  6  7  2  0
  7  8  1  0
  8  9  1  0
  9 10  2  0
 10 11  1  0
 11 12  2  0
 12 13  1  0
 13 14  2  0
 14 15  1  0
 15 16  2  0
 16 17  1  0
 17 18  1  0
 18 19  2  0
 19 20  1  0
 20 21  1  0
 21 22  1  0
 22 23  1  0
 23 24  1  0
  6 25  1  0
 25  2  1  0
 19 10  1  0
 24 20  1  0
 18 13  1  0
  1 26  1  0
  1 27  1  0
  1 28  1  0
  2 29  1  1
  3 30  1  0
  3 31  1  0
  4 32  1  0
  4 33  1  0
  7 34  1  0
  8 35  1  0
  8 36  1  0
 14 37  1  0
 15 38  1  0
 16 39  1  0
 17 40  1  0
 20 41  1  0
 21 42  1  0
 21 43  1  0
 22 44  1  0
 22 45  1  0
 23 46  1  0
 23 47  1  0
 24 48  1  0
 24 49  1  0
 25 50  1  0
 25 51  1  0
M  END
>  <meeko>  (225) 
{"is_sidechain": false}

$$$$

     RDKit          3D

 48 51  0  0  0  0  0  0  0  0999 V2000
   12.6190    3.6950  -57.6120 C   0  0  0  0  0  0  0  0  0  0  0  0
   11.1040    3.8480  -57.7790 C   0  0  0  0  0  0  0  0  0  0  0  0
   10.3870    3.3780  -56.5140 C   0  0  0  0  0  0  0  0  0  0  0  0
   10.7020    5.2760  -58.1530 C   0  0  0  0  0  0  0  0  0  0  0  0
   10.8040    5.2780  -59.6590 C   0  0  0  0  0  0  0  0  0  0  0  0
   10.4460    3.8590  -59.9490 C   0  0  0  0  0  0  0  0  0  0  0  0
    9.8760    3.4250  -61.0800 C   0  0  0  0  0  0  0  0  0  0  0  0
    9.4510    2.0150  -61.3460 C   0  0  0  0  0  0  0  0  0  0  0  0
    8.2670    1.7210  -60.5430 N   0  0  0  0  0  0  0  0  0  0  0  0
    7.1240    2.1460  -60.9680 C   0  0  0  0  0  0  0  0  0  0  0  0
    6.9810    2.8700  -62.1310 N   0  0  0  0  0  0  0  0  0  0  0  0
    5.9540    2.7200  -62.8290 N   0  0  0  0  0  0  0  0  0  0  0  0
    4.8700    2.0050  -62.3940 C   0  0  0  0  0  0  0  0  0  0  0  0
    3.8470    1.7060  -63.2220 C   0  0  0  0  0  0  0  0  0  0  0  0
    2.6550    1.0410  -62.7250 C   0  0  0  0  0  0  0  0  0  0  0  0
    2.5660    0.7950  -61.4100 C   0  0  0  0  0  0  0  0  0  0  0  0
    3.5710    1.1370  -60.5350 N   0  0  0  0  0  0  0  0  0  0  0  0
    4.7890    1.6660  -60.9600 C   0  0  0  0  0  0  0  0  0  0  0  0
    5.8790    1.8680  -60.1980 C   0  0  0  0  0  0  0  0  0  0  0  0
    5.8970    1.5720  -58.7330 C   0  0  0  0  0  0  0  0  0  0  0  0
    7.2000    1.8880  -57.9340 C   0  0  0  0  0  0  0  0  0  0  0  0
    6.5950    3.2490  -57.5590 C   0  0  0  0  0  0  0  0  0  0  0  0
    5.2120    2.6280  -57.8040 C   0  0  0  0  0  0  0  0  0  0  0  0
   10.6810    3.0130  -58.8760 O   0  0  0  0  0  0  0  0  0  0  0  0
   12.8691    3.6697  -56.5411 H   0  0  0  0  0  0  0  0  0  0  0  0
   12.9476    2.7591  -58.0875 H   0  0  0  0  0  0  0  0  0  0  0  0
   13.1281    4.5463  -58.0875 H   0  0  0  0  0  0  0  0  0  0  0  0
   10.9330    3.7359  -55.6286 H   0  0  0  0  0  0  0  0  0  0  0  0
    9.3636    3.7810  -56.5014 H   0  0  0  0  0  0  0  0  0  0  0  0
   10.3483    2.2788  -56.5014 H   0  0  0  0  0  0  0  0  0  0  0  0
    9.6746    5.4952  -57.8267 H   0  0  0  0  0  0  0  0  0  0  0  0
   11.3323    6.0412  -57.6763 H   0  0  0  0  0  0  0  0  0  0  0  0
   10.0901    5.9798  -60.1149 H   0  0  0  0  0  0  0  0  0  0  0  0
   11.7788    5.5985  -60.0553 H   0  0  0  0  0  0  0  0  0  0  0  0
    9.7066    4.1637  -61.8773 H   0  0  0  0  0  0  0  0  0  0  0  0
    9.2129    1.8957  -62.4133 H   0  0  0  0  0  0  0  0  0  0  0  0
   10.2639    1.3232  -61.0805 H   0  0  0  0  0  0  0  0  0  0  0  0
    3.9168    1.9695  -64.2877 H   0  0  0  0  0  0  0  0  0  0  0  0
    1.8461    0.7468  -63.4099 H   0  0  0  0  0  0  0  0  0  0  0  0
    1.6621    0.3049  -61.0190 H   0  0  0  0  0  0  0  0  0  0  0  0
    3.5130    0.7740  -59.5910 H   0  0  0  0  0  0  0  0  0  0  0  0
    5.5286    0.5425  -58.8533 H   0  0  0  0  0  0  0  0  0  0  0  0
    7.3820    1.2204  -57.0789 H   0  0  0  0  0  0  0  0  0  0  0  0
    8.1899    1.8166  -58.4084 H   0  0  0  0  0  0  0  0  0  0  0  0
    6.7795    3.5624  -56.5209 H   0  0  0  0  0  0  0  0  0  0  0  0
    6.9081    4.1780  -58.0579 H   0  0  0  0  0  0  0  0  0  0  0  0
    4.7378    2.2047  -56.9063 H   0  0  0  0  0  0  0  0  0  0  0  0
    4.3681    3.2376  -58.1592 H   0  0  0  0  0  0  0  0  0  0  0  0
  1  2  1  0
  2  3  1  0
  2  4  1  0
  4  5  1  0
  5  6  1  0
  6  7  2  0
  7  8  1  0
  8  9  1  0
  9 10  2  0
 10 11  1  0
 11 12  2  0
 12 13  1  0
 13 14  2  0
 14 15  1  0
 15 16  2  0
 16 17  1  0
 17 18  1  0
 18 19  2  0
 19 20  1  0
 20 21  1  0
 21 22  1  0
 22 23  1  0
  6 24  1  0
 24  2  1  0
 19 10  1  0
 23 20  1  0
 18 13  1  0
  1 25  1  0
  1 26  1  0
  1 27  1  0
  3 28  1  0
  3 29  1  0
  3 30  1  0
  4 31  1  0
  4 32  1  0
  5 33  1  0
  5 34  1  0
  7 35  1  0
  8 36  1  0
  8 37  1  0
 14 38  1  0
 15 39  1  0
 16 40  1  0
 17 41  1  0
 20 42  1  0
 21 43  1  0
 21 44  1  0
 22 45  1  0
 22 46  1  0
 23 47  1  0
 23 48  1  0
M  END
>  <meeko>  (226) 
{"is_sidechain": false}

$$$$

     RDKit          3D

 48 51  0  0  0  0  0  0  0  0999 V2000
   10.2350    3.8550  -56.2870 C   0  0  0  0  0  0  0  0  0  0  0  0
   11.0700    3.0660  -57.3020 C   0  0  0  0  0  0  0  0  0  0  0  0
   11.2640    1.6310  -56.8150 C   0  0  0  0  0  0  0  0  0  0  0  0
   12.4070    3.7390  -57.6070 C   0  0  0  0  0  0  0  0  0  0  0  0
   12.0580    4.7120  -58.7080 C   0  0  0  0  0  0  0  0  0  0  0  0
   10.9410    3.9780  -59.3730 C   0  0  0  0  0  0  0  0  0  0  0  0
   10.5530    4.1600  -60.6420 C   0  0  0  0  0  0  0  0  0  0  0  0
    9.4590    3.4030  -61.3340 C   0  0  0  0  0  0  0  0  0  0  0  0
    8.2990    3.4760  -60.4570 N   0  0  0  0  0  0  0  0  0  0  0  0
    7.1040    2.9700  -61.0230 C   0  0  0  0  0  0  0  0  0  0  0  0
    7.0340    2.7700  -62.3580 N   0  0  0  0  0  0  0  0  0  0  0  0
    5.9010    2.3090  -62.9330 N   0  0  0  0  0  0  0  0  0  0  0  0
    4.8310    2.0650  -62.1740 C   0  0  0  0  0  0  0  0  0  0  0  0
    3.6710    1.5960  -62.7770 C   0  0  0  0  0  0  0  0  0  0  0  0
    2.5330    1.3350  -62.0270 C   0  0  0  0  0  0  0  0  0  0  0  0
    2.6050    1.5570  -60.6720 C   0  0  0  0  0  0  0  0  0  0  0  0
    3.7160    2.0090  -60.0530 N   0  0  0  0  0  0  0  0  0  0  0  0
    4.8280    2.2650  -60.7820 C   0  0  0  0  0  0  0  0  0  0  0  0
    6.0010    2.7400  -60.1680 C   0  0  0  0  0  0  0  0  0  0  0  0
    6.1430    3.0510  -58.5830 C   0  0  0  0  0  0  0  0  0  0  0  0
    5.0690    2.3830  -57.6610 C   0  0  0  0  0  0  0  0  0  0  0  0
    6.1310    1.3310  -57.2940 C   0  0  0  0  0  0  0  0  0  0  0  0
    7.1920    2.3890  -57.6450 C   0  0  0  0  0  0  0  0  0  0  0  0
   10.3510    3.0280  -58.5530 O   0  0  0  0  0  0  0  0  0  0  0  0
   10.5344    3.5721  -55.2670 H   0  0  0  0  0  0  0  0  0  0  0  0
   10.4026    4.9323  -56.4328 H   0  0  0  0  0  0  0  0  0  0  0  0
    9.1689    3.6267  -56.4328 H   0  0  0  0  0  0  0  0  0  0  0  0
   11.2663    1.6142  -55.7151 H   0  0  0  0  0  0  0  0  0  0  0  0
   10.4427    1.0025  -57.1896 H   0  0  0  0  0  0  0  0  0  0  0  0
   12.2228    1.2431  -57.1896 H   0  0  0  0  0  0  0  0  0  0  0  0
   12.7946    4.2660  -56.7226 H   0  0  0  0  0  0  0  0  0  0  0  0
   13.1942    3.0262  -57.8937 H   0  0  0  0  0  0  0  0  0  0  0  0
   11.7252    5.6798  -58.3047 H   0  0  0  0  0  0  0  0  0  0  0  0
   12.8951    4.9736  -59.3720 H   0  0  0  0  0  0  0  0  0  0  0  0
   11.0809    4.9289  -61.2252 H   0  0  0  0  0  0  0  0  0  0  0  0
    9.2318    3.8643  -62.3064 H   0  0  0  0  0  0  0  0  0  0  0  0
    9.7519    2.3603  -61.5264 H   0  0  0  0  0  0  0  0  0  0  0  0
    8.4880    2.9750  -59.5930 H   0  0  0  0  0  0  0  0  0  0  0  0
    3.6542    1.4291  -63.8641 H   0  0  0  0  0  0  0  0  0  0  0  0
    1.6101    0.9653  -62.4977 H   0  0  0  0  0  0  0  0  0  0  0  0
    1.7122    1.3561  -60.0617 H   0  0  0  0  0  0  0  0  0  0  0  0
    6.2449    4.1238  -58.8036 H   0  0  0  0  0  0  0  0  0  0  0  0
    4.7338    3.0084  -56.8204 H   0  0  0  0  0  0  0  0  0  0  0  0
    4.0786    2.0947  -58.0432 H   0  0  0  0  0  0  0  0  0  0  0  0
    6.1240    1.0191  -56.2392 H   0  0  0  0  0  0  0  0  0  0  0  0
    6.1373    0.3290  -57.7478 H   0  0  0  0  0  0  0  0  0  0  0  0
    7.5087    3.0166  -56.7989 H   0  0  0  0  0  0  0  0  0  0  0  0
    8.1894    2.1029  -58.0103 H   0  0  0  0  0  0  0  0  0  0  0  0
  1  2  1  0
  2  3  1  0
  2  4  1  0
  4  5  1  0
  5  6  1  0
  6  7  2  0
  7  8  1  0
  8  9  1  0
  9 10  1  0
 10 11  1  0
 11 12  2  0
 12 13  1  0
 13 14  2  0
 14 15  1  0
 15 16  2  0
 16 17  1  0
 17 18  2  0
 18 19  1  0
 19 20  1  0
 20 21  1  0
 21 22  1  0
 22 23  1  0
  6 24  1  0
 24  2  1  0
 19 10  2  0
 23 20  1  0
 18 13  1  0
  1 25  1  0
  1 26  1  0
  1 27  1  0
  3 28  1  0
  3 29  1  0
  3 30  1  0
  4 31  1  0
  4 32  1  0
  5 33  1  0
  5 34  1  0
  7 35  1  0
  8 36  1  0
  8 37  1  0
  9 38  1  0
 14 39  1  0
 15 40  1  0
 16 41  1  0
 20 42  1  0
 21 43  1  0
 21 44  1  0
 22 45  1  0
 22 46  1  0
 23 47  1  0
 23 48  1  0
M  END
>  <meeko>  (227) 
{"is_sidechain": false}

$$$$

     RDKit          3D

 48 51  0  0  0  0  0  0  0  0999 V2000
   11.1570   -2.0830  -53.2590 C   0  0  0  0  0  0  0  0  0  0  0  0
   10.3990   -2.0120  -54.5890 C   0  0  0  0  0  0  0  0  0  0  0  0
   11.3460   -1.5800  -55.7070 C   0  0  0  0  0  0  0  0  0  0  0  0
    9.6930   -3.3240  -54.9310 C   0  0  0  0  0  0  0  0  0  0  0  0
    8.3690   -3.1970  -54.2170 C   0  0  0  0  0  0  0  0  0  0  0  0
    8.1740   -1.7180  -54.2740 C   0  0  0  0  0  0  0  0  0  0  0  0
    6.9890   -1.0960  -54.2420 C   0  0  0  0  0  0  0  0  0  0  0  0
    6.7950    0.3850  -54.3360 C   0  0  0  0  0  0  0  0  0  0  0  0
    6.6430    0.7790  -55.7290 N   0  0  0  0  0  0  0  0  0  0  0  0
    7.6290    1.3310  -56.3660 C   0  0  0  0  0  0  0  0  0  0  0  0
    8.8890    1.5490  -55.8440 N   0  0  0  0  0  0  0  0  0  0  0  0
    9.9430    2.1000  -56.4950 N   0  0  0  0  0  0  0  0  0  0  0  0
    9.6990    2.4710  -57.7150 C   0  0  0  0  0  0  0  0  0  0  0  0
   10.8110    3.0930  -58.4720 C   0  0  0  0  0  0  0  0  0  0  0  0
   10.6350    3.4970  -59.7290 C   0  0  0  0  0  0  0  0  0  0  0  0
    9.3070    3.2990  -60.3260 C   0  0  0  0  0  0  0  0  0  0  0  0
    8.2740    2.7710  -59.7640 N   0  0  0  0  0  0  0  0  0  0  0  0
    8.3890    2.3320  -58.4600 C   0  0  0  0  0  0  0  0  0  0  0  0
    7.3610    1.7610  -57.7930 C   0  0  0  0  0  0  0  0  0  0  0  0
    6.0020    1.5430  -58.3850 C   0  0  0  0  0  0  0  0  0  0  0  0
    5.1580    2.7730  -58.8000 C   0  0  0  0  0  0  0  0  0  0  0  0
    4.6190    1.9180  -59.9690 C   0  0  0  0  0  0  0  0  0  0  0  0
    5.8930    1.0520  -59.8500 C   0  0  0  0  0  0  0  0  0  0  0  0
    9.3580   -1.0190  -54.4690 O   0  0  0  0  0  0  0  0  0  0  0  0
   10.4422   -2.0160  -52.4256 H   0  0  0  0  0  0  0  0  0  0  0  0
   11.7027   -3.0362  -53.1984 H   0  0  0  0  0  0  0  0  0  0  0  0
   11.8702   -1.2477  -53.1984 H   0  0  0  0  0  0  0  0  0  0  0  0
   12.2639   -1.1613  -55.2687 H   0  0  0  0  0  0  0  0  0  0  0  0
   11.6008   -2.4510  -56.3287 H   0  0  0  0  0  0  0  0  0  0  0  0
   10.8553   -0.8167  -56.3287 H   0  0  0  0  0  0  0  0  0  0  0  0
    9.5481   -3.4230  -56.0169 H   0  0  0  0  0  0  0  0  0  0  0  0
   10.2640   -4.2139  -54.6277 H   0  0  0  0  0  0  0  0  0  0  0  0
    7.5681   -3.7335  -54.7468 H   0  0  0  0  0  0  0  0  0  0  0  0
    8.3503   -3.6245  -53.2036 H   0  0  0  0  0  0  0  0  0  0  0  0
    6.0896   -1.7209  -54.1388 H   0  0  0  0  0  0  0  0  0  0  0  0
    5.8923    0.6706  -53.7759 H   0  0  0  0  0  0  0  0  0  0  0  0
    7.6735    0.8923  -53.9107 H   0  0  0  0  0  0  0  0  0  0  0  0
    9.0900    1.1400  -54.9310 H   0  0  0  0  0  0  0  0  0  0  0  0
   11.7917    3.2223  -57.9909 H   0  0  0  0  0  0  0  0  0  0  0  0
   11.4532    3.9615  -60.2989 H   0  0  0  0  0  0  0  0  0  0  0  0
    9.1807    3.6380  -61.3648 H   0  0  0  0  0  0  0  0  0  0  0  0
    5.7020    0.9022  -57.5427 H   0  0  0  0  0  0  0  0  0  0  0  0
    4.3982    3.0779  -58.0653 H   0  0  0  0  0  0  0  0  0  0  0  0
    5.6140    3.7603  -58.9655 H   0  0  0  0  0  0  0  0  0  0  0  0
    3.6819    1.3848  -59.7511 H   0  0  0  0  0  0  0  0  0  0  0  0
    4.3212    2.3738  -60.9248 H   0  0  0  0  0  0  0  0  0  0  0  0
    5.7254   -0.0295  -59.9608 H   0  0  0  0  0  0  0  0  0  0  0  0
    6.7290    1.1495  -60.5583 H   0  0  0  0  0  0  0  0  0  0  0  0
  1  2  1  0
  2  3  1  0
  2  4  1  0
  4  5  1  0
  5  6  1  0
  6  7  2  0
  7  8  1  0
  8  9  1  0
  9 10  2  0
 10 11  1  0
 11 12  1  0
 12 13  2  0
 13 14  1  0
 14 15  2  0
 15 16  1  0
 16 17  2  0
 17 18  1  0
 18 19  2  0
 19 20  1  0
 20 21  1  0
 21 22  1  0
 22 23  1  0
  6 24  1  0
 24  2  1  0
 19 10  1  0
 23 20  1  0
 18 13  1  0
  1 25  1  0
  1 26  1  0
  1 27  1  0
  3 28  1  0
  3 29  1  0
  3 30  1  0
  4 31  1  0
  4 32  1  0
  5 33  1  0
  5 34  1  0
  7 35  1  0
  8 36  1  0
  8 37  1  0
 11 38  1  0
 14 39  1  0
 15 40  1  0
 16 41  1  0
 20 42  1  0
 21 43  1  0
 21 44  1  0
 22 45  1  0
 22 46  1  0
 23 47  1  0
 23 48  1  0
M  END
>  <meeko>  (228) 
{"is_sidechain": false}

$$$$

     RDKit          3D

 48 51  0  0  0  0  0  0  0  0999 V2000
   11.6930   -4.5890  -58.7530 C   0  0  0  0  0  0  0  0  0  0  0  0
   12.2310   -4.3260  -57.3490 C   0  0  0  0  0  0  0  0  0  0  0  0
   13.7610   -4.2360  -57.3830 C   0  0  0  0  0  0  0  0  0  0  0  0
   11.7310   -5.3730  -56.3530 C   0  0  0  0  0  0  0  0  0  0  0  0
   11.6730   -4.6070  -55.0530 C   0  0  0  0  0  0  0  0  0  0  0  0
   11.3620   -3.2390  -55.5600 C   0  0  0  0  0  0  0  0  0  0  0  0
   10.7670   -2.2750  -54.8450 C   0  0  0  0  0  0  0  0  0  0  0  0
   10.4040   -0.9160  -55.3570 C   0  0  0  0  0  0  0  0  0  0  0  0
    9.1090   -0.5620  -54.8110 N   0  0  0  0  0  0  0  0  0  0  0  0
    8.3800    0.4320  -55.1870 C   0  0  0  0  0  0  0  0  0  0  0  0
    7.0850    0.3870  -54.7020 N   0  0  0  0  0  0  0  0  0  0  0  0
    6.0030    0.7640  -55.4460 N   0  0  0  0  0  0  0  0  0  0  0  0
    6.2890    1.5240  -56.4610 C   0  0  0  0  0  0  0  0  0  0  0  0
    5.1800    1.9640  -57.3390 C   0  0  0  0  0  0  0  0  0  0  0  0
    5.4050    2.8310  -58.3270 C   0  0  0  0  0  0  0  0  0  0  0  0
    6.7760    3.3380  -58.4940 C   0  0  0  0  0  0  0  0  0  0  0  0
    7.8200    2.9950  -57.8180 N   0  0  0  0  0  0  0  0  0  0  0  0
    7.6640    2.0440  -56.8290 C   0  0  0  0  0  0  0  0  0  0  0  0
    8.7080    1.5680  -56.1160 C   0  0  0  0  0  0  0  0  0  0  0  0
   10.0580    2.1990  -56.2140 C   0  0  0  0  0  0  0  0  0  0  0  0
   10.7290    2.2420  -57.6290 C   0  0  0  0  0  0  0  0  0  0  0  0
   11.2890    3.6220  -57.2550 C   0  0  0  0  0  0  0  0  0  0  0  0
   10.0830    3.7620  -56.3110 C   0  0  0  0  0  0  0  0  0  0  0  0
   11.7100   -3.0620  -56.8920 O   0  0  0  0  0  0  0  0  0  0  0  0
   10.7067   -5.0711  -58.6834 H   0  0  0  0  0  0  0  0  0  0  0  0
   11.5978   -3.6358  -59.2937 H   0  0  0  0  0  0  0  0  0  0  0  0
   12.3867   -5.2496  -59.2937 H   0  0  0  0  0  0  0  0  0  0  0  0
   14.1499   -4.2131  -56.3543 H   0  0  0  0  0  0  0  0  0  0  0  0
   14.1682   -5.1117  -57.9095 H   0  0  0  0  0  0  0  0  0  0  0  0
   14.0627   -3.3186  -57.9095 H   0  0  0  0  0  0  0  0  0  0  0  0
   10.7356   -5.7450  -56.6372 H   0  0  0  0  0  0  0  0  0  0  0  0
   12.3741   -6.2639  -56.3021 H   0  0  0  0  0  0  0  0  0  0  0  0
   10.8790   -4.9861  -54.3929 H   0  0  0  0  0  0  0  0  0  0  0  0
   12.5837   -4.6735  -54.4397 H   0  0  0  0  0  0  0  0  0  0  0  0
   10.5254   -2.5005  -53.7958 H   0  0  0  0  0  0  0  0  0  0  0  0
   11.1578   -0.1824  -55.0352 H   0  0  0  0  0  0  0  0  0  0  0  0
   10.3668   -0.9196  -56.4564 H   0  0  0  0  0  0  0  0  0  0  0  0
    6.9400   -0.4370  -54.1210 H   0  0  0  0  0  0  0  0  0  0  0  0
    4.1649    1.5733  -57.1751 H   0  0  0  0  0  0  0  0  0  0  0  0
    4.5932    3.1560  -58.9943 H   0  0  0  0  0  0  0  0  0  0  0  0
    6.9274    4.0916  -59.2809 H   0  0  0  0  0  0  0  0  0  0  0  0
   10.4878    1.6353  -55.3729 H   0  0  0  0  0  0  0  0  0  0  0  0
   11.4926    1.4683  -57.7972 H   0  0  0  0  0  0  0  0  0  0  0  0
   10.1456    2.0866  -58.5485 H   0  0  0  0  0  0  0  0  0  0  0  0
   12.2676    3.6020  -56.7531 H   0  0  0  0  0  0  0  0  0  0  0  0
   11.5272    4.3810  -58.0147 H   0  0  0  0  0  0  0  0  0  0  0  0
   10.3004    4.2763  -55.3633 H   0  0  0  0  0  0  0  0  0  0  0  0
    9.1898    4.3366  -56.5974 H   0  0  0  0  0  0  0  0  0  0  0  0
  1  2  1  0
  2  3  1  0
  2  4  1  0
  4  5  1  0
  5  6  1  0
  6  7  2  0
  7  8  1  0
  8  9  1  0
  9 10  2  0
 10 11  1  0
 11 12  1  0
 12 13  2  0
 13 14  1  0
 14 15  2  0
 15 16  1  0
 16 17  2  0
 17 18  1  0
 18 19  2  0
 19 20  1  0
 20 21  1  0
 21 22  1  0
 22 23  1  0
  6 24  1  0
 24  2  1  0
 19 10  1  0
 23 20  1  0
 18 13  1  0
  1 25  1  0
  1 26  1  0
  1 27  1  0
  3 28  1  0
  3 29  1  0
  3 30  1  0
  4 31  1  0
  4 32  1  0
  5 33  1  0
  5 34  1  0
  7 35  1  0
  8 36  1  0
  8 37  1  0
 11 38  1  0
 14 39  1  0
 15 40  1  0
 16 41  1  0
 20 42  1  0
 21 43  1  0
 21 44  1  0
 22 45  1  0
 22 46  1  0
 23 47  1  0
 23 48  1  0
M  END
>  <meeko>  (229) 
{"is_sidechain": false}

$$$$

     RDKit          3D

 48 51  0  0  0  0  0  0  0  0999 V2000
   10.0690   -2.8190  -52.0590 C   0  0  0  0  0  0  0  0  0  0  0  0
    8.7340   -2.4720  -52.7160 C   0  0  0  0  0  0  0  0  0  0  0  0
    8.0740   -3.7430  -53.2600 C   0  0  0  0  0  0  0  0  0  0  0  0
    7.8260   -1.7020  -51.7590 C   0  0  0  0  0  0  0  0  0  0  0  0
    7.0040   -0.8420  -52.6900 C   0  0  0  0  0  0  0  0  0  0  0  0
    7.9840   -0.6270  -53.7950 C   0  0  0  0  0  0  0  0  0  0  0  0
    7.9530    0.4010  -54.6520 C   0  0  0  0  0  0  0  0  0  0  0  0
    8.9490    0.6630  -55.7390 C   0  0  0  0  0  0  0  0  0  0  0  0
    9.2800    2.0750  -55.7270 N   0  0  0  0  0  0  0  0  0  0  0  0
    8.9250    2.8640  -56.6720 C   0  0  0  0  0  0  0  0  0  0  0  0
    9.4990    4.1190  -56.6500 N   0  0  0  0  0  0  0  0  0  0  0  0
   10.0460    4.5120  -57.7130 N   0  0  0  0  0  0  0  0  0  0  0  0
    9.7690    3.9170  -58.9210 C   0  0  0  0  0  0  0  0  0  0  0  0
   10.4510    4.2230  -60.0430 C   0  0  0  0  0  0  0  0  0  0  0  0
   10.0150    3.7230  -61.3370 C   0  0  0  0  0  0  0  0  0  0  0  0
    8.8550    3.0500  -61.4020 C   0  0  0  0  0  0  0  0  0  0  0  0
    8.0970    2.7900  -60.2820 N   0  0  0  0  0  0  0  0  0  0  0  0
    8.5650    3.0640  -58.9990 C   0  0  0  0  0  0  0  0  0  0  0  0
    8.0240    2.6470  -57.8400 C   0  0  0  0  0  0  0  0  0  0  0  0
    6.7080    1.9700  -57.7580 C   0  0  0  0  0  0  0  0  0  0  0  0
    5.5970    2.5020  -58.7190 C   0  0  0  0  0  0  0  0  0  0  0  0
    4.5890    2.2490  -57.5830 C   0  0  0  0  0  0  0  0  0  0  0  0
    5.7640    2.4430  -56.6070 C   0  0  0  0  0  0  0  0  0  0  0  0
    8.9910   -1.5800  -53.8200 O   0  0  0  0  0  0  0  0  0  0  0  0
    9.9578   -2.7901  -50.9650 H   0  0  0  0  0  0  0  0  0  0  0  0
   10.3793   -3.8276  -52.3695 H   0  0  0  0  0  0  0  0  0  0  0  0
   10.8311   -2.0891  -52.3695 H   0  0  0  0  0  0  0  0  0  0  0  0
    7.7463   -4.3740  -52.4207 H   0  0  0  0  0  0  0  0  0  0  0  0
    7.2038   -3.4699  -53.8750 H   0  0  0  0  0  0  0  0  0  0  0  0
    8.7980   -4.2977  -53.8750 H   0  0  0  0  0  0  0  0  0  0  0  0
    7.1853   -2.3871  -51.1844 H   0  0  0  0  0  0  0  0  0  0  0  0
    8.3808   -1.1206  -51.0079 H   0  0  0  0  0  0  0  0  0  0  0  0
    6.1043   -1.3684  -53.0414 H   0  0  0  0  0  0  0  0  0  0  0  0
    6.6130    0.0810  -52.2371 H   0  0  0  0  0  0  0  0  0  0  0  0
    7.1233    1.1157  -54.5486 H   0  0  0  0  0  0  0  0  0  0  0  0
    9.8567    0.0673  -55.5624 H   0  0  0  0  0  0  0  0  0  0  0  0
    8.5256    0.3827  -56.7148 H   0  0  0  0  0  0  0  0  0  0  0  0
   11.3470    4.8578  -59.9789 H   0  0  0  0  0  0  0  0  0  0  0  0
   10.6203    3.8919  -62.2398 H   0  0  0  0  0  0  0  0  0  0  0  0
    8.4990    2.6952  -62.3805 H   0  0  0  0  0  0  0  0  0  0  0  0
    7.3590    2.1000  -60.3720 H   0  0  0  0  0  0  0  0  0  0  0  0
    7.1059    0.9464  -57.8199 H   0  0  0  0  0  0  0  0  0  0  0  0
    5.7072    3.5576  -59.0081 H   0  0  0  0  0  0  0  0  0  0  0  0
    5.4524    2.0821  -59.7254 H   0  0  0  0  0  0  0  0  0  0  0  0
    3.7911    3.0016  -57.4989 H   0  0  0  0  0  0  0  0  0  0  0  0
    3.9520    1.3526  -57.5577 H   0  0  0  0  0  0  0  0  0  0  0  0
    5.9229    3.4814  -56.2808 H   0  0  0  0  0  0  0  0  0  0  0  0
    5.7772    1.9673  -55.6152 H   0  0  0  0  0  0  0  0  0  0  0  0
  1  2  1  0
  2  3  1  0
  2  4  1  0
  4  5  1  0
  5  6  1  0
  6  7  2  0
  7  8  1  0
  8  9  1  0
  9 10  2  0
 10 11  1  0
 11 12  2  0
 12 13  1  0
 13 14  2  0
 14 15  1  0
 15 16  2  0
 16 17  1  0
 17 18  1  0
 18 19  2  0
 19 20  1  0
 20 21  1  0
 21 22  1  0
 22 23  1  0
  6 24  1  0
 24  2  1  0
 19 10  1  0
 23 20  1  0
 18 13  1  0
  1 25  1  0
  1 26  1  0
  1 27  1  0
  3 28  1  0
  3 29  1  0
  3 30  1  0
  4 31  1  0
  4 32  1  0
  5 33  1  0
  5 34  1  0
  7 35  1  0
  8 36  1  0
  8 37  1  0
 14 38  1  0
 15 39  1  0
 16 40  1  0
 17 41  1  0
 20 42  1  0
 21 43  1  0
 21 44  1  0
 22 45  1  0
 22 46  1  0
 23 47  1  0
 23 48  1  0
M  END
>  <meeko>  (230) 
{"is_sidechain": false}

$$$$

     RDKit          3D

 53 56  0  0  0  0  0  0  0  0999 V2000
   13.3170    4.9040  -59.2760 C   0  0  0  0  0  0  0  0  0  0  0  0
   12.1950    3.9000  -59.0260 C   0  0  1  0  0  0  0  0  0  0  0  0
   11.6300    4.0450  -57.6100 C   0  0  0  0  0  0  0  0  0  0  0  0
   10.4050    3.1870  -57.4310 C   0  0  0  0  0  0  0  0  0  0  0  0
   10.2270    2.3750  -56.3780 C   0  0  0  0  0  0  0  0  0  0  0  0
    9.0070    1.5490  -56.1080 C   0  0  0  0  0  0  0  0  0  0  0  0
    9.4740    0.2660  -55.5940 N   0  0  0  0  0  0  0  0  0  0  0  0
    8.8420   -0.2570  -54.6000 C   0  0  0  0  0  0  0  0  0  0  0  0
    7.7150    0.3320  -54.0710 N   0  0  0  0  0  0  0  0  0  0  0  0
    6.9080   -0.3230  -53.3770 N   0  0  0  0  0  0  0  0  0  0  0  0
    7.1280   -1.6160  -52.9910 C   0  0  0  0  0  0  0  0  0  0  0  0
    6.1850   -2.3270  -52.3360 C   0  0  0  0  0  0  0  0  0  0  0  0
    6.4510   -3.6780  -51.8740 C   0  0  0  0  0  0  0  0  0  0  0  0
    7.6810   -4.1820  -52.0550 C   0  0  0  0  0  0  0  0  0  0  0  0
    8.6770   -3.4550  -52.6620 N   0  0  0  0  0  0  0  0  0  0  0  0
    8.4510   -2.2030  -53.2350 C   0  0  0  0  0  0  0  0  0  0  0  0
    9.3300   -1.5100  -53.9780 C   0  0  0  0  0  0  0  0  0  0  0  0
   10.6890   -2.0690  -54.2210 C   0  0  0  0  0  0  0  0  0  0  0  0
   11.6050   -1.9020  -53.4140 O   0  0  0  0  0  0  0  0  0  0  0  0
   10.9680   -2.8070  -55.4790 C   0  0  0  0  0  0  0  0  0  0  0  0
   10.5600   -4.1450  -55.5650 C   0  0  0  0  0  0  0  0  0  0  0  0
   10.8080   -4.8810  -56.7250 C   0  0  0  0  0  0  0  0  0  0  0  0
   11.4730   -4.2860  -57.7970 C   0  0  0  0  0  0  0  0  0  0  0  0
   11.9000   -2.9620  -57.7080 C   0  0  0  0  0  0  0  0  0  0  0  0
   11.6600   -2.2230  -56.5480 C   0  0  0  0  0  0  0  0  0  0  0  0
    9.4170    3.3410  -58.3870 O   0  0  0  0  0  0  0  0  0  0  0  0
    9.9170    3.1080  -59.7130 C   0  0  1  0  0  0  0  0  0  0  0  0
    8.7520    3.2950  -60.6770 C   0  0  0  0  0  0  0  0  0  0  0  0
   11.0640    4.0670  -60.0490 C   0  0  0  0  0  0  0  0  0  0  0  0
   13.7131    5.2585  -58.3130 H   0  0  0  0  0  0  0  0  0  0  0  0
   14.1222    4.4193  -59.8476 H   0  0  0  0  0  0  0  0  0  0  0  0
   12.9243    5.7579  -59.8476 H   0  0  0  0  0  0  0  0  0  0  0  0
   12.6280    2.8948  -59.1357 H   0  0  0  0  0  0  0  0  0  0  0  0
   12.3957    3.7362  -56.8831 H   0  0  0  0  0  0  0  0  0  0  0  0
   11.3499    5.0965  -57.4487 H   0  0  0  0  0  0  0  0  0  0  0  0
   11.0486    2.3102  -55.6494 H   0  0  0  0  0  0  0  0  0  0  0  0
    8.3697    2.0468  -55.3623 H   0  0  0  0  0  0  0  0  0  0  0  0
    8.4099    1.4151  -57.0221 H   0  0  0  0  0  0  0  0  0  0  0  0
    5.1994   -1.8756  -52.1494 H   0  0  0  0  0  0  0  0  0  0  0  0
    5.6638   -4.2730  -51.3879 H   0  0  0  0  0  0  0  0  0  0  0  0
    7.8980   -5.2033  -51.7087 H   0  0  0  0  0  0  0  0  0  0  0  0
    9.5230   -3.9450  -52.9670 H   0  0  0  0  0  0  0  0  0  0  0  0
   10.0430   -4.6165  -54.7162 H   0  0  0  0  0  0  0  0  0  0  0  0
   10.4795   -5.9286  -56.7935 H   0  0  0  0  0  0  0  0  0  0  0  0
   11.6609   -4.8628  -58.7146 H   0  0  0  0  0  0  0  0  0  0  0  0
   12.4277   -2.4980  -58.5543 H   0  0  0  0  0  0  0  0  0  0  0  0
   12.0136   -1.1841  -56.4736 H   0  0  0  0  0  0  0  0  0  0  0  0
   10.3244    2.0893  -59.7928 H   0  0  0  0  0  0  0  0  0  0  0  0
    7.8238    3.4440  -60.1059 H   0  0  0  0  0  0  0  0  0  0  0  0
    8.9379    4.1748  -61.3106 H   0  0  0  0  0  0  0  0  0  0  0  0
    8.6532    2.4012  -61.3106 H   0  0  0  0  0  0  0  0  0  0  0  0
   11.4456    3.8419  -61.0558 H   0  0  0  0  0  0  0  0  0  0  0  0
   10.6940    5.1024  -60.0168 H   0  0  0  0  0  0  0  0  0  0  0  0
  1  2  1  0
  2  3  1  0
  3  4  1  0
  4  5  2  0
  5  6  1  0
  6  7  1  0
  7  8  2  0
  8  9  1  0
  9 10  2  0
 10 11  1  0
 11 12  2  0
 12 13  1  0
 13 14  2  0
 14 15  1  0
 15 16  1  0
 16 17  2  0
 17 18  1  0
 18 19  2  0
 18 20  1  0
 20 21  2  0
 21 22  1  0
 22 23  2  0
 23 24  1  0
 24 25  2  0
  4 26  1  0
 26 27  1  0
 27 28  1  0
 27 29  1  0
 29  2  1  0
 17  8  1  0
 25 20  1  0
 16 11  1  0
  1 30  1  0
  1 31  1  0
  1 32  1  0
  2 33  1  1
  3 34  1  0
  3 35  1  0
  5 36  1  0
  6 37  1  0
  6 38  1  0
 12 39  1  0
 13 40  1  0
 14 41  1  0
 15 42  1  0
 21 43  1  0
 22 44  1  0
 23 45  1  0
 24 46  1  0
 25 47  1  0
 27 48  1  1
 28 49  1  0
 28 50  1  0
 28 51  1  0
 29 52  1  0
 29 53  1  0
M  END
>  <meeko>  (231) 
{"is_sidechain": false}

$$$$

     RDKit          3D

 53 56  0  0  0  0  0  0  0  0999 V2000
   13.4940    5.7560  -59.7010 C   0  0  0  0  0  0  0  0  0  0  0  0
   12.3040    4.8620  -59.3680 C   0  0  1  0  0  0  0  0  0  0  0  0
   12.4480    4.2460  -57.9710 C   0  0  0  0  0  0  0  0  0  0  0  0
   11.1870    3.5240  -57.5770 C   0  0  0  0  0  0  0  0  0  0  0  0
   11.1670    2.2690  -57.1020 C   0  0  0  0  0  0  0  0  0  0  0  0
    9.9340    1.5260  -56.6820 C   0  0  0  0  0  0  0  0  0  0  0  0
   10.3170    0.3470  -55.9150 N   0  0  0  0  0  0  0  0  0  0  0  0
    9.3010   -0.2800  -55.1660 C   0  0  0  0  0  0  0  0  0  0  0  0
    8.1180    0.3280  -54.9670 N   0  0  0  0  0  0  0  0  0  0  0  0
    7.1450   -0.2470  -54.1910 N   0  0  0  0  0  0  0  0  0  0  0  0
    7.3610   -1.4280  -53.5980 C   0  0  0  0  0  0  0  0  0  0  0  0
    6.3650   -2.0110  -52.8240 C   0  0  0  0  0  0  0  0  0  0  0  0
    6.5700   -3.2380  -52.2010 C   0  0  0  0  0  0  0  0  0  0  0  0
    7.7900   -3.8500  -52.3800 C   0  0  0  0  0  0  0  0  0  0  0  0
    8.7810   -3.3160  -53.1220 N   0  0  0  0  0  0  0  0  0  0  0  0
    8.5740   -2.1120  -53.7270 C   0  0  0  0  0  0  0  0  0  0  0  0
    9.5450   -1.4890  -54.5120 C   0  0  0  0  0  0  0  0  0  0  0  0
   10.8460   -2.1510  -54.7180 C   0  0  0  0  0  0  0  0  0  0  0  0
   11.7350   -1.9500  -53.8910 O   0  0  0  0  0  0  0  0  0  0  0  0
   11.0780   -3.0820  -55.8550 C   0  0  0  0  0  0  0  0  0  0  0  0
   11.7330   -2.5920  -56.9920 C   0  0  0  0  0  0  0  0  0  0  0  0
   11.9890   -3.4360  -58.0750 C   0  0  0  0  0  0  0  0  0  0  0  0
   11.6010   -4.7730  -58.0220 C   0  0  0  0  0  0  0  0  0  0  0  0
   10.9620   -5.2710  -56.8870 C   0  0  0  0  0  0  0  0  0  0  0  0
   10.7030   -4.4300  -55.8010 C   0  0  0  0  0  0  0  0  0  0  0  0
   10.0220    4.2600  -57.6800 O   0  0  0  0  0  0  0  0  0  0  0  0
    9.8230    4.7380  -59.0200 C   0  0  1  0  0  0  0  0  0  0  0  0
    8.5020    5.4960  -59.0450 C   0  0  0  0  0  0  0  0  0  0  0  0
   10.9840    5.6390  -59.4560 C   0  0  0  0  0  0  0  0  0  0  0  0
   13.9611    6.1069  -58.7690 H   0  0  0  0  0  0  0  0  0  0  0  0
   14.2290    5.1848  -60.2871 H   0  0  0  0  0  0  0  0  0  0  0  0
   13.1501    6.6210  -60.2871 H   0  0  0  0  0  0  0  0  0  0  0  0
   12.2879    4.0523  -60.1124 H   0  0  0  0  0  0  0  0  0  0  0  0
   13.2862    3.5336  -57.9748 H   0  0  0  0  0  0  0  0  0  0  0  0
   12.6362    5.0517  -57.2461 H   0  0  0  0  0  0  0  0  0  0  0  0
   12.1299    1.7446  -57.0139 H   0  0  0  0  0  0  0  0  0  0  0  0
    9.3053    2.1802  -56.0601 H   0  0  0  0  0  0  0  0  0  0  0  0
    9.3696    1.2167  -57.5741 H   0  0  0  0  0  0  0  0  0  0  0  0
   10.7850   -0.3540  -56.4980 H   0  0  0  0  0  0  0  0  0  0  0  0
    5.4011   -1.4952  -52.7022 H   0  0  0  0  0  0  0  0  0  0  0  0
    5.7847   -3.7028  -51.5869 H   0  0  0  0  0  0  0  0  0  0  0  0
    7.9647   -4.8214  -51.8943 H   0  0  0  0  0  0  0  0  0  0  0  0
   12.0470   -1.5385  -57.0321 H   0  0  0  0  0  0  0  0  0  0  0  0
   12.4967   -3.0453  -58.9692 H   0  0  0  0  0  0  0  0  0  0  0  0
   11.7990   -5.4367  -58.8766 H   0  0  0  0  0  0  0  0  0  0  0  0
   10.6610   -6.3282  -56.8462 H   0  0  0  0  0  0  0  0  0  0  0  0
   10.2048   -4.8270  -54.9042 H   0  0  0  0  0  0  0  0  0  0  0  0
    9.7909    3.8959  -59.7270 H   0  0  0  0  0  0  0  0  0  0  0  0
    8.1693    5.6869  -58.0141 H   0  0  0  0  0  0  0  0  0  0  0  0
    8.6384    6.4532  -59.5695 H   0  0  0  0  0  0  0  0  0  0  0  0
    7.7444    4.8952  -59.5695 H   0  0  0  0  0  0  0  0  0  0  0  0
   10.8219    5.9678  -60.4931 H   0  0  0  0  0  0  0  0  0  0  0  0
   11.0329    6.5157  -58.7934 H   0  0  0  0  0  0  0  0  0  0  0  0
  1  2  1  0
  2  3  1  0
  3  4  1  0
  4  5  2  0
  5  6  1  0
  6  7  1  0
  7  8  1  0
  8  9  1  0
  9 10  2  0
 10 11  1  0
 11 12  2  0
 12 13  1  0
 13 14  2  0
 14 15  1  0
 15 16  2  0
 16 17  1  0
 17 18  1  0
 18 19  2  0
 18 20  1  0
 20 21  2  0
 21 22  1  0
 22 23  2  0
 23 24  1  0
 24 25  2  0
  4 26  1  0
 26 27  1  0
 27 28  1  0
 27 29  1  0
 29  2  1  0
 17  8  2  0
 25 20  1  0
 16 11  1  0
  1 30  1  0
  1 31  1  0
  1 32  1  0
  2 33  1  6
  3 34  1  0
  3 35  1  0
  5 36  1  0
  6 37  1  0
  6 38  1  0
  7 39  1  0
 12 40  1  0
 13 41  1  0
 14 42  1  0
 21 43  1  0
 22 44  1  0
 23 45  1  0
 24 46  1  0
 25 47  1  0
 27 48  1  6
 28 49  1  0
 28 50  1  0
 28 51  1  0
 29 52  1  0
 29 53  1  0
M  END
>  <meeko>  (232) 
{"is_sidechain": false}

$$$$

     RDKit          3D

 53 56  0  0  0  0  0  0  0  0999 V2000
   13.1030    5.1700  -59.2740 C   0  0  0  0  0  0  0  0  0  0  0  0
   12.0790    4.0560  -59.0700 C   0  0  1  0  0  0  0  0  0  0  0  0
   11.4380    4.1420  -57.6840 C   0  0  0  0  0  0  0  0  0  0  0  0
   10.2900    3.1760  -57.5320 C   0  0  0  0  0  0  0  0  0  0  0  0
   10.1210    2.4340  -56.4260 C   0  0  0  0  0  0  0  0  0  0  0  0
    8.9600    1.5410  -56.1270 C   0  0  0  0  0  0  0  0  0  0  0  0
    9.4290    0.3400  -55.4480 N   0  0  0  0  0  0  0  0  0  0  0  0
    8.6360   -0.3090  -54.6570 C   0  0  0  0  0  0  0  0  0  0  0  0
    7.3220    0.0180  -54.3850 N   0  0  0  0  0  0  0  0  0  0  0  0
    6.4780   -0.6770  -53.5760 N   0  0  0  0  0  0  0  0  0  0  0  0
    7.0020   -1.7100  -52.9840 C   0  0  0  0  0  0  0  0  0  0  0  0
    6.1350   -2.5110  -52.0890 C   0  0  0  0  0  0  0  0  0  0  0  0
    6.6220   -3.5690  -51.4410 C   0  0  0  0  0  0  0  0  0  0  0  0
    8.0430   -3.8990  -51.6360 C   0  0  0  0  0  0  0  0  0  0  0  0
    8.8860   -3.2780  -52.3900 N   0  0  0  0  0  0  0  0  0  0  0  0
    8.4230   -2.1980  -53.1180 C   0  0  0  0  0  0  0  0  0  0  0  0
    9.2020   -1.5080  -53.9690 C   0  0  0  0  0  0  0  0  0  0  0  0
   10.5900   -1.9610  -54.2010 C   0  0  0  0  0  0  0  0  0  0  0  0
   11.4910   -1.6510  -53.4230 O   0  0  0  0  0  0  0  0  0  0  0  0
   10.8700   -2.8130  -55.3950 C   0  0  0  0  0  0  0  0  0  0  0  0
   10.4270   -4.1380  -55.5090 C   0  0  0  0  0  0  0  0  0  0  0  0
   10.7140   -4.8800  -56.6580 C   0  0  0  0  0  0  0  0  0  0  0  0
   11.4410   -4.3060  -57.7000 C   0  0  0  0  0  0  0  0  0  0  0  0
   11.8830   -2.9880  -57.5980 C   0  0  0  0  0  0  0  0  0  0  0  0
   11.5970   -2.2440  -56.4510 C   0  0  0  0  0  0  0  0  0  0  0  0
    9.3580    3.1450  -58.5550 O   0  0  0  0  0  0  0  0  0  0  0  0
    9.9550    3.0110  -59.8590 C   0  0  1  0  0  0  0  0  0  0  0  0
    8.8250    3.0560  -60.8810 C   0  0  0  0  0  0  0  0  0  0  0  0
   10.9810    4.1130  -60.1350 C   0  0  0  0  0  0  0  0  0  0  0  0
   13.4427    5.5395  -58.2952 H   0  0  0  0  0  0  0  0  0  0  0  0
   13.9633    4.7787  -59.8369 H   0  0  0  0  0  0  0  0  0  0  0  0
   12.6408    5.9943  -59.8369 H   0  0  0  0  0  0  0  0  0  0  0  0
   12.6189    3.1018  -59.1591 H   0  0  0  0  0  0  0  0  0  0  0  0
   12.2000    3.9103  -56.9252 H   0  0  0  0  0  0  0  0  0  0  0  0
   11.0444    5.1609  -57.5542 H   0  0  0  0  0  0  0  0  0  0  0  0
   10.9141    2.4884  -55.6657 H   0  0  0  0  0  0  0  0  0  0  0  0
    8.2466    2.0724  -55.4799 H   0  0  0  0  0  0  0  0  0  0  0  0
    8.4645    1.2588  -57.0677 H   0  0  0  0  0  0  0  0  0  0  0  0
    6.9080    0.7620  -54.9440 H   0  0  0  0  0  0  0  0  0  0  0  0
    5.0796   -2.2301  -51.9580 H   0  0  0  0  0  0  0  0  0  0  0  0
    5.9830   -4.1755  -50.7823 H   0  0  0  0  0  0  0  0  0  0  0  0
    8.4270   -4.7670  -51.0800 H   0  0  0  0  0  0  0  0  0  0  0  0
    9.8513   -4.5955  -54.6910 H   0  0  0  0  0  0  0  0  0  0  0  0
   10.3653   -5.9200  -56.7405 H   0  0  0  0  0  0  0  0  0  0  0  0
   11.6658   -4.8932  -58.6026 H   0  0  0  0  0  0  0  0  0  0  0  0
   12.4564   -2.5343  -58.4198 H   0  0  0  0  0  0  0  0  0  0  0  0
   11.9448   -1.2032  -56.3752 H   0  0  0  0  0  0  0  0  0  0  0  0
   10.5034    2.0595  -59.9206 H   0  0  0  0  0  0  0  0  0  0  0  0
    7.8584    3.0945  -60.3574 H   0  0  0  0  0  0  0  0  0  0  0  0
    8.9363    3.9504  -61.5116 H   0  0  0  0  0  0  0  0  0  0  0  0
    8.8648    2.1556  -61.5116 H   0  0  0  0  0  0  0  0  0  0  0  0
   11.4251    3.9615  -61.1299 H   0  0  0  0  0  0  0  0  0  0  0  0
   10.4863    5.0950  -60.1038 H   0  0  0  0  0  0  0  0  0  0  0  0
  1  2  1  0
  2  3  1  0
  3  4  1  0
  4  5  2  0
  5  6  1  0
  6  7  1  0
  7  8  2  0
  8  9  1  0
  9 10  1  0
 10 11  2  0
 11 12  1  0
 12 13  2  0
 13 14  1  0
 14 15  2  0
 15 16  1  0
 16 17  2  0
 17 18  1  0
 18 19  2  0
 18 20  1  0
 20 21  2  0
 21 22  1  0
 22 23  2  0
 23 24  1  0
 24 25  2  0
  4 26  1  0
 26 27  1  0
 27 28  1  0
 27 29  1  0
 29  2  1  0
 17  8  1  0
 25 20  1  0
 16 11  1  0
  1 30  1  0
  1 31  1  0
  1 32  1  0
  2 33  1  1
  3 34  1  0
  3 35  1  0
  5 36  1  0
  6 37  1  0
  6 38  1  0
  9 39  1  0
 12 40  1  0
 13 41  1  0
 14 42  1  0
 21 43  1  0
 22 44  1  0
 23 45  1  0
 24 46  1  0
 25 47  1  0
 27 48  1  1
 28 49  1  0
 28 50  1  0
 28 51  1  0
 29 52  1  0
 29 53  1  0
M  END
>  <meeko>  (233) 
{"is_sidechain": false}

$$$$

     RDKit          3D

 53 56  0  0  0  0  0  0  0  0999 V2000
   12.0120    5.9890  -59.8470 C   0  0  0  0  0  0  0  0  0  0  0  0
   11.6230    4.5380  -59.5800 C   0  0  1  0  0  0  0  0  0  0  0  0
   11.2790    4.3220  -58.1010 C   0  0  0  0  0  0  0  0  0  0  0  0
   10.7180    2.9410  -57.8850 C   0  0  0  0  0  0  0  0  0  0  0  0
   11.1600    2.1030  -56.9360 C   0  0  0  0  0  0  0  0  0  0  0  0
   10.6230    0.7290  -56.6750 C   0  0  0  0  0  0  0  0  0  0  0  0
    9.3120    0.8850  -56.0700 N   0  0  0  0  0  0  0  0  0  0  0  0
    8.8410    0.0820  -55.1760 C   0  0  0  0  0  0  0  0  0  0  0  0
    7.5720    0.4140  -54.7490 N   0  0  0  0  0  0  0  0  0  0  0  0
    6.8040   -0.2670  -53.8650 N   0  0  0  0  0  0  0  0  0  0  0  0
    7.3660   -1.3180  -53.3500 C   0  0  0  0  0  0  0  0  0  0  0  0
    6.5820   -2.1210  -52.3820 C   0  0  0  0  0  0  0  0  0  0  0  0
    7.1160   -3.2000  -51.8070 C   0  0  0  0  0  0  0  0  0  0  0  0
    8.5000   -3.5480  -52.1580 C   0  0  0  0  0  0  0  0  0  0  0  0
    9.2710   -2.9250  -52.9840 N   0  0  0  0  0  0  0  0  0  0  0  0
    8.7620   -1.8170  -53.6350 C   0  0  0  0  0  0  0  0  0  0  0  0
    9.4750   -1.1180  -54.5420 C   0  0  0  0  0  0  0  0  0  0  0  0
   10.8300   -1.6200  -54.8410 C   0  0  0  0  0  0  0  0  0  0  0  0
   11.8070   -1.1770  -54.2420 O   0  0  0  0  0  0  0  0  0  0  0  0
   10.9810   -2.6900  -55.8750 C   0  0  0  0  0  0  0  0  0  0  0  0
   10.3480   -3.9370  -55.7770 C   0  0  0  0  0  0  0  0  0  0  0  0
   10.5430   -4.9030  -56.7670 C   0  0  0  0  0  0  0  0  0  0  0  0
   11.3720   -4.6340  -57.8550 C   0  0  0  0  0  0  0  0  0  0  0  0
   12.0120   -3.4010  -57.9570 C   0  0  0  0  0  0  0  0  0  0  0  0
   11.8180   -2.4320  -56.9700 C   0  0  0  0  0  0  0  0  0  0  0  0
    9.6560    2.5930  -58.7010 O   0  0  0  0  0  0  0  0  0  0  0  0
   10.0080    2.6860  -60.0890 C   0  0  1  0  0  0  0  0  0  0  0  0
    8.7880    2.2590  -60.8980 C   0  0  0  0  0  0  0  0  0  0  0  0
   10.4360    4.1120  -60.4540 C   0  0  0  0  0  0  0  0  0  0  0  0
   12.1525    6.5130  -58.8901 H   0  0  0  0  0  0  0  0  0  0  0  0
   12.9495    6.0175  -60.4217 H   0  0  0  0  0  0  0  0  0  0  0  0
   11.2145    6.4826  -60.4217 H   0  0  0  0  0  0  0  0  0  0  0  0
   12.4923    3.9149  -59.8371 H   0  0  0  0  0  0  0  0  0  0  0  0
   12.1903    4.4409  -57.4965 H   0  0  0  0  0  0  0  0  0  0  0  0
   10.5241    5.0632  -57.7999 H   0  0  0  0  0  0  0  0  0  0  0  0
   11.9841    2.4530  -56.2970 H   0  0  0  0  0  0  0  0  0  0  0  0
   10.5376    0.1725  -57.6200 H   0  0  0  0  0  0  0  0  0  0  0  0
   11.2951    0.1685  -56.0085 H   0  0  0  0  0  0  0  0  0  0  0  0
    7.1680    1.2180  -55.2240 H   0  0  0  0  0  0  0  0  0  0  0  0
    5.5516   -1.8250  -52.1356 H   0  0  0  0  0  0  0  0  0  0  0  0
    6.5399   -3.8085  -51.0944 H   0  0  0  0  0  0  0  0  0  0  0  0
    8.9240   -4.4345  -51.6636 H   0  0  0  0  0  0  0  0  0  0  0  0
    9.6961   -4.1553  -54.9183 H   0  0  0  0  0  0  0  0  0  0  0  0
   10.0411   -5.8786  -56.6879 H   0  0  0  0  0  0  0  0  0  0  0  0
   11.5209   -5.3963  -58.6339 H   0  0  0  0  0  0  0  0  0  0  0  0
   12.6692   -3.1908  -58.8136 H   0  0  0  0  0  0  0  0  0  0  0  0
   12.3254   -1.4595  -57.0523 H   0  0  0  0  0  0  0  0  0  0  0  0
   10.8641    2.0319  -60.3109 H   0  0  0  0  0  0  0  0  0  0  0  0
    7.9753    1.9746  -60.2134 H   0  0  0  0  0  0  0  0  0  0  0  0
    8.4576    3.0949  -61.5321 H   0  0  0  0  0  0  0  0  0  0  0  0
    9.0510    1.3995  -61.5321 H   0  0  0  0  0  0  0  0  0  0  0  0
   10.7319    4.1447  -61.5130 H   0  0  0  0  0  0  0  0  0  0  0  0
    9.5940    4.7989  -60.2831 H   0  0  0  0  0  0  0  0  0  0  0  0
  1  2  1  0
  2  3  1  0
  3  4  1  0
  4  5  2  0
  5  6  1  0
  6  7  1  0
  7  8  2  0
  8  9  1  0
  9 10  1  0
 10 11  2  0
 11 12  1  0
 12 13  2  0
 13 14  1  0
 14 15  2  0
 15 16  1  0
 16 17  2  0
 17 18  1  0
 18 19  2  0
 18 20  1  0
 20 21  2  0
 21 22  1  0
 22 23  2  0
 23 24  1  0
 24 25  2  0
  4 26  1  0
 26 27  1  0
 27 28  1  0
 27 29  1  0
 29  2  1  0
 17  8  1  0
 25 20  1  0
 16 11  1  0
  1 30  1  0
  1 31  1  0
  1 32  1  0
  2 33  1  6
  3 34  1  0
  3 35  1  0
  5 36  1  0
  6 37  1  0
  6 38  1  0
  9 39  1  0
 12 40  1  0
 13 41  1  0
 14 42  1  0
 21 43  1  0
 22 44  1  0
 23 45  1  0
 24 46  1  0
 25 47  1  0
 27 48  1  1
 28 49  1  0
 28 50  1  0
 28 51  1  0
 29 52  1  0
 29 53  1  0
M  END
>  <meeko>  (234) 
{"is_sidechain": false}

$$$$

     RDKit          3D

 53 56  0  0  0  0  0  0  0  0999 V2000
    9.2250   -3.0670  -51.1430 C   0  0  0  0  0  0  0  0  0  0  0  0
    7.9150   -3.1260  -51.9320 C   0  0  1  0  0  0  0  0  0  0  0  0
    7.3790   -1.7220  -52.2640 C   0  0  0  0  0  0  0  0  0  0  0  0
    7.9060   -1.2010  -53.5760 C   0  0  0  0  0  0  0  0  0  0  0  0
    7.2960   -0.2150  -54.2580 C   0  0  0  0  0  0  0  0  0  0  0  0
    7.6270    0.3930  -55.5890 C   0  0  0  0  0  0  0  0  0  0  0  0
    8.7470    1.3080  -55.5480 N   0  0  0  0  0  0  0  0  0  0  0  0
    8.8890    2.2800  -56.3690 C   0  0  0  0  0  0  0  0  0  0  0  0
   10.0680    2.9900  -56.2330 N   0  0  0  0  0  0  0  0  0  0  0  0
   10.6780    3.3640  -57.2640 N   0  0  0  0  0  0  0  0  0  0  0  0
   10.0950    3.3490  -58.5040 C   0  0  0  0  0  0  0  0  0  0  0  0
   10.7930    3.6200  -59.6260 C   0  0  0  0  0  0  0  0  0  0  0  0
   10.1220    3.7400  -60.9100 C   0  0  0  0  0  0  0  0  0  0  0  0
    8.7810    3.6780  -60.9380 C   0  0  0  0  0  0  0  0  0  0  0  0
    8.0370    3.4870  -59.7940 N   0  0  0  0  0  0  0  0  0  0  0  0
    8.6360    3.1800  -58.5710 C   0  0  0  0  0  0  0  0  0  0  0  0
    8.0080    2.7590  -57.4610 C   0  0  0  0  0  0  0  0  0  0  0  0
    6.5340    2.7160  -57.4570 C   0  0  0  0  0  0  0  0  0  0  0  0
    5.8950    3.1260  -56.4900 O   0  0  0  0  0  0  0  0  0  0  0  0
    5.8340    2.0880  -58.6100 C   0  0  0  0  0  0  0  0  0  0  0  0
    4.6260    2.6590  -59.0360 C   0  0  0  0  0  0  0  0  0  0  0  0
    3.9020    2.0810  -60.0790 C   0  0  0  0  0  0  0  0  0  0  0  0
    4.3740    0.9230  -60.6940 C   0  0  0  0  0  0  0  0  0  0  0  0
    5.5680    0.3440  -60.2690 C   0  0  0  0  0  0  0  0  0  0  0  0
    6.3000    0.9210  -59.2270 C   0  0  0  0  0  0  0  0  0  0  0  0
    9.0540   -1.8080  -54.0290 O   0  0  0  0  0  0  0  0  0  0  0  0
    8.8320   -3.1930  -54.3310 C   0  0  1  0  0  0  0  0  0  0  0  0
   10.1990   -3.8170  -54.5910 C   0  0  0  0  0  0  0  0  0  0  0  0
    8.0690   -3.9420  -53.2200 C   0  0  0  0  0  0  0  0  0  0  0  0
    9.0047   -3.0769  -50.0653 H   0  0  0  0  0  0  0  0  0  0  0  0
    9.8463   -3.9381  -51.3983 H   0  0  0  0  0  0  0  0  0  0  0  0
    9.7655   -2.1436  -51.3983 H   0  0  0  0  0  0  0  0  0  0  0  0
    7.1838   -3.6289  -51.2821 H   0  0  0  0  0  0  0  0  0  0  0  0
    6.2812   -1.7665  -52.3170 H   0  0  0  0  0  0  0  0  0  0  0  0
    7.7171   -1.0381  -51.4716 H   0  0  0  0  0  0  0  0  0  0  0  0
    6.4137    0.2140  -53.7604 H   0  0  0  0  0  0  0  0  0  0  0  0
    7.8672   -0.4187  -56.2915 H   0  0  0  0  0  0  0  0  0  0  0  0
    6.7481    0.9745  -55.9043 H   0  0  0  0  0  0  0  0  0  0  0  0
   11.8836    3.7518  -59.5687 H   0  0  0  0  0  0  0  0  0  0  0  0
   10.6989    3.8783  -61.8363 H   0  0  0  0  0  0  0  0  0  0  0  0
    8.2614    3.7827  -61.9019 H   0  0  0  0  0  0  0  0  0  0  0  0
    7.0690    3.1790  -59.9110 H   0  0  0  0  0  0  0  0  0  0  0  0
    4.2473    3.5676  -58.5450 H   0  0  0  0  0  0  0  0  0  0  0  0
    2.9600    2.5386  -60.4154 H   0  0  0  0  0  0  0  0  0  0  0  0
    3.8034    0.4656  -61.5157 H   0  0  0  0  0  0  0  0  0  0  0  0
    5.9363   -0.5712  -60.7555 H   0  0  0  0  0  0  0  0  0  0  0  0
    7.2405    0.4588  -58.8925 H   0  0  0  0  0  0  0  0  0  0  0  0
    8.1844   -3.2749  -55.2164 H   0  0  0  0  0  0  0  0  0  0  0  0
   10.6885   -4.0405  -53.6316 H   0  0  0  0  0  0  0  0  0  0  0  0
   10.0743   -4.7474  -55.1645 H   0  0  0  0  0  0  0  0  0  0  0  0
   10.8202   -3.1133  -55.1645 H   0  0  0  0  0  0  0  0  0  0  0  0
    7.0662   -4.1946  -53.5949 H   0  0  0  0  0  0  0  0  0  0  0  0
    8.6565   -4.8375  -52.9692 H   0  0  0  0  0  0  0  0  0  0  0  0
  1  2  1  0
  2  3  1  0
  3  4  1  0
  4  5  2  0
  5  6  1  0
  6  7  1  0
  7  8  2  0
  8  9  1  0
  9 10  2  0
 10 11  1  0
 11 12  2  0
 12 13  1  0
 13 14  2  0
 14 15  1  0
 15 16  1  0
 16 17  2  0
 17 18  1  0
 18 19  2  0
 18 20  1  0
 20 21  2  0
 21 22  1  0
 22 23  2  0
 23 24  1  0
 24 25  2  0
  4 26  1  0
 26 27  1  0
 27 28  1  0
 27 29  1  0
 29  2  1  0
 17  8  1  0
 25 20  1  0
 16 11  1  0
  1 30  1  0
  1 31  1  0
  1 32  1  0
  2 33  1  1
  3 34  1  0
  3 35  1  0
  5 36  1  0
  6 37  1  0
  6 38  1  0
 12 39  1  0
 13 40  1  0
 14 41  1  0
 15 42  1  0
 21 43  1  0
 22 44  1  0
 23 45  1  0
 24 46  1  0
 25 47  1  0
 27 48  1  6
 28 49  1  0
 28 50  1  0
 28 51  1  0
 29 52  1  0
 29 53  1  0
M  END
>  <meeko>  (235) 
{"is_sidechain": false}

$$$$

     RDKit          3D

 54 57  0  0  0  0  0  0  0  0999 V2000
   11.4160   -0.9670  -56.1860 C   0  0  0  0  0  0  0  0  0  0  0  0
   11.1110   -1.5630  -54.8220 C   0  0  0  0  0  0  0  0  0  0  0  0
    9.7250   -2.2120  -54.7310 C   0  0  1  0  0  0  0  0  0  0  0  0
    9.6810   -3.3870  -53.7420 C   0  0  0  0  0  0  0  0  0  0  0  0
    8.2440   -3.7590  -53.3280 C   0  0  1  0  0  0  0  0  0  0  0  0
    7.9940   -3.4170  -51.8550 C   0  0  0  0  0  0  0  0  0  0  0  0
    7.2150   -3.0790  -54.2420 C   0  0  0  0  0  0  0  0  0  0  0  0
    7.4840   -1.6000  -54.3620 C   0  0  0  0  0  0  0  0  0  0  0  0
    6.5010   -0.6920  -54.4590 C   0  0  0  0  0  0  0  0  0  0  0  0
    6.7000    0.7880  -54.5680 C   0  0  0  0  0  0  0  0  0  0  0  0
    6.6490    1.1680  -55.9770 N   0  0  0  0  0  0  0  0  0  0  0  0
    7.7060    1.6870  -56.5150 C   0  0  0  0  0  0  0  0  0  0  0  0
    8.8600    1.8920  -55.7930 N   0  0  0  0  0  0  0  0  0  0  0  0
    9.9070    2.3240  -56.3160 N   0  0  0  0  0  0  0  0  0  0  0  0
   10.0160    2.6540  -57.6370 C   0  0  0  0  0  0  0  0  0  0  0  0
   11.1850    3.0900  -58.1520 C   0  0  0  0  0  0  0  0  0  0  0  0
   11.3010    3.4500  -59.5550 C   0  0  0  0  0  0  0  0  0  0  0  0
   10.2100    3.3490  -60.3300 C   0  0  0  0  0  0  0  0  0  0  0  0
    9.0060    2.9200  -59.8270 N   0  0  0  0  0  0  0  0  0  0  0  0
    8.8310    2.5410  -58.4950 C   0  0  0  0  0  0  0  0  0  0  0  0
    7.6870    2.0830  -57.9550 C   0  0  0  0  0  0  0  0  0  0  0  0
    6.4600    1.9410  -58.7590 C   0  0  0  0  0  0  0  0  0  0  0  0
    5.3780    2.8100  -58.5580 C   0  0  0  0  0  0  0  0  0  0  0  0
    4.2220    2.6900  -59.3350 C   0  0  0  0  0  0  0  0  0  0  0  0
    4.1490    1.7010  -60.3130 C   0  0  0  0  0  0  0  0  0  0  0  0
    2.5870    1.5380  -61.3660 Br  0  0  0  0  0  0  0  0  0  0  0  0
    5.2170    0.8300  -60.5220 C   0  0  0  0  0  0  0  0  0  0  0  0
    6.3720    0.9510  -59.7460 C   0  0  0  0  0  0  0  0  0  0  0  0
    8.8060   -1.1910  -54.3180 O   0  0  0  0  0  0  0  0  0  0  0  0
   11.9137    0.0056  -56.0582 H   0  0  0  0  0  0  0  0  0  0  0  0
   12.0771   -1.6467  -56.7436 H   0  0  0  0  0  0  0  0  0  0  0  0
   10.4780   -0.8284  -56.7436 H   0  0  0  0  0  0  0  0  0  0  0  0
   11.8687   -2.3289  -54.6000 H   0  0  0  0  0  0  0  0  0  0  0  0
   11.1275   -0.7353  -54.0977 H   0  0  0  0  0  0  0  0  0  0  0  0
    9.4605   -2.6293  -55.7138 H   0  0  0  0  0  0  0  0  0  0  0  0
   10.1496   -4.2630  -54.2144 H   0  0  0  0  0  0  0  0  0  0  0  0
   10.2203   -3.0789  -52.8341 H   0  0  0  0  0  0  0  0  0  0  0  0
    8.1253   -4.8464  -53.4442 H   0  0  0  0  0  0  0  0  0  0  0  0
    8.5224   -4.1398  -51.2160 H   0  0  0  0  0  0  0  0  0  0  0  0
    8.3652   -2.4028  -51.6459 H   0  0  0  0  0  0  0  0  0  0  0  0
    6.9150   -3.4629  -51.6459 H   0  0  0  0  0  0  0  0  0  0  0  0
    7.2665   -3.5351  -55.2416 H   0  0  0  0  0  0  0  0  0  0  0  0
    6.2156   -3.2164  -53.8034 H   0  0  0  0  0  0  0  0  0  0  0  0
    5.4661   -1.0647  -54.4584 H   0  0  0  0  0  0  0  0  0  0  0  0
    5.9045    1.3095  -54.0156 H   0  0  0  0  0  0  0  0  0  0  0  0
    7.6750    1.0661  -54.1413 H   0  0  0  0  0  0  0  0  0  0  0  0
   12.0655    3.1743  -57.4980 H   0  0  0  0  0  0  0  0  0  0  0  0
   12.2585    3.7964  -59.9712 H   0  0  0  0  0  0  0  0  0  0  0  0
   10.2818    3.6164  -61.3946 H   0  0  0  0  0  0  0  0  0  0  0  0
    8.2230    2.8150  -60.4640 H   0  0  0  0  0  0  0  0  0  0  0  0
    5.4391    3.5902  -57.7849 H   0  0  0  0  0  0  0  0  0  0  0  0
    3.3747    3.3729  -59.1748 H   0  0  0  0  0  0  0  0  0  0  0  0
    5.1504    0.0503  -61.2951 H   0  0  0  0  0  0  0  0  0  0  0  0
    7.2165    0.2656  -59.9107 H   0  0  0  0  0  0  0  0  0  0  0  0
  1  2  1  0
  2  3  1  0
  3  4  1  0
  4  5  1  0
  5  6  1  0
  5  7  1  0
  7  8  1  0
  8  9  2  0
  9 10  1  0
 10 11  1  0
 11 12  2  0
 12 13  1  0
 13 14  2  0
 14 15  1  0
 15 16  2  0
 16 17  1  0
 17 18  2  0
 18 19  1  0
 19 20  1  0
 20 21  2  0
 21 22  1  0
 22 23  1  0
 23 24  2  0
 24 25  1  0
 25 26  1  0
 25 27  2  0
 27 28  1  0
  8 29  1  0
 29  3  1  0
 21 12  1  0
 28 22  2  0
 20 15  1  0
  1 30  1  0
  1 31  1  0
  1 32  1  0
  2 33  1  0
  2 34  1  0
  3 35  1  6
  4 36  1  0
  4 37  1  0
  5 38  1  1
  6 39  1  0
  6 40  1  0
  6 41  1  0
  7 42  1  0
  7 43  1  0
  9 44  1  0
 10 45  1  0
 10 46  1  0
 16 47  1  0
 17 48  1  0
 18 49  1  0
 19 50  1  0
 23 51  1  0
 24 52  1  0
 27 53  1  0
 28 54  1  0
M  END
>  <meeko>  (236) 
{"is_sidechain": false}

$$$$

     RDKit          3D

 54 57  0  0  0  0  0  0  0  0999 V2000
   12.6450    3.8310  -58.9200 C   0  0  0  0  0  0  0  0  0  0  0  0
   11.5670    3.4950  -57.9050 C   0  0  0  0  0  0  0  0  0  0  0  0
   10.5450    4.6220  -57.6750 C   0  0  1  0  0  0  0  0  0  0  0  0
    9.9540    5.3020  -58.9220 C   0  0  0  0  0  0  0  0  0  0  0  0
    8.8030    4.5370  -59.5860 C   0  0  1  0  0  0  0  0  0  0  0  0
    9.2800    3.3960  -60.4870 C   0  0  0  0  0  0  0  0  0  0  0  0
    7.8220    4.0550  -58.5170 C   0  0  0  0  0  0  0  0  0  0  0  0
    8.5360    3.4100  -57.3620 C   0  0  0  0  0  0  0  0  0  0  0  0
    8.1990    2.2070  -56.8700 C   0  0  0  0  0  0  0  0  0  0  0  0
    8.8510    1.5290  -55.7040 C   0  0  0  0  0  0  0  0  0  0  0  0
    8.3440    0.1650  -55.6900 N   0  0  0  0  0  0  0  0  0  0  0  0
    8.1190   -0.3650  -54.3980 C   0  0  0  0  0  0  0  0  0  0  0  0
    7.2610    0.2570  -53.5620 N   0  0  0  0  0  0  0  0  0  0  0  0
    7.0430   -0.2120  -52.3010 N   0  0  0  0  0  0  0  0  0  0  0  0
    7.6960   -1.2960  -51.8680 C   0  0  0  0  0  0  0  0  0  0  0  0
    7.4680   -1.7640  -50.5810 C   0  0  0  0  0  0  0  0  0  0  0  0
    8.1330   -2.8860  -50.0980 C   0  0  0  0  0  0  0  0  0  0  0  0
    9.0210   -3.5120  -50.9430 C   0  0  0  0  0  0  0  0  0  0  0  0
    9.2670   -3.0900  -52.2010 N   0  0  0  0  0  0  0  0  0  0  0  0
    8.6160   -1.9900  -52.6700 C   0  0  0  0  0  0  0  0  0  0  0  0
    8.8350   -1.4990  -53.9690 C   0  0  0  0  0  0  0  0  0  0  0  0
    9.8010   -2.1770  -54.8650 C   0  0  0  0  0  0  0  0  0  0  0  0
   10.8920   -1.4770  -55.4120 C   0  0  0  0  0  0  0  0  0  0  0  0
   11.7980   -2.1100  -56.2680 C   0  0  0  0  0  0  0  0  0  0  0  0
   11.6230   -3.4540  -56.5850 C   0  0  0  0  0  0  0  0  0  0  0  0
   12.8450   -4.3130  -57.7420 Br  0  0  0  0  0  0  0  0  0  0  0  0
   10.5520   -4.1700  -56.0550 C   0  0  0  0  0  0  0  0  0  0  0  0
    9.6480   -3.5330  -55.1990 C   0  0  0  0  0  0  0  0  0  0  0  0
    9.5260    4.1650  -56.7650 O   0  0  0  0  0  0  0  0  0  0  0  0
   13.5672    4.1185  -58.3938 H   0  0  0  0  0  0  0  0  0  0  0  0
   12.8416    2.9515  -59.5508 H   0  0  0  0  0  0  0  0  0  0  0  0
   12.3071    4.6664  -59.5508 H   0  0  0  0  0  0  0  0  0  0  0  0
   11.0256    2.6050  -58.2584 H   0  0  0  0  0  0  0  0  0  0  0  0
   12.0772    3.3296  -56.9446 H   0  0  0  0  0  0  0  0  0  0  0  0
   11.1237    5.4450  -57.2303 H   0  0  0  0  0  0  0  0  0  0  0  0
    9.5806    6.2936  -58.6266 H   0  0  0  0  0  0  0  0  0  0  0  0
   10.7648    5.3473  -59.6640 H   0  0  0  0  0  0  0  0  0  0  0  0
    8.2817    5.2333  -60.2593 H   0  0  0  0  0  0  0  0  0  0  0  0
    9.6299    2.5591  -59.8647 H   0  0  0  0  0  0  0  0  0  0  0  0
    8.4479    3.0579  -61.1220 H   0  0  0  0  0  0  0  0  0  0  0  0
   10.1052    3.7507  -61.1220 H   0  0  0  0  0  0  0  0  0  0  0  0
    7.2472    4.9162  -58.1455 H   0  0  0  0  0  0  0  0  0  0  0  0
    7.1572    3.3062  -58.9723 H   0  0  0  0  0  0  0  0  0  0  0  0
    7.3740    1.6739  -57.3652 H   0  0  0  0  0  0  0  0  0  0  0  0
    9.9442    1.5279  -55.8263 H   0  0  0  0  0  0  0  0  0  0  0  0
    8.6258    2.0493  -54.7614 H   0  0  0  0  0  0  0  0  0  0  0  0
    7.4830    0.0970  -56.2300 H   0  0  0  0  0  0  0  0  0  0  0  0
    6.7503   -1.2393  -49.9332 H   0  0  0  0  0  0  0  0  0  0  0  0
    7.9558   -3.2592  -49.0785 H   0  0  0  0  0  0  0  0  0  0  0  0
    9.5563   -4.3997  -50.5749 H   0  0  0  0  0  0  0  0  0  0  0  0
   11.0343   -0.4152  -55.1622 H   0  0  0  0  0  0  0  0  0  0  0  0
   12.6451   -1.5487  -56.6890 H   0  0  0  0  0  0  0  0  0  0  0  0
   10.4179   -5.2319  -56.3087 H   0  0  0  0  0  0  0  0  0  0  0  0
    8.8046   -4.1021  -54.7810 H   0  0  0  0  0  0  0  0  0  0  0  0
  1  2  1  0
  2  3  1  0
  3  4  1  0
  4  5  1  0
  5  6  1  0
  5  7  1  0
  7  8  1  0
  8  9  2  0
  9 10  1  0
 10 11  1  0
 11 12  1  0
 12 13  1  0
 13 14  2  0
 14 15  1  0
 15 16  2  0
 16 17  1  0
 17 18  2  0
 18 19  1  0
 19 20  2  0
 20 21  1  0
 21 22  1  0
 22 23  1  0
 23 24  2  0
 24 25  1  0
 25 26  1  0
 25 27  2  0
 27 28  1  0
  8 29  1  0
 29  3  1  0
 21 12  2  0
 28 22  2  0
 20 15  1  0
  1 30  1  0
  1 31  1  0
  1 32  1  0
  2 33  1  0
  2 34  1  0
  3 35  1  1
  4 36  1  0
  4 37  1  0
  5 38  1  6
  6 39  1  0
  6 40  1  0
  6 41  1  0
  7 42  1  0
  7 43  1  0
  9 44  1  0
 10 45  1  0
 10 46  1  0
 11 47  1  0
 16 48  1  0
 17 49  1  0
 18 50  1  0
 23 51  1  0
 24 52  1  0
 27 53  1  0
 28 54  1  0
M  END
>  <meeko>  (237) 
{"is_sidechain": false}

$$$$

     RDKit          3D

 54 57  0  0  0  0  0  0  0  0999 V2000
    7.8270    3.3900  -60.6060 C   0  0  0  0  0  0  0  0  0  0  0  0
    9.0450    2.4890  -60.7330 C   0  0  0  0  0  0  0  0  0  0  0  0
   10.0100    2.5780  -59.5440 C   0  0  1  0  0  0  0  0  0  0  0  0
   11.1830    3.5350  -59.8050 C   0  0  0  0  0  0  0  0  0  0  0  0
   12.0610    3.6470  -58.5510 C   0  0  1  0  0  0  0  0  0  0  0  0
   13.1760    4.6700  -58.7490 C   0  0  0  0  0  0  0  0  0  0  0  0
   11.1920    4.0060  -57.3410 C   0  0  0  0  0  0  0  0  0  0  0  0
    9.9940    3.0990  -57.2690 C   0  0  0  0  0  0  0  0  0  0  0  0
    9.6370    2.4320  -56.1610 C   0  0  0  0  0  0  0  0  0  0  0  0
    8.4530    1.5270  -56.0340 C   0  0  0  0  0  0  0  0  0  0  0  0
    8.9370    0.2280  -55.5910 N   0  0  0  0  0  0  0  0  0  0  0  0
    8.5610   -0.2400  -54.4430 C   0  0  0  0  0  0  0  0  0  0  0  0
    7.7150    0.4060  -53.5620 N   0  0  0  0  0  0  0  0  0  0  0  0
    7.3120   -0.0590  -52.3530 N   0  0  0  0  0  0  0  0  0  0  0  0
    7.7800   -1.2260  -52.0260 C   0  0  0  0  0  0  0  0  0  0  0  0
    7.3710   -1.7880  -50.7160 C   0  0  0  0  0  0  0  0  0  0  0  0
    7.8070   -2.9860  -50.3260 C   0  0  0  0  0  0  0  0  0  0  0  0
    8.7010   -3.7190  -51.2350 C   0  0  0  0  0  0  0  0  0  0  0  0
    9.1250   -3.3270  -52.3890 N   0  0  0  0  0  0  0  0  0  0  0  0
    8.7080   -2.0890  -52.8460 C   0  0  0  0  0  0  0  0  0  0  0  0
    9.0960   -1.5980  -54.0440 C   0  0  0  0  0  0  0  0  0  0  0  0
    9.9910   -2.3560  -54.9470 C   0  0  0  0  0  0  0  0  0  0  0  0
    9.7620   -3.7190  -55.1880 C   0  0  0  0  0  0  0  0  0  0  0  0
   10.6000   -4.4410  -56.0430 C   0  0  0  0  0  0  0  0  0  0  0  0
   11.6720   -3.8020  -56.6600 C   0  0  0  0  0  0  0  0  0  0  0  0
   12.8070   -4.7770  -57.8160 Br  0  0  0  0  0  0  0  0  0  0  0  0
   11.9140   -2.4480  -56.4340 C   0  0  0  0  0  0  0  0  0  0  0  0
   11.0740   -1.7280  -55.5810 C   0  0  0  0  0  0  0  0  0  0  0  0
    9.2300    3.0290  -58.4200 O   0  0  0  0  0  0  0  0  0  0  0  0
    7.6029    3.5558  -59.5419 H   0  0  0  0  0  0  0  0  0  0  0  0
    8.0326    4.3551  -61.0921 H   0  0  0  0  0  0  0  0  0  0  0  0
    6.9643    2.9110  -61.0921 H   0  0  0  0  0  0  0  0  0  0  0  0
    8.6987    1.4487  -60.8210 H   0  0  0  0  0  0  0  0  0  0  0  0
    9.6002    2.8255  -61.6210 H   0  0  0  0  0  0  0  0  0  0  0  0
   10.4660    1.5942  -59.3594 H   0  0  0  0  0  0  0  0  0  0  0  0
   11.7877    3.1503  -60.6394 H   0  0  0  0  0  0  0  0  0  0  0  0
   10.7870    4.5297  -60.0574 H   0  0  0  0  0  0  0  0  0  0  0  0
   12.5391    2.6736  -58.3671 H   0  0  0  0  0  0  0  0  0  0  0  0
   13.5430    5.0068  -57.7682 H   0  0  0  0  0  0  0  0  0  0  0  0
   14.0015    4.2085  -59.3107 H   0  0  0  0  0  0  0  0  0  0  0  0
   12.7871    5.5321  -59.3107 H   0  0  0  0  0  0  0  0  0  0  0  0
   11.7864    3.8952  -56.4221 H   0  0  0  0  0  0  0  0  0  0  0  0
   10.8472    5.0454  -57.4447 H   0  0  0  0  0  0  0  0  0  0  0  0
   10.2689    2.5618  -55.2700 H   0  0  0  0  0  0  0  0  0  0  0  0
    7.7463    1.9353  -55.2965 H   0  0  0  0  0  0  0  0  0  0  0  0
    7.9311    1.4364  -56.9981 H   0  0  0  0  0  0  0  0  0  0  0  0
    7.3590    1.3170  -53.8300 H   0  0  0  0  0  0  0  0  0  0  0  0
    6.7020   -1.2113  -50.0603 H   0  0  0  0  0  0  0  0  0  0  0  0
    7.5081   -3.4119  -49.3568 H   0  0  0  0  0  0  0  0  0  0  0  0
    9.0450   -4.7069  -50.8949 H   0  0  0  0  0  0  0  0  0  0  0  0
    8.9155   -4.2241  -54.6999 H   0  0  0  0  0  0  0  0  0  0  0  0
   10.4132   -5.5092  -56.2274 H   0  0  0  0  0  0  0  0  0  0  0  0
   12.7624   -1.9488  -56.9250 H   0  0  0  0  0  0  0  0  0  0  0  0
   11.2633   -0.6588  -55.4047 H   0  0  0  0  0  0  0  0  0  0  0  0
  1  2  1  0
  2  3  1  0
  3  4  1  0
  4  5  1  0
  5  6  1  0
  5  7  1  0
  7  8  1  0
  8  9  2  0
  9 10  1  0
 10 11  1  0
 11 12  2  0
 12 13  1  0
 13 14  1  0
 14 15  2  0
 15 16  1  0
 16 17  2  0
 17 18  1  0
 18 19  2  0
 19 20  1  0
 20 21  2  0
 21 22  1  0
 22 23  1  0
 23 24  2  0
 24 25  1  0
 25 26  1  0
 25 27  2  0
 27 28  1  0
  8 29  1  0
 29  3  1  0
 21 12  1  0
 28 22  2  0
 20 15  1  0
  1 30  1  0
  1 31  1  0
  1 32  1  0
  2 33  1  0
  2 34  1  0
  3 35  1  1
  4 36  1  0
  4 37  1  0
  5 38  1  1
  6 39  1  0
  6 40  1  0
  6 41  1  0
  7 42  1  0
  7 43  1  0
  9 44  1  0
 10 45  1  0
 10 46  1  0
 13 47  1  0
 16 48  1  0
 17 49  1  0
 18 50  1  0
 23 51  1  0
 24 52  1  0
 27 53  1  0
 28 54  1  0
M  END
>  <meeko>  (238) 
{"is_sidechain": false}

$$$$

     RDKit          3D

 54 57  0  0  0  0  0  0  0  0999 V2000
   10.5320    2.8090  -57.5950 C   0  0  0  0  0  0  0  0  0  0  0  0
    9.1640    2.2460  -57.9550 C   0  0  0  0  0  0  0  0  0  0  0  0
    8.0230    3.1240  -57.4180 C   0  0  1  0  0  0  0  0  0  0  0  0
    6.8580    3.3110  -58.4050 C   0  0  0  0  0  0  0  0  0  0  0  0
    5.8360    2.1700  -58.4170 C   0  0  1  0  0  0  0  0  0  0  0  0
    6.2810    0.9640  -59.2470 C   0  0  0  0  0  0  0  0  0  0  0  0
    5.4920    1.7810  -56.9790 C   0  0  0  0  0  0  0  0  0  0  0  0
    6.7220    1.6200  -56.1290 C   0  0  0  0  0  0  0  0  0  0  0  0
    6.9270    0.5420  -55.3550 C   0  0  0  0  0  0  0  0  0  0  0  0
    8.0640    0.3380  -54.3960 C   0  0  0  0  0  0  0  0  0  0  0  0
    9.2770    0.3330  -55.1890 N   0  0  0  0  0  0  0  0  0  0  0  0
    9.9950   -0.7110  -55.4350 C   0  0  0  0  0  0  0  0  0  0  0  0
   11.0450   -0.4520  -56.2930 N   0  0  0  0  0  0  0  0  0  0  0  0
   11.8180   -1.3640  -56.9260 N   0  0  0  0  0  0  0  0  0  0  0  0
   11.6270   -2.5900  -56.5460 C   0  0  0  0  0  0  0  0  0  0  0  0
   12.4420   -3.6470  -57.1910 C   0  0  0  0  0  0  0  0  0  0  0  0
   12.3320   -4.9170  -56.8040 C   0  0  0  0  0  0  0  0  0  0  0  0
   11.3890   -5.2220  -55.7180 C   0  0  0  0  0  0  0  0  0  0  0  0
   10.6160   -4.3900  -55.1050 N   0  0  0  0  0  0  0  0  0  0  0  0
   10.6540   -3.0610  -55.4910 C   0  0  0  0  0  0  0  0  0  0  0  0
    9.8420   -2.1300  -54.9360 C   0  0  0  0  0  0  0  0  0  0  0  0
    8.9430   -2.5280  -53.8390 C   0  0  0  0  0  0  0  0  0  0  0  0
    9.4120   -2.5360  -52.5180 C   0  0  0  0  0  0  0  0  0  0  0  0
    8.5850   -2.9640  -51.4760 C   0  0  0  0  0  0  0  0  0  0  0  0
    7.2910   -3.3970  -51.7560 C   0  0  0  0  0  0  0  0  0  0  0  0
    6.1740   -3.9850  -50.3480 Br  0  0  0  0  0  0  0  0  0  0  0  0
    6.8140   -3.4040  -53.0650 C   0  0  0  0  0  0  0  0  0  0  0  0
    7.6380   -2.9700  -54.1050 C   0  0  0  0  0  0  0  0  0  0  0  0
    7.6010    2.6840  -56.1170 O   0  0  0  0  0  0  0  0  0  0  0  0
   10.6347    2.8513  -56.5006 H   0  0  0  0  0  0  0  0  0  0  0  0
   11.3167    2.1607  -58.0121 H   0  0  0  0  0  0  0  0  0  0  0  0
   10.6330    3.8218  -58.0121 H   0  0  0  0  0  0  0  0  0  0  0  0
    9.0812    2.1861  -59.0502 H   0  0  0  0  0  0  0  0  0  0  0  0
    9.0734    1.2508  -57.4951 H   0  0  0  0  0  0  0  0  0  0  0  0
    8.4363    4.1369  -57.3033 H   0  0  0  0  0  0  0  0  0  0  0  0
    6.3310    4.2395  -58.1402 H   0  0  0  0  0  0  0  0  0  0  0  0
    7.3049    3.3366  -59.4098 H   0  0  0  0  0  0  0  0  0  0  0  0
    4.9293    2.5383  -58.9192 H   0  0  0  0  0  0  0  0  0  0  0  0
    6.5824    0.1472  -58.5746 H   0  0  0  0  0  0  0  0  0  0  0  0
    5.4477    0.6280  -59.8815 H   0  0  0  0  0  0  0  0  0  0  0  0
    7.1329    1.2498  -59.8815 H   0  0  0  0  0  0  0  0  0  0  0  0
    4.8579    2.5658  -56.5409 H   0  0  0  0  0  0  0  0  0  0  0  0
    4.9681    0.8141  -57.0048 H   0  0  0  0  0  0  0  0  0  0  0  0
    6.1899   -0.2710  -55.4310 H   0  0  0  0  0  0  0  0  0  0  0  0
    8.0934    1.1569  -53.6621 H   0  0  0  0  0  0  0  0  0  0  0  0
    7.9497   -0.6036  -53.8389 H   0  0  0  0  0  0  0  0  0  0  0  0
   11.0550    0.5040  -56.6410 H   0  0  0  0  0  0  0  0  0  0  0  0
   13.1432   -3.3806  -57.9956 H   0  0  0  0  0  0  0  0  0  0  0  0
   12.9264   -5.7104  -57.2807 H   0  0  0  0  0  0  0  0  0  0  0  0
   11.3368   -6.2717  -55.3932 H   0  0  0  0  0  0  0  0  0  0  0  0
   10.4376   -2.2032  -52.3002 H   0  0  0  0  0  0  0  0  0  0  0  0
    8.9541   -2.9590  -50.4398 H   0  0  0  0  0  0  0  0  0  0  0  0
    5.7919   -3.7502  -53.2783 H   0  0  0  0  0  0  0  0  0  0  0  0
    7.2622   -2.9745  -55.1388 H   0  0  0  0  0  0  0  0  0  0  0  0
  1  2  1  0
  2  3  1  0
  3  4  1  0
  4  5  1  0
  5  6  1  0
  5  7  1  0
  7  8  1  0
  8  9  2  0
  9 10  1  0
 10 11  1  0
 11 12  2  0
 12 13  1  0
 13 14  1  0
 14 15  2  0
 15 16  1  0
 16 17  2  0
 17 18  1  0
 18 19  2  0
 19 20  1  0
 20 21  2  0
 21 22  1  0
 22 23  1  0
 23 24  2  0
 24 25  1  0
 25 26  1  0
 25 27  2  0
 27 28  1  0
  8 29  1  0
 29  3  1  0
 21 12  1  0
 28 22  2  0
 20 15  1  0
  1 30  1  0
  1 31  1  0
  1 32  1  0
  2 33  1  0
  2 34  1  0
  3 35  1  1
  4 36  1  0
  4 37  1  0
  5 38  1  6
  6 39  1  0
  6 40  1  0
  6 41  1  0
  7 42  1  0
  7 43  1  0
  9 44  1  0
 10 45  1  0
 10 46  1  0
 13 47  1  0
 16 48  1  0
 17 49  1  0
 18 50  1  0
 23 51  1  0
 24 52  1  0
 27 53  1  0
 28 54  1  0
M  END
>  <meeko>  (239) 
{"is_sidechain": false}

$$$$

     RDKit          3D

 54 57  0  0  0  0  0  0  0  0999 V2000
    9.2580    3.4050  -61.1550 C   0  0  0  0  0  0  0  0  0  0  0  0
    8.2860    2.6590  -62.0620 C   0  0  0  0  0  0  0  0  0  0  0  0
    6.8560    2.6690  -61.5110 C   0  0  1  0  0  0  0  0  0  0  0  0
    5.8540    2.2450  -62.5920 C   0  0  0  0  0  0  0  0  0  0  0  0
    4.4380    2.2280  -62.0050 C   0  0  1  0  0  0  0  0  0  0  0  0
    3.4210    1.7370  -63.0320 C   0  0  0  0  0  0  0  0  0  0  0  0
    4.4170    1.3570  -60.7450 C   0  0  0  0  0  0  0  0  0  0  0  0
    5.5430    1.7230  -59.8170 C   0  0  0  0  0  0  0  0  0  0  0  0
    5.3790    1.9000  -58.4960 C   0  0  0  0  0  0  0  0  0  0  0  0
    6.4960    2.2080  -57.5490 C   0  0  0  0  0  0  0  0  0  0  0  0
    6.2250    1.5940  -56.2640 N   0  0  0  0  0  0  0  0  0  0  0  0
    7.0930    0.9910  -55.5450 C   0  0  0  0  0  0  0  0  0  0  0  0
    6.5620    0.3910  -54.4200 N   0  0  0  0  0  0  0  0  0  0  0  0
    7.0100   -0.7110  -54.0330 N   0  0  0  0  0  0  0  0  0  0  0  0
    8.2250   -1.1890  -54.4410 C   0  0  0  0  0  0  0  0  0  0  0  0
    8.6720   -2.3990  -54.0430 C   0  0  0  0  0  0  0  0  0  0  0  0
   10.0340   -2.8190  -54.3230 C   0  0  0  0  0  0  0  0  0  0  0  0
   10.8670   -1.9350  -54.8940 C   0  0  0  0  0  0  0  0  0  0  0  0
   10.4460   -0.6800  -55.2650 N   0  0  0  0  0  0  0  0  0  0  0  0
    9.1110   -0.2790  -55.1830 C   0  0  0  0  0  0  0  0  0  0  0  0
    8.5800    0.8470  -55.7030 C   0  0  0  0  0  0  0  0  0  0  0  0
    9.4260    1.8640  -56.3520 C   0  0  0  0  0  0  0  0  0  0  0  0
    9.5610    3.1530  -55.8130 C   0  0  0  0  0  0  0  0  0  0  0  0
   10.3290    4.1180  -56.4700 C   0  0  0  0  0  0  0  0  0  0  0  0
   10.9700    3.7950  -57.6640 C   0  0  0  0  0  0  0  0  0  0  0  0
   12.0270    5.0930  -58.5400 Br  0  0  0  0  0  0  0  0  0  0  0  0
   10.8480    2.5190  -58.2100 C   0  0  0  0  0  0  0  0  0  0  0  0
   10.0740    1.5560  -57.5560 C   0  0  0  0  0  0  0  0  0  0  0  0
    6.8030    1.7830  -60.3810 O   0  0  0  0  0  0  0  0  0  0  0  0
    9.0023    3.2088  -60.1033 H   0  0  0  0  0  0  0  0  0  0  0  0
   10.2834    3.0598  -61.3536 H   0  0  0  0  0  0  0  0  0  0  0  0
    9.1897    4.4848  -61.3536 H   0  0  0  0  0  0  0  0  0  0  0  0
    8.2873    3.1376  -63.0524 H   0  0  0  0  0  0  0  0  0  0  0  0
    8.6170    1.6118  -62.1229 H   0  0  0  0  0  0  0  0  0  0  0  0
    6.5812    3.6867  -61.1966 H   0  0  0  0  0  0  0  0  0  0  0  0
    5.8947    2.9583  -63.4284 H   0  0  0  0  0  0  0  0  0  0  0  0
    6.1112    1.2382  -62.9527 H   0  0  0  0  0  0  0  0  0  0  0  0
    4.1532    3.2550  -61.7326 H   0  0  0  0  0  0  0  0  0  0  0  0
    2.5484    1.3157  -62.5114 H   0  0  0  0  0  0  0  0  0  0  0  0
    3.1004    2.5796  -63.6623 H   0  0  0  0  0  0  0  0  0  0  0  0
    3.8814    0.9619  -63.6623 H   0  0  0  0  0  0  0  0  0  0  0  0
    3.4595    1.5022  -60.2234 H   0  0  0  0  0  0  0  0  0  0  0  0
    4.5376    0.3054  -61.0442 H   0  0  0  0  0  0  0  0  0  0  0  0
    4.3623    1.8134  -58.0852 H   0  0  0  0  0  0  0  0  0  0  0  0
    7.4390    1.8112  -57.9531 H   0  0  0  0  0  0  0  0  0  0  0  0
    6.5798    3.2976  -57.4237 H   0  0  0  0  0  0  0  0  0  0  0  0
    7.9961   -3.0757  -53.4996 H   0  0  0  0  0  0  0  0  0  0  0  0
   10.3739   -3.8350  -54.0736 H   0  0  0  0  0  0  0  0  0  0  0  0
   11.9142   -2.2223  -55.0698 H   0  0  0  0  0  0  0  0  0  0  0  0
   11.1050   -0.0740  -55.7410 H   0  0  0  0  0  0  0  0  0  0  0  0
    9.0590    3.4052  -54.8673 H   0  0  0  0  0  0  0  0  0  0  0  0
   10.4270    5.1284  -56.0462 H   0  0  0  0  0  0  0  0  0  0  0  0
   11.3587    2.2703  -59.1520 H   0  0  0  0  0  0  0  0  0  0  0  0
    9.9729    0.5499  -57.9891 H   0  0  0  0  0  0  0  0  0  0  0  0
  1  2  1  0
  2  3  1  0
  3  4  1  0
  4  5  1  0
  5  6  1  0
  5  7  1  0
  7  8  1  0
  8  9  2  0
  9 10  1  0
 10 11  1  0
 11 12  2  0
 12 13  1  0
 13 14  2  0
 14 15  1  0
 15 16  2  0
 16 17  1  0
 17 18  2  0
 18 19  1  0
 19 20  1  0
 20 21  2  0
 21 22  1  0
 22 23  1  0
 23 24  2  0
 24 25  1  0
 25 26  1  0
 25 27  2  0
 27 28  1  0
  8 29  1  0
 29  3  1  0
 21 12  1  0
 28 22  2  0
 20 15  1  0
  1 30  1  0
  1 31  1  0
  1 32  1  0
  2 33  1  0
  2 34  1  0
  3 35  1  1
  4 36  1  0
  4 37  1  0
  5 38  1  1
  6 39  1  0
  6 40  1  0
  6 41  1  0
  7 42  1  0
  7 43  1  0
  9 44  1  0
 10 45  1  0
 10 46  1  0
 16 47  1  0
 17 48  1  0
 18 49  1  0
 19 50  1  0
 23 51  1  0
 24 52  1  0
 27 53  1  0
 28 54  1  0
M  END
>  <meeko>  (240) 
{"is_sidechain": false}

$$$$

     RDKit          3D

 60 64  0  0  0  0  0  0  0  0999 V2000
    5.7300   -4.1250  -50.5450 C   0  0  0  0  0  0  0  0  0  0  0  0
    6.7510   -3.4700  -51.4370 C   0  0  0  0  0  0  0  0  0  0  0  0
    6.5480   -2.0420  -51.7790 C   0  0  0  0  0  0  0  0  0  0  0  0
    7.4320   -1.4880  -52.6190 C   0  0  0  0  0  0  0  0  0  0  0  0
    7.3510   -0.1600  -52.9270 N   0  0  0  0  0  0  0  0  0  0  0  0
    8.0840    0.3890  -53.7730 N   0  0  0  0  0  0  0  0  0  0  0  0
    8.9460   -0.3440  -54.5540 C   0  0  0  0  0  0  0  0  0  0  0  0
    9.4280    0.1220  -55.6580 N   0  0  0  0  0  0  0  0  0  0  0  0
    9.0280    1.4610  -56.0890 C   0  0  0  0  0  0  0  0  0  0  0  0
   10.2600    2.2630  -56.3660 C   0  0  0  0  0  0  0  0  0  0  0  0
   10.5000    2.9640  -57.4860 C   0  0  0  0  0  0  0  0  0  0  0  0
   11.7870    3.7190  -57.6930 C   0  0  0  0  0  0  0  0  0  0  0  0
   12.1330    3.7590  -59.1800 C   0  0  2  0  0  0  0  0  0  0  0  0
   13.4490    4.4920  -59.4280 C   0  0  0  0  0  0  0  0  0  0  0  0
   10.9860    4.4010  -59.9680 C   0  0  0  0  0  0  0  0  0  0  0  0
    9.5970    4.0850  -59.3890 C   0  0  2  0  0  0  0  0  0  0  0  0
    8.9450    5.2850  -58.7020 C   0  0  0  0  0  0  0  0  0  0  0  0
    9.5890    2.9420  -58.5250 O   0  0  0  0  0  0  0  0  0  0  0  0
    9.3460   -1.7050  -54.0740 C   0  0  0  0  0  0  0  0  0  0  0  0
   10.5640   -2.3220  -54.7290 C   0  0  2  0  0  0  0  0  0  0  0  0
   11.0390   -1.5890  -55.9930 C   0  0  0  0  0  0  0  0  0  0  0  0
   11.9710   -2.5960  -56.6630 C   0  0  0  0  0  0  0  0  0  0  0  0
   11.3350   -3.9290  -56.3630 C   0  0  0  0  0  0  0  0  0  0  0  0
   12.1060   -5.2050  -56.6010 C   0  0  0  0  0  0  0  0  0  0  0  0
   10.9520   -4.8570  -57.4940 C   0  0  0  0  0  0  0  0  0  0  0  0
   10.4240   -3.8000  -55.1620 C   0  0  0  0  0  0  0  0  0  0  0  0
    8.5380   -2.2670  -53.1540 C   0  0  0  0  0  0  0  0  0  0  0  0
    8.6520   -3.5550  -52.6540 N   0  0  0  0  0  0  0  0  0  0  0  0
    7.7520   -4.1860  -51.8500 N   0  0  0  0  0  0  0  0  0  0  0  0
    5.9985   -3.9528  -49.4923 H   0  0  0  0  0  0  0  0  0  0  0  0
    4.7378   -3.6944  -50.7455 H   0  0  0  0  0  0  0  0  0  0  0  0
    5.7078   -5.2063  -50.7455 H   0  0  0  0  0  0  0  0  0  0  0  0
    5.7100   -1.4640  -51.3622 H   0  0  0  0  0  0  0  0  0  0  0  0
    8.4195    1.3896  -57.0026 H   0  0  0  0  0  0  0  0  0  0  0  0
    8.4336    1.9467  -55.3011 H   0  0  0  0  0  0  0  0  0  0  0  0
   11.0353    2.2800  -55.5859 H   0  0  0  0  0  0  0  0  0  0  0  0
   11.6715    4.7465  -57.3177 H   0  0  0  0  0  0  0  0  0  0  0  0
   12.5960    3.2122  -57.1465 H   0  0  0  0  0  0  0  0  0  0  0  0
   12.2668    2.7254  -59.5317 H   0  0  0  0  0  0  0  0  0  0  0  0
   13.9123    4.7500  -58.4642 H   0  0  0  0  0  0  0  0  0  0  0  0
   14.1285    3.8424  -59.9992 H   0  0  0  0  0  0  0  0  0  0  0  0
   13.2544    5.4117  -59.9992 H   0  0  0  0  0  0  0  0  0  0  0  0
   11.1265    5.4920  -59.9622 H   0  0  0  0  0  0  0  0  0  0  0  0
   11.0169    3.9839  -60.9854 H   0  0  0  0  0  0  0  0  0  0  0  0
    8.9844    3.8344  -60.2676 H   0  0  0  0  0  0  0  0  0  0  0  0
    9.0111    5.1633  -57.6108 H   0  0  0  0  0  0  0  0  0  0  0  0
    9.4665    6.2064  -59.0005 H   0  0  0  0  0  0  0  0  0  0  0  0
    7.8882    5.3488  -59.0005 H   0  0  0  0  0  0  0  0  0  0  0  0
   11.2856   -2.2343  -53.9034 H   0  0  0  0  0  0  0  0  0  0  0  0
   10.1896   -1.3441  -56.6476 H   0  0  0  0  0  0  0  0  0  0  0  0
   11.5326   -0.6312  -55.7717 H   0  0  0  0  0  0  0  0  0  0  0  0
   12.0219   -2.4213  -57.7478 H   0  0  0  0  0  0  0  0  0  0  0  0
   13.0061   -2.5265  -56.2973 H   0  0  0  0  0  0  0  0  0  0  0  0
   13.1340   -5.1610  -56.9899 H   0  0  0  0  0  0  0  0  0  0  0  0
   12.3751   -6.0754  -55.9846 H   0  0  0  0  0  0  0  0  0  0  0  0
   11.1347   -4.5574  -58.5365 H   0  0  0  0  0  0  0  0  0  0  0  0
   10.0267   -5.3661  -57.8018 H   0  0  0  0  0  0  0  0  0  0  0  0
    9.3835   -4.0281  -55.4366 H   0  0  0  0  0  0  0  0  0  0  0  0
   10.6912   -4.4997  -54.3564 H   0  0  0  0  0  0  0  0  0  0  0  0
    9.3810   -4.1430  -53.0520 H   0  0  0  0  0  0  0  0  0  0  0  0
  1  2  1  0
  2  3  1  0
  3  4  2  0
  4  5  1  0
  5  6  2  0
  6  7  1  0
  7  8  2  0
  8  9  1  0
  9 10  1  0
 10 11  2  0
 11 12  1  0
 12 13  1  0
 13 14  1  0
 13 15  1  0
 15 16  1  0
 16 17  1  0
 16 18  1  0
  7 19  1  0
 19 20  1  0
 20 21  1  0
 21 22  1  0
 22 23  1  0
 23 24  1  0
 24 25  1  0
 23 26  1  0
 19 27  2  0
 27 28  1  0
 28 29  1  0
 29  2  2  0
 27  4  1  0
 18 11  1  0
 26 20  1  0
 25 23  1  0
  1 30  1  0
  1 31  1  0
  1 32  1  0
  3 33  1  0
  9 34  1  0
  9 35  1  0
 10 36  1  0
 12 37  1  0
 12 38  1  0
 13 39  1  6
 14 40  1  0
 14 41  1  0
 14 42  1  0
 15 43  1  0
 15 44  1  0
 16 45  1  6
 17 46  1  0
 17 47  1  0
 17 48  1  0
 20 49  1  1
 21 50  1  0
 21 51  1  0
 22 52  1  0
 22 53  1  0
 24 54  1  0
 24 55  1  0
 25 56  1  0
 25 57  1  0
 26 58  1  0
 26 59  1  0
 28 60  1  0
M  END
>  <meeko>  (241) 
{"is_sidechain": false}

$$$$

     RDKit          3D

 60 64  0  0  0  0  0  0  0  0999 V2000
   12.5090   -5.7400  -56.9670 C   0  0  0  0  0  0  0  0  0  0  0  0
   11.7760   -4.6090  -56.2940 C   0  0  0  0  0  0  0  0  0  0  0  0
   11.9890   -3.2420  -56.8230 C   0  0  0  0  0  0  0  0  0  0  0  0
   11.2900   -2.2530  -56.2490 C   0  0  0  0  0  0  0  0  0  0  0  0
   11.4810   -0.9580  -56.6390 N   0  0  0  0  0  0  0  0  0  0  0  0
   10.8000   -0.0070  -56.2080 N   0  0  0  0  0  0  0  0  0  0  0  0
    9.7170   -0.2200  -55.3850 C   0  0  0  0  0  0  0  0  0  0  0  0
    8.8100    0.6870  -55.2240 N   0  0  0  0  0  0  0  0  0  0  0  0
    8.9940    1.9440  -55.9490 C   0  0  0  0  0  0  0  0  0  0  0  0
    7.7230    2.2220  -56.6920 C   0  0  0  0  0  0  0  0  0  0  0  0
    7.6370    2.6690  -57.9560 C   0  0  0  0  0  0  0  0  0  0  0  0
    6.3130    2.9230  -58.6300 C   0  0  0  0  0  0  0  0  0  0  0  0
    6.2540    2.2720  -60.0200 C   0  0  2  0  0  0  0  0  0  0  0  0
    5.8010    0.8120  -59.9380 C   0  0  0  0  0  0  0  0  0  0  0  0
    7.6010    2.3840  -60.7590 C   0  0  0  0  0  0  0  0  0  0  0  0
    8.5600    3.3360  -60.0380 C   0  0  2  0  0  0  0  0  0  0  0  0
    9.9110    3.3830  -60.7400 C   0  0  0  0  0  0  0  0  0  0  0  0
    8.7870    2.8830  -58.6960 O   0  0  0  0  0  0  0  0  0  0  0  0
    9.6200   -1.5270  -54.6630 C   0  0  0  0  0  0  0  0  0  0  0  0
    8.6350   -1.5910  -53.5140 C   0  0  1  0  0  0  0  0  0  0  0  0
    7.4320   -2.5130  -53.7680 C   0  0  0  0  0  0  0  0  0  0  0  0
    6.8410   -2.7240  -52.3760 C   0  0  0  0  0  0  0  0  0  0  0  0
    8.0490   -2.7490  -51.4750 C   0  0  0  0  0  0  0  0  0  0  0  0
    8.3090   -3.9500  -50.5920 C   0  0  0  0  0  0  0  0  0  0  0  0
    7.8760   -2.6510  -49.9780 C   0  0  0  0  0  0  0  0  0  0  0  0
    9.2090   -2.0580  -52.1560 C   0  0  0  0  0  0  0  0  0  0  0  0
   10.3750   -2.5290  -55.1520 C   0  0  0  0  0  0  0  0  0  0  0  0
   10.3620   -3.8430  -54.7070 N   0  0  0  0  0  0  0  0  0  0  0  0
   11.0040   -4.8930  -55.2870 N   0  0  0  0  0  0  0  0  0  0  0  0
   12.9394   -6.4041  -56.2030 H   0  0  0  0  0  0  0  0  0  0  0  0
   11.8077   -6.3094  -57.5947 H   0  0  0  0  0  0  0  0  0  0  0  0
   13.3151   -5.3324  -57.5947 H   0  0  0  0  0  0  0  0  0  0  0  0
   12.6888   -3.0475  -57.6491 H   0  0  0  0  0  0  0  0  0  0  0  0
    9.2018    2.7597  -55.2409 H   0  0  0  0  0  0  0  0  0  0  0  0
    9.8429    1.8708  -56.6447 H   0  0  0  0  0  0  0  0  0  0  0  0
    6.7787    2.0448  -56.1563 H   0  0  0  0  0  0  0  0  0  0  0  0
    5.5086    2.5064  -58.0059 H   0  0  0  0  0  0  0  0  0  0  0  0
    6.1913    4.0094  -58.7526 H   0  0  0  0  0  0  0  0  0  0  0  0
    5.5041    2.8278  -60.6020 H   0  0  0  0  0  0  0  0  0  0  0  0
    5.7090    0.5154  -58.8828 H   0  0  0  0  0  0  0  0  0  0  0  0
    4.8265    0.7019  -60.4362 H   0  0  0  0  0  0  0  0  0  0  0  0
    6.5421    0.1696  -60.4362 H   0  0  0  0  0  0  0  0  0  0  0  0
    8.0620    1.3868  -60.8146 H   0  0  0  0  0  0  0  0  0  0  0  0
    7.4099    2.7841  -61.7657 H   0  0  0  0  0  0  0  0  0  0  0  0
    8.0984    4.3345  -60.0423 H   0  0  0  0  0  0  0  0  0  0  0  0
   10.7139    3.4109  -59.9886 H   0  0  0  0  0  0  0  0  0  0  0  0
   10.0286    2.4884  -61.3692 H   0  0  0  0  0  0  0  0  0  0  0  0
    9.9661    4.2836  -61.3692 H   0  0  0  0  0  0  0  0  0  0  0  0
    8.3412   -0.5325  -53.4577 H   0  0  0  0  0  0  0  0  0  0  0  0
    6.7023   -2.0316  -54.4356 H   0  0  0  0  0  0  0  0  0  0  0  0
    7.7125   -3.4557  -54.2606 H   0  0  0  0  0  0  0  0  0  0  0  0
    6.1676   -1.8971  -52.1063 H   0  0  0  0  0  0  0  0  0  0  0  0
    6.2364   -3.6401  -52.3040 H   0  0  0  0  0  0  0  0  0  0  0  0
    7.6185   -4.8060  -50.6112 H   0  0  0  0  0  0  0  0  0  0  0  0
    9.1560   -4.6358  -50.4427 H   0  0  0  0  0  0  0  0  0  0  0  0
    6.8685   -2.5564  -49.5468 H   0  0  0  0  0  0  0  0  0  0  0  0
    8.2756   -1.9930  -49.1923 H   0  0  0  0  0  0  0  0  0  0  0  0
    9.5528   -1.1981  -51.5623 H   0  0  0  0  0  0  0  0  0  0  0  0
   10.0801   -2.7192  -52.2741 H   0  0  0  0  0  0  0  0  0  0  0  0
    9.6930   -4.0790  -53.9780 H   0  0  0  0  0  0  0  0  0  0  0  0
  1  2  1  0
  2  3  1  0
  3  4  2  0
  4  5  1  0
  5  6  2  0
  6  7  1  0
  7  8  2  0
  8  9  1  0
  9 10  1  0
 10 11  2  0
 11 12  1  0
 12 13  1  0
 13 14  1  0
 13 15  1  0
 15 16  1  0
 16 17  1  0
 16 18  1  0
  7 19  1  0
 19 20  1  0
 20 21  1  0
 21 22  1  0
 22 23  1  0
 23 24  1  0
 24 25  1  0
 23 26  1  0
 19 27  2  0
 27 28  1  0
 28 29  1  0
 29  2  2  0
 27  4  1  0
 18 11  1  0
 26 20  1  0
 25 23  1  0
  1 30  1  0
  1 31  1  0
  1 32  1  0
  3 33  1  0
  9 34  1  0
  9 35  1  0
 10 36  1  0
 12 37  1  0
 12 38  1  0
 13 39  1  6
 14 40  1  0
 14 41  1  0
 14 42  1  0
 15 43  1  0
 15 44  1  0
 16 45  1  1
 17 46  1  0
 17 47  1  0
 17 48  1  0
 20 49  1  1
 21 50  1  0
 21 51  1  0
 22 52  1  0
 22 53  1  0
 24 54  1  0
 24 55  1  0
 25 56  1  0
 25 57  1  0
 26 58  1  0
 26 59  1  0
 28 60  1  0
M  END
>  <meeko>  (242) 
{"is_sidechain": false}

$$$$

     RDKit          3D

 60 64  0  0  0  0  0  0  0  0999 V2000
   12.0310    5.9890  -59.5900 C   0  0  0  0  0  0  0  0  0  0  0  0
   10.9260    5.0840  -59.1490 C   0  0  0  0  0  0  0  0  0  0  0  0
   11.0040    4.3780  -57.9660 C   0  0  0  0  0  0  0  0  0  0  0  0
    9.9600    3.5490  -57.5920 C   0  0  0  0  0  0  0  0  0  0  0  0
   10.0510    2.8650  -56.4530 N   0  0  0  0  0  0  0  0  0  0  0  0
    9.0470    2.0180  -56.0940 N   0  0  0  0  0  0  0  0  0  0  0  0
    7.9430    1.8520  -56.8540 C   0  0  0  0  0  0  0  0  0  0  0  0
    6.9930    0.9060  -56.4550 N   0  0  0  0  0  0  0  0  0  0  0  0
    6.4760    0.9860  -55.0900 C   0  0  0  0  0  0  0  0  0  0  0  0
    6.3540   -0.4020  -54.5430 C   0  0  0  0  0  0  0  0  0  0  0  0
    7.3500   -1.2970  -54.4480 C   0  0  0  0  0  0  0  0  0  0  0  0
    7.1410   -2.6730  -53.8710 C   0  0  0  0  0  0  0  0  0  0  0  0
    8.2150   -3.0170  -52.8280 C   0  0  2  0  0  0  0  0  0  0  0  0
    7.8370   -2.4960  -51.4390 C   0  0  0  0  0  0  0  0  0  0  0  0
    9.6020   -2.4940  -53.2460 C   0  0  0  0  0  0  0  0  0  0  0  0
    9.6040   -2.0010  -54.6960 C   0  0  2  0  0  0  0  0  0  0  0  0
   10.9610   -1.4200  -55.0730 C   0  0  0  0  0  0  0  0  0  0  0  0
    8.6280   -0.9610  -54.8630 O   0  0  0  0  0  0  0  0  0  0  0  0
    7.7740    2.6040  -58.0210 C   0  0  0  0  0  0  0  0  0  0  0  0
    6.5350    2.6060  -58.9120 C   0  0  2  0  0  0  0  0  0  0  0  0
    5.2130    2.5560  -58.1120 C   0  0  0  0  0  0  0  0  0  0  0  0
    4.1310    2.4250  -59.1900 C   0  0  0  0  0  0  0  0  0  0  0  0
    4.8090    1.6550  -60.2930 C   0  0  0  0  0  0  0  0  0  0  0  0
    4.3710    1.8470  -61.7270 C   0  0  0  0  0  0  0  0  0  0  0  0
    4.0740    0.5550  -61.0230 C   0  0  0  0  0  0  0  0  0  0  0  0
    6.2730    1.4930  -59.9520 C   0  0  0  0  0  0  0  0  0  0  0  0
    8.8380    3.4470  -58.4150 C   0  0  0  0  0  0  0  0  0  0  0  0
    8.8120    4.1500  -59.5660 N   0  0  0  0  0  0  0  0  0  0  0  0
    9.8490    4.9710  -59.9390 N   0  0  0  0  0  0  0  0  0  0  0  0
   12.5387    6.4048  -58.7072 H   0  0  0  0  0  0  0  0  0  0  0  0
   12.7528    5.4192  -60.1936 H   0  0  0  0  0  0  0  0  0  0  0  0
   11.6146    6.8089  -60.1936 H   0  0  0  0  0  0  0  0  0  0  0  0
   11.8914    4.4734  -57.3231 H   0  0  0  0  0  0  0  0  0  0  0  0
    7.3690   -0.0210  -56.6280 H   0  0  0  0  0  0  0  0  0  0  0  0
    7.1674    1.5709  -54.4656 H   0  0  0  0  0  0  0  0  0  0  0  0
    5.4921    1.4779  -55.0892 H   0  0  0  0  0  0  0  0  0  0  0  0
    5.3614   -0.7161  -54.1878 H   0  0  0  0  0  0  0  0  0  0  0  0
    6.1518   -2.7127  -53.3915 H   0  0  0  0  0  0  0  0  0  0  0  0
    7.2097   -3.4040  -54.6901 H   0  0  0  0  0  0  0  0  0  0  0  0
    8.2703   -4.1144  -52.7757 H   0  0  0  0  0  0  0  0  0  0  0  0
    8.2990   -3.1328  -50.6703 H   0  0  0  0  0  0  0  0  0  0  0  0
    8.1971   -1.4630  -51.3243 H   0  0  0  0  0  0  0  0  0  0  0  0
    6.7432   -2.5178  -51.3243 H   0  0  0  0  0  0  0  0  0  0  0  0
    9.8836   -1.6610  -52.5851 H   0  0  0  0  0  0  0  0  0  0  0  0
   10.3218   -3.3216  -53.1625 H   0  0  0  0  0  0  0  0  0  0  0  0
    9.3731   -2.8639  -55.3379 H   0  0  0  0  0  0  0  0  0  0  0  0
   11.5235   -1.1792  -54.1589 H   0  0  0  0  0  0  0  0  0  0  0  0
   11.5231   -2.1563  -55.6662 H   0  0  0  0  0  0  0  0  0  0  0  0
   10.8161   -0.5050  -55.6662 H   0  0  0  0  0  0  0  0  0  0  0  0
    6.7971    3.5348  -59.4399 H   0  0  0  0  0  0  0  0  0  0  0  0
    5.1980    1.6886  -57.4357 H   0  0  0  0  0  0  0  0  0  0  0  0
    5.0704    3.4412  -57.4748 H   0  0  0  0  0  0  0  0  0  0  0  0
    3.2605    1.8733  -58.8056 H   0  0  0  0  0  0  0  0  0  0  0  0
    3.7479    3.3996  -59.5268 H   0  0  0  0  0  0  0  0  0  0  0  0
    3.5538    2.5445  -61.9632 H   0  0  0  0  0  0  0  0  0  0  0  0
    4.8779    2.1224  -62.6636 H   0  0  0  0  0  0  0  0  0  0  0  0
    3.0393    0.3067  -60.7440 H   0  0  0  0  0  0  0  0  0  0  0  0
    4.2736   -0.5065  -61.2315 H   0  0  0  0  0  0  0  0  0  0  0  0
    6.4673    0.5000  -59.5205 H   0  0  0  0  0  0  0  0  0  0  0  0
    6.9263    1.5723  -60.8335 H   0  0  0  0  0  0  0  0  0  0  0  0
  1  2  1  0
  2  3  1  0
  3  4  2  0
  4  5  1  0
  5  6  2  0
  6  7  1  0
  7  8  1  0
  8  9  1  0
  9 10  1  0
 10 11  2  0
 11 12  1  0
 12 13  1  0
 13 14  1  0
 13 15  1  0
 15 16  1  0
 16 17  1  0
 16 18  1  0
  7 19  2  0
 19 20  1  0
 20 21  1  0
 21 22  1  0
 22 23  1  0
 23 24  1  0
 24 25  1  0
 23 26  1  0
 19 27  1  0
 27 28  2  0
 28 29  1  0
 29  2  2  0
 27  4  1  0
 18 11  1  0
 26 20  1  0
 25 23  1  0
  1 30  1  0
  1 31  1  0
  1 32  1  0
  3 33  1  0
  8 34  1  0
  9 35  1  0
  9 36  1  0
 10 37  1  0
 12 38  1  0
 12 39  1  0
 13 40  1  1
 14 41  1  0
 14 42  1  0
 14 43  1  0
 15 44  1  0
 15 45  1  0
 16 46  1  6
 17 47  1  0
 17 48  1  0
 17 49  1  0
 20 50  1  6
 21 51  1  0
 21 52  1  0
 22 53  1  0
 22 54  1  0
 24 55  1  0
 24 56  1  0
 25 57  1  0
 25 58  1  0
 26 59  1  0
 26 60  1  0
M  END
>  <meeko>  (243) 
{"is_sidechain": false}

$$$$

     RDKit          3D

 60 64  0  0  0  0  0  0  0  0999 V2000
    4.4140    2.0070  -63.0100 C   0  0  0  0  0  0  0  0  0  0  0  0
    5.3630    2.1940  -61.8710 C   0  0  0  0  0  0  0  0  0  0  0  0
    5.0110    1.8600  -60.5790 C   0  0  0  0  0  0  0  0  0  0  0  0
    5.9190    2.0460  -59.5510 C   0  0  0  0  0  0  0  0  0  0  0  0
    5.5720    1.7110  -58.3100 N   0  0  0  0  0  0  0  0  0  0  0  0
    6.4700    1.8580  -57.2960 N   0  0  0  0  0  0  0  0  0  0  0  0
    7.7090    2.3540  -57.5020 C   0  0  0  0  0  0  0  0  0  0  0  0
    8.6060    2.4010  -56.4230 N   0  0  0  0  0  0  0  0  0  0  0  0
    9.3310    1.1730  -56.1050 C   0  0  0  0  0  0  0  0  0  0  0  0
    8.6060    0.4580  -55.0070 C   0  0  0  0  0  0  0  0  0  0  0  0
    9.0640   -0.6270  -54.3640 C   0  0  0  0  0  0  0  0  0  0  0  0
    8.2720   -1.3470  -53.3130 C   0  0  0  0  0  0  0  0  0  0  0  0
    8.0290   -2.8010  -53.7310 C   0  0  2  0  0  0  0  0  0  0  0  0
    7.7910   -3.6850  -52.5050 C   0  0  0  0  0  0  0  0  0  0  0  0
    9.1600   -3.3420  -54.6200 C   0  0  0  0  0  0  0  0  0  0  0  0
   10.4710   -2.5540  -54.5080 C   0  0  2  0  0  0  0  0  0  0  0  0
   11.2520   -2.8380  -53.2280 C   0  0  0  0  0  0  0  0  0  0  0  0
   10.3110   -1.1360  -54.6690 O   0  0  0  0  0  0  0  0  0  0  0  0
    8.0950    2.7720  -58.7800 C   0  0  0  0  0  0  0  0  0  0  0  0
    9.4220    3.4340  -59.1400 C   0  0  1  0  0  0  0  0  0  0  0  0
    9.4080    4.9670  -58.9450 C   0  0  0  0  0  0  0  0  0  0  0  0
   10.8530    5.3900  -59.2280 C   0  0  0  0  0  0  0  0  0  0  0  0
   11.6730    4.2050  -58.7890 C   0  0  0  0  0  0  0  0  0  0  0  0
   13.0030    3.9190  -59.4490 C   0  0  0  0  0  0  0  0  0  0  0  0
   12.9630    4.4030  -58.0280 C   0  0  0  0  0  0  0  0  0  0  0  0
   10.7410    3.0730  -58.4200 C   0  0  0  0  0  0  0  0  0  0  0  0
    7.1780    2.5780  -59.8360 C   0  0  0  0  0  0  0  0  0  0  0  0
    7.4790    2.8800  -61.1160 N   0  0  0  0  0  0  0  0  0  0  0  0
    6.5790    2.6930  -62.1370 N   0  0  0  0  0  0  0  0  0  0  0  0
    3.4055    1.8083  -62.6182 H   0  0  0  0  0  0  0  0  0  0  0  0
    4.3953    2.9187  -63.6251 H   0  0  0  0  0  0  0  0  0  0  0  0
    4.7426    1.1563  -63.6251 H   0  0  0  0  0  0  0  0  0  0  0  0
    4.0134    1.4478  -60.3672 H   0  0  0  0  0  0  0  0  0  0  0  0
    9.2630    3.1550  -56.6020 H   0  0  0  0  0  0  0  0  0  0  0  0
    9.3793    0.5303  -56.9964 H   0  0  0  0  0  0  0  0  0  0  0  0
   10.3546    1.4148  -55.7828 H   0  0  0  0  0  0  0  0  0  0  0  0
    7.6243    0.8518  -54.7049 H   0  0  0  0  0  0  0  0  0  0  0  0
    8.8289   -1.3306  -52.3646 H   0  0  0  0  0  0  0  0  0  0  0  0
    7.3016   -0.8438  -53.1898 H   0  0  0  0  0  0  0  0  0  0  0  0
    7.1157   -2.8247  -54.3436 H   0  0  0  0  0  0  0  0  0  0  0  0
    7.9500   -3.0944  -51.5907 H   0  0  0  0  0  0  0  0  0  0  0  0
    6.7587   -4.0645  -52.5215 H   0  0  0  0  0  0  0  0  0  0  0  0
    8.4932   -4.5315  -52.5215 H   0  0  0  0  0  0  0  0  0  0  0  0
    9.3575   -4.3852  -54.3323 H   0  0  0  0  0  0  0  0  0  0  0  0
    8.8194   -3.2478  -55.6617 H   0  0  0  0  0  0  0  0  0  0  0  0
   11.0616   -2.9277  -55.3574 H   0  0  0  0  0  0  0  0  0  0  0  0
   10.6222   -2.6090  -52.3557 H   0  0  0  0  0  0  0  0  0  0  0  0
   11.5414   -3.8989  -53.2028 H   0  0  0  0  0  0  0  0  0  0  0  0
   12.1553   -2.2108  -53.2028 H   0  0  0  0  0  0  0  0  0  0  0  0
    9.4531    3.0327  -60.1637 H   0  0  0  0  0  0  0  0  0  0  0  0
    8.7149    5.4449  -59.6530 H   0  0  0  0  0  0  0  0  0  0  0  0
    9.0692    5.2629  -57.9412 H   0  0  0  0  0  0  0  0  0  0  0  0
   10.9988    5.5908  -60.2997 H   0  0  0  0  0  0  0  0  0  0  0  0
   11.1332    6.3158  -58.7041 H   0  0  0  0  0  0  0  0  0  0  0  0
   13.2959    2.8816  -59.6682 H   0  0  0  0  0  0  0  0  0  0  0  0
   13.5012    4.2550  -60.3704 H   0  0  0  0  0  0  0  0  0  0  0  0
   13.2271    3.7198  -57.2074 H   0  0  0  0  0  0  0  0  0  0  0  0
   13.4203    5.2398  -57.4798 H   0  0  0  0  0  0  0  0  0  0  0  0
   11.1327    2.1098  -58.7788 H   0  0  0  0  0  0  0  0  0  0  0  0
   10.6161    2.9612  -57.3328 H   0  0  0  0  0  0  0  0  0  0  0  0
  1  2  1  0
  2  3  1  0
  3  4  2  0
  4  5  1  0
  5  6  2  0
  6  7  1  0
  7  8  1  0
  8  9  1  0
  9 10  1  0
 10 11  2  0
 11 12  1  0
 12 13  1  0
 13 14  1  0
 13 15  1  0
 15 16  1  0
 16 17  1  0
 16 18  1  0
  7 19  2  0
 19 20  1  0
 20 21  1  0
 21 22  1  0
 22 23  1  0
 23 24  1  0
 24 25  1  0
 23 26  1  0
 19 27  1  0
 27 28  2  0
 28 29  1  0
 29  2  2  0
 27  4  1  0
 18 11  1  0
 26 20  1  0
 25 23  1  0
  1 30  1  0
  1 31  1  0
  1 32  1  0
  3 33  1  0
  8 34  1  0
  9 35  1  0
  9 36  1  0
 10 37  1  0
 12 38  1  0
 12 39  1  0
 13 40  1  6
 14 41  1  0
 14 42  1  0
 14 43  1  0
 15 44  1  0
 15 45  1  0
 16 46  1  6
 17 47  1  0
 17 48  1  0
 17 49  1  0
 20 50  1  6
 21 51  1  0
 21 52  1  0
 22 53  1  0
 22 54  1  0
 24 55  1  0
 24 56  1  0
 25 57  1  0
 25 58  1  0
 26 59  1  0
 26 60  1  0
M  END
>  <meeko>  (244) 
{"is_sidechain": false}

$$$$

     RDKit          3D

 60 64  0  0  0  0  0  0  0  0999 V2000
    5.9640   -4.1110  -50.5640 C   0  0  0  0  0  0  0  0  0  0  0  0
    6.7690   -3.3630  -51.5870 C   0  0  0  0  0  0  0  0  0  0  0  0
    6.4390   -2.1210  -51.9560 C   0  0  0  0  0  0  0  0  0  0  0  0
    7.2820   -1.4600  -52.9650 C   0  0  0  0  0  0  0  0  0  0  0  0
    6.9830   -0.2540  -53.3390 N   0  0  0  0  0  0  0  0  0  0  0  0
    7.8170    0.2710  -54.2720 N   0  0  0  0  0  0  0  0  0  0  0  0
    8.9160   -0.3530  -54.8340 C   0  0  0  0  0  0  0  0  0  0  0  0
    9.6840    0.1780  -55.7270 N   0  0  0  0  0  0  0  0  0  0  0  0
    9.4280    1.5280  -56.2090 C   0  0  0  0  0  0  0  0  0  0  0  0
   10.7200    2.0750  -56.7280 C   0  0  0  0  0  0  0  0  0  0  0  0
   10.8900    3.2950  -57.2630 C   0  0  0  0  0  0  0  0  0  0  0  0
   12.2300    3.8180  -57.7070 C   0  0  0  0  0  0  0  0  0  0  0  0
   12.1450    4.4140  -59.1170 C   0  0  2  0  0  0  0  0  0  0  0  0
   13.4460    5.1140  -59.4980 C   0  0  0  0  0  0  0  0  0  0  0  0
   10.9540    5.3770  -59.1930 C   0  0  0  0  0  0  0  0  0  0  0  0
    9.6830    4.6660  -58.7200 C   0  0  2  0  0  0  0  0  0  0  0  0
    8.4930    5.6170  -58.7290 C   0  0  0  0  0  0  0  0  0  0  0  0
    9.8280    4.1740  -57.3790 O   0  0  0  0  0  0  0  0  0  0  0  0
    9.2480   -1.7530  -54.3850 C   0  0  0  0  0  0  0  0  0  0  0  0
   10.4400   -2.4950  -54.9540 C   0  0  2  0  0  0  0  0  0  0  0  0
   11.1740   -1.7970  -56.1100 C   0  0  0  0  0  0  0  0  0  0  0  0
   12.0830   -2.8950  -56.6650 C   0  0  0  0  0  0  0  0  0  0  0  0
   11.2930   -4.1660  -56.4660 C   0  0  0  0  0  0  0  0  0  0  0  0
   11.0840   -5.1180  -57.6220 C   0  0  0  0  0  0  0  0  0  0  0  0
   11.9960   -5.5040  -56.4940 C   0  0  0  0  0  0  0  0  0  0  0  0
   10.1640   -3.9160  -55.4880 C   0  0  0  0  0  0  0  0  0  0  0  0
    8.4250   -2.2870  -53.4580 C   0  0  0  0  0  0  0  0  0  0  0  0
    8.6030   -3.5550  -52.9550 N   0  0  0  0  0  0  0  0  0  0  0  0
    7.8430   -4.0510  -52.0970 N   0  0  0  0  0  0  0  0  0  0  0  0
    6.2851   -3.8127  -49.5551 H   0  0  0  0  0  0  0  0  0  0  0  0
    4.8972   -3.8762  -50.6937 H   0  0  0  0  0  0  0  0  0  0  0  0
    6.1199   -5.1921  -50.6937 H   0  0  0  0  0  0  0  0  0  0  0  0
    5.5673   -1.6108  -51.5203 H   0  0  0  0  0  0  0  0  0  0  0  0
    7.6110    1.2200  -54.5670 H   0  0  0  0  0  0  0  0  0  0  0  0
    8.6803    1.5030  -57.0154 H   0  0  0  0  0  0  0  0  0  0  0  0
    9.0384    2.1607  -55.3978 H   0  0  0  0  0  0  0  0  0  0  0  0
   11.6044    1.4238  -56.6663 H   0  0  0  0  0  0  0  0  0  0  0  0
   12.5626    4.5977  -57.0059 H   0  0  0  0  0  0  0  0  0  0  0  0
   12.9460    2.9830  -57.7210 H   0  0  0  0  0  0  0  0  0  0  0  0
   11.9916    3.5998  -59.8406 H   0  0  0  0  0  0  0  0  0  0  0  0
   13.9867    5.4049  -58.5853 H   0  0  0  0  0  0  0  0  0  0  0  0
   14.0702    4.4299  -60.0917 H   0  0  0  0  0  0  0  0  0  0  0  0
   13.2191    6.0118  -60.0917 H   0  0  0  0  0  0  0  0  0  0  0  0
   11.1466    6.2480  -58.5493 H   0  0  0  0  0  0  0  0  0  0  0  0
   10.8198    5.7083  -60.2333 H   0  0  0  0  0  0  0  0  0  0  0  0
    9.5149    3.8295  -59.4143 H   0  0  0  0  0  0  0  0  0  0  0  0
    8.2018    5.8497  -57.6941 H   0  0  0  0  0  0  0  0  0  0  0  0
    8.7697    6.5456  -59.2497 H   0  0  0  0  0  0  0  0  0  0  0  0
    7.6483    5.1424  -59.2497 H   0  0  0  0  0  0  0  0  0  0  0  0
   11.0555   -2.5239  -54.0428 H   0  0  0  0  0  0  0  0  0  0  0  0
   10.4638   -1.4496  -56.8748 H   0  0  0  0  0  0  0  0  0  0  0  0
   11.7272   -0.9017  -55.7900 H   0  0  0  0  0  0  0  0  0  0  0  0
   12.2901   -2.7275  -57.7323 H   0  0  0  0  0  0  0  0  0  0  0  0
   13.0618   -2.9247  -56.1640 H   0  0  0  0  0  0  0  0  0  0  0  0
   10.1172   -5.6279  -57.7459 H   0  0  0  0  0  0  0  0  0  0  0  0
   11.1876   -5.0471  -58.7148 H   0  0  0  0  0  0  0  0  0  0  0  0
   11.6968   -6.2965  -55.7923 H   0  0  0  0  0  0  0  0  0  0  0  0
   13.0432   -5.8325  -56.4200 H   0  0  0  0  0  0  0  0  0  0  0  0
    9.1895   -3.9602  -55.9963 H   0  0  0  0  0  0  0  0  0  0  0  0
   10.1236   -4.6687  -54.6869 H   0  0  0  0  0  0  0  0  0  0  0  0
  1  2  1  0
  2  3  2  0
  3  4  1  0
  4  5  2  0
  5  6  1  0
  6  7  1  0
  7  8  2  0
  8  9  1  0
  9 10  1  0
 10 11  2  0
 11 12  1  0
 12 13  1  0
 13 14  1  0
 13 15  1  0
 15 16  1  0
 16 17  1  0
 16 18  1  0
  7 19  1  0
 19 20  1  0
 20 21  1  0
 21 22  1  0
 22 23  1  0
 23 24  1  0
 24 25  1  0
 23 26  1  0
 19 27  2  0
 27 28  1  0
 28 29  2  0
 29  2  1  0
 27  4  1  0
 18 11  1  0
 26 20  1  0
 25 23  1  0
  1 30  1  0
  1 31  1  0
  1 32  1  0
  3 33  1  0
  6 34  1  0
  9 35  1  0
  9 36  1  0
 10 37  1  0
 12 38  1  0
 12 39  1  0
 13 40  1  6
 14 41  1  0
 14 42  1  0
 14 43  1  0
 15 44  1  0
 15 45  1  0
 16 46  1  6
 17 47  1  0
 17 48  1  0
 17 49  1  0
 20 50  1  1
 21 51  1  0
 21 52  1  0
 22 53  1  0
 22 54  1  0
 24 55  1  0
 24 56  1  0
 25 57  1  0
 25 58  1  0
 26 59  1  0
 26 60  1  0
M  END
>  <meeko>  (245) 
{"is_sidechain": false}

$$$$

     RDKit          3D

 60 64  0  0  0  0  0  0  0  0999 V2000
    5.8030   -4.0830  -50.5160 C   0  0  0  0  0  0  0  0  0  0  0  0
    6.6470   -3.3860  -51.5420 C   0  0  0  0  0  0  0  0  0  0  0  0
    6.4930   -2.0830  -51.7980 C   0  0  0  0  0  0  0  0  0  0  0  0
    7.3630   -1.4770  -52.8200 C   0  0  0  0  0  0  0  0  0  0  0  0
    7.2220   -0.2140  -53.0790 N   0  0  0  0  0  0  0  0  0  0  0  0
    8.0510    0.2570  -54.0420 N   0  0  0  0  0  0  0  0  0  0  0  0
    9.0070   -0.4680  -54.7310 C   0  0  0  0  0  0  0  0  0  0  0  0
    9.7700    0.0070  -55.6640 N   0  0  0  0  0  0  0  0  0  0  0  0
    9.6380    1.3940  -56.0930 C   0  0  0  0  0  0  0  0  0  0  0  0
   10.6140    1.6770  -57.1930 C   0  0  0  0  0  0  0  0  0  0  0  0
   10.4850    2.6480  -58.1090 C   0  0  0  0  0  0  0  0  0  0  0  0
   11.5280    2.9130  -59.1620 C   0  0  0  0  0  0  0  0  0  0  0  0
   11.9660    4.3850  -59.1480 C   0  0  2  0  0  0  0  0  0  0  0  0
   13.0880    4.6290  -58.1340 C   0  0  0  0  0  0  0  0  0  0  0  0
   10.7780    5.3290  -58.8760 C   0  0  0  0  0  0  0  0  0  0  0  0
    9.4400    4.5930  -58.9890 C   0  0  2  0  0  0  0  0  0  0  0  0
    8.2780    5.5220  -58.6630 C   0  0  0  0  0  0  0  0  0  0  0  0
    9.3930    3.5010  -58.0550 O   0  0  0  0  0  0  0  0  0  0  0  0
    9.1880   -1.9340  -54.3820 C   0  0  0  0  0  0  0  0  0  0  0  0
   10.2650   -2.6750  -55.1560 C   0  0  1  0  0  0  0  0  0  0  0  0
   11.2980   -3.3700  -54.2480 C   0  0  0  0  0  0  0  0  0  0  0  0
   12.1570   -4.1780  -55.2270 C   0  0  0  0  0  0  0  0  0  0  0  0
   11.2020   -4.5480  -56.3330 C   0  0  0  0  0  0  0  0  0  0  0  0
   11.2140   -5.9380  -56.9250 C   0  0  0  0  0  0  0  0  0  0  0  0
   11.7220   -4.7790  -57.7330 C   0  0  0  0  0  0  0  0  0  0  0  0
    9.8890   -3.8280  -56.1130 C   0  0  0  0  0  0  0  0  0  0  0  0
    8.3410   -2.4210  -53.4520 C   0  0  0  0  0  0  0  0  0  0  0  0
    8.3410   -3.7340  -53.0490 N   0  0  0  0  0  0  0  0  0  0  0  0
    7.5680   -4.1810  -52.1750 N   0  0  0  0  0  0  0  0  0  0  0  0
    6.1436   -3.8017  -49.5086 H   0  0  0  0  0  0  0  0  0  0  0  0
    4.7514   -3.7866  -50.6436 H   0  0  0  0  0  0  0  0  0  0  0  0
    5.8952   -5.1717  -50.6436 H   0  0  0  0  0  0  0  0  0  0  0  0
    5.7416   -1.4836  -51.2632 H   0  0  0  0  0  0  0  0  0  0  0  0
    8.0240    1.2640  -54.2070 H   0  0  0  0  0  0  0  0  0  0  0  0
    8.6150    1.5681  -56.4580 H   0  0  0  0  0  0  0  0  0  0  0  0
    9.8448    2.0598  -55.2422 H   0  0  0  0  0  0  0  0  0  0  0  0
   11.5072    1.0380  -57.2545 H   0  0  0  0  0  0  0  0  0  0  0  0
   12.4036    2.2758  -58.9688 H   0  0  0  0  0  0  0  0  0  0  0  0
   11.0950    2.6866  -60.1475 H   0  0  0  0  0  0  0  0  0  0  0  0
   12.3571    4.6109  -60.1510 H   0  0  0  0  0  0  0  0  0  0  0  0
   12.6857    4.5415  -57.1139 H   0  0  0  0  0  0  0  0  0  0  0  0
   13.8828    3.8827  -58.2800 H   0  0  0  0  0  0  0  0  0  0  0  0
   13.5011    5.6380  -58.2800 H   0  0  0  0  0  0  0  0  0  0  0  0
   10.8744    5.7418  -57.8610 H   0  0  0  0  0  0  0  0  0  0  0  0
   10.7953    6.1316  -59.6280 H   0  0  0  0  0  0  0  0  0  0  0  0
    9.3538    4.2278  -60.0230 H   0  0  0  0  0  0  0  0  0  0  0  0
    8.1716    5.6070  -57.5715 H   0  0  0  0  0  0  0  0  0  0  0  0
    8.4724    6.5165  -59.0910 H   0  0  0  0  0  0  0  0  0  0  0  0
    7.3507    5.1135  -59.0910 H   0  0  0  0  0  0  0  0  0  0  0  0
   10.6090   -1.8091  -55.7408 H   0  0  0  0  0  0  0  0  0  0  0  0
   11.9080   -2.6297  -53.7097 H   0  0  0  0  0  0  0  0  0  0  0  0
   10.8315   -3.9961  -53.4732 H   0  0  0  0  0  0  0  0  0  0  0  0
   12.9862   -3.5680  -55.6146 H   0  0  0  0  0  0  0  0  0  0  0  0
   12.6201   -5.0578  -54.7564 H   0  0  0  0  0  0  0  0  0  0  0  0
   11.9180   -6.6918  -56.5428 H   0  0  0  0  0  0  0  0  0  0  0  0
   10.4583   -6.7219  -57.0816 H   0  0  0  0  0  0  0  0  0  0  0  0
   12.7978   -4.6845  -57.9421 H   0  0  0  0  0  0  0  0  0  0  0  0
   11.4919   -4.3638  -58.7253 H   0  0  0  0  0  0  0  0  0  0  0  0
    9.4910   -3.4377  -57.0613 H   0  0  0  0  0  0  0  0  0  0  0  0
    9.1043   -4.4831  -55.7066 H   0  0  0  0  0  0  0  0  0  0  0  0
  1  2  1  0
  2  3  2  0
  3  4  1  0
  4  5  2  0
  5  6  1  0
  6  7  1  0
  7  8  2  0
  8  9  1  0
  9 10  1  0
 10 11  2  0
 11 12  1  0
 12 13  1  0
 13 14  1  0
 13 15  1  0
 15 16  1  0
 16 17  1  0
 16 18  1  0
  7 19  1  0
 19 20  1  0
 20 21  1  0
 21 22  1  0
 22 23  1  0
 23 24  1  0
 24 25  1  0
 23 26  1  0
 19 27  2  0
 27 28  1  0
 28 29  2  0
 29  2  1  0
 27  4  1  0
 18 11  1  0
 26 20  1  0
 25 23  1  0
  1 30  1  0
  1 31  1  0
  1 32  1  0
  3 33  1  0
  6 34  1  0
  9 35  1  0
  9 36  1  0
 10 37  1  0
 12 38  1  0
 12 39  1  0
 13 40  1  6
 14 41  1  0
 14 42  1  0
 14 43  1  0
 15 44  1  0
 15 45  1  0
 16 46  1  6
 17 47  1  0
 17 48  1  0
 17 49  1  0
 20 50  1  6
 21 51  1  0
 21 52  1  0
 22 53  1  0
 22 54  1  0
 24 55  1  0
 24 56  1  0
 25 57  1  0
 25 58  1  0
 26 59  1  0
 26 60  1  0
M  END
>  <meeko>  (246) 
{"is_sidechain": false}

$$$$

     RDKit          3D

 60 64  0  0  0  0  0  0  0  0999 V2000
   10.7540   -3.1210  -54.1340 C   0  0  0  0  0  0  0  0  0  0  0  0
    9.9710   -1.9230  -54.5840 C   0  0  0  0  0  0  0  0  0  0  0  0
    8.6970   -1.7490  -54.2170 C   0  0  0  0  0  0  0  0  0  0  0  0
    8.0080   -0.5420  -54.7000 C   0  0  0  0  0  0  0  0  0  0  0  0
    6.8040   -0.2960  -54.2840 N   0  0  0  0  0  0  0  0  0  0  0  0
    6.2640    0.8410  -54.7970 N   0  0  0  0  0  0  0  0  0  0  0  0
    6.7420    1.5090  -55.9100 C   0  0  0  0  0  0  0  0  0  0  0  0
    5.8120    2.1300  -56.5540 N   0  0  0  0  0  0  0  0  0  0  0  0
    5.9590    2.7720  -57.8410 C   0  0  0  0  0  0  0  0  0  0  0  0
    4.8800    2.2380  -58.7350 C   0  0  0  0  0  0  0  0  0  0  0  0
    5.0450    1.8540  -60.0110 C   0  0  0  0  0  0  0  0  0  0  0  0
    3.9290    1.3100  -60.8620 C   0  0  0  0  0  0  0  0  0  0  0  0
    3.8800    2.0330  -62.2130 C   0  0  2  0  0  0  0  0  0  0  0  0
    2.8810    1.3690  -63.1570 C   0  0  0  0  0  0  0  0  0  0  0  0
    5.2840    2.0710  -62.8290 C   0  0  0  0  0  0  0  0  0  0  0  0
    6.2790    2.6520  -61.8180 C   0  0  2  0  0  0  0  0  0  0  0  0
    7.6950    2.6430  -62.3810 C   0  0  0  0  0  0  0  0  0  0  0  0
    6.2940    1.8810  -60.6060 O   0  0  0  0  0  0  0  0  0  0  0  0
    8.2170    1.3750  -56.2160 C   0  0  0  0  0  0  0  0  0  0  0  0
    8.9520    2.4270  -57.0150 C   0  0  2  0  0  0  0  0  0  0  0  0
    9.2100    2.0790  -58.4890 C   0  0  0  0  0  0  0  0  0  0  0  0
   10.2040    3.1510  -58.9390 C   0  0  0  0  0  0  0  0  0  0  0  0
   11.0360    3.4190  -57.7090 C   0  0  0  0  0  0  0  0  0  0  0  0
   12.5450    3.4250  -57.7970 C   0  0  0  0  0  0  0  0  0  0  0  0
   11.8070    4.7140  -57.5910 C   0  0  0  0  0  0  0  0  0  0  0  0
   10.3570    2.8210  -56.4950 C   0  0  0  0  0  0  0  0  0  0  0  0
    8.8120    0.3090  -55.6340 C   0  0  0  0  0  0  0  0  0  0  0  0
   10.1340   -0.0090  -55.8420 N   0  0  0  0  0  0  0  0  0  0  0  0
   10.6650   -1.0380  -55.3710 N   0  0  0  0  0  0  0  0  0  0  0  0
   10.7752   -3.1534  -53.0347 H   0  0  0  0  0  0  0  0  0  0  0  0
   10.2787   -4.0354  -54.5187 H   0  0  0  0  0  0  0  0  0  0  0  0
   11.7823   -3.0526  -54.5187 H   0  0  0  0  0  0  0  0  0  0  0  0
    8.1829   -2.4815  -53.5774 H   0  0  0  0  0  0  0  0  0  0  0  0
    5.2550    0.9430  -54.6950 H   0  0  0  0  0  0  0  0  0  0  0  0
    5.8520    3.8613  -57.7321 H   0  0  0  0  0  0  0  0  0  0  0  0
    6.9525    2.5663  -58.2661 H   0  0  0  0  0  0  0  0  0  0  0  0
    3.8689    2.1538  -58.3100 H   0  0  0  0  0  0  0  0  0  0  0  0
    4.0947    0.2360  -61.0324 H   0  0  0  0  0  0  0  0  0  0  0  0
    2.9742    1.4691  -60.3394 H   0  0  0  0  0  0  0  0  0  0  0  0
    3.5370    3.0654  -62.0504 H   0  0  0  0  0  0  0  0  0  0  0  0
    2.1069    0.8545  -62.5688 H   0  0  0  0  0  0  0  0  0  0  0  0
    2.4109    2.1350  -63.7913 H   0  0  0  0  0  0  0  0  0  0  0  0
    3.4053    0.6390  -63.7913 H   0  0  0  0  0  0  0  0  0  0  0  0
    5.5920    1.0501  -63.0992 H   0  0  0  0  0  0  0  0  0  0  0  0
    5.2689    2.7039  -63.7286 H   0  0  0  0  0  0  0  0  0  0  0  0
    5.9542    3.6823  -61.6108 H   0  0  0  0  0  0  0  0  0  0  0  0
    8.4189    2.6384  -61.5528 H   0  0  0  0  0  0  0  0  0  0  0  0
    7.8384    1.7439  -62.9983 H   0  0  0  0  0  0  0  0  0  0  0  0
    7.8498    3.5402  -62.9983 H   0  0  0  0  0  0  0  0  0  0  0  0
    8.2289    3.2476  -56.8981 H   0  0  0  0  0  0  0  0  0  0  0  0
    9.6454    1.0735  -58.5854 H   0  0  0  0  0  0  0  0  0  0  0  0
    8.2912    2.0652  -59.0936 H   0  0  0  0  0  0  0  0  0  0  0  0
   10.8321    2.7804  -59.7625 H   0  0  0  0  0  0  0  0  0  0  0  0
    9.7068    4.0559  -59.3185 H   0  0  0  0  0  0  0  0  0  0  0  0
   13.1446    2.9986  -56.9792 H   0  0  0  0  0  0  0  0  0  0  0  0
   13.2813    3.0605  -58.5284 H   0  0  0  0  0  0  0  0  0  0  0  0
   11.8659    5.2319  -56.6223 H   0  0  0  0  0  0  0  0  0  0  0  0
   11.7792    5.6840  -58.1091 H   0  0  0  0  0  0  0  0  0  0  0  0
   10.9041    1.9370  -56.1356 H   0  0  0  0  0  0  0  0  0  0  0  0
   10.3163    3.5169  -55.6441 H   0  0  0  0  0  0  0  0  0  0  0  0
  1  2  1  0
  2  3  2  0
  3  4  1  0
  4  5  2  0
  5  6  1  0
  6  7  1  0
  7  8  2  0
  8  9  1  0
  9 10  1  0
 10 11  2  0
 11 12  1  0
 12 13  1  0
 13 14  1  0
 13 15  1  0
 15 16  1  0
 16 17  1  0
 16 18  1  0
  7 19  1  0
 19 20  1  0
 20 21  1  0
 21 22  1  0
 22 23  1  0
 23 24  1  0
 24 25  1  0
 23 26  1  0
 19 27  2  0
 27 28  1  0
 28 29  2  0
 29  2  1  0
 27  4  1  0
 18 11  1  0
 26 20  1  0
 25 23  1  0
  1 30  1  0
  1 31  1  0
  1 32  1  0
  3 33  1  0
  6 34  1  0
  9 35  1  0
  9 36  1  0
 10 37  1  0
 12 38  1  0
 12 39  1  0
 13 40  1  1
 14 41  1  0
 14 42  1  0
 14 43  1  0
 15 44  1  0
 15 45  1  0
 16 46  1  1
 17 47  1  0
 17 48  1  0
 17 49  1  0
 20 50  1  6
 21 51  1  0
 21 52  1  0
 22 53  1  0
 22 54  1  0
 24 55  1  0
 24 56  1  0
 25 57  1  0
 25 58  1  0
 26 59  1  0
 26 60  1  0
M  END
>  <meeko>  (247) 
{"is_sidechain": false}

$$$$

     RDKit          3D

 60 64  0  0  0  0  0  0  0  0999 V2000
   12.9120    6.6980  -59.8520 C   0  0  0  0  0  0  0  0  0  0  0  0
   12.0910    5.5760  -59.2850 C   0  0  0  0  0  0  0  0  0  0  0  0
   12.6270    4.6680  -58.4650 C   0  0  0  0  0  0  0  0  0  0  0  0
   11.7500    3.6020  -57.9590 C   0  0  0  0  0  0  0  0  0  0  0  0
   12.2650    2.6730  -57.2170 N   0  0  0  0  0  0  0  0  0  0  0  0
   11.3740    1.7420  -56.8060 N   0  0  0  0  0  0  0  0  0  0  0  0
    9.9980    1.8280  -56.8940 C   0  0  0  0  0  0  0  0  0  0  0  0
    9.4190    1.0250  -56.0700 N   0  0  0  0  0  0  0  0  0  0  0  0
    8.0060    0.8980  -55.8020 C   0  0  0  0  0  0  0  0  0  0  0  0
    7.8560    0.5360  -54.3530 C   0  0  0  0  0  0  0  0  0  0  0  0
    8.2080   -0.6350  -53.8000 C   0  0  0  0  0  0  0  0  0  0  0  0
    7.9970   -0.9200  -52.3360 C   0  0  0  0  0  0  0  0  0  0  0  0
    7.7650   -2.4140  -52.1220 C   0  0  2  0  0  0  0  0  0  0  0  0
    7.5210   -2.7380  -50.6500 C   0  0  0  0  0  0  0  0  0  0  0  0
    8.9530   -3.2120  -52.6730 C   0  0  0  0  0  0  0  0  0  0  0  0
    9.5710   -2.5870  -53.9340 C   0  0  2  0  0  0  0  0  0  0  0  0
   10.9420   -1.9560  -53.6820 C   0  0  0  0  0  0  0  0  0  0  0  0
    8.7030   -1.6570  -54.5910 O   0  0  0  0  0  0  0  0  0  0  0  0
    9.4170    2.8240  -57.8850 C   0  0  0  0  0  0  0  0  0  0  0  0
    7.9620    2.7170  -58.3160 C   0  0  1  0  0  0  0  0  0  0  0  0
    7.2980    4.0770  -58.5860 C   0  0  0  0  0  0  0  0  0  0  0  0
    7.3750    4.2870  -60.0960 C   0  0  0  0  0  0  0  0  0  0  0  0
    7.3150    2.8970  -60.6640 C   0  0  0  0  0  0  0  0  0  0  0  0
    6.2930    2.5580  -61.7290 C   0  0  0  0  0  0  0  0  0  0  0  0
    7.7440    2.6460  -62.0920 C   0  0  0  0  0  0  0  0  0  0  0  0
    7.6290    1.8880  -59.5840 C   0  0  0  0  0  0  0  0  0  0  0  0
   10.3160    3.7060  -58.3840 C   0  0  0  0  0  0  0  0  0  0  0  0
    9.9720    4.6960  -59.2720 N   0  0  0  0  0  0  0  0  0  0  0  0
   10.7770    5.5600  -59.6810 N   0  0  0  0  0  0  0  0  0  0  0  0
   13.3438    7.2881  -59.0302 H   0  0  0  0  0  0  0  0  0  0  0  0
   13.7217    6.2836  -60.4706 H   0  0  0  0  0  0  0  0  0  0  0  0
   12.2720    7.3443  -60.4706 H   0  0  0  0  0  0  0  0  0  0  0  0
   13.6879    4.7161  -58.1782 H   0  0  0  0  0  0  0  0  0  0  0  0
   11.6820    1.0890  -56.0880 H   0  0  0  0  0  0  0  0  0  0  0  0
    7.4972    1.8516  -56.0061 H   0  0  0  0  0  0  0  0  0  0  0  0
    7.5561    0.1265  -56.4442 H   0  0  0  0  0  0  0  0  0  0  0  0
    7.4202    1.2956  -53.6874 H   0  0  0  0  0  0  0  0  0  0  0  0
    8.8873   -0.6053  -51.7718 H   0  0  0  0  0  0  0  0  0  0  0  0
    7.1157   -0.3640  -51.9837 H   0  0  0  0  0  0  0  0  0  0  0  0
    6.8577   -2.7049  -52.6717 H   0  0  0  0  0  0  0  0  0  0  0  0
    8.0639   -2.0171  -50.0210 H   0  0  0  0  0  0  0  0  0  0  0  0
    6.4442   -2.6748  -50.4343 H   0  0  0  0  0  0  0  0  0  0  0  0
    7.8791   -3.7554  -50.4343 H   0  0  0  0  0  0  0  0  0  0  0  0
    9.7282   -3.2670  -51.8945 H   0  0  0  0  0  0  0  0  0  0  0  0
    8.5763   -4.2069  -52.9528 H   0  0  0  0  0  0  0  0  0  0  0  0
    9.7167   -3.4372  -54.6166 H   0  0  0  0  0  0  0  0  0  0  0  0
   11.1154   -1.8762  -52.5987 H   0  0  0  0  0  0  0  0  0  0  0  0
   11.7236   -2.5850  -54.1331 H   0  0  0  0  0  0  0  0  0  0  0  0
   10.9726   -0.9532  -54.1331 H   0  0  0  0  0  0  0  0  0  0  0  0
    7.5753    2.1921  -57.4301 H   0  0  0  0  0  0  0  0  0  0  0  0
    6.2492    4.0634  -58.2545 H   0  0  0  0  0  0  0  0  0  0  0  0
    7.8011    4.8880  -58.0390 H   0  0  0  0  0  0  0  0  0  0  0  0
    6.5260    4.8903  -60.4500 H   0  0  0  0  0  0  0  0  0  0  0  0
    8.2828    4.8283  -60.4008 H   0  0  0  0  0  0  0  0  0  0  0  0
    5.7886    1.5806  -61.7150 H   0  0  0  0  0  0  0  0  0  0  0  0
    5.3704    3.0299  -62.0979 H   0  0  0  0  0  0  0  0  0  0  0  0
    8.3029    1.7329  -62.3448 H   0  0  0  0  0  0  0  0  0  0  0  0
    8.3239    3.2094  -62.8378 H   0  0  0  0  0  0  0  0  0  0  0  0
    6.7593    1.2399  -59.4006 H   0  0  0  0  0  0  0  0  0  0  0  0
    8.4653    1.2338  -59.8715 H   0  0  0  0  0  0  0  0  0  0  0  0
  1  2  1  0
  2  3  2  0
  3  4  1  0
  4  5  2  0
  5  6  1  0
  6  7  1  0
  7  8  2  0
  8  9  1  0
  9 10  1  0
 10 11  2  0
 11 12  1  0
 12 13  1  0
 13 14  1  0
 13 15  1  0
 15 16  1  0
 16 17  1  0
 16 18  1  0
  7 19  1  0
 19 20  1  0
 20 21  1  0
 21 22  1  0
 22 23  1  0
 23 24  1  0
 24 25  1  0
 23 26  1  0
 19 27  2  0
 27 28  1  0
 28 29  2  0
 29  2  1  0
 27  4  1  0
 18 11  1  0
 26 20  1  0
 25 23  1  0
  1 30  1  0
  1 31  1  0
  1 32  1  0
  3 33  1  0
  6 34  1  0
  9 35  1  0
  9 36  1  0
 10 37  1  0
 12 38  1  0
 12 39  1  0
 13 40  1  6
 14 41  1  0
 14 42  1  0
 14 43  1  0
 15 44  1  0
 15 45  1  0
 16 46  1  6
 17 47  1  0
 17 48  1  0
 17 49  1  0
 20 50  1  1
 21 51  1  0
 21 52  1  0
 22 53  1  0
 22 54  1  0
 24 55  1  0
 24 56  1  0
 25 57  1  0
 25 58  1  0
 26 59  1  0
 26 60  1  0
M  END
>  <meeko>  (248) 
{"is_sidechain": false}

$$$$

     RDKit          3D

 60 64  0  0  0  0  0  0  0  0999 V2000
    4.0260    1.0900  -63.1610 C   0  0  0  0  0  0  0  0  0  0  0  0
    4.6260    1.7120  -61.9260 C   0  0  0  0  0  0  0  0  0  0  0  0
    3.7590    1.8340  -60.7300 C   0  0  0  0  0  0  0  0  0  0  0  0
    4.3520    2.2530  -59.6080 C   0  0  0  0  0  0  0  0  0  0  0  0
    3.6280    2.5550  -58.4770 N   0  0  0  0  0  0  0  0  0  0  0  0
    4.2050    2.7520  -57.3780 N   0  0  0  0  0  0  0  0  0  0  0  0
    5.5070    2.3040  -57.2900 C   0  0  0  0  0  0  0  0  0  0  0  0
    5.7550    1.5020  -56.3240 N   0  0  0  0  0  0  0  0  0  0  0  0
    7.0030    0.7730  -56.2160 C   0  0  0  0  0  0  0  0  0  0  0  0
    7.0360    0.1080  -54.8760 C   0  0  0  0  0  0  0  0  0  0  0  0
    8.1270   -0.4020  -54.2830 C   0  0  0  0  0  0  0  0  0  0  0  0
    8.1010   -1.0190  -52.9090 C   0  0  0  0  0  0  0  0  0  0  0  0
    8.8150   -2.3750  -52.9040 C   0  0  2  0  0  0  0  0  0  0  0  0
    8.9550   -2.9180  -51.4850 C   0  0  0  0  0  0  0  0  0  0  0  0
   10.1830   -2.2350  -53.5810 C   0  0  0  0  0  0  0  0  0  0  0  0
   10.0060   -1.6110  -54.9690 C   0  0  2  0  0  0  0  0  0  0  0  0
   11.3550   -1.4080  -55.6480 C   0  0  0  0  0  0  0  0  0  0  0  0
    9.3670   -0.3270  -54.8920 O   0  0  0  0  0  0  0  0  0  0  0  0
    6.3700    2.8030  -58.4060 C   0  0  0  0  0  0  0  0  0  0  0  0
    7.7190    3.4170  -58.1180 C   0  0  2  0  0  0  0  0  0  0  0  0
    7.9060    4.8190  -58.7380 C   0  0  0  0  0  0  0  0  0  0  0  0
    9.4080    5.0770  -58.6420 C   0  0  0  0  0  0  0  0  0  0  0  0
   10.0110    3.7180  -58.8630 C   0  0  0  0  0  0  0  0  0  0  0  0
   11.4270    3.4400  -58.4140 C   0  0  0  0  0  0  0  0  0  0  0  0
   11.1140    3.5270  -59.8790 C   0  0  0  0  0  0  0  0  0  0  0  0
    8.9380    2.6640  -58.7140 C   0  0  0  0  0  0  0  0  0  0  0  0
    5.7770    2.5890  -59.5980 C   0  0  0  0  0  0  0  0  0  0  0  0
    6.3700    2.6790  -60.8470 N   0  0  0  0  0  0  0  0  0  0  0  0
    5.8610    2.1170  -61.9850 N   0  0  0  0  0  0  0  0  0  0  0  0
    3.2901    0.3271  -62.8668 H   0  0  0  0  0  0  0  0  0  0  0  0
    3.5286    1.8680  -63.7587 H   0  0  0  0  0  0  0  0  0  0  0  0
    4.8214    0.6209  -63.7587 H   0  0  0  0  0  0  0  0  0  0  0  0
    2.6863    1.5929  -60.7640 H   0  0  0  0  0  0  0  0  0  0  0  0
    7.0622    0.0146  -57.0106 H   0  0  0  0  0  0  0  0  0  0  0  0
    7.8564    1.4587  -56.3233 H   0  0  0  0  0  0  0  0  0  0  0  0
    6.0843    0.0304  -54.3298 H   0  0  0  0  0  0  0  0  0  0  0  0
    8.6052   -0.3441  -52.2017 H   0  0  0  0  0  0  0  0  0  0  0  0
    7.0528   -1.1730  -52.6130 H   0  0  0  0  0  0  0  0  0  0  0  0
    8.2102   -3.0988  -53.4700 H   0  0  0  0  0  0  0  0  0  0  0  0
    8.7478   -2.1145  -50.7628 H   0  0  0  0  0  0  0  0  0  0  0  0
    8.2393   -3.7397  -51.3346 H   0  0  0  0  0  0  0  0  0  0  0  0
    9.9787   -3.2912  -51.3346 H   0  0  0  0  0  0  0  0  0  0  0  0
   10.8304   -1.5897  -52.9690 H   0  0  0  0  0  0  0  0  0  0  0  0
   10.6447   -3.2283  -53.6823 H   0  0  0  0  0  0  0  0  0  0  0  0
    9.3811   -2.3079  -55.5468 H   0  0  0  0  0  0  0  0  0  0  0  0
   12.1366   -1.2904  -54.8829 H   0  0  0  0  0  0  0  0  0  0  0  0
   11.5848   -2.2817  -56.2756 H   0  0  0  0  0  0  0  0  0  0  0  0
   11.3175   -0.5054  -56.2756 H   0  0  0  0  0  0  0  0  0  0  0  0
    7.7042    3.3990  -57.0182 H   0  0  0  0  0  0  0  0  0  0  0  0
    7.5753    4.8284  -59.7871 H   0  0  0  0  0  0  0  0  0  0  0  0
    7.3136    5.5890  -58.2221 H   0  0  0  0  0  0  0  0  0  0  0  0
    9.7361    5.7839  -59.4182 H   0  0  0  0  0  0  0  0  0  0  0  0
    9.7054    5.5275  -57.6836 H   0  0  0  0  0  0  0  0  0  0  0  0
   12.0155    4.2333  -57.9300 H   0  0  0  0  0  0  0  0  0  0  0  0
   11.9025    2.6899  -57.7650 H   0  0  0  0  0  0  0  0  0  0  0  0
   11.4732    4.3841  -60.4676 H   0  0  0  0  0  0  0  0  0  0  0  0
   11.2654    2.8671  -60.7459 H   0  0  0  0  0  0  0  0  0  0  0  0
    8.6840    2.2293  -59.6920 H   0  0  0  0  0  0  0  0  0  0  0  0
    9.2627    1.8299  -58.0746 H   0  0  0  0  0  0  0  0  0  0  0  0
    7.3820    2.7920  -60.8450 H   0  0  0  0  0  0  0  0  0  0  0  0
  1  2  1  0
  2  3  1  0
  3  4  2  0
  4  5  1  0
  5  6  2  0
  6  7  1  0
  7  8  2  0
  8  9  1  0
  9 10  1  0
 10 11  2  0
 11 12  1  0
 12 13  1  0
 13 14  1  0
 13 15  1  0
 15 16  1  0
 16 17  1  0
 16 18  1  0
  7 19  1  0
 19 20  1  0
 20 21  1  0
 21 22  1  0
 22 23  1  0
 23 24  1  0
 24 25  1  0
 23 26  1  0
 19 27  2  0
 27 28  1  0
 28 29  1  0
 29  2  2  0
 27  4  1  0
 18 11  1  0
 26 20  1  0
 25 23  1  0
  1 30  1  0
  1 31  1  0
  1 32  1  0
  3 33  1  0
  9 34  1  0
  9 35  1  0
 10 36  1  0
 12 37  1  0
 12 38  1  0
 13 39  1  6
 14 40  1  0
 14 41  1  0
 14 42  1  0
 15 43  1  0
 15 44  1  0
 16 45  1  6
 17 46  1  0
 17 47  1  0
 17 48  1  0
 20 49  1  1
 21 50  1  0
 21 51  1  0
 22 52  1  0
 22 53  1  0
 24 54  1  0
 24 55  1  0
 25 56  1  0
 25 57  1  0
 26 58  1  0
 26 59  1  0
 28 60  1  0
M  END
>  <meeko>  (249) 
{"is_sidechain": false}

$$$$

     RDKit          3D

 60 64  0  0  0  0  0  0  0  0999 V2000
   11.1300   -3.4330  -54.5880 C   0  0  0  0  0  0  0  0  0  0  0  0
   10.6760   -2.0590  -55.0080 C   0  0  0  0  0  0  0  0  0  0  0  0
    9.3750   -1.5800  -54.4890 C   0  0  0  0  0  0  0  0  0  0  0  0
    8.9360   -0.4090  -54.9670 C   0  0  0  0  0  0  0  0  0  0  0  0
    7.8260    0.2020  -54.4370 N   0  0  0  0  0  0  0  0  0  0  0  0
    7.3060    1.1990  -54.9950 N   0  0  0  0  0  0  0  0  0  0  0  0
    7.6740    1.4390  -56.3010 C   0  0  0  0  0  0  0  0  0  0  0  0
    6.7130    1.6030  -57.1330 N   0  0  0  0  0  0  0  0  0  0  0  0
    6.9670    1.6950  -58.5600 C   0  0  0  0  0  0  0  0  0  0  0  0
    5.7920    1.1000  -59.2740 C   0  0  0  0  0  0  0  0  0  0  0  0
    5.2370    1.5900  -60.3950 C   0  0  0  0  0  0  0  0  0  0  0  0
    4.0290    0.9450  -61.0260 C   0  0  0  0  0  0  0  0  0  0  0  0
    3.7810    1.4300  -62.4580 C   0  0  2  0  0  0  0  0  0  0  0  0
    2.8850    0.4610  -63.2230 C   0  0  0  0  0  0  0  0  0  0  0  0
    5.1300    1.6120  -63.1460 C   0  0  0  0  0  0  0  0  0  0  0  0
    5.9410    2.6830  -62.4070 C   0  0  2  0  0  0  0  0  0  0  0  0
    7.4330    2.5560  -62.6930 C   0  0  0  0  0  0  0  0  0  0  0  0
    5.7490    2.7240  -60.9850 O   0  0  0  0  0  0  0  0  0  0  0  0
    9.1590    1.4260  -56.5200 C   0  0  0  0  0  0  0  0  0  0  0  0
    9.7760    2.5270  -57.3490 C   0  0  1  0  0  0  0  0  0  0  0  0
    9.5500    3.9240  -56.7240 C   0  0  0  0  0  0  0  0  0  0  0  0
   10.4740    4.8440  -57.5210 C   0  0  0  0  0  0  0  0  0  0  0  0
   11.6610    3.9720  -57.8250 C   0  0  0  0  0  0  0  0  0  0  0  0
   12.5710    4.3150  -58.9830 C   0  0  0  0  0  0  0  0  0  0  0  0
   13.0640    4.4740  -57.5750 C   0  0  0  0  0  0  0  0  0  0  0  0
   11.3140    2.5320  -57.5240 C   0  0  0  0  0  0  0  0  0  0  0  0
    9.7280    0.3470  -55.9410 C   0  0  0  0  0  0  0  0  0  0  0  0
   11.0140   -0.1260  -56.1430 N   0  0  0  0  0  0  0  0  0  0  0  0
   11.4550   -1.3690  -55.7860 N   0  0  0  0  0  0  0  0  0  0  0  0
   11.1498   -3.4929  -53.4898 H   0  0  0  0  0  0  0  0  0  0  0  0
   10.4330   -4.1864  -54.9838 H   0  0  0  0  0  0  0  0  0  0  0  0
   12.1386   -3.6228  -54.9838 H   0  0  0  0  0  0  0  0  0  0  0  0
    8.7992   -2.1559  -53.7495 H   0  0  0  0  0  0  0  0  0  0  0  0
    7.0874    2.7488  -58.8514 H   0  0  0  0  0  0  0  0  0  0  0  0
    7.8890    1.1551  -58.8216 H   0  0  0  0  0  0  0  0  0  0  0  0
    5.3482    0.1890  -58.8461 H   0  0  0  0  0  0  0  0  0  0  0  0
    4.1809   -0.1443  -61.0446 H   0  0  0  0  0  0  0  0  0  0  0  0
    3.1512    1.2227  -60.4241 H   0  0  0  0  0  0  0  0  0  0  0  0
    3.2500    2.3931  -62.4373 H   0  0  0  0  0  0  0  0  0  0  0  0
    2.3165   -0.1538  -62.5096 H   0  0  0  0  0  0  0  0  0  0  0  0
    2.1867    1.0288  -63.8555 H   0  0  0  0  0  0  0  0  0  0  0  0
    3.5056   -0.1907  -63.8555 H   0  0  0  0  0  0  0  0  0  0  0  0
    5.6806    0.6598  -63.1309 H   0  0  0  0  0  0  0  0  0  0  0  0
    4.9704    1.9271  -64.1877 H   0  0  0  0  0  0  0  0  0  0  0  0
    5.5449    3.6271  -62.8093 H   0  0  0  0  0  0  0  0  0  0  0  0
    7.9857    2.5090  -61.7431 H   0  0  0  0  0  0  0  0  0  0  0  0
    7.6188    1.6388  -63.2711 H   0  0  0  0  0  0  0  0  0  0  0  0
    7.7711    3.4286  -63.2711 H   0  0  0  0  0  0  0  0  0  0  0  0
    9.2752    2.3249  -58.3073 H   0  0  0  0  0  0  0  0  0  0  0  0
    8.5006    4.2352  -56.8330 H   0  0  0  0  0  0  0  0  0  0  0  0
    9.7640    3.9430  -55.6452 H   0  0  0  0  0  0  0  0  0  0  0  0
    9.9876    5.1829  -58.4476 H   0  0  0  0  0  0  0  0  0  0  0  0
   10.7438    5.7590  -56.9733 H   0  0  0  0  0  0  0  0  0  0  0  0
   12.9756    3.5144  -59.6197 H   0  0  0  0  0  0  0  0  0  0  0  0
   12.4973    4.9758  -59.8593 H   0  0  0  0  0  0  0  0  0  0  0  0
   13.8299    3.7900  -57.1808 H   0  0  0  0  0  0  0  0  0  0  0  0
   13.5009    5.2997  -56.9942 H   0  0  0  0  0  0  0  0  0  0  0  0
   11.6117    1.8788  -58.3575 H   0  0  0  0  0  0  0  0  0  0  0  0
   11.8357    2.1559  -56.6316 H   0  0  0  0  0  0  0  0  0  0  0  0
   11.5330    0.3000  -56.9060 H   0  0  0  0  0  0  0  0  0  0  0  0
  1  2  1  0
  2  3  1  0
  3  4  2  0
  4  5  1  0
  5  6  2  0
  6  7  1  0
  7  8  2  0
  8  9  1  0
  9 10  1  0
 10 11  2  0
 11 12  1  0
 12 13  1  0
 13 14  1  0
 13 15  1  0
 15 16  1  0
 16 17  1  0
 16 18  1  0
  7 19  1  0
 19 20  1  0
 20 21  1  0
 21 22  1  0
 22 23  1  0
 23 24  1  0
 24 25  1  0
 23 26  1  0
 19 27  2  0
 27 28  1  0
 28 29  1  0
 29  2  2  0
 27  4  1  0
 18 11  1  0
 26 20  1  0
 25 23  1  0
  1 30  1  0
  1 31  1  0
  1 32  1  0
  3 33  1  0
  9 34  1  0
  9 35  1  0
 10 36  1  0
 12 37  1  0
 12 38  1  0
 13 39  1  1
 14 40  1  0
 14 41  1  0
 14 42  1  0
 15 43  1  0
 15 44  1  0
 16 45  1  6
 17 46  1  0
 17 47  1  0
 17 48  1  0
 20 49  1  6
 21 50  1  0
 21 51  1  0
 22 52  1  0
 22 53  1  0
 24 54  1  0
 24 55  1  0
 25 56  1  0
 25 57  1  0
 26 58  1  0
 26 59  1  0
 28 60  1  0
M  END
>  <meeko>  (250) 
{"is_sidechain": false}

$$$$

     RDKit          3D

 32 34  0  0  0  0  0  0  0  0999 V2000
   13.0400    4.5570  -58.0450 C   0  0  0  0  0  0  0  0  0  0  0  0
   13.0810    4.8160  -59.4500 O   0  0  0  0  0  0  0  0  0  0  0  0
   12.1040    5.6500  -59.8820 C   0  0  0  0  0  0  0  0  0  0  0  0
   12.2700    6.7440  -60.3990 O   0  0  0  0  0  0  0  0  0  0  0  0
   10.7620    5.0850  -59.6580 C   0  0  0  0  0  0  0  0  0  0  0  0
   10.1670    4.2120  -60.4850 C   0  0  0  0  0  0  0  0  0  0  0  0
    8.8680    3.7100  -60.2040 C   0  0  0  0  0  0  0  0  0  0  0  0
    8.3200    3.5590  -59.0010 N   0  0  0  0  0  0  0  0  0  0  0  0
    7.0630    3.0440  -59.2270 C   0  0  0  0  0  0  0  0  0  0  0  0
    5.9870    2.6620  -58.3880 C   0  0  0  0  0  0  0  0  0  0  0  0
    5.9610    2.7300  -56.9950 O   0  0  0  0  0  0  0  0  0  0  0  0
    6.3010    1.5270  -56.3170 C   0  0  0  0  0  0  0  0  0  0  0  0
    4.7670    2.1440  -58.9410 C   0  0  0  0  0  0  0  0  0  0  0  0
    4.5610    1.9840  -60.3300 C   0  0  0  0  0  0  0  0  0  0  0  0
    3.5210    1.5230  -61.1780 C   0  0  0  0  0  0  0  0  0  0  0  0
    3.9650    1.6260  -62.4840 C   0  0  0  0  0  0  0  0  0  0  0  0
    5.2410    2.1370  -62.4640 N   0  0  0  0  0  0  0  0  0  0  0  0
    5.5920    2.3490  -61.1690 C   0  0  0  0  0  0  0  0  0  0  0  0
    6.8960    2.9020  -60.5860 C   0  0  0  0  0  0  0  0  0  0  0  0
    8.0150    3.3120  -61.2230 O   0  0  0  0  0  0  0  0  0  0  0  0
   13.1889    5.4975  -57.4943 H   0  0  0  0  0  0  0  0  0  0  0  0
   12.0627    4.1275  -57.7797 H   0  0  0  0  0  0  0  0  0  0  0  0
   13.8369    3.8467  -57.7797 H   0  0  0  0  0  0  0  0  0  0  0  0
   10.2140    5.3982  -58.7571 H   0  0  0  0  0  0  0  0  0  0  0  0
   10.6921    3.8804  -61.3929 H   0  0  0  0  0  0  0  0  0  0  0  0
    6.2542    1.6926  -55.2306 H   0  0  0  0  0  0  0  0  0  0  0  0
    5.5916    0.7347  -56.5980 H   0  0  0  0  0  0  0  0  0  0  0  0
    7.3202    1.2232  -56.5980 H   0  0  0  0  0  0  0  0  0  0  0  0
    3.9572    1.8592  -58.2531 H   0  0  0  0  0  0  0  0  0  0  0  0
    2.5378    1.1504  -60.8548 H   0  0  0  0  0  0  0  0  0  0  0  0
    3.3956    1.3473  -63.3829 H   0  0  0  0  0  0  0  0  0  0  0  0
    5.8220    2.3240  -63.2710 H   0  0  0  0  0  0  0  0  0  0  0  0
  1  2  1  0
  2  3  1  0
  3  4  2  0
  3  5  1  0
  5  6  2  0
  6  7  1  0
  7  8  2  0
  8  9  1  0
  9 10  2  0
 10 11  1  0
 11 12  1  0
 10 13  1  0
 13 14  2  0
 14 15  1  0
 15 16  2  0
 16 17  1  0
 17 18  1  0
 18 19  2  0
 19 20  1  0
 20  7  1  0
 19  9  1  0
 18 14  1  0
  1 21  1  0
  1 22  1  0
  1 23  1  0
  5 24  1  0
  6 25  1  0
 12 26  1  0
 12 27  1  0
 12 28  1  0
 13 29  1  0
 15 30  1  0
 16 31  1  0
 17 32  1  0
M  END
>  <meeko>  (251) 
{"is_sidechain": false}

$$$$

     RDKit          3D

 43 44  0  0  0  0  0  0  0  0999 V2000
   12.6510    3.8630  -58.6720 C   0  0  0  0  0  0  0  0  0  0  0  0
   12.2790    3.0160  -57.4650 C   0  0  0  0  0  0  0  0  0  0  0  0
   10.8780    2.4060  -57.5630 C   0  0  0  0  0  0  0  0  0  0  0  0
    9.8510    2.9860  -56.5850 C   0  0  0  0  0  0  0  0  0  0  0  0
    8.6250    2.1470  -56.4360 C   0  0  0  0  0  0  0  0  0  0  0  0
    8.4070    1.1440  -55.5150 C   0  0  0  0  0  0  0  0  0  0  0  0
    7.1500    0.6750  -55.7430 N   0  0  0  0  0  0  0  0  0  0  0  0
    6.5200    1.2960  -56.7500 N   0  0  0  0  0  0  0  0  0  0  0  0
    7.4080    2.2080  -57.1800 C   0  0  0  0  0  0  0  0  0  0  0  0
    7.0620    3.1260  -58.3260 C   0  0  0  0  0  0  0  0  0  0  0  0
    7.2020    2.5960  -59.7060 N   0  0  0  0  0  0  0  0  0  0  0  0
    5.8990    2.2030  -60.2840 C   0  0  0  0  0  0  0  0  0  0  0  0
    4.8460    1.8710  -60.7550 C   0  0  0  0  0  0  0  0  0  0  0  0
    3.5860    1.4640  -61.3290 C   0  0  0  0  0  0  0  0  0  0  0  0
    3.6580    0.7730  -62.6590 C   0  0  0  0  0  0  0  0  0  0  0  0
    2.5420    1.6890  -60.7320 O   0  0  0  0  0  0  0  0  0  0  0  0
    8.0160    3.3900  -60.6020 C   0  0  0  0  0  0  0  0  0  0  0  0
    8.8760    4.4660  -59.8860 C   0  0  0  0  0  0  0  0  0  0  0  0
   10.0000    4.1190  -60.8850 C   0  0  0  0  0  0  0  0  0  0  0  0
    9.3640    2.7170  -60.9850 C   0  0  0  0  0  0  0  0  0  0  0  0
   13.0717    4.8209  -58.3321 H   0  0  0  0  0  0  0  0  0  0  0  0
   13.3975    3.3292  -59.2785 H   0  0  0  0  0  0  0  0  0  0  0  0
   11.7529    4.0516  -59.2785 H   0  0  0  0  0  0  0  0  0  0  0  0
   13.0100    2.1992  -57.3728 H   0  0  0  0  0  0  0  0  0  0  0  0
   12.2856    3.6786  -56.5870 H   0  0  0  0  0  0  0  0  0  0  0  0
   10.5056    2.5682  -58.5853 H   0  0  0  0  0  0  0  0  0  0  0  0
   10.9859    1.3429  -57.3019 H   0  0  0  0  0  0  0  0  0  0  0  0
   10.3273    3.0835  -55.5983 H   0  0  0  0  0  0  0  0  0  0  0  0
    9.5298    3.9557  -56.9931 H   0  0  0  0  0  0  0  0  0  0  0  0
    9.1111    0.7920  -54.7467 H   0  0  0  0  0  0  0  0  0  0  0  0
    6.6580   -0.0650  -55.2520 H   0  0  0  0  0  0  0  0  0  0  0  0
    6.0130    3.4307  -58.1967 H   0  0  0  0  0  0  0  0  0  0  0  0
    7.8034    3.9362  -58.2646 H   0  0  0  0  0  0  0  0  0  0  0  0
    3.7709   -0.3101  -62.5038 H   0  0  0  0  0  0  0  0  0  0  0  0
    2.7347    0.9682  -63.2241 H   0  0  0  0  0  0  0  0  0  0  0  0
    4.5213    1.1544  -63.2241 H   0  0  0  0  0  0  0  0  0  0  0  0
    7.2487    3.6475  -61.3469 H   0  0  0  0  0  0  0  0  0  0  0  0
    8.4894    5.4927  -59.9664 H   0  0  0  0  0  0  0  0  0  0  0  0
    9.0390    4.4518  -58.7982 H   0  0  0  0  0  0  0  0  0  0  0  0
    9.9829    4.7007  -61.8185 H   0  0  0  0  0  0  0  0  0  0  0  0
   11.0629    4.2616  -60.6403 H   0  0  0  0  0  0  0  0  0  0  0  0
    9.3870    2.2714  -61.9905 H   0  0  0  0  0  0  0  0  0  0  0  0
    9.7633    1.8551  -60.4303 H   0  0  0  0  0  0  0  0  0  0  0  0
  1  2  1  0
  2  3  1  0
  3  4  1  0
  4  5  1  0
  5  6  2  0
  6  7  1  0
  7  8  1  0
  8  9  2  0
  9 10  1  0
 10 11  1  0
 11 12  1  0
 12 13  3  0
 13 14  1  0
 14 15  1  0
 14 16  2  0
 11 17  1  0
 17 18  1  0
 18 19  1  0
 19 20  1  0
  9  5  1  0
 20 17  1  0
  1 21  1  0
  1 22  1  0
  1 23  1  0
  2 24  1  0
  2 25  1  0
  3 26  1  0
  3 27  1  0
  4 28  1  0
  4 29  1  0
  6 30  1  0
  7 31  1  0
 10 32  1  0
 10 33  1  0
 15 34  1  0
 15 35  1  0
 15 36  1  0
 17 37  1  0
 18 38  1  0
 18 39  1  0
 19 40  1  0
 19 41  1  0
 20 42  1  0
 20 43  1  0
M  END
>  <meeko>  (252) 
{"is_sidechain": false}

$$$$

     RDKit          3D

 43 44  0  0  0  0  0  0  0  0999 V2000
   12.8970    4.0030  -58.9050 C   0  0  0  0  0  0  0  0  0  0  0  0
   12.6560    3.5660  -57.4690 C   0  0  0  0  0  0  0  0  0  0  0  0
   11.4310    2.6670  -57.2740 C   0  0  0  0  0  0  0  0  0  0  0  0
   10.1520    3.3980  -56.8510 C   0  0  0  0  0  0  0  0  0  0  0  0
    8.9690    2.5170  -56.6200 C   0  0  0  0  0  0  0  0  0  0  0  0
    8.8680    1.4380  -55.7100 C   0  0  0  0  0  0  0  0  0  0  0  0
    7.6760    0.8410  -55.7430 N   0  0  0  0  0  0  0  0  0  0  0  0
    7.0120    1.5190  -56.6890 N   0  0  0  0  0  0  0  0  0  0  0  0
    7.7380    2.5290  -57.2580 C   0  0  0  0  0  0  0  0  0  0  0  0
    7.1620    3.3860  -58.3340 C   0  0  0  0  0  0  0  0  0  0  0  0
    7.2450    2.8530  -59.7040 N   0  0  0  0  0  0  0  0  0  0  0  0
    5.9400    2.3900  -60.2220 C   0  0  0  0  0  0  0  0  0  0  0  0
    4.8710    2.0240  -60.6290 C   0  0  0  0  0  0  0  0  0  0  0  0
    3.5780    1.6040  -61.1070 C   0  0  0  0  0  0  0  0  0  0  0  0
    3.5750    0.5900  -62.2120 C   0  0  0  0  0  0  0  0  0  0  0  0
    2.5640    2.0760  -60.6100 O   0  0  0  0  0  0  0  0  0  0  0  0
    8.0340    3.5820  -60.6820 C   0  0  0  0  0  0  0  0  0  0  0  0
    9.4350    4.0110  -60.1740 C   0  0  0  0  0  0  0  0  0  0  0  0
    9.9910    2.6860  -60.7290 C   0  0  0  0  0  0  0  0  0  0  0  0
    8.7800    2.6510  -61.6780 C   0  0  0  0  0  0  0  0  0  0  0  0
   13.4282    4.9662  -58.9109 H   0  0  0  0  0  0  0  0  0  0  0  0
   13.5051    3.2458  -59.4216 H   0  0  0  0  0  0  0  0  0  0  0  0
   11.9321    4.1132  -59.4216 H   0  0  0  0  0  0  0  0  0  0  0  0
   13.5439    3.0159  -57.1240 H   0  0  0  0  0  0  0  0  0  0  0  0
   12.4656    4.4827  -56.8915 H   0  0  0  0  0  0  0  0  0  0  0  0
   11.2309    2.1518  -58.2251 H   0  0  0  0  0  0  0  0  0  0  0  0
   11.6804    1.9819  -56.4503 H   0  0  0  0  0  0  0  0  0  0  0  0
   10.3616    3.9398  -55.9169 H   0  0  0  0  0  0  0  0  0  0  0  0
    9.8843    4.0590  -57.6885 H   0  0  0  0  0  0  0  0  0  0  0  0
    9.6866    1.1247  -55.0454 H   0  0  0  0  0  0  0  0  0  0  0  0
    6.0620    1.2320  -56.9030 H   0  0  0  0  0  0  0  0  0  0  0  0
    6.0993    3.5484  -58.1009 H   0  0  0  0  0  0  0  0  0  0  0  0
    7.7701    4.3026  -58.3374 H   0  0  0  0  0  0  0  0  0  0  0  0
    3.5720   -0.4220  -61.7810 H   0  0  0  0  0  0  0  0  0  0  0  0
    2.6773    0.7268  -62.8328 H   0  0  0  0  0  0  0  0  0  0  0  0
    4.4735    0.7215  -62.8328 H   0  0  0  0  0  0  0  0  0  0  0  0
    7.2830    4.3186  -61.0036 H   0  0  0  0  0  0  0  0  0  0  0  0
    9.8387    4.9128  -60.6576 H   0  0  0  0  0  0  0  0  0  0  0  0
    9.5980    4.3055  -59.1268 H   0  0  0  0  0  0  0  0  0  0  0  0
   10.9654    2.7726  -61.2321 H   0  0  0  0  0  0  0  0  0  0  0  0
   10.2331    1.8395  -60.0696 H   0  0  0  0  0  0  0  0  0  0  0  0
    8.9631    3.0952  -62.6675 H   0  0  0  0  0  0  0  0  0  0  0  0
    8.3406    1.6989  -62.0103 H   0  0  0  0  0  0  0  0  0  0  0  0
  1  2  1  0
  2  3  1  0
  3  4  1  0
  4  5  1  0
  5  6  1  0
  6  7  2  0
  7  8  1  0
  8  9  1  0
  9 10  1  0
 10 11  1  0
 11 12  1  0
 12 13  3  0
 13 14  1  0
 14 15  1  0
 14 16  2  0
 11 17  1  0
 17 18  1  0
 18 19  1  0
 19 20  1  0
  9  5  2  0
 20 17  1  0
  1 21  1  0
  1 22  1  0
  1 23  1  0
  2 24  1  0
  2 25  1  0
  3 26  1  0
  3 27  1  0
  4 28  1  0
  4 29  1  0
  6 30  1  0
  8 31  1  0
 10 32  1  0
 10 33  1  0
 15 34  1  0
 15 35  1  0
 15 36  1  0
 17 37  1  0
 18 38  1  0
 18 39  1  0
 19 40  1  0
 19 41  1  0
 20 42  1  0
 20 43  1  0
M  END
>  <meeko>  (253) 
{"is_sidechain": false}

$$$$

     RDKit          3D

 51 54  0  0  0  0  0  0  0  0999 V2000
   13.3620    4.9300  -58.3190 C   0  0  0  0  0  0  0  0  0  0  0  0
   12.3520    3.7900  -58.2060 C   0  0  1  0  0  0  0  0  0  0  0  0
   11.2190    4.1460  -57.2370 C   0  0  0  0  0  0  0  0  0  0  0  0
   10.2060    3.0280  -57.2050 C   0  0  0  0  0  0  0  0  0  0  0  0
    9.6530    2.5960  -56.0610 C   0  0  0  0  0  0  0  0  0  0  0  0
    8.6800    1.4650  -55.9320 C   0  0  0  0  0  0  0  0  0  0  0  0
    9.4140    0.3160  -55.4050 N   0  0  0  0  0  0  0  0  0  0  0  0
    8.7840   -0.4440  -54.5730 C   0  0  0  0  0  0  0  0  0  0  0  0
    7.4880   -0.1820  -54.1870 N   0  0  0  0  0  0  0  0  0  0  0  0
    7.0560   -0.5920  -53.0890 N   0  0  0  0  0  0  0  0  0  0  0  0
    7.7670   -1.4310  -52.2760 C   0  0  0  0  0  0  0  0  0  0  0  0
    7.3290   -1.7440  -51.0380 C   0  0  0  0  0  0  0  0  0  0  0  0
    8.0410   -2.6990  -50.2090 C   0  0  0  0  0  0  0  0  0  0  0  0
    9.1180   -3.3090  -50.7270 C   0  0  0  0  0  0  0  0  0  0  0  0
    9.5610   -3.0440  -52.0020 N   0  0  0  0  0  0  0  0  0  0  0  0
    8.9830   -2.0670  -52.8120 C   0  0  0  0  0  0  0  0  0  0  0  0
    9.4440   -1.6540  -54.0070 C   0  0  0  0  0  0  0  0  0  0  0  0
   10.6540   -2.2510  -54.6390 C   0  0  0  0  0  0  0  0  0  0  0  0
   10.4310   -3.5320  -55.5040 C   0  0  0  0  0  0  0  0  0  0  0  0
   11.5470   -3.0160  -56.4320 C   0  0  0  0  0  0  0  0  0  0  0  0
   11.1690   -1.6010  -55.9610 C   0  0  0  0  0  0  0  0  0  0  0  0
    9.8990    2.4070  -58.4040 O   0  0  0  0  0  0  0  0  0  0  0  0
   10.2810    3.1630  -59.5580 C   0  0  2  0  0  0  0  0  0  0  0  0
    9.8190    2.3990  -60.7930 C   0  0  0  0  0  0  0  0  0  0  0  0
   11.7970    3.3930  -59.5860 C   0  0  0  0  0  0  0  0  0  0  0  0
   13.6554    5.2611  -57.3119 H   0  0  0  0  0  0  0  0  0  0  0  0
   14.2513    4.5794  -58.8633 H   0  0  0  0  0  0  0  0  0  0  0  0
   12.9068    5.7706  -58.8633 H   0  0  0  0  0  0  0  0  0  0  0  0
   12.8825    2.9176  -57.7967 H   0  0  0  0  0  0  0  0  0  0  0  0
   11.6331    4.2930  -56.2286 H   0  0  0  0  0  0  0  0  0  0  0  0
   10.7292    5.0714  -57.5740 H   0  0  0  0  0  0  0  0  0  0  0  0
    9.9397    3.1188  -55.1366 H   0  0  0  0  0  0  0  0  0  0  0  0
    7.8699    1.7427  -55.2416 H   0  0  0  0  0  0  0  0  0  0  0  0
    8.2309    1.2254  -56.9071 H   0  0  0  0  0  0  0  0  0  0  0  0
    6.4166   -1.2669  -50.6509 H   0  0  0  0  0  0  0  0  0  0  0  0
    7.7068   -2.9168  -49.1839 H   0  0  0  0  0  0  0  0  0  0  0  0
    9.6626   -4.0424  -50.1142 H   0  0  0  0  0  0  0  0  0  0  0  0
   10.4630   -3.4180  -52.2710 H   0  0  0  0  0  0  0  0  0  0  0  0
   11.2468   -2.2481  -53.7124 H   0  0  0  0  0  0  0  0  0  0  0  0
   10.6610   -4.4777  -54.9914 H   0  0  0  0  0  0  0  0  0  0  0  0
    9.4375   -3.8048  -55.8893 H   0  0  0  0  0  0  0  0  0  0  0  0
   12.5619   -3.3381  -56.1560 H   0  0  0  0  0  0  0  0  0  0  0  0
   11.5907   -3.2844  -57.4979 H   0  0  0  0  0  0  0  0  0  0  0  0
   12.0211   -0.9170  -55.8341 H   0  0  0  0  0  0  0  0  0  0  0  0
   10.5313   -0.9410  -56.5673 H   0  0  0  0  0  0  0  0  0  0  0  0
    9.8085    4.1560  -59.5326 H   0  0  0  0  0  0  0  0  0  0  0  0
    9.2729    1.4960  -60.4825 H   0  0  0  0  0  0  0  0  0  0  0  0
    9.1567    3.0395  -61.3939 H   0  0  0  0  0  0  0  0  0  0  0  0
   10.6938    2.1100  -61.3939 H   0  0  0  0  0  0  0  0  0  0  0  0
   12.2898    2.4652  -59.9122 H   0  0  0  0  0  0  0  0  0  0  0  0
   11.9996    4.2207  -60.2816 H   0  0  0  0  0  0  0  0  0  0  0  0
  1  2  1  0
  2  3  1  0
  3  4  1  0
  4  5  2  0
  5  6  1  0
  6  7  1  0
  7  8  2  0
  8  9  1  0
  9 10  2  0
 10 11  1  0
 11 12  2  0
 12 13  1  0
 13 14  2  0
 14 15  1  0
 15 16  1  0
 16 17  2  0
 17 18  1  0
 18 19  1  0
 19 20  1  0
 20 21  1  0
  4 22  1  0
 22 23  1  0
 23 24  1  0
 23 25  1  0
 25  2  1  0
 17  8  1  0
 21 18  1  0
 16 11  1  0
  1 26  1  0
  1 27  1  0
  1 28  1  0
  2 29  1  1
  3 30  1  0
  3 31  1  0
  5 32  1  0
  6 33  1  0
  6 34  1  0
 12 35  1  0
 13 36  1  0
 14 37  1  0
 15 38  1  0
 18 39  1  0
 19 40  1  0
 19 41  1  0
 20 42  1  0
 20 43  1  0
 21 44  1  0
 21 45  1  0
 23 46  1  1
 24 47  1  0
 24 48  1  0
 24 49  1  0
 25 50  1  0
 25 51  1  0
M  END
>  <meeko>  (254) 
{"is_sidechain": false}

$$$$

     RDKit          3D

 51 54  0  0  0  0  0  0  0  0999 V2000
    8.5210   -3.0400  -50.5850 C   0  0  0  0  0  0  0  0  0  0  0  0
    8.2870   -2.5860  -52.0240 C   0  0  1  0  0  0  0  0  0  0  0  0
    7.7360   -1.1570  -52.0720 C   0  0  0  0  0  0  0  0  0  0  0  0
    7.5870   -0.7170  -53.5070 C   0  0  0  0  0  0  0  0  0  0  0  0
    6.5170   -0.0310  -53.9400 C   0  0  0  0  0  0  0  0  0  0  0  0
    6.2630    0.3970  -55.3550 C   0  0  0  0  0  0  0  0  0  0  0  0
    7.3150    1.3120  -55.7770 N   0  0  0  0  0  0  0  0  0  0  0  0
    7.4030    1.6150  -57.1510 C   0  0  0  0  0  0  0  0  0  0  0  0
    6.3380    1.3850  -57.9510 N   0  0  0  0  0  0  0  0  0  0  0  0
    6.3900    1.6590  -59.2750 N   0  0  0  0  0  0  0  0  0  0  0  0
    7.5130    2.1510  -59.8010 C   0  0  0  0  0  0  0  0  0  0  0  0
    7.5520    2.4390  -61.1580 C   0  0  0  0  0  0  0  0  0  0  0  0
    8.6980    2.9570  -61.7460 C   0  0  0  0  0  0  0  0  0  0  0  0
    9.7850    3.1700  -60.9300 C   0  0  0  0  0  0  0  0  0  0  0  0
    9.7810    2.9010  -59.6060 N   0  0  0  0  0  0  0  0  0  0  0  0
    8.6670    2.3920  -59.0320 C   0  0  0  0  0  0  0  0  0  0  0  0
    8.6310    2.0990  -57.6560 C   0  0  0  0  0  0  0  0  0  0  0  0
    9.8870    2.2930  -56.6520 C   0  0  0  0  0  0  0  0  0  0  0  0
   10.0910    3.7220  -56.0610 C   0  0  0  0  0  0  0  0  0  0  0  0
   11.2550    3.9080  -57.0500 C   0  0  0  0  0  0  0  0  0  0  0  0
   11.3660    2.3740  -57.1120 C   0  0  0  0  0  0  0  0  0  0  0  0
    8.5770   -1.0910  -54.4020 O   0  0  0  0  0  0  0  0  0  0  0  0
    9.7960   -1.4970  -53.7700 C   0  0  2  0  0  0  0  0  0  0  0  0
   10.8110   -1.8040  -54.8640 C   0  0  0  0  0  0  0  0  0  0  0  0
    9.5680   -2.7170  -52.8680 C   0  0  0  0  0  0  0  0  0  0  0  0
    8.1294   -2.2803  -49.8926 H   0  0  0  0  0  0  0  0  0  0  0  0
    8.0027   -3.9949  -50.4129 H   0  0  0  0  0  0  0  0  0  0  0  0
    9.5994   -3.1719  -50.4129 H   0  0  0  0  0  0  0  0  0  0  0  0
    7.5297   -3.2520  -52.4633 H   0  0  0  0  0  0  0  0  0  0  0  0
    6.7543   -1.1269  -51.5766 H   0  0  0  0  0  0  0  0  0  0  0  0
    8.4322   -0.4808  -51.5543 H   0  0  0  0  0  0  0  0  0  0  0  0
    5.7594    0.2413  -53.1904 H   0  0  0  0  0  0  0  0  0  0  0  0
    6.2590   -0.4860  -56.0110 H   0  0  0  0  0  0  0  0  0  0  0  0
    5.2879    0.9022  -55.4180 H   0  0  0  0  0  0  0  0  0  0  0  0
    7.2820    2.1650  -55.2260 H   0  0  0  0  0  0  0  0  0  0  0  0
    6.6616    2.2541  -61.7769 H   0  0  0  0  0  0  0  0  0  0  0  0
    8.7354    3.1878  -62.8209 H   0  0  0  0  0  0  0  0  0  0  0  0
   10.7026    3.5795  -61.3776 H   0  0  0  0  0  0  0  0  0  0  0  0
    9.5637    1.4048  -56.0893 H   0  0  0  0  0  0  0  0  0  0  0  0
    9.2443    4.4064  -56.2184 H   0  0  0  0  0  0  0  0  0  0  0  0
   10.2245    3.8825  -54.9810 H   0  0  0  0  0  0  0  0  0  0  0  0
   10.9762    4.3858  -58.0008 H   0  0  0  0  0  0  0  0  0  0  0  0
   12.1223    4.5398  -56.8078 H   0  0  0  0  0  0  0  0  0  0  0  0
   11.5527    1.9712  -58.1184 H   0  0  0  0  0  0  0  0  0  0  0  0
   12.1615    1.8367  -56.5748 H   0  0  0  0  0  0  0  0  0  0  0  0
   10.1733   -0.6907  -53.1238 H   0  0  0  0  0  0  0  0  0  0  0  0
   11.7681   -2.0935  -54.4055 H   0  0  0  0  0  0  0  0  0  0  0  0
   10.4389   -2.6298  -55.4882 H   0  0  0  0  0  0  0  0  0  0  0  0
   10.9589   -0.9104  -55.4882 H   0  0  0  0  0  0  0  0  0  0  0  0
    9.4858   -3.6139  -53.4995 H   0  0  0  0  0  0  0  0  0  0  0  0
   10.4210   -2.7900  -52.1773 H   0  0  0  0  0  0  0  0  0  0  0  0
  1  2  1  0
  2  3  1  0
  3  4  1  0
  4  5  2  0
  5  6  1  0
  6  7  1  0
  7  8  1  0
  8  9  1  0
  9 10  2  0
 10 11  1  0
 11 12  2  0
 12 13  1  0
 13 14  2  0
 14 15  1  0
 15 16  2  0
 16 17  1  0
 17 18  1  0
 18 19  1  0
 19 20  1  0
 20 21  1  0
  4 22  1  0
 22 23  1  0
 23 24  1  0
 23 25  1  0
 25  2  1  0
 17  8  2  0
 21 18  1  0
 16 11  1  0
  1 26  1  0
  1 27  1  0
  1 28  1  0
  2 29  1  6
  3 30  1  0
  3 31  1  0
  5 32  1  0
  6 33  1  0
  6 34  1  0
  7 35  1  0
 12 36  1  0
 13 37  1  0
 14 38  1  0
 18 39  1  0
 19 40  1  0
 19 41  1  0
 20 42  1  0
 20 43  1  0
 21 44  1  0
 21 45  1  0
 23 46  1  1
 24 47  1  0
 24 48  1  0
 24 49  1  0
 25 50  1  0
 25 51  1  0
M  END
>  <meeko>  (255) 
{"is_sidechain": false}

$$$$

     RDKit          3D

 51 54  0  0  0  0  0  0  0  0999 V2000
   13.4860    5.4960  -59.5580 C   0  0  0  0  0  0  0  0  0  0  0  0
   12.2780    4.5720  -59.4260 C   0  0  1  0  0  0  0  0  0  0  0  0
   12.0650    4.1510  -57.9730 C   0  0  0  0  0  0  0  0  0  0  0  0
   10.7860    3.3770  -57.7790 C   0  0  0  0  0  0  0  0  0  0  0  0
   10.7240    2.3420  -56.9260 C   0  0  0  0  0  0  0  0  0  0  0  0
    9.4980    1.5650  -56.5610 C   0  0  0  0  0  0  0  0  0  0  0  0
    9.8810    0.2970  -55.9540 N   0  0  0  0  0  0  0  0  0  0  0  0
    9.2380   -0.1660  -54.9300 C   0  0  0  0  0  0  0  0  0  0  0  0
    8.1500    0.4440  -54.3420 N   0  0  0  0  0  0  0  0  0  0  0  0
    7.5360    0.0600  -53.1950 N   0  0  0  0  0  0  0  0  0  0  0  0
    8.0300   -1.0060  -52.6440 C   0  0  0  0  0  0  0  0  0  0  0  0
    7.4210   -1.4710  -51.3760 C   0  0  0  0  0  0  0  0  0  0  0  0
    7.8880   -2.5540  -50.7560 C   0  0  0  0  0  0  0  0  0  0  0  0
    9.0210   -3.2590  -51.3730 C   0  0  0  0  0  0  0  0  0  0  0  0
    9.6210   -2.9520  -52.4720 N   0  0  0  0  0  0  0  0  0  0  0  0
    9.1750   -1.8460  -53.1690 C   0  0  0  0  0  0  0  0  0  0  0  0
    9.7310   -1.4620  -54.3370 C   0  0  0  0  0  0  0  0  0  0  0  0
   10.8620   -2.2250  -54.9530 C   0  0  0  0  0  0  0  0  0  0  0  0
   11.4520   -1.6800  -56.2910 C   0  0  0  0  0  0  0  0  0  0  0  0
   11.6890   -3.1420  -56.7060 C   0  0  0  0  0  0  0  0  0  0  0  0
   10.5140   -3.5030  -55.7810 C   0  0  0  0  0  0  0  0  0  0  0  0
    9.6440    3.8330  -58.4070 O   0  0  0  0  0  0  0  0  0  0  0  0
    9.7860    4.3500  -59.7400 C   0  0  2  0  0  0  0  0  0  0  0  0
    9.7380    3.2090  -60.7540 C   0  0  0  0  0  0  0  0  0  0  0  0
   11.0060    5.2570  -59.9220 C   0  0  0  0  0  0  0  0  0  0  0  0
   13.8474    5.7724  -58.5565 H   0  0  0  0  0  0  0  0  0  0  0  0
   14.2862    4.9773  -60.1063 H   0  0  0  0  0  0  0  0  0  0  0  0
   13.1949    6.4041  -60.1063 H   0  0  0  0  0  0  0  0  0  0  0  0
   12.4843    3.6843  -60.0420 H   0  0  0  0  0  0  0  0  0  0  0  0
   12.9102    3.5200  -57.6608 H   0  0  0  0  0  0  0  0  0  0  0  0
   11.9980    5.0658  -57.3658 H   0  0  0  0  0  0  0  0  0  0  0  0
   11.6664    2.0351  -56.4488 H   0  0  0  0  0  0  0  0  0  0  0  0
    8.8969    2.1457  -55.8458 H   0  0  0  0  0  0  0  0  0  0  0  0
    8.9075    1.3701  -57.4684 H   0  0  0  0  0  0  0  0  0  0  0  0
    7.7880    1.2760  -54.7980 H   0  0  0  0  0  0  0  0  0  0  0  0
    6.5754   -0.9170  -50.9423 H   0  0  0  0  0  0  0  0  0  0  0  0
    7.4414   -2.9083  -49.8153 H   0  0  0  0  0  0  0  0  0  0  0  0
    9.3975   -4.1441  -50.8393 H   0  0  0  0  0  0  0  0  0  0  0  0
   11.4379   -2.2641  -54.0166 H   0  0  0  0  0  0  0  0  0  0  0  0
   10.7332   -1.1354  -56.9209 H   0  0  0  0  0  0  0  0  0  0  0  0
   12.2627   -0.9366  -56.3048 H   0  0  0  0  0  0  0  0  0  0  0  0
   11.5188   -3.3527  -57.7721 H   0  0  0  0  0  0  0  0  0  0  0  0
   12.6739   -3.6235  -56.6159 H   0  0  0  0  0  0  0  0  0  0  0  0
    9.5262   -3.4815  -56.2645 H   0  0  0  0  0  0  0  0  0  0  0  0
   10.4322   -4.4934  -55.3093 H   0  0  0  0  0  0  0  0  0  0  0  0
    8.9279    5.0124  -59.9266 H   0  0  0  0  0  0  0  0  0  0  0  0
    9.6975    2.2471  -60.2219 H   0  0  0  0  0  0  0  0  0  0  0  0
    8.8436    3.3168  -61.3852 H   0  0  0  0  0  0  0  0  0  0  0  0
   10.6383    3.2413  -61.3852 H   0  0  0  0  0  0  0  0  0  0  0  0
   11.1197    5.4967  -60.9895 H   0  0  0  0  0  0  0  0  0  0  0  0
   10.8508    6.1741  -59.3348 H   0  0  0  0  0  0  0  0  0  0  0  0
  1  2  1  0
  2  3  1  0
  3  4  1  0
  4  5  2  0
  5  6  1  0
  6  7  1  0
  7  8  2  0
  8  9  1  0
  9 10  1  0
 10 11  2  0
 11 12  1  0
 12 13  2  0
 13 14  1  0
 14 15  2  0
 15 16  1  0
 16 17  2  0
 17 18  1  0
 18 19  1  0
 19 20  1  0
 20 21  1  0
  4 22  1  0
 22 23  1  0
 23 24  1  0
 23 25  1  0
 25  2  1  0
 17  8  1  0
 21 18  1  0
 16 11  1  0
  1 26  1  0
  1 27  1  0
  1 28  1  0
  2 29  1  6
  3 30  1  0
  3 31  1  0
  5 32  1  0
  6 33  1  0
  6 34  1  0
  9 35  1  0
 12 36  1  0
 13 37  1  0
 14 38  1  0
 18 39  1  0
 19 40  1  0
 19 41  1  0
 20 42  1  0
 20 43  1  0
 21 44  1  0
 21 45  1  0
 23 46  1  6
 24 47  1  0
 24 48  1  0
 24 49  1  0
 25 50  1  0
 25 51  1  0
M  END
>  <meeko>  (256) 
{"is_sidechain": false}

$$$$

     RDKit          3D

 51 54  0  0  0  0  0  0  0  0999 V2000
    7.2680   -3.4070  -50.1150 C   0  0  0  0  0  0  0  0  0  0  0  0
    7.6790   -2.9300  -51.5050 C   0  0  1  0  0  0  0  0  0  0  0  0
    7.5330   -1.4110  -51.6360 C   0  0  0  0  0  0  0  0  0  0  0  0
    8.0190   -0.9670  -52.9930 C   0  0  0  0  0  0  0  0  0  0  0  0
    7.3640   -0.0510  -53.7250 C   0  0  0  0  0  0  0  0  0  0  0  0
    7.7580    0.3920  -55.1000 C   0  0  0  0  0  0  0  0  0  0  0  0
    6.6130    1.0000  -55.7520 N   0  0  0  0  0  0  0  0  0  0  0  0
    6.6370    1.7160  -56.8240 C   0  0  0  0  0  0  0  0  0  0  0  0
    5.3800    1.9700  -57.3370 N   0  0  0  0  0  0  0  0  0  0  0  0
    5.1140    2.0850  -58.6670 N   0  0  0  0  0  0  0  0  0  0  0  0
    6.1600    2.3100  -59.4030 C   0  0  0  0  0  0  0  0  0  0  0  0
    5.9610    2.4310  -60.8670 C   0  0  0  0  0  0  0  0  0  0  0  0
    6.9770    2.7640  -61.6620 C   0  0  0  0  0  0  0  0  0  0  0  0
    8.2790    3.0210  -61.0310 C   0  0  0  0  0  0  0  0  0  0  0  0
    8.5730    2.9060  -59.7810 N   0  0  0  0  0  0  0  0  0  0  0  0
    7.5830    2.4910  -58.9120 C   0  0  0  0  0  0  0  0  0  0  0  0
    7.8160    2.2580  -57.6000 C   0  0  0  0  0  0  0  0  0  0  0  0
    9.1030    2.6080  -56.9260 C   0  0  0  0  0  0  0  0  0  0  0  0
   10.3950    1.8820  -57.3750 C   0  0  0  0  0  0  0  0  0  0  0  0
   11.1540    3.1900  -57.0670 C   0  0  0  0  0  0  0  0  0  0  0  0
    9.8190    3.9430  -57.2640 C   0  0  0  0  0  0  0  0  0  0  0  0
    9.1550   -1.5770  -53.5010 O   0  0  0  0  0  0  0  0  0  0  0  0
    9.9270   -2.2660  -52.5130 C   0  0  2  0  0  0  0  0  0  0  0  0
   11.1690   -2.8260  -53.1950 C   0  0  0  0  0  0  0  0  0  0  0  0
    9.1070   -3.3840  -51.8560 C   0  0  0  0  0  0  0  0  0  0  0  0
    7.7859   -2.8059  -49.3531 H   0  0  0  0  0  0  0  0  0  0  0  0
    6.1805   -3.2932  -49.9950 H   0  0  0  0  0  0  0  0  0  0  0  0
    7.5413   -4.4657  -49.9950 H   0  0  0  0  0  0  0  0  0  0  0  0
    6.9955   -3.3962  -52.2299 H   0  0  0  0  0  0  0  0  0  0  0  0
    6.4749   -1.1342  -51.5183 H   0  0  0  0  0  0  0  0  0  0  0  0
    8.1332   -0.9195  -50.8562 H   0  0  0  0  0  0  0  0  0  0  0  0
    6.4693    0.4091  -53.2802 H   0  0  0  0  0  0  0  0  0  0  0  0
    8.5743    1.1260  -55.0302 H   0  0  0  0  0  0  0  0  0  0  0  0
    8.0984   -0.4756  -55.6844 H   0  0  0  0  0  0  0  0  0  0  0  0
    4.6520    1.5270  -56.7800 H   0  0  0  0  0  0  0  0  0  0  0  0
    4.9672    2.2445  -61.3002 H   0  0  0  0  0  0  0  0  0  0  0  0
    6.8459    2.8437  -62.7513 H   0  0  0  0  0  0  0  0  0  0  0  0
    9.0910    3.3469  -61.6976 H   0  0  0  0  0  0  0  0  0  0  0  0
    8.6540    2.4457  -55.9350 H   0  0  0  0  0  0  0  0  0  0  0  0
   10.6823    1.0258  -56.7470 H   0  0  0  0  0  0  0  0  0  0  0  0
   10.4701    1.3855  -58.3537 H   0  0  0  0  0  0  0  0  0  0  0  0
   11.5672    3.2502  -56.0494 H   0  0  0  0  0  0  0  0  0  0  0  0
   12.0614    3.4729  -57.6208 H   0  0  0  0  0  0  0  0  0  0  0  0
    9.6392    4.7560  -56.5452 H   0  0  0  0  0  0  0  0  0  0  0  0
    9.5986    4.5036  -58.1844 H   0  0  0  0  0  0  0  0  0  0  0  0
   10.2193   -1.5719  -51.7113 H   0  0  0  0  0  0  0  0  0  0  0  0
   11.8911   -3.1516  -52.4317 H   0  0  0  0  0  0  0  0  0  0  0  0
   10.8871   -3.6841  -53.8228 H   0  0  0  0  0  0  0  0  0  0  0  0
   11.6255   -2.0466  -53.8228 H   0  0  0  0  0  0  0  0  0  0  0  0
    9.0473   -4.2345  -52.5511 H   0  0  0  0  0  0  0  0  0  0  0  0
    9.6108   -3.6659  -50.9197 H   0  0  0  0  0  0  0  0  0  0  0  0
  1  2  1  0
  2  3  1  0
  3  4  1  0
  4  5  2  0
  5  6  1  0
  6  7  1  0
  7  8  2  0
  8  9  1  0
  9 10  1  0
 10 11  2  0
 11 12  1  0
 12 13  2  0
 13 14  1  0
 14 15  2  0
 15 16  1  0
 16 17  2  0
 17 18  1  0
 18 19  1  0
 19 20  1  0
 20 21  1  0
  4 22  1  0
 22 23  1  0
 23 24  1  0
 23 25  1  0
 25  2  1  0
 17  8  1  0
 21 18  1  0
 16 11  1  0
  1 26  1  0
  1 27  1  0
  1 28  1  0
  2 29  1  6
  3 30  1  0
  3 31  1  0
  5 32  1  0
  6 33  1  0
  6 34  1  0
  9 35  1  0
 12 36  1  0
 13 37  1  0
 14 38  1  0
 18 39  1  0
 19 40  1  0
 19 41  1  0
 20 42  1  0
 20 43  1  0
 21 44  1  0
 21 45  1  0
 23 46  1  1
 24 47  1  0
 24 48  1  0
 24 49  1  0
 25 50  1  0
 25 51  1  0
M  END
>  <meeko>  (257) 
{"is_sidechain": false}

$$$$

     RDKit          3D

 51 54  0  0  0  0  0  0  0  0999 V2000
    8.0580   -3.4140  -50.1160 C   0  0  0  0  0  0  0  0  0  0  0  0
    8.2820   -2.9400  -51.5500 C   0  0  1  0  0  0  0  0  0  0  0  0
    7.7330   -1.5260  -51.7540 C   0  0  0  0  0  0  0  0  0  0  0  0
    8.0960   -1.0110  -53.1210 C   0  0  0  0  0  0  0  0  0  0  0  0
    7.1930   -0.4940  -53.9690 C   0  0  0  0  0  0  0  0  0  0  0  0
    7.4910    0.0310  -55.3400 C   0  0  0  0  0  0  0  0  0  0  0  0
    6.3520    0.8290  -55.7530 N   0  0  0  0  0  0  0  0  0  0  0  0
    6.4530    1.7490  -56.6360 C   0  0  0  0  0  0  0  0  0  0  0  0
    5.2620    2.2920  -57.0730 N   0  0  0  0  0  0  0  0  0  0  0  0
    5.0940    2.3940  -58.3140 N   0  0  0  0  0  0  0  0  0  0  0  0
    6.1490    2.3160  -59.1900 C   0  0  0  0  0  0  0  0  0  0  0  0
    5.9670    2.2710  -60.5250 C   0  0  0  0  0  0  0  0  0  0  0  0
    7.0980    2.3670  -61.4320 C   0  0  0  0  0  0  0  0  0  0  0  0
    8.3120    2.6110  -60.9140 C   0  0  0  0  0  0  0  0  0  0  0  0
    8.5170    2.7320  -59.5570 N   0  0  0  0  0  0  0  0  0  0  0  0
    7.5090    2.4620  -58.6330 C   0  0  0  0  0  0  0  0  0  0  0  0
    7.6560    2.3270  -57.3020 C   0  0  0  0  0  0  0  0  0  0  0  0
    8.9320    2.6220  -56.6060 C   0  0  0  0  0  0  0  0  0  0  0  0
   10.1960    1.8920  -57.1620 C   0  0  0  0  0  0  0  0  0  0  0  0
   10.9900    3.1720  -56.8540 C   0  0  0  0  0  0  0  0  0  0  0  0
    9.6640    3.9370  -57.0110 C   0  0  0  0  0  0  0  0  0  0  0  0
    9.4360   -1.0620  -53.4600 O   0  0  0  0  0  0  0  0  0  0  0  0
   10.0270   -2.3640  -53.3000 C   0  0  2  0  0  0  0  0  0  0  0  0
    9.6100   -3.2850  -54.4460 C   0  0  0  0  0  0  0  0  0  0  0  0
    9.7720   -2.9590  -51.9100 C   0  0  0  0  0  0  0  0  0  0  0  0
    8.4204   -2.6472  -49.4155 H   0  0  0  0  0  0  0  0  0  0  0  0
    6.9841   -3.5844  -49.9497 H   0  0  0  0  0  0  0  0  0  0  0  0
    8.6082   -4.3519  -49.9497 H   0  0  0  0  0  0  0  0  0  0  0  0
    7.7426   -3.6350  -52.2103 H   0  0  0  0  0  0  0  0  0  0  0  0
    6.6378   -1.5451  -51.6536 H   0  0  0  0  0  0  0  0  0  0  0  0
    8.1722   -0.8613  -50.9955 H   0  0  0  0  0  0  0  0  0  0  0  0
    6.1477   -0.4524  -53.6291 H   0  0  0  0  0  0  0  0  0  0  0  0
    8.3978    0.6532  -55.3160 H   0  0  0  0  0  0  0  0  0  0  0  0
    7.6635   -0.7958  -56.0448 H   0  0  0  0  0  0  0  0  0  0  0  0
    4.9511    2.1604  -60.9321 H   0  0  0  0  0  0  0  0  0  0  0  0
    6.9627    2.2428  -62.5166 H   0  0  0  0  0  0  0  0  0  0  0  0
    9.1699    2.7177  -61.5941 H   0  0  0  0  0  0  0  0  0  0  0  0
    9.4760    2.7160  -59.2300 H   0  0  0  0  0  0  0  0  0  0  0  0
    8.5407    2.4561  -55.5914 H   0  0  0  0  0  0  0  0  0  0  0  0
   10.5070    1.0093  -56.5840 H   0  0  0  0  0  0  0  0  0  0  0  0
   10.2053    1.4324  -58.1614 H   0  0  0  0  0  0  0  0  0  0  0  0
   11.4276    3.2110  -55.8455 H   0  0  0  0  0  0  0  0  0  0  0  0
   11.8922    3.4481  -57.4195 H   0  0  0  0  0  0  0  0  0  0  0  0
    9.5302    4.7714  -56.3069 H   0  0  0  0  0  0  0  0  0  0  0  0
    9.4141    4.4752  -57.9372 H   0  0  0  0  0  0  0  0  0  0  0  0
   11.1199   -2.2537  -53.3584 H   0  0  0  0  0  0  0  0  0  0  0  0
    9.1892   -4.2144  -54.0349 H   0  0  0  0  0  0  0  0  0  0  0  0
    8.8521   -2.7813  -55.0640 H   0  0  0  0  0  0  0  0  0  0  0  0
   10.4885   -3.5222  -55.0640 H   0  0  0  0  0  0  0  0  0  0  0  0
   10.1288   -3.9994  -51.8966 H   0  0  0  0  0  0  0  0  0  0  0  0
   10.3112   -2.3480  -51.1711 H   0  0  0  0  0  0  0  0  0  0  0  0
  1  2  1  0
  2  3  1  0
  3  4  1  0
  4  5  2  0
  5  6  1  0
  6  7  1  0
  7  8  2  0
  8  9  1  0
  9 10  2  0
 10 11  1  0
 11 12  2  0
 12 13  1  0
 13 14  2  0
 14 15  1  0
 15 16  1  0
 16 17  2  0
 17 18  1  0
 18 19  1  0
 19 20  1  0
 20 21  1  0
  4 22  1  0
 22 23  1  0
 23 24  1  0
 23 25  1  0
 25  2  1  0
 17  8  1  0
 21 18  1  0
 16 11  1  0
  1 26  1  0
  1 27  1  0
  1 28  1  0
  2 29  1  6
  3 30  1  0
  3 31  1  0
  5 32  1  0
  6 33  1  0
  6 34  1  0
 12 35  1  0
 13 36  1  0
 14 37  1  0
 15 38  1  0
 18 39  1  0
 19 40  1  0
 19 41  1  0
 20 42  1  0
 20 43  1  0
 21 44  1  0
 21 45  1  0
 23 46  1  6
 24 47  1  0
 24 48  1  0
 24 49  1  0
 25 50  1  0
 25 51  1  0
M  END
>  <meeko>  (258) 
{"is_sidechain": false}

$$$$

     RDKit          3D

 63 66  0  0  0  0  0  0  0  0999 V2000
    9.8950   -3.0570  -53.2540 C   0  0  0  0  0  0  0  0  0  0  0  0
    9.4270   -1.6130  -53.4140 C   0  0  1  0  0  0  0  0  0  0  0  0
    9.4720   -1.1680  -54.8750 C   0  0  0  0  0  0  0  0  0  0  0  0
    9.0380    0.2690  -54.9850 C   0  0  0  0  0  0  0  0  0  0  0  0
    9.5470    1.0940  -55.9140 C   0  0  0  0  0  0  0  0  0  0  0  0
    9.2240    2.5480  -56.0670 C   0  0  0  0  0  0  0  0  0  0  0  0
    9.2930    2.8630  -57.4920 N   0  0  0  0  0  0  0  0  0  0  0  0
    8.1730    3.0430  -58.1080 C   0  0  0  0  0  0  0  0  0  0  0  0
    6.9680    2.9340  -57.4510 N   0  0  0  0  0  0  0  0  0  0  0  0
    5.9340    2.6150  -58.0740 N   0  0  0  0  0  0  0  0  0  0  0  0
    5.8860    2.5250  -59.4370 C   0  0  0  0  0  0  0  0  0  0  0  0
    4.7850    2.0570  -60.0630 C   0  0  0  0  0  0  0  0  0  0  0  0
    4.6640    2.0370  -61.5270 C   0  0  0  0  0  0  0  0  0  0  0  0
    3.4040    1.4250  -62.1600 C   0  0  0  0  0  0  0  0  0  0  0  0
    2.5400    0.7460  -61.0750 C   0  0  0  0  0  0  0  0  0  0  0  0
    3.7260    0.3470  -63.2230 C   0  0  0  0  0  0  0  0  0  0  0  0
    2.5730    2.5190  -62.8620 C   0  0  0  0  0  0  0  0  0  0  0  0
    5.6940    2.5850  -62.2040 C   0  0  0  0  0  0  0  0  0  0  0  0
    6.8070    3.1160  -61.5880 N   0  0  0  0  0  0  0  0  0  0  0  0
    7.0170    3.0460  -60.2140 C   0  0  0  0  0  0  0  0  0  0  0  0
    8.1410    3.3930  -59.5590 C   0  0  0  0  0  0  0  0  0  0  0  0
    9.3110    3.9720  -60.2800 C   0  0  0  0  0  0  0  0  0  0  0  0
   10.6770    3.2700  -60.0830 C   0  0  0  0  0  0  0  0  0  0  0  0
   11.3290    4.6660  -60.1760 C   0  0  0  0  0  0  0  0  0  0  0  0
    9.9760    5.2610  -59.7320 C   0  0  0  0  0  0  0  0  0  0  0  0
    8.1470    0.7510  -54.0430 O   0  0  0  0  0  0  0  0  0  0  0  0
    7.2760   -0.2150  -53.4450 C   0  0  1  0  0  0  0  0  0  0  0  0
    6.1650   -0.6090  -54.4190 C   0  0  0  0  0  0  0  0  0  0  0  0
    8.0150   -1.4240  -52.8500 C   0  0  0  0  0  0  0  0  0  0  0  0
    9.9739   -3.3005  -52.1842 H   0  0  0  0  0  0  0  0  0  0  0  0
    9.1698   -3.7325  -53.7313 H   0  0  0  0  0  0  0  0  0  0  0  0
   10.8786   -3.1787  -53.7313 H   0  0  0  0  0  0  0  0  0  0  0  0
   10.1220   -0.9822  -52.8404 H   0  0  0  0  0  0  0  0  0  0  0  0
   10.4990   -1.2693  -55.2559 H   0  0  0  0  0  0  0  0  0  0  0  0
    8.7925   -1.7985  -55.4673 H   0  0  0  0  0  0  0  0  0  0  0  0
   10.2657    0.6631  -56.6266 H   0  0  0  0  0  0  0  0  0  0  0  0
    8.2123    2.7506  -55.6857 H   0  0  0  0  0  0  0  0  0  0  0  0
    9.9342    3.1657  -55.4977 H   0  0  0  0  0  0  0  0  0  0  0  0
    3.9498    1.6776  -59.4559 H   0  0  0  0  0  0  0  0  0  0  0  0
    2.9078    1.0350  -60.0794 H   0  0  0  0  0  0  0  0  0  0  0  0
    1.4934    1.0658  -61.1864 H   0  0  0  0  0  0  0  0  0  0  0  0
    2.6034   -0.3465  -61.1864 H   0  0  0  0  0  0  0  0  0  0  0  0
    4.0061   -0.5908  -62.7210 H   0  0  0  0  0  0  0  0  0  0  0  0
    2.8398    0.1758  -63.8517 H   0  0  0  0  0  0  0  0  0  0  0  0
    4.5609    0.6899  -63.8517 H   0  0  0  0  0  0  0  0  0  0  0  0
    2.0901    3.1548  -62.1053 H   0  0  0  0  0  0  0  0  0  0  0  0
    3.2334    3.1344  -63.4906 H   0  0  0  0  0  0  0  0  0  0  0  0
    1.8030    2.0478  -63.4906 H   0  0  0  0  0  0  0  0  0  0  0  0
    5.6432    2.6094  -63.3026 H   0  0  0  0  0  0  0  0  0  0  0  0
    7.5860    3.3640  -62.1850 H   0  0  0  0  0  0  0  0  0  0  0  0
    8.7838    3.9823  -61.2454 H   0  0  0  0  0  0  0  0  0  0  0  0
   10.8001    2.7696  -59.1111 H   0  0  0  0  0  0  0  0  0  0  0  0
   10.9981    2.4367  -60.7253 H   0  0  0  0  0  0  0  0  0  0  0  0
   12.1561    4.8328  -59.4703 H   0  0  0  0  0  0  0  0  0  0  0  0
   11.8353    5.0057  -61.0916 H   0  0  0  0  0  0  0  0  0  0  0  0
    9.8719    5.4057  -58.6465 H   0  0  0  0  0  0  0  0  0  0  0  0
    9.6502    6.2621  -60.0508 H   0  0  0  0  0  0  0  0  0  0  0  0
    6.8037    0.2662  -52.5759 H   0  0  0  0  0  0  0  0  0  0  0  0
    5.2760   -0.9243  -53.8531 H   0  0  0  0  0  0  0  0  0  0  0  0
    5.9097    0.2534  -55.0523 H   0  0  0  0  0  0  0  0  0  0  0  0
    6.5101   -1.4396  -55.0523 H   0  0  0  0  0  0  0  0  0  0  0  0
    8.0902   -1.2853  -51.7614 H   0  0  0  0  0  0  0  0  0  0  0  0
    7.4366   -2.3209  -53.1163 H   0  0  0  0  0  0  0  0  0  0  0  0
  1  2  1  0
  2  3  1  0
  3  4  1  0
  4  5  2  0
  5  6  1  0
  6  7  1  0
  7  8  2  0
  8  9  1  0
  9 10  2  0
 10 11  1  0
 11 12  2  0
 12 13  1  0
 13 14  1  0
 14 15  1  0
 14 16  1  0
 14 17  1  0
 13 18  2  0
 18 19  1  0
 19 20  1  0
 20 21  2  0
 21 22  1  0
 22 23  1  0
 23 24  1  0
 24 25  1  0
  4 26  1  0
 26 27  1  0
 27 28  1  0
 27 29  1  0
 29  2  1  0
 21  8  1  0
 25 22  1  0
 20 11  1  0
  1 30  1  0
  1 31  1  0
  1 32  1  0
  2 33  1  1
  3 34  1  0
  3 35  1  0
  5 36  1  0
  6 37  1  0
  6 38  1  0
 12 39  1  0
 15 40  1  0
 15 41  1  0
 15 42  1  0
 16 43  1  0
 16 44  1  0
 16 45  1  0
 17 46  1  0
 17 47  1  0
 17 48  1  0
 18 49  1  0
 19 50  1  0
 22 51  1  0
 23 52  1  0
 23 53  1  0
 24 54  1  0
 24 55  1  0
 25 56  1  0
 25 57  1  0
 27 58  1  1
 28 59  1  0
 28 60  1  0
 28 61  1  0
 29 62  1  0
 29 63  1  0
M  END
>  <meeko>  (259) 
{"is_sidechain": false}

$$$$

     RDKit          3D

 63 66  0  0  0  0  0  0  0  0999 V2000
   10.2240    1.9550  -60.7340 C   0  0  0  0  0  0  0  0  0  0  0  0
    9.4540    3.2170  -61.1340 C   0  0  1  0  0  0  0  0  0  0  0  0
    7.9740    2.9110  -61.4110 C   0  0  0  0  0  0  0  0  0  0  0  0
    7.1530    2.9610  -60.1500 C   0  0  0  0  0  0  0  0  0  0  0  0
    6.2960    1.9840  -59.8070 C   0  0  0  0  0  0  0  0  0  0  0  0
    5.4300    1.9350  -58.5790 C   0  0  0  0  0  0  0  0  0  0  0  0
    6.1450    2.4300  -57.4090 N   0  0  0  0  0  0  0  0  0  0  0  0
    6.4250    1.4840  -56.3980 C   0  0  0  0  0  0  0  0  0  0  0  0
    5.4010    0.8650  -55.7660 N   0  0  0  0  0  0  0  0  0  0  0  0
    5.6270   -0.0520  -54.7960 N   0  0  0  0  0  0  0  0  0  0  0  0
    6.8820   -0.3620  -54.4660 C   0  0  0  0  0  0  0  0  0  0  0  0
    7.1120   -1.2980  -53.4630 C   0  0  0  0  0  0  0  0  0  0  0  0
    8.4050   -1.6690  -53.0660 C   0  0  0  0  0  0  0  0  0  0  0  0
    8.6310   -2.7040  -51.9610 C   0  0  0  0  0  0  0  0  0  0  0  0
   10.1450   -2.9400  -51.7730 C   0  0  0  0  0  0  0  0  0  0  0  0
    7.9550   -4.0360  -52.3500 C   0  0  0  0  0  0  0  0  0  0  0  0
    8.0560   -2.2800  -50.5900 C   0  0  0  0  0  0  0  0  0  0  0  0
    9.4300   -1.0330  -53.7470 C   0  0  0  0  0  0  0  0  0  0  0  0
    9.2450   -0.1160  -54.7280 N   0  0  0  0  0  0  0  0  0  0  0  0
    7.9890    0.2230  -55.0950 C   0  0  0  0  0  0  0  0  0  0  0  0
    7.7720    1.1710  -56.1140 C   0  0  0  0  0  0  0  0  0  0  0  0
    8.9860    1.8640  -56.9130 C   0  0  0  0  0  0  0  0  0  0  0  0
    9.6300    3.1640  -56.3540 C   0  0  0  0  0  0  0  0  0  0  0  0
   10.9660    2.6800  -56.9540 C   0  0  0  0  0  0  0  0  0  0  0  0
   10.4120    1.2430  -56.8730 C   0  0  0  0  0  0  0  0  0  0  0  0
    7.3170    4.0580  -59.3160 O   0  0  0  0  0  0  0  0  0  0  0  0
    8.2880    5.0130  -59.7700 C   0  0  1  0  0  0  0  0  0  0  0  0
    8.4510    6.0530  -58.6680 C   0  0  0  0  0  0  0  0  0  0  0  0
    9.6180    4.3150  -60.0660 C   0  0  0  0  0  0  0  0  0  0  0  0
   10.2673    1.8841  -59.6371 H   0  0  0  0  0  0  0  0  0  0  0  0
    9.7122    1.0694  -61.1388 H   0  0  0  0  0  0  0  0  0  0  0  0
   11.2456    2.0050  -61.1388 H   0  0  0  0  0  0  0  0  0  0  0  0
    9.8838    3.5938  -62.0738 H   0  0  0  0  0  0  0  0  0  0  0  0
    7.5827    3.6539  -62.1216 H   0  0  0  0  0  0  0  0  0  0  0  0
    7.9044    1.8951  -61.8271 H   0  0  0  0  0  0  0  0  0  0  0  0
    6.2203    1.1308  -60.4972 H   0  0  0  0  0  0  0  0  0  0  0  0
    4.5380    2.5572  -58.7441 H   0  0  0  0  0  0  0  0  0  0  0  0
    5.1448    0.8885  -58.3957 H   0  0  0  0  0  0  0  0  0  0  0  0
    5.6070    3.1970  -57.0050 H   0  0  0  0  0  0  0  0  0  0  0  0
    6.2495   -1.7635  -52.9637 H   0  0  0  0  0  0  0  0  0  0  0  0
   10.3798   -2.9766  -50.6990 H   0  0  0  0  0  0  0  0  0  0  0  0
   10.4287   -3.8932  -52.2430 H   0  0  0  0  0  0  0  0  0  0  0  0
   10.7053   -2.1184  -52.2430 H   0  0  0  0  0  0  0  0  0  0  0  0
    7.6761   -4.5855  -51.4388 H   0  0  0  0  0  0  0  0  0  0  0  0
    7.0527   -3.8294  -52.9442 H   0  0  0  0  0  0  0  0  0  0  0  0
    8.6545   -4.6423  -52.9442 H   0  0  0  0  0  0  0  0  0  0  0  0
    8.6599   -2.7253  -49.7856 H   0  0  0  0  0  0  0  0  0  0  0  0
    8.0825   -1.1837  -50.5045 H   0  0  0  0  0  0  0  0  0  0  0  0
    7.0165   -2.6294  -50.5045 H   0  0  0  0  0  0  0  0  0  0  0  0
   10.4640   -1.2895  -53.4732 H   0  0  0  0  0  0  0  0  0  0  0  0
    8.3837    1.8571  -57.8335 H   0  0  0  0  0  0  0  0  0  0  0  0
    9.2403    4.0944  -56.7929 H   0  0  0  0  0  0  0  0  0  0  0  0
    9.5398    3.4449  -55.2943 H   0  0  0  0  0  0  0  0  0  0  0  0
   11.1652    3.0369  -57.9752 H   0  0  0  0  0  0  0  0  0  0  0  0
   11.9321    2.9515  -56.5036 H   0  0  0  0  0  0  0  0  0  0  0  0
   10.6596    0.6065  -57.7353 H   0  0  0  0  0  0  0  0  0  0  0  0
   10.7187    0.5485  -56.0770 H   0  0  0  0  0  0  0  0  0  0  0  0
    7.9584    5.4961  -60.7016 H   0  0  0  0  0  0  0  0  0  0  0  0
    8.3741    5.5623  -57.6865 H   0  0  0  0  0  0  0  0  0  0  0  0
    9.4356    6.5346  -58.7610 H   0  0  0  0  0  0  0  0  0  0  0  0
    7.6610    6.8127  -58.7610 H   0  0  0  0  0  0  0  0  0  0  0  0
   10.3403    5.0612  -60.4285 H   0  0  0  0  0  0  0  0  0  0  0  0
    9.9743    3.8435  -59.1382 H   0  0  0  0  0  0  0  0  0  0  0  0
  1  2  1  0
  2  3  1  0
  3  4  1  0
  4  5  2  0
  5  6  1  0
  6  7  1  0
  7  8  1  0
  8  9  1  0
  9 10  2  0
 10 11  1  0
 11 12  2  0
 12 13  1  0
 13 14  1  0
 14 15  1  0
 14 16  1  0
 14 17  1  0
 13 18  2  0
 18 19  1  0
 19 20  2  0
 20 21  1  0
 21 22  1  0
 22 23  1  0
 23 24  1  0
 24 25  1  0
  4 26  1  0
 26 27  1  0
 27 28  1  0
 27 29  1  0
 29  2  1  0
 21  8  2  0
 25 22  1  0
 20 11  1  0
  1 30  1  0
  1 31  1  0
  1 32  1  0
  2 33  1  6
  3 34  1  0
  3 35  1  0
  5 36  1  0
  6 37  1  0
  6 38  1  0
  7 39  1  0
 12 40  1  0
 15 41  1  0
 15 42  1  0
 15 43  1  0
 16 44  1  0
 16 45  1  0
 16 46  1  0
 17 47  1  0
 17 48  1  0
 17 49  1  0
 18 50  1  0
 22 51  1  0
 23 52  1  0
 23 53  1  0
 24 54  1  0
 24 55  1  0
 25 56  1  0
 25 57  1  0
 27 58  1  6
 28 59  1  0
 28 60  1  0
 28 61  1  0
 29 62  1  0
 29 63  1  0
M  END
>  <meeko>  (260) 
{"is_sidechain": false}

$$$$

     RDKit          3D

 63 66  0  0  0  0  0  0  0  0999 V2000
   10.8050   -4.4760  -55.3060 C   0  0  0  0  0  0  0  0  0  0  0  0
   10.2070   -3.1690  -54.7910 C   0  0  1  0  0  0  0  0  0  0  0  0
    8.6910   -3.1370  -54.9720 C   0  0  0  0  0  0  0  0  0  0  0  0
    8.1370   -1.8290  -54.4740 C   0  0  0  0  0  0  0  0  0  0  0  0
    7.0100   -1.2950  -54.9730 C   0  0  0  0  0  0  0  0  0  0  0  0
    6.3990   -0.0010  -54.5310 C   0  0  0  0  0  0  0  0  0  0  0  0
    6.4760    0.9660  -55.6160 N   0  0  0  0  0  0  0  0  0  0  0  0
    7.5810    1.5280  -55.9770 C   0  0  0  0  0  0  0  0  0  0  0  0
    8.8130    1.2540  -55.4100 N   0  0  0  0  0  0  0  0  0  0  0  0
   10.0090    1.7610  -55.7960 N   0  0  0  0  0  0  0  0  0  0  0  0
    9.9510    2.6080  -56.7790 C   0  0  0  0  0  0  0  0  0  0  0  0
   11.2220    3.2040  -57.2540 C   0  0  0  0  0  0  0  0  0  0  0  0
   11.2720    4.0830  -58.2640 C   0  0  0  0  0  0  0  0  0  0  0  0
   12.5260    4.7540  -58.8280 C   0  0  0  0  0  0  0  0  0  0  0  0
   13.4100    5.2740  -57.6760 C   0  0  0  0  0  0  0  0  0  0  0  0
   13.3950    3.7940  -59.6740 C   0  0  0  0  0  0  0  0  0  0  0  0
   12.1290    5.9330  -59.7420 C   0  0  0  0  0  0  0  0  0  0  0  0
    9.9520    4.4060  -58.8710 C   0  0  0  0  0  0  0  0  0  0  0  0
    8.7890    3.9540  -58.5420 N   0  0  0  0  0  0  0  0  0  0  0  0
    8.7100    3.0530  -57.5010 C   0  0  0  0  0  0  0  0  0  0  0  0
    7.5280    2.5330  -57.1000 C   0  0  0  0  0  0  0  0  0  0  0  0
    6.2830    2.9730  -57.8210 C   0  0  0  0  0  0  0  0  0  0  0  0
    6.2890    2.6970  -59.3490 C   0  0  0  0  0  0  0  0  0  0  0  0
    5.3060    1.5370  -59.1060 C   0  0  0  0  0  0  0  0  0  0  0  0
    4.9540    2.1880  -57.7570 C   0  0  0  0  0  0  0  0  0  0  0  0
    8.8710   -1.1390  -53.5270 O   0  0  0  0  0  0  0  0  0  0  0  0
    9.6200   -1.9520  -52.6140 C   0  0  1  0  0  0  0  0  0  0  0  0
    8.6880   -2.6200  -51.6020 C   0  0  0  0  0  0  0  0  0  0  0  0
   10.5600   -2.9440  -53.3170 C   0  0  0  0  0  0  0  0  0  0  0  0
   11.0942   -5.1080  -54.4534 H   0  0  0  0  0  0  0  0  0  0  0  0
   10.0591   -5.0045  -55.9178 H   0  0  0  0  0  0  0  0  0  0  0  0
   11.6926   -4.2572  -55.9178 H   0  0  0  0  0  0  0  0  0  0  0  0
   10.6448   -2.3560  -55.3888 H   0  0  0  0  0  0  0  0  0  0  0  0
    8.4497   -3.2514  -56.0391 H   0  0  0  0  0  0  0  0  0  0  0  0
    8.2427   -3.9600  -54.3960 H   0  0  0  0  0  0  0  0  0  0  0  0
    6.4950   -1.8523  -55.7694 H   0  0  0  0  0  0  0  0  0  0  0  0
    5.3456   -0.1661  -54.2607 H   0  0  0  0  0  0  0  0  0  0  0  0
    6.9452    0.3834  -53.6570 H   0  0  0  0  0  0  0  0  0  0  0  0
    8.8500    0.5400  -54.6920 H   0  0  0  0  0  0  0  0  0  0  0  0
   12.1602    2.9137  -56.7585 H   0  0  0  0  0  0  0  0  0  0  0  0
   12.9525    5.0049  -56.7125 H   0  0  0  0  0  0  0  0  0  0  0  0
   14.4094    4.8198  -57.7469 H   0  0  0  0  0  0  0  0  0  0  0  0
   13.4986    6.3681  -57.7469 H   0  0  0  0  0  0  0  0  0  0  0  0
   13.9817    3.1459  -59.0063 H   0  0  0  0  0  0  0  0  0  0  0  0
   12.7448    3.1740  -60.3087 H   0  0  0  0  0  0  0  0  0  0  0  0
   14.0765    4.3794  -60.3087 H   0  0  0  0  0  0  0  0  0  0  0  0
   11.8388    6.7950  -59.1233 H   0  0  0  0  0  0  0  0  0  0  0  0
   12.9839    6.2087  -60.3770 H   0  0  0  0  0  0  0  0  0  0  0  0
   11.2815    5.6355  -60.3770 H   0  0  0  0  0  0  0  0  0  0  0  0
    9.9701    5.1212  -59.7066 H   0  0  0  0  0  0  0  0  0  0  0  0
    6.3123    3.9668  -57.3503 H   0  0  0  0  0  0  0  0  0  0  0  0
    5.8828    3.5163  -59.9603 H   0  0  0  0  0  0  0  0  0  0  0  0
    7.2309    2.5394  -59.8948 H   0  0  0  0  0  0  0  0  0  0  0  0
    4.4716    1.4881  -59.8211 H   0  0  0  0  0  0  0  0  0  0  0  0
    5.6295    0.4876  -59.1698 H   0  0  0  0  0  0  0  0  0  0  0  0
    4.0534    2.8192  -57.7797 H   0  0  0  0  0  0  0  0  0  0  0  0
    4.7017    1.5730  -56.8806 H   0  0  0  0  0  0  0  0  0  0  0  0
   10.2929   -1.2855  -52.0545 H   0  0  0  0  0  0  0  0  0  0  0  0
    9.0223   -2.3804  -50.5818 H   0  0  0  0  0  0  0  0  0  0  0  0
    7.6624   -2.2500  -51.7482 H   0  0  0  0  0  0  0  0  0  0  0  0
    8.7089   -3.7100  -51.7482 H   0  0  0  0  0  0  0  0  0  0  0  0
   11.5868   -2.5537  -53.2590 H   0  0  0  0  0  0  0  0  0  0  0  0
   10.4563   -3.9118  -52.8046 H   0  0  0  0  0  0  0  0  0  0  0  0
  1  2  1  0
  2  3  1  0
  3  4  1  0
  4  5  2  0
  5  6  1  0
  6  7  1  0
  7  8  2  0
  8  9  1  0
  9 10  1  0
 10 11  2  0
 11 12  1  0
 12 13  2  0
 13 14  1  0
 14 15  1  0
 14 16  1  0
 14 17  1  0
 13 18  1  0
 18 19  2  0
 19 20  1  0
 20 21  2  0
 21 22  1  0
 22 23  1  0
 23 24  1  0
 24 25  1  0
  4 26  1  0
 26 27  1  0
 27 28  1  0
 27 29  1  0
 29  2  1  0
 21  8  1  0
 25 22  1  0
 20 11  1  0
  1 30  1  0
  1 31  1  0
  1 32  1  0
  2 33  1  6
  3 34  1  0
  3 35  1  0
  5 36  1  0
  6 37  1  0
  6 38  1  0
  9 39  1  0
 12 40  1  0
 15 41  1  0
 15 42  1  0
 15 43  1  0
 16 44  1  0
 16 45  1  0
 16 46  1  0
 17 47  1  0
 17 48  1  0
 17 49  1  0
 18 50  1  0
 22 51  1  0
 23 52  1  0
 23 53  1  0
 24 54  1  0
 24 55  1  0
 25 56  1  0
 25 57  1  0
 27 58  1  1
 28 59  1  0
 28 60  1  0
 28 61  1  0
 29 62  1  0
 29 63  1  0
M  END
>  <meeko>  (261) 
{"is_sidechain": false}

$$$$

     RDKit          3D

 63 66  0  0  0  0  0  0  0  0999 V2000
   12.5940    7.7400  -61.0600 C   0  0  0  0  0  0  0  0  0  0  0  0
   12.4100    6.8610  -59.8260 C   0  0  1  0  0  0  0  0  0  0  0  0
   11.1920    5.9510  -59.9630 C   0  0  0  0  0  0  0  0  0  0  0  0
   11.0280    5.1370  -58.7070 C   0  0  0  0  0  0  0  0  0  0  0  0
    9.8180    4.8250  -58.2150 C   0  0  0  0  0  0  0  0  0  0  0  0
    9.5610    4.0850  -56.9390 C   0  0  0  0  0  0  0  0  0  0  0  0
   10.1950    2.7820  -57.0060 N   0  0  0  0  0  0  0  0  0  0  0  0
    9.7250    1.6840  -56.5170 C   0  0  0  0  0  0  0  0  0  0  0  0
   10.6400    0.6490  -56.5250 N   0  0  0  0  0  0  0  0  0  0  0  0
   10.6960   -0.3190  -55.5690 N   0  0  0  0  0  0  0  0  0  0  0  0
    9.6160   -0.4300  -54.8570 C   0  0  0  0  0  0  0  0  0  0  0  0
    9.5990   -1.4490  -53.7800 C   0  0  0  0  0  0  0  0  0  0  0  0
    8.5010   -1.7120  -53.0580 C   0  0  0  0  0  0  0  0  0  0  0  0
    8.3770   -2.7380  -51.9300 C   0  0  0  0  0  0  0  0  0  0  0  0
    7.5790   -3.9640  -52.4180 C   0  0  0  0  0  0  0  0  0  0  0  0
    7.6410   -2.1800  -50.6890 C   0  0  0  0  0  0  0  0  0  0  0  0
    9.7770   -3.1870  -51.4680 C   0  0  0  0  0  0  0  0  0  0  0  0
    7.3050   -0.9150  -53.4390 C   0  0  0  0  0  0  0  0  0  0  0  0
    7.2150    0.0200  -54.3240 N   0  0  0  0  0  0  0  0  0  0  0  0
    8.3460    0.3680  -55.0280 C   0  0  0  0  0  0  0  0  0  0  0  0
    8.3720    1.3920  -55.9100 C   0  0  0  0  0  0  0  0  0  0  0  0
    7.1480    2.1200  -56.3500 C   0  0  0  0  0  0  0  0  0  0  0  0
    5.7750    1.4140  -56.2150 C   0  0  0  0  0  0  0  0  0  0  0  0
    5.3370    2.1840  -57.4790 C   0  0  0  0  0  0  0  0  0  0  0  0
    6.8310    2.2860  -57.8600 C   0  0  0  0  0  0  0  0  0  0  0  0
   12.1670    4.7840  -58.0080 O   0  0  0  0  0  0  0  0  0  0  0  0
   13.3890    4.7440  -58.7510 C   0  0  1  0  0  0  0  0  0  0  0  0
   13.4540    3.4770  -59.6030 C   0  0  0  0  0  0  0  0  0  0  0  0
   13.6670    6.0280  -59.5480 C   0  0  0  0  0  0  0  0  0  0  0  0
   12.8100    8.7719  -60.7462 H   0  0  0  0  0  0  0  0  0  0  0  0
   13.4314    7.3568  -61.6616 H   0  0  0  0  0  0  0  0  0  0  0  0
   11.6732    7.7248  -61.6616 H   0  0  0  0  0  0  0  0  0  0  0  0
   12.2402    7.5325  -58.9715 H   0  0  0  0  0  0  0  0  0  0  0  0
   10.2927    6.5640  -60.1223 H   0  0  0  0  0  0  0  0  0  0  0  0
   11.3335    5.2766  -60.8204 H   0  0  0  0  0  0  0  0  0  0  0  0
    8.9409    5.1400  -58.7993 H   0  0  0  0  0  0  0  0  0  0  0  0
    9.9771    4.6534  -56.0941 H   0  0  0  0  0  0  0  0  0  0  0  0
    8.4774    3.9613  -56.7959 H   0  0  0  0  0  0  0  0  0  0  0  0
   11.5380    0.9440  -56.9070 H   0  0  0  0  0  0  0  0  0  0  0  0
   10.5210   -2.0094  -53.5659 H   0  0  0  0  0  0  0  0  0  0  0  0
    7.2102   -4.5306  -51.5502 H   0  0  0  0  0  0  0  0  0  0  0  0
    6.7260   -3.6280  -53.0259 H   0  0  0  0  0  0  0  0  0  0  0  0
    8.2315   -4.6079  -53.0259 H   0  0  0  0  0  0  0  0  0  0  0  0
    8.1295   -2.5504  -49.7757 H   0  0  0  0  0  0  0  0  0  0  0  0
    7.6777   -1.0807  -50.7044 H   0  0  0  0  0  0  0  0  0  0  0  0
    6.5925   -2.5121  -50.7044 H   0  0  0  0  0  0  0  0  0  0  0  0
    9.8140   -3.1989  -50.3687 H   0  0  0  0  0  0  0  0  0  0  0  0
    9.9838   -4.1965  -51.8528 H   0  0  0  0  0  0  0  0  0  0  0  0
   10.5324   -2.4861  -51.8528 H   0  0  0  0  0  0  0  0  0  0  0  0
    6.3779   -1.1529  -52.8969 H   0  0  0  0  0  0  0  0  0  0  0  0
    7.4274    2.9892  -55.7365 H   0  0  0  0  0  0  0  0  0  0  0  0
    5.8071    0.3206  -56.3310 H   0  0  0  0  0  0  0  0  0  0  0  0
    5.1929    1.4505  -55.2824 H   0  0  0  0  0  0  0  0  0  0  0  0
    4.7242    1.6001  -58.1815 H   0  0  0  0  0  0  0  0  0  0  0  0
    4.6955    3.0754  -57.4177 H   0  0  0  0  0  0  0  0  0  0  0  0
    7.1993    1.4705  -58.4998 H   0  0  0  0  0  0  0  0  0  0  0  0
    7.2250    3.1282  -58.4477 H   0  0  0  0  0  0  0  0  0  0  0  0
   14.2129    4.6989  -58.0235 H   0  0  0  0  0  0  0  0  0  0  0  0
   13.4992    2.5956  -58.9465 H   0  0  0  0  0  0  0  0  0  0  0  0
   12.5578    3.4157  -60.2379 H   0  0  0  0  0  0  0  0  0  0  0  0
   14.3517    3.5077  -60.2379 H   0  0  0  0  0  0  0  0  0  0  0  0
   14.3746    6.6462  -58.9761 H   0  0  0  0  0  0  0  0  0  0  0  0
   14.0735    5.7213  -60.5231 H   0  0  0  0  0  0  0  0  0  0  0  0
  1  2  1  0
  2  3  1  0
  3  4  1  0
  4  5  2  0
  5  6  1  0
  6  7  1  0
  7  8  2  0
  8  9  1  0
  9 10  1  0
 10 11  2  0
 11 12  1  0
 12 13  2  0
 13 14  1  0
 14 15  1  0
 14 16  1  0
 14 17  1  0
 13 18  1  0
 18 19  2  0
 19 20  1  0
 20 21  2  0
 21 22  1  0
 22 23  1  0
 23 24  1  0
 24 25  1  0
  4 26  1  0
 26 27  1  0
 27 28  1  0
 27 29  1  0
 29  2  1  0
 21  8  1  0
 25 22  1  0
 20 11  1  0
  1 30  1  0
  1 31  1  0
  1 32  1  0
  2 33  1  1
  3 34  1  0
  3 35  1  0
  5 36  1  0
  6 37  1  0
  6 38  1  0
  9 39  1  0
 12 40  1  0
 15 41  1  0
 15 42  1  0
 15 43  1  0
 16 44  1  0
 16 45  1  0
 16 46  1  0
 17 47  1  0
 17 48  1  0
 17 49  1  0
 18 50  1  0
 22 51  1  0
 23 52  1  0
 23 53  1  0
 24 54  1  0
 24 55  1  0
 25 56  1  0
 25 57  1  0
 27 58  1  1
 28 59  1  0
 28 60  1  0
 28 61  1  0
 29 62  1  0
 29 63  1  0
M  END
>  <meeko>  (262) 
{"is_sidechain": false}

$$$$

     RDKit          3D

 63 66  0  0  0  0  0  0  0  0999 V2000
    5.7130    1.3580  -59.8670 C   0  0  0  0  0  0  0  0  0  0  0  0
    5.7620    2.5870  -58.9570 C   0  0  1  0  0  0  0  0  0  0  0  0
    5.1230    2.3040  -57.5880 C   0  0  0  0  0  0  0  0  0  0  0  0
    6.1310    1.7550  -56.6140 C   0  0  0  0  0  0  0  0  0  0  0  0
    5.9160    0.6280  -55.9170 C   0  0  0  0  0  0  0  0  0  0  0  0
    6.8860    0.0010  -54.9630 C   0  0  0  0  0  0  0  0  0  0  0  0
    8.2060    0.5280  -55.2680 N   0  0  0  0  0  0  0  0  0  0  0  0
    9.2550   -0.1570  -54.9950 C   0  0  0  0  0  0  0  0  0  0  0  0
   10.4450    0.3290  -55.4930 N   0  0  0  0  0  0  0  0  0  0  0  0
   11.1880   -0.4820  -56.1010 N   0  0  0  0  0  0  0  0  0  0  0  0
   11.0070   -1.8410  -55.9970 C   0  0  0  0  0  0  0  0  0  0  0  0
   11.6860   -2.7100  -56.7710 C   0  0  0  0  0  0  0  0  0  0  0  0
   11.6240   -4.1630  -56.5490 C   0  0  0  0  0  0  0  0  0  0  0  0
   12.3420   -5.0940  -57.5410 C   0  0  0  0  0  0  0  0  0  0  0  0
   12.1870   -6.5910  -57.1810 C   0  0  0  0  0  0  0  0  0  0  0  0
   11.7650   -4.9080  -58.9600 C   0  0  0  0  0  0  0  0  0  0  0  0
   13.8540   -4.7870  -57.5600 C   0  0  0  0  0  0  0  0  0  0  0  0
   10.9400   -4.5610  -55.4560 C   0  0  0  0  0  0  0  0  0  0  0  0
   10.2980   -3.6870  -54.6020 N   0  0  0  0  0  0  0  0  0  0  0  0
   10.1750   -2.3330  -54.8840 C   0  0  0  0  0  0  0  0  0  0  0  0
    9.3940   -1.4420  -54.2480 C   0  0  0  0  0  0  0  0  0  0  0  0
    8.6470   -1.7360  -52.9990 C   0  0  0  0  0  0  0  0  0  0  0  0
    7.6490   -2.9390  -53.0340 C   0  0  0  0  0  0  0  0  0  0  0  0
    8.0890   -3.2610  -51.5950 C   0  0  0  0  0  0  0  0  0  0  0  0
    9.4250   -2.5820  -51.9380 C   0  0  0  0  0  0  0  0  0  0  0  0
    7.3220    2.4460  -56.4650 O   0  0  0  0  0  0  0  0  0  0  0  0
    7.4980    3.5430  -57.3760 C   0  0  1  0  0  0  0  0  0  0  0  0
    8.9380    4.0230  -57.2350 C   0  0  0  0  0  0  0  0  0  0  0  0
    7.2080    3.0970  -58.8120 C   0  0  0  0  0  0  0  0  0  0  0  0
    5.6767    0.4471  -59.2514 H   0  0  0  0  0  0  0  0  0  0  0  0
    4.8161    1.4074  -60.5019 H   0  0  0  0  0  0  0  0  0  0  0  0
    6.6110    1.3359  -60.5019 H   0  0  0  0  0  0  0  0  0  0  0  0
    5.1669    3.3822  -59.4297 H   0  0  0  0  0  0  0  0  0  0  0  0
    4.7098    3.2406  -57.1855 H   0  0  0  0  0  0  0  0  0  0  0  0
    4.3298    1.5542  -57.7247 H   0  0  0  0  0  0  0  0  0  0  0  0
    4.9486    0.1238  -56.0579 H   0  0  0  0  0  0  0  0  0  0  0  0
    6.6111    0.2539  -53.9284 H   0  0  0  0  0  0  0  0  0  0  0  0
    6.8745   -1.0942  -55.0648 H   0  0  0  0  0  0  0  0  0  0  0  0
   12.3050   -2.3216  -57.5932 H   0  0  0  0  0  0  0  0  0  0  0  0
   12.1751   -6.7057  -56.0871 H   0  0  0  0  0  0  0  0  0  0  0  0
   11.2445   -6.9732  -57.6000 H   0  0  0  0  0  0  0  0  0  0  0  0
   13.0312   -7.1582  -57.6000 H   0  0  0  0  0  0  0  0  0  0  0  0
   10.7202   -4.5712  -58.8897 H   0  0  0  0  0  0  0  0  0  0  0  0
   12.3573   -4.1553  -59.5009 H   0  0  0  0  0  0  0  0  0  0  0  0
   11.8062   -5.8649  -59.5009 H   0  0  0  0  0  0  0  0  0  0  0  0
   14.2258   -4.7115  -56.5275 H   0  0  0  0  0  0  0  0  0  0  0  0
   14.3858   -5.5955  -58.0830 H   0  0  0  0  0  0  0  0  0  0  0  0
   14.0283   -3.8351  -58.0830 H   0  0  0  0  0  0  0  0  0  0  0  0
   10.8915   -5.6373  -55.2342 H   0  0  0  0  0  0  0  0  0  0  0  0
    9.6510   -4.0930  -53.9360 H   0  0  0  0  0  0  0  0  0  0  0  0
    8.3106   -0.7029  -52.8269 H   0  0  0  0  0  0  0  0  0  0  0  0
    6.5914   -2.6545  -53.1373 H   0  0  0  0  0  0  0  0  0  0  0  0
    7.6833   -3.6955  -53.8319 H   0  0  0  0  0  0  0  0  0  0  0  0
    7.5043   -2.7577  -50.8109 H   0  0  0  0  0  0  0  0  0  0  0  0
    8.0416   -4.2807  -51.1852 H   0  0  0  0  0  0  0  0  0  0  0  0
    9.8653   -1.9960  -51.1178 H   0  0  0  0  0  0  0  0  0  0  0  0
   10.3177   -3.1659  -52.2064 H   0  0  0  0  0  0  0  0  0  0  0  0
    6.7993    4.3600  -57.1428 H   0  0  0  0  0  0  0  0  0  0  0  0
    9.1934    4.1081  -56.1684 H   0  0  0  0  0  0  0  0  0  0  0  0
    9.6139    3.3016  -57.7174 H   0  0  0  0  0  0  0  0  0  0  0  0
    9.0458    5.0057  -57.7174 H   0  0  0  0  0  0  0  0  0  0  0  0
    7.3567    3.9507  -59.4895 H   0  0  0  0  0  0  0  0  0  0  0  0
    7.8937    2.2752  -59.0661 H   0  0  0  0  0  0  0  0  0  0  0  0
  1  2  1  0
  2  3  1  0
  3  4  1  0
  4  5  2  0
  5  6  1  0
  6  7  1  0
  7  8  2  0
  8  9  1  0
  9 10  2  0
 10 11  1  0
 11 12  2  0
 12 13  1  0
 13 14  1  0
 14 15  1  0
 14 16  1  0
 14 17  1  0
 13 18  2  0
 18 19  1  0
 19 20  1  0
 20 21  2  0
 21 22  1  0
 22 23  1  0
 23 24  1  0
 24 25  1  0
  4 26  1  0
 26 27  1  0
 27 28  1  0
 27 29  1  0
 29  2  1  0
 21  8  1  0
 25 22  1  0
 20 11  1  0
  1 30  1  0
  1 31  1  0
  1 32  1  0
  2 33  1  6
  3 34  1  0
  3 35  1  0
  5 36  1  0
  6 37  1  0
  6 38  1  0
 12 39  1  0
 15 40  1  0
 15 41  1  0
 15 42  1  0
 16 43  1  0
 16 44  1  0
 16 45  1  0
 17 46  1  0
 17 47  1  0
 17 48  1  0
 18 49  1  0
 19 50  1  0
 22 51  1  0
 23 52  1  0
 23 53  1  0
 24 54  1  0
 24 55  1  0
 25 56  1  0
 25 57  1  0
 27 58  1  1
 28 59  1  0
 28 60  1  0
 28 61  1  0
 29 62  1  0
 29 63  1  0
M  END
>  <meeko>  (263) 
{"is_sidechain": false}

$$$$

     RDKit          3D

 37 40  0  0  0  0  0  0  0  0999 V2000
   12.7200    7.4260  -60.6620 Br  0  0  0  0  0  0  0  0  0  0  0  0
   12.3170    5.9250  -59.5840 C   0  0  0  0  0  0  0  0  0  0  0  0
   13.3510    5.2120  -58.9810 C   0  0  0  0  0  0  0  0  0  0  0  0
   13.0540    4.1000  -58.1930 C   0  0  0  0  0  0  0  0  0  0  0  0
   11.7260    3.7130  -58.0100 C   0  0  0  0  0  0  0  0  0  0  0  0
   10.6870    4.4390  -58.6020 C   0  0  0  0  0  0  0  0  0  0  0  0
    9.3560    4.0330  -58.4360 N   0  0  0  0  0  0  0  0  0  0  0  0
    8.8020    3.3000  -59.3580 C   0  0  0  0  0  0  0  0  0  0  0  0
    9.4880    2.9080  -60.4880 N   0  0  0  0  0  0  0  0  0  0  0  0
    8.8720    2.6450  -61.5430 N   0  0  0  0  0  0  0  0  0  0  0  0
    7.5080    2.5820  -61.6120 C   0  0  0  0  0  0  0  0  0  0  0  0
    6.8740    2.4310  -62.7940 C   0  0  0  0  0  0  0  0  0  0  0  0
    5.4320    2.2780  -62.8570 C   0  0  0  0  0  0  0  0  0  0  0  0
    4.7480    2.2300  -61.7050 C   0  0  0  0  0  0  0  0  0  0  0  0
    5.3730    2.3350  -60.4830 N   0  0  0  0  0  0  0  0  0  0  0  0
    6.7390    2.5840  -60.3550 C   0  0  0  0  0  0  0  0  0  0  0  0
    7.3930    2.8380  -59.2080 C   0  0  0  0  0  0  0  0  0  0  0  0
    6.7070    2.8420  -57.8860 C   0  0  0  0  0  0  0  0  0  0  0  0
    5.4270    1.9570  -57.7610 C   0  0  0  0  0  0  0  0  0  0  0  0
    5.8520    1.6690  -56.3090 C   0  0  0  0  0  0  0  0  0  0  0  0
    7.2970    1.9260  -56.7690 C   0  0  0  0  0  0  0  0  0  0  0  0
   10.9890    5.5420  -59.4030 C   0  0  0  0  0  0  0  0  0  0  0  0
   14.3958    5.5243  -59.1255 H   0  0  0  0  0  0  0  0  0  0  0  0
   13.8650    3.5294  -57.7169 H   0  0  0  0  0  0  0  0  0  0  0  0
   11.4943    2.8305  -57.3956 H   0  0  0  0  0  0  0  0  0  0  0  0
    7.4599    2.4238  -63.7250 H   0  0  0  0  0  0  0  0  0  0  0  0
    4.9140    2.2034  -63.8245 H   0  0  0  0  0  0  0  0  0  0  0  0
    3.6558    2.1030  -61.7372 H   0  0  0  0  0  0  0  0  0  0  0  0
    4.7850    2.4480  -59.6670 H   0  0  0  0  0  0  0  0  0  0  0  0
    6.6892    3.9384  -57.7991 H   0  0  0  0  0  0  0  0  0  0  0  0
    4.4785    2.5049  -57.8616 H   0  0  0  0  0  0  0  0  0  0  0  0
    5.2114    1.1466  -58.4729 H   0  0  0  0  0  0  0  0  0  0  0  0
    5.4704    2.3850  -55.5663 H   0  0  0  0  0  0  0  0  0  0  0  0
    5.5609    0.7450  -55.7880 H   0  0  0  0  0  0  0  0  0  0  0  0
    7.9267    2.4476  -56.0332 H   0  0  0  0  0  0  0  0  0  0  0  0
    7.9853    1.1002  -57.0019 H   0  0  0  0  0  0  0  0  0  0  0  0
   10.1809    6.1074  -59.8901 H   0  0  0  0  0  0  0  0  0  0  0  0
  1  2  1  0
  2  3  1  0
  3  4  2  0
  4  5  1  0
  5  6  2  0
  6  7  1  0
  7  8  2  0
  8  9  1  0
  9 10  2  0
 10 11  1  0
 11 12  2  0
 12 13  1  0
 13 14  2  0
 14 15  1  0
 15 16  1  0
 16 17  2  0
 17 18  1  0
 18 19  1  0
 19 20  1  0
 20 21  1  0
  6 22  1  0
 22  2  2  0
 17  8  1  0
 21 18  1  0
 16 11  1  0
  3 23  1  0
  4 24  1  0
  5 25  1  0
 12 26  1  0
 13 27  1  0
 14 28  1  0
 15 29  1  0
 18 30  1  0
 19 31  1  0
 19 32  1  0
 20 33  1  0
 20 34  1  0
 21 35  1  0
 21 36  1  0
 22 37  1  0
M  END
>  <meeko>  (264) 
{"is_sidechain": false}

$$$$

     RDKit          3D

 37 40  0  0  0  0  0  0  0  0999 V2000
    6.6680   -0.4750  -54.4340 Br  0  0  0  0  0  0  0  0  0  0  0  0
    7.6690    0.7170  -55.5100 C   0  0  0  0  0  0  0  0  0  0  0  0
    9.0500    0.7880  -55.3570 C   0  0  0  0  0  0  0  0  0  0  0  0
    9.7810    1.6530  -56.1670 C   0  0  0  0  0  0  0  0  0  0  0  0
    9.1280    2.4480  -57.1130 C   0  0  0  0  0  0  0  0  0  0  0  0
    7.7340    2.4160  -57.2510 C   0  0  0  0  0  0  0  0  0  0  0  0
    7.0440    3.1520  -58.2420 N   0  0  0  0  0  0  0  0  0  0  0  0
    5.9490    2.7340  -59.0440 C   0  0  0  0  0  0  0  0  0  0  0  0
    4.7290    2.5990  -58.4780 N   0  0  0  0  0  0  0  0  0  0  0  0
    3.6530    2.2260  -59.2120 N   0  0  0  0  0  0  0  0  0  0  0  0
    3.7930    2.0090  -60.5220 C   0  0  0  0  0  0  0  0  0  0  0  0
    2.6830    1.6590  -61.2790 C   0  0  0  0  0  0  0  0  0  0  0  0
    2.7940    1.4450  -62.6460 C   0  0  0  0  0  0  0  0  0  0  0  0
    4.0390    1.5960  -63.2140 C   0  0  0  0  0  0  0  0  0  0  0  0
    5.1390    1.9320  -62.5070 N   0  0  0  0  0  0  0  0  0  0  0  0
    5.0340    2.1320  -61.1710 C   0  0  0  0  0  0  0  0  0  0  0  0
    6.1690    2.4790  -60.4150 C   0  0  0  0  0  0  0  0  0  0  0  0
    7.6130    2.6680  -61.1070 C   0  0  0  0  0  0  0  0  0  0  0  0
    8.5750    3.7930  -60.6060 C   0  0  0  0  0  0  0  0  0  0  0  0
    9.7480    2.8740  -60.9910 C   0  0  0  0  0  0  0  0  0  0  0  0
    8.7880    1.6960  -60.7590 C   0  0  0  0  0  0  0  0  0  0  0  0
    7.0140    1.5110  -56.4530 C   0  0  0  0  0  0  0  0  0  0  0  0
    9.5587    0.1676  -54.6044 H   0  0  0  0  0  0  0  0  0  0  0  0
   10.8745    1.7108  -56.0622 H   0  0  0  0  0  0  0  0  0  0  0  0
    9.7195    3.1112  -57.7613 H   0  0  0  0  0  0  0  0  0  0  0  0
    7.6900    3.6790  -58.8190 H   0  0  0  0  0  0  0  0  0  0  0  0
    1.7039    1.5500  -60.7896 H   0  0  0  0  0  0  0  0  0  0  0  0
    1.9201    1.1653  -63.2527 H   0  0  0  0  0  0  0  0  0  0  0  0
    4.1426    1.4350  -64.2972 H   0  0  0  0  0  0  0  0  0  0  0  0
    7.1333    2.6871  -62.0967 H   0  0  0  0  0  0  0  0  0  0  0  0
    8.5207    4.7308  -61.1784 H   0  0  0  0  0  0  0  0  0  0  0  0
    8.4852    4.2224  -59.5973 H   0  0  0  0  0  0  0  0  0  0  0  0
   10.1004    2.9850  -62.0271 H   0  0  0  0  0  0  0  0  0  0  0  0
   10.7274    2.9367  -60.4942 H   0  0  0  0  0  0  0  0  0  0  0  0
    8.9127    0.8583  -61.4609 H   0  0  0  0  0  0  0  0  0  0  0  0
    8.8003    1.1170  -59.8238 H   0  0  0  0  0  0  0  0  0  0  0  0
    5.9237    1.4274  -56.5725 H   0  0  0  0  0  0  0  0  0  0  0  0
  1  2  1  0
  2  3  1  0
  3  4  2  0
  4  5  1  0
  5  6  2  0
  6  7  1  0
  7  8  1  0
  8  9  1  0
  9 10  2  0
 10 11  1  0
 11 12  2  0
 12 13  1  0
 13 14  2  0
 14 15  1  0
 15 16  2  0
 16 17  1  0
 17 18  1  0
 18 19  1  0
 19 20  1  0
 20 21  1  0
  6 22  1  0
 22  2  2  0
 17  8  2  0
 21 18  1  0
 16 11  1  0
  3 23  1  0
  4 24  1  0
  5 25  1  0
  7 26  1  0
 12 27  1  0
 13 28  1  0
 14 29  1  0
 18 30  1  0
 19 31  1  0
 19 32  1  0
 20 33  1  0
 20 34  1  0
 21 35  1  0
 21 36  1  0
 22 37  1  0
M  END
>  <meeko>  (265) 
{"is_sidechain": false}

$$$$

     RDKit          3D

 37 40  0  0  0  0  0  0  0  0999 V2000
   12.5690    7.5160  -60.5380 Br  0  0  0  0  0  0  0  0  0  0  0  0
   12.2290    5.8370  -59.7360 C   0  0  0  0  0  0  0  0  0  0  0  0
   13.2970    5.0090  -59.3910 C   0  0  0  0  0  0  0  0  0  0  0  0
   13.0450    3.7740  -58.7930 C   0  0  0  0  0  0  0  0  0  0  0  0
   11.7310    3.3730  -58.5530 C   0  0  0  0  0  0  0  0  0  0  0  0
   10.6610    4.1960  -58.9160 C   0  0  0  0  0  0  0  0  0  0  0  0
    9.3450    3.7910  -58.6650 N   0  0  0  0  0  0  0  0  0  0  0  0
    8.6010    3.3330  -59.6360 C   0  0  0  0  0  0  0  0  0  0  0  0
    9.0130    3.2190  -60.9520 N   0  0  0  0  0  0  0  0  0  0  0  0
    8.2280    2.9010  -62.0100 N   0  0  0  0  0  0  0  0  0  0  0  0
    6.9910    2.6330  -61.7120 C   0  0  0  0  0  0  0  0  0  0  0  0
    6.0740    2.2880  -62.8240 C   0  0  0  0  0  0  0  0  0  0  0  0
    4.7920    2.0130  -62.5850 C   0  0  0  0  0  0  0  0  0  0  0  0
    4.3310    2.0700  -61.1910 C   0  0  0  0  0  0  0  0  0  0  0  0
    5.0370    2.3490  -60.1490 N   0  0  0  0  0  0  0  0  0  0  0  0
    6.3760    2.6310  -60.3290 C   0  0  0  0  0  0  0  0  0  0  0  0
    7.1940    2.9210  -59.2940 C   0  0  0  0  0  0  0  0  0  0  0  0
    6.6910    2.9440  -57.8840 C   0  0  0  0  0  0  0  0  0  0  0  0
    7.2910    1.8980  -56.8920 C   0  0  0  0  0  0  0  0  0  0  0  0
    5.9070    1.8410  -56.2200 C   0  0  0  0  0  0  0  0  0  0  0  0
    5.3250    2.2470  -57.5850 C   0  0  0  0  0  0  0  0  0  0  0  0
   10.9150    5.4390  -59.4980 C   0  0  0  0  0  0  0  0  0  0  0  0
   14.3311    5.3276  -59.5891 H   0  0  0  0  0  0  0  0  0  0  0  0
   13.8814    3.1175  -58.5112 H   0  0  0  0  0  0  0  0  0  0  0  0
   11.5352    2.4020  -58.0746 H   0  0  0  0  0  0  0  0  0  0  0  0
    9.9610    3.5160  -61.1640 H   0  0  0  0  0  0  0  0  0  0  0  0
    6.4548    2.2587  -63.8556 H   0  0  0  0  0  0  0  0  0  0  0  0
    4.1034    1.7526  -63.4023 H   0  0  0  0  0  0  0  0  0  0  0  0
    3.2671    1.8506  -61.0175 H   0  0  0  0  0  0  0  0  0  0  0  0
    6.8387    4.0284  -57.7737 H   0  0  0  0  0  0  0  0  0  0  0  0
    7.6134    0.9556  -57.3587 H   0  0  0  0  0  0  0  0  0  0  0  0
    8.2054    2.1048  -56.3165 H   0  0  0  0  0  0  0  0  0  0  0  0
    5.6055    0.8435  -55.8678 H   0  0  0  0  0  0  0  0  0  0  0  0
    5.6806    2.3974  -55.2985 H   0  0  0  0  0  0  0  0  0  0  0  0
    5.0847    1.4044  -58.2501 H   0  0  0  0  0  0  0  0  0  0  0  0
    4.3699    2.7861  -57.6693 H   0  0  0  0  0  0  0  0  0  0  0  0
   10.0802    6.1025  -59.7680 H   0  0  0  0  0  0  0  0  0  0  0  0
  1  2  1  0
  2  3  1  0
  3  4  2  0
  4  5  1  0
  5  6  2  0
  6  7  1  0
  7  8  2  0
  8  9  1  0
  9 10  1  0
 10 11  2  0
 11 12  1  0
 12 13  2  0
 13 14  1  0
 14 15  2  0
 15 16  1  0
 16 17  2  0
 17 18  1  0
 18 19  1  0
 19 20  1  0
 20 21  1  0
  6 22  1  0
 22  2  2  0
 17  8  1  0
 21 18  1  0
 16 11  1  0
  3 23  1  0
  4 24  1  0
  5 25  1  0
  9 26  1  0
 12 27  1  0
 13 28  1  0
 14 29  1  0
 18 30  1  0
 19 31  1  0
 19 32  1  0
 20 33  1  0
 20 34  1  0
 21 35  1  0
 21 36  1  0
 22 37  1  0
M  END
>  <meeko>  (266) 
{"is_sidechain": false}

$$$$

     RDKit          3D

 37 40  0  0  0  0  0  0  0  0999 V2000
   12.2810    3.4050  -57.5510 Br  0  0  0  0  0  0  0  0  0  0  0  0
   10.7140    4.0540  -58.3870 C   0  0  0  0  0  0  0  0  0  0  0  0
   10.0610    5.1680  -57.8610 C   0  0  0  0  0  0  0  0  0  0  0  0
    8.9130    5.6530  -58.4860 C   0  0  0  0  0  0  0  0  0  0  0  0
    8.4170    5.0120  -59.6230 C   0  0  0  0  0  0  0  0  0  0  0  0
    9.0520    3.8750  -60.1320 C   0  0  0  0  0  0  0  0  0  0  0  0
    8.5980    3.2660  -61.3020 N   0  0  0  0  0  0  0  0  0  0  0  0
    7.4460    2.6620  -61.4210 C   0  0  0  0  0  0  0  0  0  0  0  0
    7.1370    2.3340  -62.7270 N   0  0  0  0  0  0  0  0  0  0  0  0
    5.8730    2.2730  -63.2230 N   0  0  0  0  0  0  0  0  0  0  0  0
    4.9450    2.2080  -62.3170 C   0  0  0  0  0  0  0  0  0  0  0  0
    3.5380    2.1500  -62.7790 C   0  0  0  0  0  0  0  0  0  0  0  0
    2.5450    1.9900  -61.9050 C   0  0  0  0  0  0  0  0  0  0  0  0
    2.9040    1.8590  -60.4870 C   0  0  0  0  0  0  0  0  0  0  0  0
    4.0840    1.9310  -59.9730 N   0  0  0  0  0  0  0  0  0  0  0  0
    5.1540    2.1610  -60.8170 C   0  0  0  0  0  0  0  0  0  0  0  0
    6.4170    2.3280  -60.3600 C   0  0  0  0  0  0  0  0  0  0  0  0
    6.8010    2.1080  -58.9320 C   0  0  0  0  0  0  0  0  0  0  0  0
    6.2070    0.9040  -58.1530 C   0  0  0  0  0  0  0  0  0  0  0  0
    6.2150    1.8040  -56.8990 C   0  0  0  0  0  0  0  0  0  0  0  0
    6.1890    3.0250  -57.8450 C   0  0  0  0  0  0  0  0  0  0  0  0
   10.2230    3.4160  -59.5250 C   0  0  0  0  0  0  0  0  0  0  0  0
   10.4494    5.6615  -56.9579 H   0  0  0  0  0  0  0  0  0  0  0  0
    8.3991    6.5387  -58.0843 H   0  0  0  0  0  0  0  0  0  0  0  0
    7.5191    5.4048  -60.1225 H   0  0  0  0  0  0  0  0  0  0  0  0
    7.8580    2.6410  -63.3790 H   0  0  0  0  0  0  0  0  0  0  0  0
    3.3117    2.2397  -63.8517 H   0  0  0  0  0  0  0  0  0  0  0  0
    1.4956    1.9573  -62.2333 H   0  0  0  0  0  0  0  0  0  0  0  0
    2.0750    1.6798  -59.7866 H   0  0  0  0  0  0  0  0  0  0  0  0
    7.8699    2.1454  -59.1890 H   0  0  0  0  0  0  0  0  0  0  0  0
    5.2070    0.5894  -58.4863 H   0  0  0  0  0  0  0  0  0  0  0  0
    6.6877   -0.0854  -58.1599 H   0  0  0  0  0  0  0  0  0  0  0  0
    5.3267    1.7031  -56.2581 H   0  0  0  0  0  0  0  0  0  0  0  0
    6.9833    1.6969  -56.1191 H   0  0  0  0  0  0  0  0  0  0  0  0
    5.1829    3.4042  -58.0775 H   0  0  0  0  0  0  0  0  0  0  0  0
    6.6528    3.9830  -57.5671 H   0  0  0  0  0  0  0  0  0  0  0  0
   10.7577    2.5512  -59.9448 H   0  0  0  0  0  0  0  0  0  0  0  0
  1  2  1  0
  2  3  1  0
  3  4  2  0
  4  5  1  0
  5  6  2  0
  6  7  1  0
  7  8  2  0
  8  9  1  0
  9 10  1  0
 10 11  2  0
 11 12  1  0
 12 13  2  0
 13 14  1  0
 14 15  2  0
 15 16  1  0
 16 17  2  0
 17 18  1  0
 18 19  1  0
 19 20  1  0
 20 21  1  0
  6 22  1  0
 22  2  2  0
 17  8  1  0
 21 18  1  0
 16 11  1  0
  3 23  1  0
  4 24  1  0
  5 25  1  0
  9 26  1  0
 12 27  1  0
 13 28  1  0
 14 29  1  0
 18 30  1  0
 19 31  1  0
 19 32  1  0
 20 33  1  0
 20 34  1  0
 21 35  1  0
 21 36  1  0
 22 37  1  0
M  END
>  <meeko>  (267) 
{"is_sidechain": false}

$$$$

     RDKit          3D

 37 40  0  0  0  0  0  0  0  0999 V2000
   11.4850   -6.3470  -57.0810 Br  0  0  0  0  0  0  0  0  0  0  0  0
   11.4740   -4.5930  -56.3750 C   0  0  0  0  0  0  0  0  0  0  0  0
   11.5050   -3.5010  -57.2410 C   0  0  0  0  0  0  0  0  0  0  0  0
   11.4830   -2.2080  -56.7180 C   0  0  0  0  0  0  0  0  0  0  0  0
   11.4450   -2.0180  -55.3350 C   0  0  0  0  0  0  0  0  0  0  0  0
   11.4530   -3.1140  -54.4620 C   0  0  0  0  0  0  0  0  0  0  0  0
   11.3730   -2.9420  -53.0780 N   0  0  0  0  0  0  0  0  0  0  0  0
   10.2580   -2.6750  -52.4800 C   0  0  0  0  0  0  0  0  0  0  0  0
   10.2840   -2.7190  -51.1020 N   0  0  0  0  0  0  0  0  0  0  0  0
    9.3790   -3.3770  -50.5310 N   0  0  0  0  0  0  0  0  0  0  0  0
    8.2340   -3.7500  -51.1940 C   0  0  0  0  0  0  0  0  0  0  0  0
    7.3360   -4.5910  -50.6450 C   0  0  0  0  0  0  0  0  0  0  0  0
    6.0570   -4.8340  -51.2880 C   0  0  0  0  0  0  0  0  0  0  0  0
    5.7480   -4.1230  -52.3840 C   0  0  0  0  0  0  0  0  0  0  0  0
    6.6200   -3.2060  -52.9300 N   0  0  0  0  0  0  0  0  0  0  0  0
    7.9250   -3.0610  -52.4650 C   0  0  0  0  0  0  0  0  0  0  0  0
    8.9130   -2.3590  -53.0500 C   0  0  0  0  0  0  0  0  0  0  0  0
    8.7100   -1.4770  -54.2260 C   0  0  0  0  0  0  0  0  0  0  0  0
    7.2310   -1.1130  -54.5770 C   0  0  0  0  0  0  0  0  0  0  0  0
    7.7320    0.2920  -54.9500 C   0  0  0  0  0  0  0  0  0  0  0  0
    8.8890    0.0520  -53.9650 C   0  0  0  0  0  0  0  0  0  0  0  0
   11.4330   -4.4040  -54.9940 C   0  0  0  0  0  0  0  0  0  0  0  0
   11.5465   -3.6578  -58.3290 H   0  0  0  0  0  0  0  0  0  0  0  0
   11.4956   -1.3399  -57.3935 H   0  0  0  0  0  0  0  0  0  0  0  0
   11.4084   -0.9972  -54.9267 H   0  0  0  0  0  0  0  0  0  0  0  0
    7.5744   -5.0993  -49.6990 H   0  0  0  0  0  0  0  0  0  0  0  0
    5.3581   -5.5827  -50.8867 H   0  0  0  0  0  0  0  0  0  0  0  0
    4.7688   -4.2770  -52.8609 H   0  0  0  0  0  0  0  0  0  0  0  0
    6.4010   -2.8540  -53.8530 H   0  0  0  0  0  0  0  0  0  0  0  0
    9.3548   -2.0504  -54.9082 H   0  0  0  0  0  0  0  0  0  0  0  0
    6.8048   -1.6848  -55.4145 H   0  0  0  0  0  0  0  0  0  0  0  0
    6.4132   -1.2619  -53.8565 H   0  0  0  0  0  0  0  0  0  0  0  0
    8.0376    0.4085  -56.0003 H   0  0  0  0  0  0  0  0  0  0  0  0
    7.0843    1.1786  -54.8839 H   0  0  0  0  0  0  0  0  0  0  0  0
    9.8576    0.4615  -54.2876 H   0  0  0  0  0  0  0  0  0  0  0  0
    8.8762    0.4690  -52.9472 H   0  0  0  0  0  0  0  0  0  0  0  0
   11.3848   -5.2738  -54.3224 H   0  0  0  0  0  0  0  0  0  0  0  0
  1  2  1  0
  2  3  1  0
  3  4  2  0
  4  5  1  0
  5  6  2  0
  6  7  1  0
  7  8  2  0
  8  9  1  0
  9 10  2  0
 10 11  1  0
 11 12  2  0
 12 13  1  0
 13 14  2  0
 14 15  1  0
 15 16  1  0
 16 17  2  0
 17 18  1  0
 18 19  1  0
 19 20  1  0
 20 21  1  0
  6 22  1  0
 22  2  2  0
 17  8  1  0
 21 18  1  0
 16 11  1  0
  3 23  1  0
  4 24  1  0
  5 25  1  0
 12 26  1  0
 13 27  1  0
 14 28  1  0
 15 29  1  0
 18 30  1  0
 19 31  1  0
 19 32  1  0
 20 33  1  0
 20 34  1  0
 21 35  1  0
 21 36  1  0
 22 37  1  0
M  END
>  <meeko>  (268) 
{"is_sidechain": false}

$$$$

     RDKit          3D

 54 57  0  0  0  0  0  0  0  0999 V2000
    7.6020   -1.8140  -51.1390 C   0  0  0  0  0  0  0  0  0  0  0  0
    7.9580   -1.9140  -52.6390 C   0  0  0  0  0  0  0  0  0  0  0  0
    7.0140   -2.9690  -53.2500 C   0  0  0  0  0  0  0  0  0  0  0  0
    7.7230   -0.5300  -53.2980 C   0  0  0  0  0  0  0  0  0  0  0  0
    8.6770   -0.2110  -54.4600 C   0  0  0  0  0  0  0  0  0  0  0  0
    8.1150    0.7710  -55.3940 N   0  0  0  0  0  0  0  0  0  0  0  0
    8.8360    1.5600  -56.1110 C   0  0  0  0  0  0  0  0  0  0  0  0
   10.2120    1.5480  -56.0610 N   0  0  0  0  0  0  0  0  0  0  0  0
   10.9060    2.0130  -56.9930 N   0  0  0  0  0  0  0  0  0  0  0  0
   10.3700    2.6790  -58.0590 C   0  0  0  0  0  0  0  0  0  0  0  0
   11.1300    3.0780  -59.0920 C   0  0  0  0  0  0  0  0  0  0  0  0
   10.5460    3.8380  -60.1690 C   0  0  0  0  0  0  0  0  0  0  0  0
    9.2530    4.1690  -60.0880 C   0  0  0  0  0  0  0  0  0  0  0  0
    8.4370    3.8040  -59.0370 O   0  0  0  0  0  0  0  0  0  0  0  0
    8.9560    3.0080  -58.0120 C   0  0  0  0  0  0  0  0  0  0  0  0
    8.1840    2.5400  -57.0230 C   0  0  0  0  0  0  0  0  0  0  0  0
    6.7280    2.8360  -56.9520 C   0  0  0  0  0  0  0  0  0  0  0  0
    5.9520    2.8890  -58.3040 C   0  0  0  0  0  0  0  0  0  0  0  0
    4.7520    2.2760  -57.5600 C   0  0  0  0  0  0  0  0  0  0  0  0
    5.7750    1.6550  -56.5910 C   0  0  0  0  0  0  0  0  0  0  0  0
    9.2560   -1.4350  -55.1720 C   0  0  0  0  0  0  0  0  0  0  0  0
   10.0290   -2.3630  -54.2040 C   0  0  0  0  0  0  0  0  0  0  0  0
   11.5070   -1.9150  -54.1350 C   0  0  0  0  0  0  0  0  0  0  0  0
   10.0220   -3.8000  -54.7610 C   0  0  0  0  0  0  0  0  0  0  0  0
    9.4430   -2.3320  -52.7640 C   0  0  0  0  0  0  0  0  0  0  0  0
    8.4869   -2.0626  -50.5348 H   0  0  0  0  0  0  0  0  0  0  0  0
    7.2757   -0.7894  -50.9071 H   0  0  0  0  0  0  0  0  0  0  0  0
    6.7899   -2.5188  -50.9071 H   0  0  0  0  0  0  0  0  0  0  0  0
    6.5155   -3.5261  -52.4431 H   0  0  0  0  0  0  0  0  0  0  0  0
    6.2572   -2.4679  -53.8714 H   0  0  0  0  0  0  0  0  0  0  0  0
    7.5959   -3.6656  -53.8714 H   0  0  0  0  0  0  0  0  0  0  0  0
    6.6923   -0.5018  -53.6812 H   0  0  0  0  0  0  0  0  0  0  0  0
    7.9116    0.2246  -52.5202 H   0  0  0  0  0  0  0  0  0  0  0  0
    9.5469    0.2597  -53.9787 H   0  0  0  0  0  0  0  0  0  0  0  0
   12.2001    2.8244  -59.1164 H   0  0  0  0  0  0  0  0  0  0  0  0
   11.1503    4.1387  -61.0375 H   0  0  0  0  0  0  0  0  0  0  0  0
    8.8163    4.7644  -60.9033 H   0  0  0  0  0  0  0  0  0  0  0  0
    6.8514    3.7143  -56.3014 H   0  0  0  0  0  0  0  0  0  0  0  0
    5.7804    3.9026  -58.6953 H   0  0  0  0  0  0  0  0  0  0  0  0
    6.3564    2.4374  -59.2219 H   0  0  0  0  0  0  0  0  0  0  0  0
    4.0701    3.0083  -57.1031 H   0  0  0  0  0  0  0  0  0  0  0  0
    3.9942    1.6684  -58.0762 H   0  0  0  0  0  0  0  0  0  0  0  0
    5.4540    1.6291  -55.5392 H   0  0  0  0  0  0  0  0  0  0  0  0
    6.0936    0.6058  -56.6791 H   0  0  0  0  0  0  0  0  0  0  0  0
    8.4311   -2.0042  -55.6255 H   0  0  0  0  0  0  0  0  0  0  0  0
    9.9634   -1.0785  -55.9352 H   0  0  0  0  0  0  0  0  0  0  0  0
   11.8132   -1.8222  -53.0826 H   0  0  0  0  0  0  0  0  0  0  0  0
   12.1402   -2.6616  -54.6367 H   0  0  0  0  0  0  0  0  0  0  0  0
   11.6192   -0.9425  -54.6367 H   0  0  0  0  0  0  0  0  0  0  0  0
   10.0185   -4.5167  -53.9265 H   0  0  0  0  0  0  0  0  0  0  0  0
    9.1231   -3.9501  -55.3770 H   0  0  0  0  0  0  0  0  0  0  0  0
   10.9194   -3.9588  -55.3770 H   0  0  0  0  0  0  0  0  0  0  0  0
    9.5444   -3.3414  -52.3387 H   0  0  0  0  0  0  0  0  0  0  0  0
   10.0128   -1.5565  -52.2311 H   0  0  0  0  0  0  0  0  0  0  0  0
  1  2  1  0
  2  3  1  0
  2  4  1  0
  4  5  1  0
  5  6  1  0
  6  7  2  0
  7  8  1  0
  8  9  2  0
  9 10  1  0
 10 11  2  0
 11 12  1  0
 12 13  2  0
 13 14  1  0
 14 15  1  0
 15 16  2  0
 16 17  1  0
 17 18  1  0
 18 19  1  0
 19 20  1  0
  5 21  1  0
 21 22  1  0
 22 23  1  0
 22 24  1  0
 22 25  1  0
 25  2  1  0
 16  7  1  0
 20 17  1  0
 15 10  1  0
  1 26  1  0
  1 27  1  0
  1 28  1  0
  3 29  1  0
  3 30  1  0
  3 31  1  0
  4 32  1  0
  4 33  1  0
  5 34  1  0
 11 35  1  0
 12 36  1  0
 13 37  1  0
 17 38  1  0
 18 39  1  0
 18 40  1  0
 19 41  1  0
 19 42  1  0
 20 43  1  0
 20 44  1  0
 21 45  1  0
 21 46  1  0
 23 47  1  0
 23 48  1  0
 23 49  1  0
 24 50  1  0
 24 51  1  0
 24 52  1  0
 25 53  1  0
 25 54  1  0
M  END
>  <meeko>  (269) 
{"is_sidechain": false}

$$$$

     RDKit          3D

 47 50  0  0  0  0  0  0  0  0999 V2000
   10.1150    4.2530  -60.6540 C   0  0  0  0  0  0  0  0  0  0  0  0
   10.9840    4.8200  -59.5190 C   0  0  0  0  0  0  0  0  0  0  0  0
   11.7640    6.0330  -60.0270 C   0  0  0  0  0  0  0  0  0  0  0  0
   10.1240    5.1700  -58.2970 C   0  0  0  0  0  0  0  0  0  0  0  0
   10.0310    3.9360  -57.4880 N   0  0  0  0  0  0  0  0  0  0  0  0
   11.0340    3.1990  -57.8650 C   0  0  0  0  0  0  0  0  0  0  0  0
   11.3310    1.8550  -57.2510 C   0  0  0  0  0  0  0  0  0  0  0  0
   10.2100    1.5240  -56.3700 N   0  0  0  0  0  0  0  0  0  0  0  0
   10.2060    0.3390  -55.8540 C   0  0  0  0  0  0  0  0  0  0  0  0
   11.2160   -0.5610  -56.1040 N   0  0  0  0  0  0  0  0  0  0  0  0
   11.4670   -1.4780  -55.2950 N   0  0  0  0  0  0  0  0  0  0  0  0
   10.6890   -1.7400  -54.2010 C   0  0  0  0  0  0  0  0  0  0  0  0
   11.0630   -2.6560  -53.2830 C   0  0  0  0  0  0  0  0  0  0  0  0
   10.1990   -2.9970  -52.1650 C   0  0  0  0  0  0  0  0  0  0  0  0
    8.9880   -2.4170  -52.0890 C   0  0  0  0  0  0  0  0  0  0  0  0
    8.0750   -2.6910  -51.0260 C   0  0  0  0  0  0  0  0  0  0  0  0
    7.3200   -2.8940  -50.1690 N   0  0  0  0  0  0  0  0  0  0  0  0
    8.5690   -1.5040  -53.0450 N   0  0  0  0  0  0  0  0  0  0  0  0
    9.3830   -1.0690  -54.0890 C   0  0  0  0  0  0  0  0  0  0  0  0
    9.0880   -0.0970  -54.9710 C   0  0  0  0  0  0  0  0  0  0  0  0
    7.7840    0.6260  -54.9460 C   0  0  0  0  0  0  0  0  0  0  0  0
    7.3780    1.4230  -56.2250 C   0  0  0  0  0  0  0  0  0  0  0  0
    5.9250    1.0040  -55.9440 C   0  0  0  0  0  0  0  0  0  0  0  0
    6.5070   -0.2290  -55.2280 C   0  0  0  0  0  0  0  0  0  0  0  0
   11.9090    3.7480  -58.9530 C   0  0  0  0  0  0  0  0  0  0  0  0
    9.2668    3.6995  -60.2249 H   0  0  0  0  0  0  0  0  0  0  0  0
    9.7375    5.0791  -61.2745 H   0  0  0  0  0  0  0  0  0  0  0  0
   10.7191    3.5747  -61.2745 H   0  0  0  0  0  0  0  0  0  0  0  0
   12.1374    6.6137  -59.1706 H   0  0  0  0  0  0  0  0  0  0  0  0
   12.6133    5.6932  -60.6379 H   0  0  0  0  0  0  0  0  0  0  0  0
   11.1024    6.6648  -60.6379 H   0  0  0  0  0  0  0  0  0  0  0  0
   10.5992    5.9727  -57.7141 H   0  0  0  0  0  0  0  0  0  0  0  0
    9.1280    5.5268  -58.5980 H   0  0  0  0  0  0  0  0  0  0  0  0
   11.4283    1.0939  -58.0392 H   0  0  0  0  0  0  0  0  0  0  0  0
   12.2752    1.8834  -56.6874 H   0  0  0  0  0  0  0  0  0  0  0  0
   12.0391   -3.1533  -53.3827 H   0  0  0  0  0  0  0  0  0  0  0  0
   10.5283   -3.7135  -51.3981 H   0  0  0  0  0  0  0  0  0  0  0  0
    7.7050   -1.0050  -52.8640 H   0  0  0  0  0  0  0  0  0  0  0  0
    7.9764    1.1202  -53.9823 H   0  0  0  0  0  0  0  0  0  0  0  0
    7.5622    2.5060  -56.1683 H   0  0  0  0  0  0  0  0  0  0  0  0
    7.8556    1.2369  -57.1983 H   0  0  0  0  0  0  0  0  0  0  0  0
    5.3641    1.6922  -55.2946 H   0  0  0  0  0  0  0  0  0  0  0  0
    5.1778    0.9144  -56.7463 H   0  0  0  0  0  0  0  0  0  0  0  0
    5.9554   -0.5407  -54.3288 H   0  0  0  0  0  0  0  0  0  0  0  0
    6.5643   -1.2113  -55.7198 H   0  0  0  0  0  0  0  0  0  0  0  0
   12.8375    4.1801  -58.5515 H   0  0  0  0  0  0  0  0  0  0  0  0
   12.2607    3.0055  -59.6844 H   0  0  0  0  0  0  0  0  0  0  0  0
  1  2  1  0
  2  3  1  0
  2  4  1  0
  4  5  1  0
  5  6  2  0
  6  7  1  0
  7  8  1  0
  8  9  2  0
  9 10  1  0
 10 11  2  0
 11 12  1  0
 12 13  2  0
 13 14  1  0
 14 15  2  0
 15 16  1  0
 16 17  3  0
 15 18  1  0
 18 19  1  0
 19 20  2  0
 20 21  1  0
 21 22  1  0
 22 23  1  0
 23 24  1  0
  6 25  1  0
 25  2  1  0
 20  9  1  0
 24 21  1  0
 19 12  1  0
  1 26  1  0
  1 27  1  0
  1 28  1  0
  3 29  1  0
  3 30  1  0
  3 31  1  0
  4 32  1  0
  4 33  1  0
  7 34  1  0
  7 35  1  0
 13 36  1  0
 14 37  1  0
 18 38  1  0
 21 39  1  0
 22 40  1  0
 22 41  1  0
 23 42  1  0
 23 43  1  0
 24 44  1  0
 24 45  1  0
 25 46  1  0
 25 47  1  0
M  END
>  <meeko>  (270) 
{"is_sidechain": false}

$$$$

     RDKit          3D

 47 50  0  0  0  0  0  0  0  0999 V2000
    8.1490    3.7940  -60.0650 C   0  0  0  0  0  0  0  0  0  0  0  0
    8.7410    4.7700  -59.0320 C   0  0  0  0  0  0  0  0  0  0  0  0
    7.9000    6.0480  -59.0050 C   0  0  0  0  0  0  0  0  0  0  0  0
   10.2230    5.0680  -59.3610 C   0  0  0  0  0  0  0  0  0  0  0  0
   10.9530    4.0670  -58.5940 N   0  0  0  0  0  0  0  0  0  0  0  0
   10.1450    3.4040  -57.6890 C   0  0  0  0  0  0  0  0  0  0  0  0
   10.4410    2.2740  -57.0300 C   0  0  0  0  0  0  0  0  0  0  0  0
    9.5680    1.6580  -56.1700 N   0  0  0  0  0  0  0  0  0  0  0  0
    9.8240    0.4490  -55.7620 C   0  0  0  0  0  0  0  0  0  0  0  0
   10.9250   -0.2630  -56.1900 N   0  0  0  0  0  0  0  0  0  0  0  0
   11.4190   -1.1610  -55.4760 N   0  0  0  0  0  0  0  0  0  0  0  0
   10.8290   -1.6020  -54.3240 C   0  0  0  0  0  0  0  0  0  0  0  0
   11.4580   -2.4750  -53.5090 C   0  0  0  0  0  0  0  0  0  0  0  0
   10.7970   -3.0130  -52.3330 C   0  0  0  0  0  0  0  0  0  0  0  0
    9.5170   -2.6720  -52.1020 C   0  0  0  0  0  0  0  0  0  0  0  0
    8.7900   -3.1550  -50.9710 C   0  0  0  0  0  0  0  0  0  0  0  0
    8.1800   -3.5300  -50.0580 N   0  0  0  0  0  0  0  0  0  0  0  0
    8.8380   -1.8130  -52.9540 N   0  0  0  0  0  0  0  0  0  0  0  0
    9.4470   -1.1840  -54.0390 C   0  0  0  0  0  0  0  0  0  0  0  0
    8.8940   -0.2340  -54.8150 C   0  0  0  0  0  0  0  0  0  0  0  0
    7.4940    0.2360  -54.6110 C   0  0  0  0  0  0  0  0  0  0  0  0
    6.9920    0.2970  -53.1330 C   0  0  0  0  0  0  0  0  0  0  0  0
    5.6070   -0.1210  -53.6580 C   0  0  0  0  0  0  0  0  0  0  0  0
    6.3460   -0.7960  -54.8260 C   0  0  0  0  0  0  0  0  0  0  0  0
    8.8120    4.1130  -57.6340 C   0  0  0  0  0  0  0  0  0  0  0  0
    7.6471    2.9666  -59.5421 H   0  0  0  0  0  0  0  0  0  0  0  0
    7.4205    4.3248  -60.6955 H   0  0  0  0  0  0  0  0  0  0  0  0
    8.9564    3.3932  -60.6955 H   0  0  0  0  0  0  0  0  0  0  0  0
    7.7085    6.3390  -57.9616 H   0  0  0  0  0  0  0  0  0  0  0  0
    8.4437    6.8556  -59.5170 H   0  0  0  0  0  0  0  0  0  0  0  0
    6.9432    5.8682  -59.5170 H   0  0  0  0  0  0  0  0  0  0  0  0
   10.4164    4.9553  -60.4380 H   0  0  0  0  0  0  0  0  0  0  0  0
   10.5177    6.0975  -59.1094 H   0  0  0  0  0  0  0  0  0  0  0  0
   11.6260    3.4890  -59.0880 H   0  0  0  0  0  0  0  0  0  0  0  0
   11.4306    1.8198  -57.1866 H   0  0  0  0  0  0  0  0  0  0  0  0
   12.4883   -2.7841  -53.7393 H   0  0  0  0  0  0  0  0  0  0  0  0
   11.3321   -3.6851  -51.6460 H   0  0  0  0  0  0  0  0  0  0  0  0
    7.9320   -1.4770  -52.6470 H   0  0  0  0  0  0  0  0  0  0  0  0
    7.6067    1.1259  -55.2477 H   0  0  0  0  0  0  0  0  0  0  0  0
    7.4653   -0.4305  -52.4572 H   0  0  0  0  0  0  0  0  0  0  0  0
    7.1289    1.1944  -52.5117 H   0  0  0  0  0  0  0  0  0  0  0  0
    5.0541   -0.8099  -53.0025 H   0  0  0  0  0  0  0  0  0  0  0  0
    4.8001    0.6085  -53.8214 H   0  0  0  0  0  0  0  0  0  0  0  0
    6.6308   -1.8428  -54.6443 H   0  0  0  0  0  0  0  0  0  0  0  0
    5.8699   -0.9340  -55.8080 H   0  0  0  0  0  0  0  0  0  0  0  0
    7.9865    3.4016  -57.4841 H   0  0  0  0  0  0  0  0  0  0  0  0
    8.7231    4.8276  -56.8025 H   0  0  0  0  0  0  0  0  0  0  0  0
  1  2  1  0
  2  3  1  0
  2  4  1  0
  4  5  1  0
  5  6  1  0
  6  7  2  0
  7  8  1  0
  8  9  2  0
  9 10  1  0
 10 11  2  0
 11 12  1  0
 12 13  2  0
 13 14  1  0
 14 15  2  0
 15 16  1  0
 16 17  3  0
 15 18  1  0
 18 19  1  0
 19 20  2  0
 20 21  1  0
 21 22  1  0
 22 23  1  0
 23 24  1  0
  6 25  1  0
 25  2  1  0
 20  9  1  0
 24 21  1  0
 19 12  1  0
  1 26  1  0
  1 27  1  0
  1 28  1  0
  3 29  1  0
  3 30  1  0
  3 31  1  0
  4 32  1  0
  4 33  1  0
  5 34  1  0
  7 35  1  0
 13 36  1  0
 14 37  1  0
 18 38  1  0
 21 39  1  0
 22 40  1  0
 22 41  1  0
 23 42  1  0
 23 43  1  0
 24 44  1  0
 24 45  1  0
 25 46  1  0
 25 47  1  0
M  END
>  <meeko>  (271) 
{"is_sidechain": false}

$$$$

     RDKit          3D

 47 50  0  0  0  0  0  0  0  0999 V2000
    8.3860   -3.5980  -50.0420 C   0  0  0  0  0  0  0  0  0  0  0  0
    8.2410   -3.1410  -51.4940 C   0  0  0  0  0  0  0  0  0  0  0  0
    7.5020   -4.2270  -52.2980 C   0  0  0  0  0  0  0  0  0  0  0  0
    9.6170   -2.8380  -52.1350 C   0  0  0  0  0  0  0  0  0  0  0  0
    9.2760   -1.8390  -53.1280 N   0  0  0  0  0  0  0  0  0  0  0  0
    8.1590   -1.1110  -52.7680 C   0  0  0  0  0  0  0  0  0  0  0  0
    7.7450    0.0420  -53.3130 C   0  0  0  0  0  0  0  0  0  0  0  0
    8.4300    0.6520  -54.3340 N   0  0  0  0  0  0  0  0  0  0  0  0
    7.7720    1.0620  -55.3800 C   0  0  0  0  0  0  0  0  0  0  0  0
    6.4070    0.9120  -55.4850 N   0  0  0  0  0  0  0  0  0  0  0  0
    5.8250    1.0030  -56.5830 N   0  0  0  0  0  0  0  0  0  0  0  0
    6.4580    1.3570  -57.7390 C   0  0  0  0  0  0  0  0  0  0  0  0
    5.7910    1.3430  -58.9120 C   0  0  0  0  0  0  0  0  0  0  0  0
    6.4190    1.7850  -60.1440 C   0  0  0  0  0  0  0  0  0  0  0  0
    7.6750    2.2620  -60.0830 C   0  0  0  0  0  0  0  0  0  0  0  0
    8.3710    2.7270  -61.2390 C   0  0  0  0  0  0  0  0  0  0  0  0
    8.9590    3.1070  -62.1630 N   0  0  0  0  0  0  0  0  0  0  0  0
    8.3630    2.3160  -58.8800 N   0  0  0  0  0  0  0  0  0  0  0  0
    7.8540    1.8290  -57.6760 C   0  0  0  0  0  0  0  0  0  0  0  0
    8.5040    1.7390  -56.4990 C   0  0  0  0  0  0  0  0  0  0  0  0
    9.9100    2.1870  -56.2500 C   0  0  0  0  0  0  0  0  0  0  0  0
   11.0470    1.5720  -57.0960 C   0  0  0  0  0  0  0  0  0  0  0  0
   11.7370    2.9530  -57.0560 C   0  0  0  0  0  0  0  0  0  0  0  0
   10.3640    3.5820  -56.7390 C   0  0  0  0  0  0  0  0  0  0  0  0
    7.4920   -1.7860  -51.5920 C   0  0  0  0  0  0  0  0  0  0  0  0
    8.1229   -2.7689  -49.3686 H   0  0  0  0  0  0  0  0  0  0  0  0
    7.7136   -4.4485  -49.8564 H   0  0  0  0  0  0  0  0  0  0  0  0
    9.4258   -3.9053  -49.8564 H   0  0  0  0  0  0  0  0  0  0  0  0
    7.0215   -4.9332  -51.6049 H   0  0  0  0  0  0  0  0  0  0  0  0
    6.7358   -3.7565  -52.9317 H   0  0  0  0  0  0  0  0  0  0  0  0
    8.2209   -4.7670  -52.9317 H   0  0  0  0  0  0  0  0  0  0  0  0
   10.3238   -2.4383  -51.3929 H   0  0  0  0  0  0  0  0  0  0  0  0
   10.1156   -3.7251  -52.5527 H   0  0  0  0  0  0  0  0  0  0  0  0
   10.0040   -1.2860  -53.5740 H   0  0  0  0  0  0  0  0  0  0  0  0
    6.8280    0.5136  -52.9300 H   0  0  0  0  0  0  0  0  0  0  0  0
    4.7497    0.9893  -58.9352 H   0  0  0  0  0  0  0  0  0  0  0  0
    5.8816    1.7312  -61.1023 H   0  0  0  0  0  0  0  0  0  0  0  0
    9.3340    2.5980  -58.9240 H   0  0  0  0  0  0  0  0  0  0  0  0
    9.8160    1.9734  -55.1750 H   0  0  0  0  0  0  0  0  0  0  0  0
   11.6052    0.7662  -56.5969 H   0  0  0  0  0  0  0  0  0  0  0  0
   10.8452    1.0546  -58.0455 H   0  0  0  0  0  0  0  0  0  0  0  0
   12.4846    3.0654  -56.2570 H   0  0  0  0  0  0  0  0  0  0  0  0
   12.3477    3.3104  -57.8982 H   0  0  0  0  0  0  0  0  0  0  0  0
   10.3841    4.3570  -55.9587 H   0  0  0  0  0  0  0  0  0  0  0  0
    9.7961    4.1413  -57.4971 H   0  0  0  0  0  0  0  0  0  0  0  0
    7.6209   -1.1960  -50.6726 H   0  0  0  0  0  0  0  0  0  0  0  0
    6.4052   -1.9004  -51.7180 H   0  0  0  0  0  0  0  0  0  0  0  0
  1  2  1  0
  2  3  1  0
  2  4  1  0
  4  5  1  0
  5  6  1  0
  6  7  2  0
  7  8  1  0
  8  9  2  0
  9 10  1  0
 10 11  2  0
 11 12  1  0
 12 13  2  0
 13 14  1  0
 14 15  2  0
 15 16  1  0
 16 17  3  0
 15 18  1  0
 18 19  1  0
 19 20  2  0
 20 21  1  0
 21 22  1  0
 22 23  1  0
 23 24  1  0
  6 25  1  0
 25  2  1  0
 20  9  1  0
 24 21  1  0
 19 12  1  0
  1 26  1  0
  1 27  1  0
  1 28  1  0
  3 29  1  0
  3 30  1  0
  3 31  1  0
  4 32  1  0
  4 33  1  0
  5 34  1  0
  7 35  1  0
 13 36  1  0
 14 37  1  0
 18 38  1  0
 21 39  1  0
 22 40  1  0
 22 41  1  0
 23 42  1  0
 23 43  1  0
 24 44  1  0
 24 45  1  0
 25 46  1  0
 25 47  1  0
M  END
>  <meeko>  (272) 
{"is_sidechain": false}

$$$$

     RDKit          3D

 47 50  0  0  0  0  0  0  0  0999 V2000
    8.0930    4.2790  -59.9430 C   0  0  0  0  0  0  0  0  0  0  0  0
    9.4700    3.6420  -60.1530 C   0  0  0  0  0  0  0  0  0  0  0  0
    9.6070    3.1220  -61.5850 C   0  0  0  0  0  0  0  0  0  0  0  0
    9.6970    2.5340  -59.1460 C   0  0  0  0  0  0  0  0  0  0  0  0
   10.6540    2.8740  -58.2710 C   0  0  0  0  0  0  0  0  0  0  0  0
   11.2050    2.0260  -57.1590 C   0  0  0  0  0  0  0  0  0  0  0  0
   10.1170    1.5900  -56.2830 N   0  0  0  0  0  0  0  0  0  0  0  0
   10.1330    0.3920  -55.8130 C   0  0  0  0  0  0  0  0  0  0  0  0
   11.1370   -0.5020  -56.1090 N   0  0  0  0  0  0  0  0  0  0  0  0
   11.4100   -1.4330  -55.3210 N   0  0  0  0  0  0  0  0  0  0  0  0
   10.6550   -1.7180  -54.2180 C   0  0  0  0  0  0  0  0  0  0  0  0
   11.0560   -2.6390  -53.3150 C   0  0  0  0  0  0  0  0  0  0  0  0
   10.2110   -3.0070  -52.1920 C   0  0  0  0  0  0  0  0  0  0  0  0
    8.9870   -2.4570  -52.1000 C   0  0  0  0  0  0  0  0  0  0  0  0
    8.0910   -2.7620  -51.0310 C   0  0  0  0  0  0  0  0  0  0  0  0
    7.3480   -2.9900  -50.1700 N   0  0  0  0  0  0  0  0  0  0  0  0
    8.5380   -1.5450  -53.0440 N   0  0  0  0  0  0  0  0  0  0  0  0
    9.3380   -1.0730  -54.0830 C   0  0  0  0  0  0  0  0  0  0  0  0
    9.0220   -0.0890  -54.9430 C   0  0  0  0  0  0  0  0  0  0  0  0
    7.7040    0.6070  -54.9110 C   0  0  0  0  0  0  0  0  0  0  0  0
    6.4450   -0.2660  -55.2090 C   0  0  0  0  0  0  0  0  0  0  0  0
    5.8440    0.9620  -55.9160 C   0  0  0  0  0  0  0  0  0  0  0  0
    7.2920    1.4130  -56.1820 C   0  0  0  0  0  0  0  0  0  0  0  0
   11.1120    4.1590  -58.5190 N   0  0  0  0  0  0  0  0  0  0  0  0
   10.6170    4.6400  -59.8070 C   0  0  0  0  0  0  0  0  0  0  0  0
    7.8924    4.3718  -58.8654 H   0  0  0  0  0  0  0  0  0  0  0  0
    8.0759    5.2765  -60.4064 H   0  0  0  0  0  0  0  0  0  0  0  0
    7.3217    3.6462  -60.4064 H   0  0  0  0  0  0  0  0  0  0  0  0
    9.8872    2.0585  -61.5637 H   0  0  0  0  0  0  0  0  0  0  0  0
    8.6477    3.2380  -62.1106 H   0  0  0  0  0  0  0  0  0  0  0  0
   10.3847    3.6956  -62.1106 H   0  0  0  0  0  0  0  0  0  0  0  0
    9.1506    1.5794  -59.1341 H   0  0  0  0  0  0  0  0  0  0  0  0
   11.7059    1.1445  -57.5857 H   0  0  0  0  0  0  0  0  0  0  0  0
   11.9270    2.6161  -56.5755 H   0  0  0  0  0  0  0  0  0  0  0  0
   12.0390   -3.1185  -53.4319 H   0  0  0  0  0  0  0  0  0  0  0  0
   10.5647   -3.7203  -51.4330 H   0  0  0  0  0  0  0  0  0  0  0  0
    7.6740   -1.0540  -52.8400 H   0  0  0  0  0  0  0  0  0  0  0  0
    7.8807    1.0897  -53.9385 H   0  0  0  0  0  0  0  0  0  0  0  0
    6.6300   -1.1287  -55.8659 H   0  0  0  0  0  0  0  0  0  0  0  0
    5.9054   -0.7950  -54.4097 H   0  0  0  0  0  0  0  0  0  0  0  0
    5.2589    0.7336  -56.8191 H   0  0  0  0  0  0  0  0  0  0  0  0
    5.1095    1.6170  -55.4247 H   0  0  0  0  0  0  0  0  0  0  0  0
    7.7236    1.0392  -57.1222 H   0  0  0  0  0  0  0  0  0  0  0  0
    7.5543    2.4742  -56.3044 H   0  0  0  0  0  0  0  0  0  0  0  0
   12.0970    4.3020  -58.3080 H   0  0  0  0  0  0  0  0  0  0  0  0
   10.2320    5.6669  -59.7214 H   0  0  0  0  0  0  0  0  0  0  0  0
   11.3994    4.6774  -60.5793 H   0  0  0  0  0  0  0  0  0  0  0  0
  1  2  1  0
  2  3  1  0
  2  4  1  0
  4  5  2  0
  5  6  1  0
  6  7  1  0
  7  8  2  0
  8  9  1  0
  9 10  2  0
 10 11  1  0
 11 12  2  0
 12 13  1  0
 13 14  2  0
 14 15  1  0
 15 16  3  0
 14 17  1  0
 17 18  1  0
 18 19  2  0
 19 20  1  0
 20 21  1  0
 21 22  1  0
 22 23  1  0
  5 24  1  0
 24 25  1  0
 25  2  1  0
 19  8  1  0
 23 20  1  0
 18 11  1  0
  1 26  1  0
  1 27  1  0
  1 28  1  0
  3 29  1  0
  3 30  1  0
  3 31  1  0
  4 32  1  0
  6 33  1  0
  6 34  1  0
 12 35  1  0
 13 36  1  0
 17 37  1  0
 20 38  1  0
 21 39  1  0
 21 40  1  0
 22 41  1  0
 22 42  1  0
 23 43  1  0
 23 44  1  0
 24 45  1  0
 25 46  1  0
 25 47  1  0
M  END
>  <meeko>  (273) 
{"is_sidechain": false}

$$$$

     RDKit          3D

 47 50  0  0  0  0  0  0  0  0999 V2000
   13.1720    6.2930  -59.6390 C   0  0  0  0  0  0  0  0  0  0  0  0
   12.7450    4.9950  -58.9530 C   0  0  0  0  0  0  0  0  0  0  0  0
   13.2380    3.7910  -59.7730 C   0  0  0  0  0  0  0  0  0  0  0  0
   13.2590    4.9200  -57.5110 C   0  0  0  0  0  0  0  0  0  0  0  0
   12.2760    4.1050  -56.7660 N   0  0  0  0  0  0  0  0  0  0  0  0
   11.1730    4.1760  -57.4540 C   0  0  0  0  0  0  0  0  0  0  0  0
    9.9080    3.4780  -57.0090 C   0  0  0  0  0  0  0  0  0  0  0  0
    9.4090    2.5120  -57.9950 N   0  0  0  0  0  0  0  0  0  0  0  0
    8.0090    2.5040  -58.1970 C   0  0  0  0  0  0  0  0  0  0  0  0
    7.1890    2.8650  -57.1880 N   0  0  0  0  0  0  0  0  0  0  0  0
    5.8470    2.8780  -57.3510 N   0  0  0  0  0  0  0  0  0  0  0  0
    5.3230    2.5330  -58.5260 C   0  0  0  0  0  0  0  0  0  0  0  0
    3.9420    2.5350  -58.6770 C   0  0  0  0  0  0  0  0  0  0  0  0
    3.3560    2.1760  -59.8860 C   0  0  0  0  0  0  0  0  0  0  0  0
    4.1960    1.8210  -60.9200 C   0  0  0  0  0  0  0  0  0  0  0  0
    3.6730    1.4350  -62.2020 C   0  0  0  0  0  0  0  0  0  0  0  0
    3.2130    1.1260  -63.2230 N   0  0  0  0  0  0  0  0  0  0  0  0
    5.5460    1.8120  -60.8020 N   0  0  0  0  0  0  0  0  0  0  0  0
    6.1170    2.1640  -59.6270 C   0  0  0  0  0  0  0  0  0  0  0  0
    7.5160    2.1620  -59.4780 C   0  0  0  0  0  0  0  0  0  0  0  0
    8.5580    1.7980  -60.6630 C   0  0  0  0  0  0  0  0  0  0  0  0
    8.4600    2.6500  -61.9650 C   0  0  0  0  0  0  0  0  0  0  0  0
    9.7310    3.3930  -61.5170 C   0  0  0  0  0  0  0  0  0  0  0  0
   10.0640    2.1730  -60.6410 C   0  0  0  0  0  0  0  0  0  0  0  0
   11.2350    4.9320  -58.7490 C   0  0  0  0  0  0  0  0  0  0  0  0
   13.4198    7.0463  -58.8767 H   0  0  0  0  0  0  0  0  0  0  0  0
   14.0549    6.1026  -60.2669 H   0  0  0  0  0  0  0  0  0  0  0  0
   12.3485    6.6639  -60.2669 H   0  0  0  0  0  0  0  0  0  0  0  0
   13.5651    2.9922  -59.0911 H   0  0  0  0  0  0  0  0  0  0  0  0
   12.4196    3.4195  -60.4072 H   0  0  0  0  0  0  0  0  0  0  0  0
   14.0819    4.1001  -60.4072 H   0  0  0  0  0  0  0  0  0  0  0  0
   14.2496    4.4426  -57.4834 H   0  0  0  0  0  0  0  0  0  0  0  0
   13.3657    5.9222  -57.0703 H   0  0  0  0  0  0  0  0  0  0  0  0
   10.1138    2.9449  -56.0691 H   0  0  0  0  0  0  0  0  0  0  0  0
    9.1337    4.2490  -56.8826 H   0  0  0  0  0  0  0  0  0  0  0  0
    9.6990    1.5680  -57.7460 H   0  0  0  0  0  0  0  0  0  0  0  0
    3.3037    2.8243  -57.8292 H   0  0  0  0  0  0  0  0  0  0  0  0
    2.2633    2.1753  -60.0126 H   0  0  0  0  0  0  0  0  0  0  0  0
    8.2816    0.7374  -60.5696 H   0  0  0  0  0  0  0  0  0  0  0  0
    8.5722    2.0748  -62.8959 H   0  0  0  0  0  0  0  0  0  0  0  0
    7.5402    3.1945  -62.2249 H   0  0  0  0  0  0  0  0  0  0  0  0
   10.4542    3.5892  -62.3223 H   0  0  0  0  0  0  0  0  0  0  0  0
    9.6866    4.4087  -61.0970 H   0  0  0  0  0  0  0  0  0  0  0  0
   10.7237    1.4349  -61.1206 H   0  0  0  0  0  0  0  0  0  0  0  0
   10.6100    2.2842  -59.6926 H   0  0  0  0  0  0  0  0  0  0  0  0
   10.7363    4.3863  -59.5636 H   0  0  0  0  0  0  0  0  0  0  0  0
   10.7299    5.9091  -58.7374 H   0  0  0  0  0  0  0  0  0  0  0  0
  1  2  1  0
  2  3  1  0
  2  4  1  0
  4  5  1  0
  5  6  2  0
  6  7  1  0
  7  8  1  0
  8  9  1  0
  9 10  1  0
 10 11  2  0
 11 12  1  0
 12 13  2  0
 13 14  1  0
 14 15  2  0
 15 16  1  0
 16 17  3  0
 15 18  1  0
 18 19  2  0
 19 20  1  0
 20 21  1  0
 21 22  1  0
 22 23  1  0
 23 24  1  0
  6 25  1  0
 25  2  1  0
 20  9  2  0
 24 21  1  0
 19 12  1  0
  1 26  1  0
  1 27  1  0
  1 28  1  0
  3 29  1  0
  3 30  1  0
  3 31  1  0
  4 32  1  0
  4 33  1  0
  7 34  1  0
  7 35  1  0
  8 36  1  0
 13 37  1  0
 14 38  1  0
 21 39  1  0
 22 40  1  0
 22 41  1  0
 23 42  1  0
 23 43  1  0
 24 44  1  0
 24 45  1  0
 25 46  1  0
 25 47  1  0
M  END
>  <meeko>  (274) 
{"is_sidechain": false}

$$$$

     RDKit          3D

 47 50  0  0  0  0  0  0  0  0999 V2000
    7.3050   -4.5480  -51.4510 C   0  0  0  0  0  0  0  0  0  0  0  0
    7.7070   -3.0740  -51.4760 C   0  0  0  0  0  0  0  0  0  0  0  0
    7.9310   -2.5750  -50.0390 C   0  0  0  0  0  0  0  0  0  0  0  0
    8.9590   -2.8410  -52.3330 C   0  0  0  0  0  0  0  0  0  0  0  0
    8.8390   -1.4680  -52.8760 N   0  0  0  0  0  0  0  0  0  0  0  0
    7.5710   -1.1830  -52.7930 C   0  0  0  0  0  0  0  0  0  0  0  0
    7.0340    0.1460  -53.2440 C   0  0  0  0  0  0  0  0  0  0  0  0
    7.8630    0.6590  -54.3300 N   0  0  0  0  0  0  0  0  0  0  0  0
    7.3200    1.0810  -55.4290 C   0  0  0  0  0  0  0  0  0  0  0  0
    5.9700    1.0180  -55.7300 N   0  0  0  0  0  0  0  0  0  0  0  0
    5.4100    1.3120  -56.9350 N   0  0  0  0  0  0  0  0  0  0  0  0
    6.2360    1.7430  -57.8360 C   0  0  0  0  0  0  0  0  0  0  0  0
    5.6820    2.0820  -59.1690 C   0  0  0  0  0  0  0  0  0  0  0  0
    6.4790    2.5130  -60.1480 C   0  0  0  0  0  0  0  0  0  0  0  0
    7.9160    2.6310  -59.8510 C   0  0  0  0  0  0  0  0  0  0  0  0
    8.8540    3.0780  -60.8640 C   0  0  0  0  0  0  0  0  0  0  0  0
    9.5620    3.4410  -61.7120 N   0  0  0  0  0  0  0  0  0  0  0  0
    8.5050    2.3730  -58.7310 N   0  0  0  0  0  0  0  0  0  0  0  0
    7.7260    1.9400  -57.6750 C   0  0  0  0  0  0  0  0  0  0  0  0
    8.2520    1.6630  -56.4630 C   0  0  0  0  0  0  0  0  0  0  0  0
    9.7170    1.8240  -56.1930 C   0  0  0  0  0  0  0  0  0  0  0  0
   10.3550    3.2170  -56.4940 C   0  0  0  0  0  0  0  0  0  0  0  0
   11.6340    2.4690  -56.9060 C   0  0  0  0  0  0  0  0  0  0  0  0
   10.7220    1.2820  -57.2600 C   0  0  0  0  0  0  0  0  0  0  0  0
    6.6700   -2.2170  -52.1930 C   0  0  0  0  0  0  0  0  0  0  0  0
    7.2130   -4.8853  -50.4080 H   0  0  0  0  0  0  0  0  0  0  0  0
    6.3398   -4.6736  -51.9635 H   0  0  0  0  0  0  0  0  0  0  0  0
    8.0728   -5.1462  -51.9635 H   0  0  0  0  0  0  0  0  0  0  0  0
    7.5875   -3.3403  -49.3274 H   0  0  0  0  0  0  0  0  0  0  0  0
    9.0023   -2.3817  -49.8808 H   0  0  0  0  0  0  0  0  0  0  0  0
    7.3635   -1.6461  -49.8808 H   0  0  0  0  0  0  0  0  0  0  0  0
    9.8653   -2.9290  -51.7158 H   0  0  0  0  0  0  0  0  0  0  0  0
    9.0369   -3.5853  -53.1392 H   0  0  0  0  0  0  0  0  0  0  0  0
    5.9998    0.0232  -53.5980 H   0  0  0  0  0  0  0  0  0  0  0  0
    7.0503    0.8542  -52.4025 H   0  0  0  0  0  0  0  0  0  0  0  0
    5.3850    0.4500  -55.1090 H   0  0  0  0  0  0  0  0  0  0  0  0
    4.6025    1.9770  -59.3525 H   0  0  0  0  0  0  0  0  0  0  0  0
    6.0778    2.7704  -61.1393 H   0  0  0  0  0  0  0  0  0  0  0  0
    9.6460    1.4035  -55.1790 H   0  0  0  0  0  0  0  0  0  0  0  0
    9.8698    3.7776  -57.3066 H   0  0  0  0  0  0  0  0  0  0  0  0
   10.3717    4.0197  -55.7421 H   0  0  0  0  0  0  0  0  0  0  0  0
   12.1712    2.9087  -57.7592 H   0  0  0  0  0  0  0  0  0  0  0  0
   12.4939    2.3639  -56.2282 H   0  0  0  0  0  0  0  0  0  0  0  0
   10.3422    1.2873  -58.2923 H   0  0  0  0  0  0  0  0  0  0  0  0
   11.0872    0.2447  -57.2364 H   0  0  0  0  0  0  0  0  0  0  0  0
    5.9483   -1.7740  -51.4909 H   0  0  0  0  0  0  0  0  0  0  0  0
    6.0347   -2.7561  -52.9112 H   0  0  0  0  0  0  0  0  0  0  0  0
  1  2  1  0
  2  3  1  0
  2  4  1  0
  4  5  1  0
  5  6  2  0
  6  7  1  0
  7  8  1  0
  8  9  2  0
  9 10  1  0
 10 11  1  0
 11 12  2  0
 12 13  1  0
 13 14  2  0
 14 15  1  0
 15 16  1  0
 16 17  3  0
 15 18  2  0
 18 19  1  0
 19 20  2  0
 20 21  1  0
 21 22  1  0
 22 23  1  0
 23 24  1  0
  6 25  1  0
 25  2  1  0
 20  9  1  0
 24 21  1  0
 19 12  1  0
  1 26  1  0
  1 27  1  0
  1 28  1  0
  3 29  1  0
  3 30  1  0
  3 31  1  0
  4 32  1  0
  4 33  1  0
  7 34  1  0
  7 35  1  0
 10 36  1  0
 13 37  1  0
 14 38  1  0
 21 39  1  0
 22 40  1  0
 22 41  1  0
 23 42  1  0
 23 43  1  0
 24 44  1  0
 24 45  1  0
 25 46  1  0
 25 47  1  0
M  END
>  <meeko>  (275) 
{"is_sidechain": false}

$$$$

     RDKit          3D

 47 50  0  0  0  0  0  0  0  0999 V2000
    9.9860    3.8800  -61.3910 C   0  0  0  0  0  0  0  0  0  0  0  0
    9.0650    2.8220  -60.7810 C   0  0  0  0  0  0  0  0  0  0  0  0
    9.8380    1.4970  -60.6380 C   0  0  0  0  0  0  0  0  0  0  0  0
    7.7910    2.6130  -61.6310 C   0  0  0  0  0  0  0  0  0  0  0  0
    6.7660    2.3100  -60.6400 N   0  0  0  0  0  0  0  0  0  0  0  0
    7.1890    2.5470  -59.3490 C   0  0  0  0  0  0  0  0  0  0  0  0
    6.5930    2.1150  -58.2290 C   0  0  0  0  0  0  0  0  0  0  0  0
    7.0110    2.3090  -56.9290 N   0  0  0  0  0  0  0  0  0  0  0  0
    7.1090    1.2800  -55.9740 C   0  0  0  0  0  0  0  0  0  0  0  0
    5.9260    0.7320  -55.6140 N   0  0  0  0  0  0  0  0  0  0  0  0
    5.8790   -0.3290  -54.7740 N   0  0  0  0  0  0  0  0  0  0  0  0
    7.0160   -0.8420  -54.3020 C   0  0  0  0  0  0  0  0  0  0  0  0
    6.9740   -1.9580  -53.4770 C   0  0  0  0  0  0  0  0  0  0  0  0
    8.1430   -2.5170  -52.9700 C   0  0  0  0  0  0  0  0  0  0  0  0
    9.3390   -1.9210  -53.3180 C   0  0  0  0  0  0  0  0  0  0  0  0
   10.5910   -2.4370  -52.8360 C   0  0  0  0  0  0  0  0  0  0  0  0
   11.5810   -2.8850  -52.4270 N   0  0  0  0  0  0  0  0  0  0  0  0
    9.4130   -0.8310  -54.1180 N   0  0  0  0  0  0  0  0  0  0  0  0
    8.2730   -0.2870  -54.6060 C   0  0  0  0  0  0  0  0  0  0  0  0
    8.3340    0.8490  -55.4310 C   0  0  0  0  0  0  0  0  0  0  0  0
    9.7310    1.6020  -55.7020 C   0  0  0  0  0  0  0  0  0  0  0  0
   10.4790    1.3550  -57.0550 C   0  0  0  0  0  0  0  0  0  0  0  0
   10.9720    2.8090  -56.9760 C   0  0  0  0  0  0  0  0  0  0  0  0
    9.7160    3.1050  -56.1410 C   0  0  0  0  0  0  0  0  0  0  0  0
    8.5080    3.2820  -59.4120 C   0  0  0  0  0  0  0  0  0  0  0  0
   10.4783    4.4456  -60.5862 H   0  0  0  0  0  0  0  0  0  0  0  0
   10.7484    3.3879  -62.0128 H   0  0  0  0  0  0  0  0  0  0  0  0
    9.3936    4.5674  -62.0128 H   0  0  0  0  0  0  0  0  0  0  0  0
    9.9735    1.2648  -59.5714 H   0  0  0  0  0  0  0  0  0  0  0  0
    9.2704    0.6875  -61.1203 H   0  0  0  0  0  0  0  0  0  0  0  0
   10.8220    1.5927  -61.1203 H   0  0  0  0  0  0  0  0  0  0  0  0
    7.5384    3.5252  -62.1915 H   0  0  0  0  0  0  0  0  0  0  0  0
    7.9048    1.8206  -62.3854 H   0  0  0  0  0  0  0  0  0  0  0  0
    6.2040    1.4740  -60.7790 H   0  0  0  0  0  0  0  0  0  0  0  0
    5.6646    1.5402  -58.3617 H   0  0  0  0  0  0  0  0  0  0  0  0
    6.5210    3.0920  -56.4980 H   0  0  0  0  0  0  0  0  0  0  0  0
    6.0029   -2.4065  -53.2206 H   0  0  0  0  0  0  0  0  0  0  0  0
    8.1154   -3.4011  -52.3161 H   0  0  0  0  0  0  0  0  0  0  0  0
   10.1282    1.2696  -54.7315 H   0  0  0  0  0  0  0  0  0  0  0  0
   11.2756    0.5980  -57.0064 H   0  0  0  0  0  0  0  0  0  0  0  0
    9.9546    0.9709  -57.9424 H   0  0  0  0  0  0  0  0  0  0  0  0
   11.9234    2.9443  -56.4407 H   0  0  0  0  0  0  0  0  0  0  0  0
   11.2232    3.3889  -57.8764 H   0  0  0  0  0  0  0  0  0  0  0  0
    9.8693    3.8230  -55.3219 H   0  0  0  0  0  0  0  0  0  0  0  0
    8.8227    3.5671  -56.5865 H   0  0  0  0  0  0  0  0  0  0  0  0
    8.3604    4.3717  -59.3859 H   0  0  0  0  0  0  0  0  0  0  0  0
    9.1769    3.0679  -58.5654 H   0  0  0  0  0  0  0  0  0  0  0  0
  1  2  1  0
  2  3  1  0
  2  4  1  0
  4  5  1  0
  5  6  1  0
  6  7  2  0
  7  8  1  0
  8  9  1  0
  9 10  1  0
 10 11  2  0
 11 12  1  0
 12 13  2  0
 13 14  1  0
 14 15  2  0
 15 16  1  0
 16 17  3  0
 15 18  1  0
 18 19  2  0
 19 20  1  0
 20 21  1  0
 21 22  1  0
 22 23  1  0
 23 24  1  0
  6 25  1  0
 25  2  1  0
 20  9  2  0
 24 21  1  0
 19 12  1  0
  1 26  1  0
  1 27  1  0
  1 28  1  0
  3 29  1  0
  3 30  1  0
  3 31  1  0
  4 32  1  0
  4 33  1  0
  5 34  1  0
  7 35  1  0
  8 36  1  0
 13 37  1  0
 14 38  1  0
 21 39  1  0
 22 40  1  0
 22 41  1  0
 23 42  1  0
 23 43  1  0
 24 44  1  0
 24 45  1  0
 25 46  1  0
 25 47  1  0
M  END
>  <meeko>  (276) 
{"is_sidechain": false}

$$$$

     RDKit          3D

 47 50  0  0  0  0  0  0  0  0999 V2000
   13.5180   -5.0110  -56.5650 C   0  0  0  0  0  0  0  0  0  0  0  0
   12.2540   -4.8500  -57.4290 C   0  0  0  0  0  0  0  0  0  0  0  0
   12.3720   -5.7400  -58.6680 C   0  0  0  0  0  0  0  0  0  0  0  0
   10.9900   -5.1850  -56.6040 C   0  0  0  0  0  0  0  0  0  0  0  0
   10.6080   -3.9020  -56.0140 N   0  0  0  0  0  0  0  0  0  0  0  0
   11.2650   -2.8470  -56.6290 C   0  0  0  0  0  0  0  0  0  0  0  0
   11.3150   -1.5770  -56.2080 C   0  0  0  0  0  0  0  0  0  0  0  0
   10.6220   -1.0530  -55.1430 N   0  0  0  0  0  0  0  0  0  0  0  0
   10.3070   -1.7530  -53.9580 C   0  0  0  0  0  0  0  0  0  0  0  0
   11.3110   -2.1080  -53.1220 N   0  0  0  0  0  0  0  0  0  0  0  0
   11.0550   -2.7470  -51.9570 N   0  0  0  0  0  0  0  0  0  0  0  0
    9.7950   -3.0140  -51.6180 C   0  0  0  0  0  0  0  0  0  0  0  0
    9.5430   -3.6630  -50.4170 C   0  0  0  0  0  0  0  0  0  0  0  0
    8.2420   -3.9550  -50.0210 C   0  0  0  0  0  0  0  0  0  0  0  0
    7.2210   -3.5760  -50.8660 C   0  0  0  0  0  0  0  0  0  0  0  0
    5.8480   -3.8390  -50.5340 C   0  0  0  0  0  0  0  0  0  0  0  0
    4.7500   -4.0710  -50.2310 N   0  0  0  0  0  0  0  0  0  0  0  0
    7.4370   -2.9440  -52.0460 N   0  0  0  0  0  0  0  0  0  0  0  0
    8.7020   -2.6580  -52.4310 C   0  0  0  0  0  0  0  0  0  0  0  0
    8.9490   -1.9980  -53.6490 C   0  0  0  0  0  0  0  0  0  0  0  0
    7.7910   -1.5040  -54.6720 C   0  0  0  0  0  0  0  0  0  0  0  0
    7.6150    0.0460  -54.7970 C   0  0  0  0  0  0  0  0  0  0  0  0
    6.3910   -0.0830  -53.8710 C   0  0  0  0  0  0  0  0  0  0  0  0
    6.2670   -1.5340  -54.3640 C   0  0  0  0  0  0  0  0  0  0  0  0
   12.0350   -3.3700  -57.8160 C   0  0  0  0  0  0  0  0  0  0  0  0
   13.2417   -4.9758  -55.5009 H   0  0  0  0  0  0  0  0  0  0  0  0
   13.9942   -5.9771  -56.7884 H   0  0  0  0  0  0  0  0  0  0  0  0
   14.2212   -4.1952  -56.7884 H   0  0  0  0  0  0  0  0  0  0  0  0
   12.5107   -6.7858  -58.3564 H   0  0  0  0  0  0  0  0  0  0  0  0
   11.4547   -5.6551  -59.2692 H   0  0  0  0  0  0  0  0  0  0  0  0
   13.2354   -5.4190  -59.2692 H   0  0  0  0  0  0  0  0  0  0  0  0
   10.1900   -5.5718  -57.2524 H   0  0  0  0  0  0  0  0  0  0  0  0
   11.1694   -5.9640  -55.8484 H   0  0  0  0  0  0  0  0  0  0  0  0
   10.6520   -3.8640  -55.0000 H   0  0  0  0  0  0  0  0  0  0  0  0
   11.9700   -0.8908  -56.7649 H   0  0  0  0  0  0  0  0  0  0  0  0
    9.9670   -0.3310  -55.4110 H   0  0  0  0  0  0  0  0  0  0  0  0
   10.3843   -3.9505  -49.7692 H   0  0  0  0  0  0  0  0  0  0  0  0
    8.0359   -4.4685  -49.0703 H   0  0  0  0  0  0  0  0  0  0  0  0
    8.1796   -2.1883  -55.4406 H   0  0  0  0  0  0  0  0  0  0  0  0
    8.4445    0.6365  -54.3807 H   0  0  0  0  0  0  0  0  0  0  0  0
    7.5486    0.5426  -55.7763 H   0  0  0  0  0  0  0  0  0  0  0  0
    6.6124    0.0212  -52.7986 H   0  0  0  0  0  0  0  0  0  0  0  0
    5.5479    0.6219  -53.9199 H   0  0  0  0  0  0  0  0  0  0  0  0
    5.9721   -2.2561  -53.5884 H   0  0  0  0  0  0  0  0  0  0  0  0
    5.5321   -1.8183  -55.1315 H   0  0  0  0  0  0  0  0  0  0  0  0
   11.4494   -3.2816  -58.7429 H   0  0  0  0  0  0  0  0  0  0  0  0
   12.9669   -2.8213  -58.0173 H   0  0  0  0  0  0  0  0  0  0  0  0
  1  2  1  0
  2  3  1  0
  2  4  1  0
  4  5  1  0
  5  6  1  0
  6  7  2  0
  7  8  1  0
  8  9  1  0
  9 10  1  0
 10 11  2  0
 11 12  1  0
 12 13  2  0
 13 14  1  0
 14 15  2  0
 15 16  1  0
 16 17  3  0
 15 18  1  0
 18 19  2  0
 19 20  1  0
 20 21  1  0
 21 22  1  0
 22 23  1  0
 23 24  1  0
  6 25  1  0
 25  2  1  0
 20  9  2  0
 24 21  1  0
 19 12  1  0
  1 26  1  0
  1 27  1  0
  1 28  1  0
  3 29  1  0
  3 30  1  0
  3 31  1  0
  4 32  1  0
  4 33  1  0
  5 34  1  0
  7 35  1  0
  8 36  1  0
 13 37  1  0
 14 38  1  0
 21 39  1  0
 22 40  1  0
 22 41  1  0
 23 42  1  0
 23 43  1  0
 24 44  1  0
 24 45  1  0
 25 46  1  0
 25 47  1  0
M  END
>  <meeko>  (277) 
{"is_sidechain": false}

$$$$

     RDKit          3D

 47 50  0  0  0  0  0  0  0  0999 V2000
    7.4560    3.8300  -60.0420 C   0  0  0  0  0  0  0  0  0  0  0  0
    8.4770    4.6420  -59.2230 C   0  0  0  0  0  0  0  0  0  0  0  0
    7.9680    6.0770  -59.0640 C   0  0  0  0  0  0  0  0  0  0  0  0
    9.8670    4.6010  -59.9010 C   0  0  0  0  0  0  0  0  0  0  0  0
   10.5220    3.4540  -59.2790 N   0  0  0  0  0  0  0  0  0  0  0  0
    9.8220    2.9870  -58.1810 C   0  0  0  0  0  0  0  0  0  0  0  0
   10.0060    1.8170  -57.5540 C   0  0  0  0  0  0  0  0  0  0  0  0
    9.2570    1.3800  -56.4970 N   0  0  0  0  0  0  0  0  0  0  0  0
    9.7240    0.3900  -55.7780 C   0  0  0  0  0  0  0  0  0  0  0  0
   10.9320   -0.2440  -55.9900 N   0  0  0  0  0  0  0  0  0  0  0  0
   11.4530   -1.2440  -55.2390 N   0  0  0  0  0  0  0  0  0  0  0  0
   10.7080   -1.6260  -54.2480 C   0  0  0  0  0  0  0  0  0  0  0  0
   11.2280   -2.7210  -53.3930 C   0  0  0  0  0  0  0  0  0  0  0  0
   10.5270   -3.1640  -52.3490 C   0  0  0  0  0  0  0  0  0  0  0  0
    9.2280   -2.5230  -52.0880 C   0  0  0  0  0  0  0  0  0  0  0  0
    8.4010   -2.9400  -50.9710 C   0  0  0  0  0  0  0  0  0  0  0  0
    7.7790   -3.3110  -50.0620 N   0  0  0  0  0  0  0  0  0  0  0  0
    8.6790   -1.5720  -52.7650 N   0  0  0  0  0  0  0  0  0  0  0  0
    9.3490   -1.0700  -53.8590 C   0  0  0  0  0  0  0  0  0  0  0  0
    8.8600   -0.0720  -54.6240 C   0  0  0  0  0  0  0  0  0  0  0  0
    7.5460    0.6330  -54.4240 C   0  0  0  0  0  0  0  0  0  0  0  0
    6.6880    0.0440  -53.2640 C   0  0  0  0  0  0  0  0  0  0  0  0
    5.8040   -0.6330  -54.3300 C   0  0  0  0  0  0  0  0  0  0  0  0
    6.3030    0.4330  -55.3220 C   0  0  0  0  0  0  0  0  0  0  0  0
    8.7310    3.9800  -57.8500 C   0  0  0  0  0  0  0  0  0  0  0  0
    6.7814    3.2935  -59.3586 H   0  0  0  0  0  0  0  0  0  0  0  0
    6.8697    4.5113  -60.6761 H   0  0  0  0  0  0  0  0  0  0  0  0
    7.9878    3.1054  -60.6761 H   0  0  0  0  0  0  0  0  0  0  0  0
    7.8821    6.3192  -57.9944 H   0  0  0  0  0  0  0  0  0  0  0  0
    8.6746    6.7717  -59.5417 H   0  0  0  0  0  0  0  0  0  0  0  0
    6.9816    6.1712  -59.5417 H   0  0  0  0  0  0  0  0  0  0  0  0
    9.7695    4.4557  -60.9870 H   0  0  0  0  0  0  0  0  0  0  0  0
   10.4319    5.5360  -59.7720 H   0  0  0  0  0  0  0  0  0  0  0  0
   10.8670    2.7280  -59.9030 H   0  0  0  0  0  0  0  0  0  0  0  0
   10.8145    1.1639  -57.9142 H   0  0  0  0  0  0  0  0  0  0  0  0
   11.5210    0.1270  -56.7330 H   0  0  0  0  0  0  0  0  0  0  0  0
   12.2040   -3.1731  -53.6232 H   0  0  0  0  0  0  0  0  0  0  0  0
   10.9040   -3.9753  -51.7089 H   0  0  0  0  0  0  0  0  0  0  0  0
    8.0321    1.6193  -54.4550 H   0  0  0  0  0  0  0  0  0  0  0  0
    7.2268   -0.6547  -52.6071 H   0  0  0  0  0  0  0  0  0  0  0  0
    6.2549    0.6900  -52.4861 H   0  0  0  0  0  0  0  0  0  0  0  0
    6.0946   -1.6641  -54.5797 H   0  0  0  0  0  0  0  0  0  0  0  0
    4.7315   -0.8124  -54.1639 H   0  0  0  0  0  0  0  0  0  0  0  0
    6.5263    0.0484  -56.3281 H   0  0  0  0  0  0  0  0  0  0  0  0
    5.6674    1.2829  -55.6111 H   0  0  0  0  0  0  0  0  0  0  0  0
    7.8286    3.4736  -57.4767 H   0  0  0  0  0  0  0  0  0  0  0  0
    9.0028    4.6916  -57.0564 H   0  0  0  0  0  0  0  0  0  0  0  0
  1  2  1  0
  2  3  1  0
  2  4  1  0
  4  5  1  0
  5  6  1  0
  6  7  2  0
  7  8  1  0
  8  9  2  0
  9 10  1  0
 10 11  1  0
 11 12  2  0
 12 13  1  0
 13 14  2  0
 14 15  1  0
 15 16  1  0
 16 17  3  0
 15 18  2  0
 18 19  1  0
 19 20  2  0
 20 21  1  0
 21 22  1  0
 22 23  1  0
 23 24  1  0
  6 25  1  0
 25  2  1  0
 20  9  1  0
 24 21  1  0
 19 12  1  0
  1 26  1  0
  1 27  1  0
  1 28  1  0
  3 29  1  0
  3 30  1  0
  3 31  1  0
  4 32  1  0
  4 33  1  0
  5 34  1  0
  7 35  1  0
 10 36  1  0
 13 37  1  0
 14 38  1  0
 21 39  1  0
 22 40  1  0
 22 41  1  0
 23 42  1  0
 23 43  1  0
 24 44  1  0
 24 45  1  0
 25 46  1  0
 25 47  1  0
M  END
>  <meeko>  (278) 
{"is_sidechain": false}

$$$$

     RDKit          3D

 47 50  0  0  0  0  0  0  0  0999 V2000
    8.8960   -3.2790  -50.4570 C   0  0  0  0  0  0  0  0  0  0  0  0
    7.7500   -3.3500  -51.4830 C   0  0  0  0  0  0  0  0  0  0  0  0
    6.7610   -4.4390  -51.0640 C   0  0  0  0  0  0  0  0  0  0  0  0
    8.3090   -3.6050  -52.9020 C   0  0  0  0  0  0  0  0  0  0  0  0
    8.6290   -2.2590  -53.3550 N   0  0  0  0  0  0  0  0  0  0  0  0
    7.8210   -1.3150  -52.7470 C   0  0  0  0  0  0  0  0  0  0  0  0
    7.6970   -0.0230  -53.0840 C   0  0  0  0  0  0  0  0  0  0  0  0
    8.3060    0.6160  -54.1340 N   0  0  0  0  0  0  0  0  0  0  0  0
    7.6290    0.9800  -55.1910 C   0  0  0  0  0  0  0  0  0  0  0  0
    6.2630    0.8430  -55.3600 N   0  0  0  0  0  0  0  0  0  0  0  0
    5.5560    1.1220  -56.4820 N   0  0  0  0  0  0  0  0  0  0  0  0
    6.2670    1.5430  -57.4810 C   0  0  0  0  0  0  0  0  0  0  0  0
    5.5630    1.8310  -58.7540 C   0  0  0  0  0  0  0  0  0  0  0  0
    6.2370    2.2600  -59.8230 C   0  0  0  0  0  0  0  0  0  0  0  0
    7.6920    2.4320  -59.6840 C   0  0  0  0  0  0  0  0  0  0  0  0
    8.5000    2.8840  -60.8020 C   0  0  0  0  0  0  0  0  0  0  0  0
    9.0990    3.2500  -61.7300 N   0  0  0  0  0  0  0  0  0  0  0  0
    8.4060    2.2240  -58.6290 N   0  0  0  0  0  0  0  0  0  0  0  0
    7.7610    1.7920  -57.4860 C   0  0  0  0  0  0  0  0  0  0  0  0
    8.4210    1.5810  -56.3270 C   0  0  0  0  0  0  0  0  0  0  0  0
    9.8970    1.8140  -56.2120 C   0  0  0  0  0  0  0  0  0  0  0  0
   10.4160    3.2600  -56.4920 C   0  0  0  0  0  0  0  0  0  0  0  0
   11.6790    2.6180  -57.0920 C   0  0  0  0  0  0  0  0  0  0  0  0
   10.8000    1.3990  -57.4180 C   0  0  0  0  0  0  0  0  0  0  0  0
    7.0540   -1.9710  -51.6210 C   0  0  0  0  0  0  0  0  0  0  0  0
    8.4792   -3.3048  -49.4394 H   0  0  0  0  0  0  0  0  0  0  0  0
    9.5693   -4.1372  -50.5993 H   0  0  0  0  0  0  0  0  0  0  0  0
    9.4582   -2.3443  -50.5993 H   0  0  0  0  0  0  0  0  0  0  0  0
    6.7149   -4.4897  -49.9661 H   0  0  0  0  0  0  0  0  0  0  0  0
    5.7635   -4.2014  -51.4623 H   0  0  0  0  0  0  0  0  0  0  0  0
    7.0933   -5.4090  -51.4623 H   0  0  0  0  0  0  0  0  0  0  0  0
    9.2077   -4.2384  -52.8684 H   0  0  0  0  0  0  0  0  0  0  0  0
    7.6089   -4.1376  -53.5624 H   0  0  0  0  0  0  0  0  0  0  0  0
    8.7340   -2.1090  -54.3590 H   0  0  0  0  0  0  0  0  0  0  0  0
    7.0372    0.5891  -52.4516 H   0  0  0  0  0  0  0  0  0  0  0  0
    5.7330    0.6600  -54.5070 H   0  0  0  0  0  0  0  0  0  0  0  0
    4.4740    1.6896  -58.8178 H   0  0  0  0  0  0  0  0  0  0  0  0
    5.7245    2.4768  -60.7719 H   0  0  0  0  0  0  0  0  0  0  0  0
    9.9686    1.3300  -55.2268 H   0  0  0  0  0  0  0  0  0  0  0  0
    9.8094    3.8347  -57.2074 H   0  0  0  0  0  0  0  0  0  0  0  0
   10.4741    4.0179  -55.6969 H   0  0  0  0  0  0  0  0  0  0  0  0
   12.0891    3.1391  -57.9696 H   0  0  0  0  0  0  0  0  0  0  0  0
   12.6158    2.5277  -56.5225 H   0  0  0  0  0  0  0  0  0  0  0  0
   10.3034    1.4405  -58.3986 H   0  0  0  0  0  0  0  0  0  0  0  0
   11.2226    0.3870  -57.5032 H   0  0  0  0  0  0  0  0  0  0  0  0
    7.1412   -1.3892  -50.6915 H   0  0  0  0  0  0  0  0  0  0  0  0
    5.9746   -2.0477  -51.8184 H   0  0  0  0  0  0  0  0  0  0  0  0
  1  2  1  0
  2  3  1  0
  2  4  1  0
  4  5  1  0
  5  6  1  0
  6  7  2  0
  7  8  1  0
  8  9  2  0
  9 10  1  0
 10 11  1  0
 11 12  2  0
 12 13  1  0
 13 14  2  0
 14 15  1  0
 15 16  1  0
 16 17  3  0
 15 18  2  0
 18 19  1  0
 19 20  2  0
 20 21  1  0
 21 22  1  0
 22 23  1  0
 23 24  1  0
  6 25  1  0
 25  2  1  0
 20  9  1  0
 24 21  1  0
 19 12  1  0
  1 26  1  0
  1 27  1  0
  1 28  1  0
  3 29  1  0
  3 30  1  0
  3 31  1  0
  4 32  1  0
  4 33  1  0
  5 34  1  0
  7 35  1  0
 10 36  1  0
 13 37  1  0
 14 38  1  0
 21 39  1  0
 22 40  1  0
 22 41  1  0
 23 42  1  0
 23 43  1  0
 24 44  1  0
 24 45  1  0
 25 46  1  0
 25 47  1  0
M  END
>  <meeko>  (279) 
{"is_sidechain": false}

$$$$

     RDKit          3D

 47 50  0  0  0  0  0  0  0  0999 V2000
    7.7740   -1.3600  -52.0930 C   0  0  0  0  0  0  0  0  0  0  0  0
    8.2760   -1.2670  -53.5320 C   0  0  0  0  0  0  0  0  0  0  0  0
    9.7750   -1.3770  -53.6310 C   0  0  0  0  0  0  0  0  0  0  0  0
    7.7900    0.0490  -54.0440 C   0  0  0  0  0  0  0  0  0  0  0  0
    6.6480   -0.1160  -54.7130 C   0  0  0  0  0  0  0  0  0  0  0  0
    5.9100    1.0410  -55.3510 C   0  0  0  0  0  0  0  0  0  0  0  0
    6.3910    1.3230  -56.5850 N   0  0  0  0  0  0  0  0  0  0  0  0
    6.8800    1.6100  -57.8420 C   0  0  0  0  0  0  0  0  0  0  0  0
    6.5680    1.1340  -59.0350 N   0  0  0  0  0  0  0  0  0  0  0  0
    7.1390    1.4710  -60.1810 N   0  0  0  0  0  0  0  0  0  0  0  0
    8.1160    2.3640  -60.1770 C   0  0  0  0  0  0  0  0  0  0  0  0
    8.7000    2.7060  -61.3690 C   0  0  0  0  0  0  0  0  0  0  0  0
    9.7170    3.6280  -61.4400 C   0  0  0  0  0  0  0  0  0  0  0  0
   10.1270    4.1970  -60.2560 C   0  0  0  0  0  0  0  0  0  0  0  0
   11.1680    5.1790  -60.1890 C   0  0  0  0  0  0  0  0  0  0  0  0
   12.0110    5.9900  -60.1520 N   0  0  0  0  0  0  0  0  0  0  0  0
    9.5380    3.8410  -59.1090 N   0  0  0  0  0  0  0  0  0  0  0  0
    8.5470    2.9470  -59.0150 C   0  0  0  0  0  0  0  0  0  0  0  0
    7.9360    2.5770  -57.8450 C   0  0  0  0  0  0  0  0  0  0  0  0
    8.3840    3.1800  -56.5920 C   0  0  0  0  0  0  0  0  0  0  0  0
    9.6670    2.6540  -56.0150 C   0  0  0  0  0  0  0  0  0  0  0  0
   10.2140    4.0780  -56.1250 C   0  0  0  0  0  0  0  0  0  0  0  0
    8.8360    4.5810  -56.5120 C   0  0  0  0  0  0  0  0  0  0  0  0
    6.3070   -1.4790  -54.6940 N   0  0  0  0  0  0  0  0  0  0  0  0
    7.5420   -2.2220  -54.4190 C   0  0  0  0  0  0  0  0  0  0  0  0
    8.6145   -1.2043  -51.4007 H   0  0  0  0  0  0  0  0  0  0  0  0
    7.0093   -0.5882  -51.9208 H   0  0  0  0  0  0  0  0  0  0  0  0
    7.3365   -2.3545  -51.9208 H   0  0  0  0  0  0  0  0  0  0  0  0
   10.2079   -1.4088  -52.6203 H   0  0  0  0  0  0  0  0  0  0  0  0
   10.0402   -2.2970  -54.1725 H   0  0  0  0  0  0  0  0  0  0  0  0
   10.1716   -0.5055  -54.1725 H   0  0  0  0  0  0  0  0  0  0  0  0
    8.2988    1.0123  -53.8918 H   0  0  0  0  0  0  0  0  0  0  0  0
    4.8444    0.7813  -55.4346 H   0  0  0  0  0  0  0  0  0  0  0  0
    6.0511    1.9288  -54.7171 H   0  0  0  0  0  0  0  0  0  0  0  0
    5.6180    0.3450  -57.1050 H   0  0  0  0  0  0  0  0  0  0  0  0
    8.3449    2.2293  -62.2946 H   0  0  0  0  0  0  0  0  0  0  0  0
   10.1819    3.8987  -62.3995 H   0  0  0  0  0  0  0  0  0  0  0  0
    7.4151    2.9675  -56.1165 H   0  0  0  0  0  0  0  0  0  0  0  0
    9.5858    2.2708  -54.9871 H   0  0  0  0  0  0  0  0  0  0  0  0
   10.1927    1.7942  -56.4559 H   0  0  0  0  0  0  0  0  0  0  0  0
   10.5912    4.4881  -55.1766 H   0  0  0  0  0  0  0  0  0  0  0  0
   11.0832    4.2915  -56.7644 H   0  0  0  0  0  0  0  0  0  0  0  0
    8.3349    5.1762  -55.7344 H   0  0  0  0  0  0  0  0  0  0  0  0
    8.6998    5.2711  -57.3577 H   0  0  0  0  0  0  0  0  0  0  0  0
    5.3430   -1.8580  -54.8530 H   0  0  0  0  0  0  0  0  0  0  0  0
    7.3333   -3.1704  -53.9022 H   0  0  0  0  0  0  0  0  0  0  0  0
    8.0994   -2.5134  -55.3214 H   0  0  0  0  0  0  0  0  0  0  0  0
  1  2  1  0
  2  3  1  0
  2  4  1  0
  4  5  2  0
  5  6  1  0
  6  7  1  0
  7  8  1  0
  8  9  1  0
  9 10  2  0
 10 11  1  0
 11 12  2  0
 12 13  1  0
 13 14  2  0
 14 15  1  0
 15 16  3  0
 14 17  1  0
 17 18  2  0
 18 19  1  0
 19 20  1  0
 20 21  1  0
 21 22  1  0
 22 23  1  0
  5 24  1  0
 24 25  1  0
 25  2  1  0
 19  8  2  0
 23 20  1  0
 18 11  1  0
  1 26  1  0
  1 27  1  0
  1 28  1  0
  3 29  1  0
  3 30  1  0
  3 31  1  0
  4 32  1  0
  6 33  1  0
  6 34  1  0
  7 35  1  0
 12 36  1  0
 13 37  1  0
 20 38  1  0
 21 39  1  0
 21 40  1  0
 22 41  1  0
 22 42  1  0
 23 43  1  0
 23 44  1  0
 24 45  1  0
 25 46  1  0
 25 47  1  0
M  END
>  <meeko>  (280) 
{"is_sidechain": false}

$$$$

     RDKit          3D

 47 50  0  0  0  0  0  0  0  0999 V2000
    7.3780   -4.5050  -51.8310 C   0  0  0  0  0  0  0  0  0  0  0  0
    8.0210   -3.1400  -51.5810 C   0  0  0  0  0  0  0  0  0  0  0  0
    8.5030   -3.0320  -50.1310 C   0  0  0  0  0  0  0  0  0  0  0  0
    7.0580   -2.0170  -51.9000 C   0  0  0  0  0  0  0  0  0  0  0  0
    7.5890   -1.1640  -52.7850 C   0  0  0  0  0  0  0  0  0  0  0  0
    6.9200    0.0510  -53.3680 C   0  0  0  0  0  0  0  0  0  0  0  0
    7.7620    0.7200  -54.3610 N   0  0  0  0  0  0  0  0  0  0  0  0
    7.2540    1.1330  -55.4780 C   0  0  0  0  0  0  0  0  0  0  0  0
    5.9110    1.0990  -55.7940 N   0  0  0  0  0  0  0  0  0  0  0  0
    5.3570    1.4330  -56.9860 N   0  0  0  0  0  0  0  0  0  0  0  0
    6.2040    1.8110  -57.8930 C   0  0  0  0  0  0  0  0  0  0  0  0
    5.6710    2.1540  -59.2340 C   0  0  0  0  0  0  0  0  0  0  0  0
    6.4880    2.5460  -60.2110 C   0  0  0  0  0  0  0  0  0  0  0  0
    7.9270    2.6230  -59.9060 C   0  0  0  0  0  0  0  0  0  0  0  0
    8.8840    3.0340  -60.9160 C   0  0  0  0  0  0  0  0  0  0  0  0
    9.6080    3.3700  -61.7620 N   0  0  0  0  0  0  0  0  0  0  0  0
    8.4990    2.3600  -58.7780 N   0  0  0  0  0  0  0  0  0  0  0  0
    7.7010    1.9590  -57.7250 C   0  0  0  0  0  0  0  0  0  0  0  0
    8.2090    1.6900  -56.5040 C   0  0  0  0  0  0  0  0  0  0  0  0
    9.6730    1.8210  -56.2170 C   0  0  0  0  0  0  0  0  0  0  0  0
   10.3430    3.1950  -56.5290 C   0  0  0  0  0  0  0  0  0  0  0  0
   11.6110    2.4140  -56.9170 C   0  0  0  0  0  0  0  0  0  0  0  0
   10.6770    1.2430  -57.2640 C   0  0  0  0  0  0  0  0  0  0  0  0
    8.8810   -1.5460  -53.1420 N   0  0  0  0  0  0  0  0  0  0  0  0
    9.1820   -2.8720  -52.5830 C   0  0  0  0  0  0  0  0  0  0  0  0
    7.1516   -4.9856  -50.8678 H   0  0  0  0  0  0  0  0  0  0  0  0
    6.4475   -4.3728  -52.4025 H   0  0  0  0  0  0  0  0  0  0  0  0
    8.0725   -5.1383  -52.4025 H   0  0  0  0  0  0  0  0  0  0  0  0
    7.6604   -3.2208  -49.4495 H   0  0  0  0  0  0  0  0  0  0  0  0
    9.2937   -3.7752  -49.9511 H   0  0  0  0  0  0  0  0  0  0  0  0
    8.9010   -2.0224  -49.9511 H   0  0  0  0  0  0  0  0  0  0  0  0
    6.0540   -1.9149  -51.4624 H   0  0  0  0  0  0  0  0  0  0  0  0
    5.9807   -0.2582  -53.8499 H   0  0  0  0  0  0  0  0  0  0  0  0
    6.7334    0.7609  -52.5487 H   0  0  0  0  0  0  0  0  0  0  0  0
    5.2640    0.9350  -55.0190 H   0  0  0  0  0  0  0  0  0  0  0  0
    4.5898    2.0840  -59.4240 H   0  0  0  0  0  0  0  0  0  0  0  0
    6.1020    2.8026  -61.2086 H   0  0  0  0  0  0  0  0  0  0  0  0
    9.5821    1.4154  -55.1986 H   0  0  0  0  0  0  0  0  0  0  0  0
    9.8787    3.7547  -57.3543 H   0  0  0  0  0  0  0  0  0  0  0  0
   10.3685    4.0073  -55.7877 H   0  0  0  0  0  0  0  0  0  0  0  0
   12.1665    2.8301  -57.7704 H   0  0  0  0  0  0  0  0  0  0  0  0
   12.4616    2.3000  -56.2289 H   0  0  0  0  0  0  0  0  0  0  0  0
   10.3086    1.2419  -58.3005 H   0  0  0  0  0  0  0  0  0  0  0  0
   11.0191    0.1984  -57.2214 H   0  0  0  0  0  0  0  0  0  0  0  0
    9.0040   -1.4910  -54.1540 H   0  0  0  0  0  0  0  0  0  0  0  0
    9.1966   -3.6347  -53.3755 H   0  0  0  0  0  0  0  0  0  0  0  0
   10.1701   -2.9104  -52.1011 H   0  0  0  0  0  0  0  0  0  0  0  0
  1  2  1  0
  2  3  1  0
  2  4  1  0
  4  5  2  0
  5  6  1  0
  6  7  1  0
  7  8  2  0
  8  9  1  0
  9 10  1  0
 10 11  2  0
 11 12  1  0
 12 13  2  0
 13 14  1  0
 14 15  1  0
 15 16  3  0
 14 17  2  0
 17 18  1  0
 18 19  2  0
 19 20  1  0
 20 21  1  0
 21 22  1  0
 22 23  1  0
  5 24  1  0
 24 25  1  0
 25  2  1  0
 19  8  1  0
 23 20  1  0
 18 11  1  0
  1 26  1  0
  1 27  1  0
  1 28  1  0
  3 29  1  0
  3 30  1  0
  3 31  1  0
  4 32  1  0
  6 33  1  0
  6 34  1  0
  9 35  1  0
 12 36  1  0
 13 37  1  0
 20 38  1  0
 21 39  1  0
 21 40  1  0
 22 41  1  0
 22 42  1  0
 23 43  1  0
 23 44  1  0
 24 45  1  0
 25 46  1  0
 25 47  1  0
M  END
>  <meeko>  (281) 
{"is_sidechain": false}

$$$$

     RDKit          3D

 47 50  0  0  0  0  0  0  0  0999 V2000
    8.4830   -2.7010  -50.8730 C   0  0  0  0  0  0  0  0  0  0  0  0
    8.4810   -2.5090  -52.3900 C   0  0  0  0  0  0  0  0  0  0  0  0
    7.9130   -3.7670  -53.0690 C   0  0  0  0  0  0  0  0  0  0  0  0
    9.8820   -2.1870  -52.9250 C   0  0  0  0  0  0  0  0  0  0  0  0
    9.6880   -1.3320  -54.1150 N   0  0  0  0  0  0  0  0  0  0  0  0
    8.4810   -0.8590  -54.0140 C   0  0  0  0  0  0  0  0  0  0  0  0
    7.9030    0.1120  -55.0130 C   0  0  0  0  0  0  0  0  0  0  0  0
    8.9220    1.1070  -55.2960 N   0  0  0  0  0  0  0  0  0  0  0  0
    8.9720    1.8200  -56.3700 C   0  0  0  0  0  0  0  0  0  0  0  0
   10.1320    2.5580  -56.4860 N   0  0  0  0  0  0  0  0  0  0  0  0
   10.7200    2.8850  -57.6650 N   0  0  0  0  0  0  0  0  0  0  0  0
    9.9500    2.7540  -58.7020 C   0  0  0  0  0  0  0  0  0  0  0  0
   10.5180    3.0830  -60.0300 C   0  0  0  0  0  0  0  0  0  0  0  0
    9.7540    3.0530  -61.1220 C   0  0  0  0  0  0  0  0  0  0  0  0
    8.3370    2.6920  -60.9490 C   0  0  0  0  0  0  0  0  0  0  0  0
    7.4260    2.6780  -62.0780 C   0  0  0  0  0  0  0  0  0  0  0  0
    6.7370    2.6790  -63.0140 N   0  0  0  0  0  0  0  0  0  0  0  0
    7.7480    2.3570  -59.8510 N   0  0  0  0  0  0  0  0  0  0  0  0
    8.4960    2.3160  -58.6910 C   0  0  0  0  0  0  0  0  0  0  0  0
    7.9790    1.9110  -57.5080 C   0  0  0  0  0  0  0  0  0  0  0  0
    6.5240    1.6420  -57.3040 C   0  0  0  0  0  0  0  0  0  0  0  0
    5.6340    2.6660  -56.5500 C   0  0  0  0  0  0  0  0  0  0  0  0
    4.4920    2.2690  -57.5110 C   0  0  0  0  0  0  0  0  0  0  0  0
    5.5710    1.8050  -58.5120 C   0  0  0  0  0  0  0  0  0  0  0  0
    7.6960   -1.2690  -52.8030 C   0  0  0  0  0  0  0  0  0  0  0  0
    8.4728   -1.7182  -50.3790 H   0  0  0  0  0  0  0  0  0  0  0  0
    7.5907   -3.2708  -50.5743 H   0  0  0  0  0  0  0  0  0  0  0  0
    9.3869   -3.2521  -50.5743 H   0  0  0  0  0  0  0  0  0  0  0  0
    7.5892   -4.4841  -52.3003 H   0  0  0  0  0  0  0  0  0  0  0  0
    7.0532   -3.4887  -53.6961 H   0  0  0  0  0  0  0  0  0  0  0  0
    8.6904   -4.2278  -53.6961 H   0  0  0  0  0  0  0  0  0  0  0  0
   10.4664   -1.6510  -52.1627 H   0  0  0  0  0  0  0  0  0  0  0  0
   10.4326   -3.1048  -53.1789 H   0  0  0  0  0  0  0  0  0  0  0  0
    7.6294   -0.4184  -55.9370 H   0  0  0  0  0  0  0  0  0  0  0  0
    6.9977    0.5892  -54.6097 H   0  0  0  0  0  0  0  0  0  0  0  0
   10.7600    2.4180  -55.6960 H   0  0  0  0  0  0  0  0  0  0  0  0
   11.5805    3.3547  -60.1159 H   0  0  0  0  0  0  0  0  0  0  0  0
   10.1663    3.2889  -62.1142 H   0  0  0  0  0  0  0  0  0  0  0  0
    6.7471    0.6622  -56.8566 H   0  0  0  0  0  0  0  0  0  0  0  0
    5.4500    2.4244  -55.4928 H   0  0  0  0  0  0  0  0  0  0  0  0
    5.9412    3.7135  -56.4146 H   0  0  0  0  0  0  0  0  0  0  0  0
    3.8390    1.4662  -57.1380 H   0  0  0  0  0  0  0  0  0  0  0  0
    3.7092    2.9855  -57.8006 H   0  0  0  0  0  0  0  0  0  0  0  0
    5.3351    0.8692  -59.0399 H   0  0  0  0  0  0  0  0  0  0  0  0
    5.8458    2.4101  -59.3886 H   0  0  0  0  0  0  0  0  0  0  0  0
    7.7148   -0.4944  -52.0222 H   0  0  0  0  0  0  0  0  0  0  0  0
    6.6231   -1.4358  -52.9795 H   0  0  0  0  0  0  0  0  0  0  0  0
  1  2  1  0
  2  3  1  0
  2  4  1  0
  4  5  1  0
  5  6  2  0
  6  7  1  0
  7  8  1  0
  8  9  2  0
  9 10  1  0
 10 11  1  0
 11 12  2  0
 12 13  1  0
 13 14  2  0
 14 15  1  0
 15 16  1  0
 16 17  3  0
 15 18  2  0
 18 19  1  0
 19 20  2  0
 20 21  1  0
 21 22  1  0
 22 23  1  0
 23 24  1  0
  6 25  1  0
 25  2  1  0
 20  9  1  0
 24 21  1  0
 19 12  1  0
  1 26  1  0
  1 27  1  0
  1 28  1  0
  3 29  1  0
  3 30  1  0
  3 31  1  0
  4 32  1  0
  4 33  1  0
  7 34  1  0
  7 35  1  0
 10 36  1  0
 13 37  1  0
 14 38  1  0
 21 39  1  0
 22 40  1  0
 22 41  1  0
 23 42  1  0
 23 43  1  0
 24 44  1  0
 24 45  1  0
 25 46  1  0
 25 47  1  0
M  END
>  <meeko>  (282) 
{"is_sidechain": false}

$$$$

     RDKit          3D

 47 50  0  0  0  0  0  0  0  0999 V2000
    7.7730   -3.8300  -52.6570 C   0  0  0  0  0  0  0  0  0  0  0  0
    8.4880   -2.6390  -51.9980 C   0  0  0  0  0  0  0  0  0  0  0  0
    8.1490   -2.6010  -50.5070 C   0  0  0  0  0  0  0  0  0  0  0  0
   10.0010   -2.7140  -52.2330 C   0  0  0  0  0  0  0  0  0  0  0  0
   10.2590   -2.0210  -53.5160 N   0  0  0  0  0  0  0  0  0  0  0  0
    9.2160   -1.2700  -53.7170 C   0  0  0  0  0  0  0  0  0  0  0  0
    9.0870   -0.3720  -54.9210 C   0  0  0  0  0  0  0  0  0  0  0  0
    7.7320    0.1580  -54.9660 N   0  0  0  0  0  0  0  0  0  0  0  0
    7.4180    1.1490  -55.7160 C   0  0  0  0  0  0  0  0  0  0  0  0
    6.0690    1.4160  -55.8240 N   0  0  0  0  0  0  0  0  0  0  0  0
    5.6000    1.5350  -56.9850 N   0  0  0  0  0  0  0  0  0  0  0  0
    6.4190    1.7300  -58.0710 C   0  0  0  0  0  0  0  0  0  0  0  0
    5.9550    1.6810  -59.3360 C   0  0  0  0  0  0  0  0  0  0  0  0
    6.8090    2.0420  -60.4560 C   0  0  0  0  0  0  0  0  0  0  0  0
    8.0340    2.5420  -60.2010 C   0  0  0  0  0  0  0  0  0  0  0  0
    8.9300    2.9240  -61.2440 C   0  0  0  0  0  0  0  0  0  0  0  0
    9.6750    3.2330  -62.0800 N   0  0  0  0  0  0  0  0  0  0  0  0
    8.4970    2.6900  -58.8990 N   0  0  0  0  0  0  0  0  0  0  0  0
    7.8040    2.1710  -57.8080 C   0  0  0  0  0  0  0  0  0  0  0  0
    8.2680    2.0450  -56.5520 C   0  0  0  0  0  0  0  0  0  0  0  0
    9.5500    2.6300  -56.0920 C   0  0  0  0  0  0  0  0  0  0  0  0
   10.8030    2.3520  -56.9820 C   0  0  0  0  0  0  0  0  0  0  0  0
   11.2640    3.7850  -56.6650 C   0  0  0  0  0  0  0  0  0  0  0  0
    9.7780    4.1310  -56.4620 C   0  0  0  0  0  0  0  0  0  0  0  0
    8.1220   -1.3350  -52.6960 C   0  0  0  0  0  0  0  0  0  0  0  0
    7.3737   -4.4951  -51.8772 H   0  0  0  0  0  0  0  0  0  0  0  0
    6.9468   -3.4612  -53.2827 H   0  0  0  0  0  0  0  0  0  0  0  0
    8.4869   -4.3858  -53.2827 H   0  0  0  0  0  0  0  0  0  0  0  0
    9.0724   -2.7045  -49.9183 H   0  0  0  0  0  0  0  0  0  0  0  0
    7.6654   -1.6430  -50.2652 H   0  0  0  0  0  0  0  0  0  0  0  0
    7.4653   -3.4281  -50.2652 H   0  0  0  0  0  0  0  0  0  0  0  0
   10.5385   -2.2125  -51.4148 H   0  0  0  0  0  0  0  0  0  0  0  0
   10.3485   -3.7571  -52.2660 H   0  0  0  0  0  0  0  0  0  0  0  0
    9.8061    0.4568  -54.8432 H   0  0  0  0  0  0  0  0  0  0  0  0
    9.2965   -0.9426  -55.8378 H   0  0  0  0  0  0  0  0  0  0  0  0
    4.9183    1.3642  -59.5229 H   0  0  0  0  0  0  0  0  0  0  0  0
    6.4618    1.9095  -61.4913 H   0  0  0  0  0  0  0  0  0  0  0  0
    9.4990    2.8170  -58.7880 H   0  0  0  0  0  0  0  0  0  0  0  0
    9.4727    2.2700  -55.0555 H   0  0  0  0  0  0  0  0  0  0  0  0
   11.4682    1.5620  -56.6034 H   0  0  0  0  0  0  0  0  0  0  0  0
   10.7086    1.9905  -58.0166 H   0  0  0  0  0  0  0  0  0  0  0  0
   11.8865    3.8798  -55.7631 H   0  0  0  0  0  0  0  0  0  0  0  0
   11.9071    4.3558  -57.3510 H   0  0  0  0  0  0  0  0  0  0  0  0
    9.5795    4.8402  -55.6449 H   0  0  0  0  0  0  0  0  0  0  0  0
    9.1879    4.6302  -57.2447 H   0  0  0  0  0  0  0  0  0  0  0  0
    8.1564   -0.4791  -52.0059 H   0  0  0  0  0  0  0  0  0  0  0  0
    7.1023   -1.3001  -53.1070 H   0  0  0  0  0  0  0  0  0  0  0  0
  1  2  1  0
  2  3  1  0
  2  4  1  0
  4  5  1  0
  5  6  2  0
  6  7  1  0
  7  8  1  0
  8  9  2  0
  9 10  1  0
 10 11  2  0
 11 12  1  0
 12 13  2  0
 13 14  1  0
 14 15  2  0
 15 16  1  0
 16 17  3  0
 15 18  1  0
 18 19  1  0
 19 20  2  0
 20 21  1  0
 21 22  1  0
 22 23  1  0
 23 24  1  0
  6 25  1  0
 25  2  1  0
 20  9  1  0
 24 21  1  0
 19 12  1  0
  1 26  1  0
  1 27  1  0
  1 28  1  0
  3 29  1  0
  3 30  1  0
  3 31  1  0
  4 32  1  0
  4 33  1  0
  7 34  1  0
  7 35  1  0
 13 36  1  0
 14 37  1  0
 18 38  1  0
 21 39  1  0
 22 40  1  0
 22 41  1  0
 23 42  1  0
 23 43  1  0
 24 44  1  0
 24 45  1  0
 25 46  1  0
 25 47  1  0
M  END
>  <meeko>  (283) 
{"is_sidechain": false}

$$$$

     RDKit          3D

 65 69  0  0  0  0  0  0  0  0999 V2000
   12.9870    7.8710  -61.4970 C   0  0  0  0  0  0  0  0  0  0  0  0
   13.2010    7.6010  -60.0180 C   0  0  0  0  0  0  0  0  0  0  0  0
   12.7990    6.2570  -59.6430 N   0  0  0  0  0  0  0  0  0  0  0  0
   13.6510    5.2030  -59.4550 C   0  0  0  0  0  0  0  0  0  0  0  0
   12.8920    4.1090  -59.0970 C   0  0  0  0  0  0  0  0  0  0  0  0
   11.5300    4.5170  -59.0620 C   0  0  0  0  0  0  0  0  0  0  0  0
   10.3820    3.7170  -58.7350 C   0  0  0  0  0  0  0  0  0  0  0  0
    9.2810    3.6630  -59.5150 C   0  0  0  0  0  0  0  0  0  0  0  0
    8.1690    2.9020  -59.2150 N   0  0  0  0  0  0  0  0  0  0  0  0
    8.0420    2.1980  -58.0210 C   0  0  0  0  0  0  0  0  0  0  0  0
    6.9370    1.5690  -57.5790 C   0  0  0  0  0  0  0  0  0  0  0  0
    5.6990    1.5080  -58.4060 C   0  0  0  0  0  0  0  0  0  0  0  0
    5.1750    2.8010  -59.0830 C   0  0  0  0  0  0  0  0  0  0  0  0
    4.7600    1.9190  -60.2810 C   0  0  0  0  0  0  0  0  0  0  0  0
    5.8280    0.9030  -59.8260 C   0  0  0  0  0  0  0  0  0  0  0  0
    7.0040    1.0560  -56.1770 C   0  0  0  0  0  0  0  0  0  0  0  0
    5.9310    0.8880  -55.4810 N   0  0  0  0  0  0  0  0  0  0  0  0
    6.0540    0.3680  -54.1210 C   0  0  0  0  0  0  0  0  0  0  0  0
    6.2880   -1.1090  -54.1880 C   0  0  0  0  0  0  0  0  0  0  0  0
    6.8070   -1.8560  -53.2030 C   0  0  0  0  0  0  0  0  0  0  0  0
    7.0580   -3.3310  -53.3450 C   0  0  0  0  0  0  0  0  0  0  0  0
    8.5280   -3.6820  -53.0690 C   0  0  1  0  0  0  0  0  0  0  0  0
    9.2910   -3.9690  -54.3640 C   0  0  0  0  0  0  0  0  0  0  0  0
    9.2350   -2.5770  -52.2690 C   0  0  0  0  0  0  0  0  0  0  0  0
    8.2830   -1.8390  -51.3220 C   0  0  2  0  0  0  0  0  0  0  0  0
    7.8120   -2.6900  -50.1470 C   0  0  0  0  0  0  0  0  0  0  0  0
    7.1440   -1.2770  -51.9950 O   0  0  0  0  0  0  0  0  0  0  0  0
    8.2500    0.7520  -55.6750 N   0  0  0  0  0  0  0  0  0  0  0  0
    9.2670    1.3410  -56.0970 N   0  0  0  0  0  0  0  0  0  0  0  0
    9.2470    2.1750  -57.1790 C   0  0  0  0  0  0  0  0  0  0  0  0
   10.3380    2.8890  -57.5240 C   0  0  0  0  0  0  0  0  0  0  0  0
   11.5100    5.8570  -59.4020 C   0  0  0  0  0  0  0  0  0  0  0  0
   12.3079    8.7278  -61.6188 H   0  0  0  0  0  0  0  0  0  0  0  0
   13.9529    8.0983  -61.9718 H   0  0  0  0  0  0  0  0  0  0  0  0
   12.5452    6.9825  -61.9718 H   0  0  0  0  0  0  0  0  0  0  0  0
   14.2683    7.7297  -59.7850 H   0  0  0  0  0  0  0  0  0  0  0  0
   12.5797    8.3102  -59.4514 H   0  0  0  0  0  0  0  0  0  0  0  0
   14.7449    5.2246  -59.5690 H   0  0  0  0  0  0  0  0  0  0  0  0
   13.2722    3.1004  -58.8776 H   0  0  0  0  0  0  0  0  0  0  0  0
    9.2696    4.2580  -60.4401 H   0  0  0  0  0  0  0  0  0  0  0  0
    7.3450    3.0520  -59.7830 H   0  0  0  0  0  0  0  0  0  0  0  0
    5.1213    1.0226  -57.6056 H   0  0  0  0  0  0  0  0  0  0  0  0
    4.3389    3.2875  -58.5592 H   0  0  0  0  0  0  0  0  0  0  0  0
    5.8121    3.6888  -59.2094 H   0  0  0  0  0  0  0  0  0  0  0  0
    3.7260    1.5461  -60.2383 H   0  0  0  0  0  0  0  0  0  0  0  0
    4.7406    2.3136  -61.3076 H   0  0  0  0  0  0  0  0  0  0  0  0
    5.5224   -0.1507  -59.9054 H   0  0  0  0  0  0  0  0  0  0  0  0
    6.8004    0.8187  -60.3333 H   0  0  0  0  0  0  0  0  0  0  0  0
    6.9012    0.8538  -53.6148 H   0  0  0  0  0  0  0  0  0  0  0  0
    5.1324    0.5750  -53.5572 H   0  0  0  0  0  0  0  0  0  0  0  0
    6.0119   -1.6229  -55.1205 H   0  0  0  0  0  0  0  0  0  0  0  0
    6.4211   -3.8723  -52.6299 H   0  0  0  0  0  0  0  0  0  0  0  0
    6.8221   -3.6229  -54.3790 H   0  0  0  0  0  0  0  0  0  0  0  0
    8.5257   -4.5981  -52.4600 H   0  0  0  0  0  0  0  0  0  0  0  0
   10.2953   -4.3468  -54.1218 H   0  0  0  0  0  0  0  0  0  0  0  0
    8.7469   -4.7239  -54.9505 H   0  0  0  0  0  0  0  0  0  0  0  0
    9.3793   -3.0426  -54.9505 H   0  0  0  0  0  0  0  0  0  0  0  0
   10.0412   -3.0321  -51.6749 H   0  0  0  0  0  0  0  0  0  0  0  0
    9.6279   -1.8428  -52.9877 H   0  0  0  0  0  0  0  0  0  0  0  0
    8.8922   -1.0156  -50.9209 H   0  0  0  0  0  0  0  0  0  0  0  0
    8.0856   -2.1956  -49.2032 H   0  0  0  0  0  0  0  0  0  0  0  0
    6.7195   -2.8091  -50.1952 H   0  0  0  0  0  0  0  0  0  0  0  0
    8.2912   -3.6790  -50.1952 H   0  0  0  0  0  0  0  0  0  0  0  0
   11.2255    2.8494  -56.8753 H   0  0  0  0  0  0  0  0  0  0  0  0
   10.6145    6.4924  -59.4678 H   0  0  0  0  0  0  0  0  0  0  0  0
  1  2  1  0
  2  3  1  0
  3  4  1  0
  4  5  2  0
  5  6  1  0
  6  7  1  0
  7  8  2  0
  8  9  1  0
  9 10  1  0
 10 11  2  0
 11 12  1  0
 12 13  1  0
 13 14  1  0
 14 15  1  0
 11 16  1  0
 16 17  2  0
 17 18  1  0
 18 19  1  0
 19 20  2  0
 20 21  1  0
 21 22  1  0
 22 23  1  0
 22 24  1  0
 24 25  1  0
 25 26  1  0
 25 27  1  0
 16 28  1  0
 28 29  2  0
 29 30  1  0
 30 31  2  0
  6 32  2  0
 32  3  1  0
 31  7  1  0
 30 10  1  0
 15 12  1  0
 27 20  1  0
  1 33  1  0
  1 34  1  0
  1 35  1  0
  2 36  1  0
  2 37  1  0
  4 38  1  0
  5 39  1  0
  8 40  1  0
  9 41  1  0
 12 42  1  0
 13 43  1  0
 13 44  1  0
 14 45  1  0
 14 46  1  0
 15 47  1  0
 15 48  1  0
 18 49  1  0
 18 50  1  0
 19 51  1  0
 21 52  1  0
 21 53  1  0
 22 54  1  1
 23 55  1  0
 23 56  1  0
 23 57  1  0
 24 58  1  0
 24 59  1  0
 25 60  1  1
 26 61  1  0
 26 62  1  0
 26 63  1  0
 31 64  1  0
 32 65  1  0
M  END
>  <meeko>  (284) 
{"is_sidechain": false}

$$$$

     RDKit          3D

 65 69  0  0  0  0  0  0  0  0999 V2000
   12.6780    7.8550  -61.0540 C   0  0  0  0  0  0  0  0  0  0  0  0
   13.4460    7.2980  -59.8700 C   0  0  0  0  0  0  0  0  0  0  0  0
   13.0010    5.9630  -59.5070 N   0  0  0  0  0  0  0  0  0  0  0  0
   13.7820    4.8410  -59.5150 C   0  0  0  0  0  0  0  0  0  0  0  0
   12.9980    3.7800  -59.1160 C   0  0  0  0  0  0  0  0  0  0  0  0
   11.6860    4.2750  -58.8640 C   0  0  0  0  0  0  0  0  0  0  0  0
   10.5010    3.5640  -58.4130 C   0  0  0  0  0  0  0  0  0  0  0  0
    9.3580    3.5050  -59.1930 C   0  0  0  0  0  0  0  0  0  0  0  0
    8.2220    2.8630  -58.8280 N   0  0  0  0  0  0  0  0  0  0  0  0
    8.1860    2.2290  -57.6340 C   0  0  0  0  0  0  0  0  0  0  0  0
    7.0230    1.5480  -57.2340 C   0  0  0  0  0  0  0  0  0  0  0  0
    5.7350    1.4560  -58.1910 C   0  0  0  0  0  0  0  0  0  0  0  0
    5.9260    1.1130  -59.7050 C   0  0  0  0  0  0  0  0  0  0  0  0
    4.7020    1.9990  -59.9950 C   0  0  0  0  0  0  0  0  0  0  0  0
    5.0570    2.7660  -58.7100 C   0  0  0  0  0  0  0  0  0  0  0  0
    7.0400    0.9890  -55.9400 C   0  0  0  0  0  0  0  0  0  0  0  0
    5.8730    0.3530  -55.4620 N   0  0  0  0  0  0  0  0  0  0  0  0
    6.0310   -0.3270  -54.1850 C   0  0  0  0  0  0  0  0  0  0  0  0
    6.6930   -1.6370  -54.4890 C   0  0  0  0  0  0  0  0  0  0  0  0
    7.5350   -2.2970  -53.6790 C   0  0  0  0  0  0  0  0  0  0  0  0
    8.1600   -3.6100  -54.0630 C   0  0  0  0  0  0  0  0  0  0  0  0
    9.6860   -3.6010  -53.8970 C   0  0  1  0  0  0  0  0  0  0  0  0
   10.3980   -3.4780  -55.2450 C   0  0  0  0  0  0  0  0  0  0  0  0
   10.1500   -2.4890  -52.9460 C   0  0  0  0  0  0  0  0  0  0  0  0
    9.1070   -2.1620  -51.8740 C   0  0  2  0  0  0  0  0  0  0  0  0
    8.9140   -3.2700  -50.8430 C   0  0  0  0  0  0  0  0  0  0  0  0
    7.8390   -1.7840  -52.4330 O   0  0  0  0  0  0  0  0  0  0  0  0
    8.1460    1.0240  -55.1630 N   0  0  0  0  0  0  0  0  0  0  0  0
    9.2740    1.6490  -55.5780 N   0  0  0  0  0  0  0  0  0  0  0  0
    9.2950    2.2480  -56.7710 C   0  0  0  0  0  0  0  0  0  0  0  0
   10.4410    2.9170  -57.1810 C   0  0  0  0  0  0  0  0  0  0  0  0
   11.7290    5.6350  -59.1160 C   0  0  0  0  0  0  0  0  0  0  0  0
   11.8372    8.4648  -60.6916 H   0  0  0  0  0  0  0  0  0  0  0  0
   13.3473    8.4791  -61.6644 H   0  0  0  0  0  0  0  0  0  0  0  0
   12.2927    7.0250  -61.6644 H   0  0  0  0  0  0  0  0  0  0  0  0
   14.5145    7.2575  -60.1280 H   0  0  0  0  0  0  0  0  0  0  0  0
   13.2672    7.9596  -59.0096 H   0  0  0  0  0  0  0  0  0  0  0  0
   14.8459    4.7935  -59.7906 H   0  0  0  0  0  0  0  0  0  0  0  0
   13.3271    2.7357  -59.0107 H   0  0  0  0  0  0  0  0  0  0  0  0
    9.3734    4.0109  -60.1697 H   0  0  0  0  0  0  0  0  0  0  0  0
    5.2416    0.7755  -57.4815 H   0  0  0  0  0  0  0  0  0  0  0  0
    6.8681    1.4759  -60.1417 H   0  0  0  0  0  0  0  0  0  0  0  0
    5.9826    0.0729  -60.0586 H   0  0  0  0  0  0  0  0  0  0  0  0
    4.7703    2.5914  -60.9193 H   0  0  0  0  0  0  0  0  0  0  0  0
    3.7013    1.5748  -60.1639 H   0  0  0  0  0  0  0  0  0  0  0  0
    5.7457    3.6112  -58.8565 H   0  0  0  0  0  0  0  0  0  0  0  0
    4.2906    3.2913  -58.1212 H   0  0  0  0  0  0  0  0  0  0  0  0
    5.1290    1.0440  -55.4000 H   0  0  0  0  0  0  0  0  0  0  0  0
    6.6606    0.2710  -53.5097 H   0  0  0  0  0  0  0  0  0  0  0  0
    5.0618   -0.4735  -53.6858 H   0  0  0  0  0  0  0  0  0  0  0  0
    6.4688   -2.0981  -55.4622 H   0  0  0  0  0  0  0  0  0  0  0  0
    7.7397   -4.4015  -53.4252 H   0  0  0  0  0  0  0  0  0  0  0  0
    7.9387   -3.7894  -55.1255 H   0  0  0  0  0  0  0  0  0  0  0  0
    9.9598   -4.5678  -53.4493 H   0  0  0  0  0  0  0  0  0  0  0  0
   11.4694   -3.2929  -55.0782 H   0  0  0  0  0  0  0  0  0  0  0  0
   10.2712   -4.4113  -55.8131 H   0  0  0  0  0  0  0  0  0  0  0  0
    9.9654   -2.6413  -55.8131 H   0  0  0  0  0  0  0  0  0  0  0  0
   11.0766   -2.8131  -52.4496 H   0  0  0  0  0  0  0  0  0  0  0  0
   10.3092   -1.5808  -53.5458 H   0  0  0  0  0  0  0  0  0  0  0  0
    9.5274   -1.2947  -51.3438 H   0  0  0  0  0  0  0  0  0  0  0  0
    8.9879   -2.8459  -49.8307 H   0  0  0  0  0  0  0  0  0  0  0  0
    7.9227   -3.7274  -50.9775 H   0  0  0  0  0  0  0  0  0  0  0  0
    9.6923   -4.0356  -50.9775 H   0  0  0  0  0  0  0  0  0  0  0  0
   11.3194    2.9363  -56.5191 H   0  0  0  0  0  0  0  0  0  0  0  0
   10.8854    6.3342  -59.0190 H   0  0  0  0  0  0  0  0  0  0  0  0
  1  2  1  0
  2  3  1  0
  3  4  1  0
  4  5  2  0
  5  6  1  0
  6  7  1  0
  7  8  2  0
  8  9  1  0
  9 10  2  0
 10 11  1  0
 11 12  1  0
 12 13  1  0
 13 14  1  0
 14 15  1  0
 11 16  2  0
 16 17  1  0
 17 18  1  0
 18 19  1  0
 19 20  2  0
 20 21  1  0
 21 22  1  0
 22 23  1  0
 22 24  1  0
 24 25  1  0
 25 26  1  0
 25 27  1  0
 16 28  1  0
 28 29  2  0
 29 30  1  0
 30 31  2  0
  6 32  2  0
 32  3  1  0
 31  7  1  0
 30 10  1  0
 15 12  1  0
 27 20  1  0
  1 33  1  0
  1 34  1  0
  1 35  1  0
  2 36  1  0
  2 37  1  0
  4 38  1  0
  5 39  1  0
  8 40  1  0
 12 41  1  0
 13 42  1  0
 13 43  1  0
 14 44  1  0
 14 45  1  0
 15 46  1  0
 15 47  1  0
 17 48  1  0
 18 49  1  0
 18 50  1  0
 19 51  1  0
 21 52  1  0
 21 53  1  0
 22 54  1  1
 23 55  1  0
 23 56  1  0
 23 57  1  0
 24 58  1  0
 24 59  1  0
 25 60  1  1
 26 61  1  0
 26 62  1  0
 26 63  1  0
 31 64  1  0
 32 65  1  0
M  END
>  <meeko>  (285) 
{"is_sidechain": false}

$$$$

     RDKit          3D

 65 69  0  0  0  0  0  0  0  0999 V2000
   12.6830    7.6800  -61.1880 C   0  0  0  0  0  0  0  0  0  0  0  0
   13.3010    7.2550  -59.8680 C   0  0  0  0  0  0  0  0  0  0  0  0
   12.8580    5.9350  -59.4550 N   0  0  0  0  0  0  0  0  0  0  0  0
   13.6170    4.7970  -59.4960 C   0  0  0  0  0  0  0  0  0  0  0  0
   12.8410    3.7550  -59.0360 C   0  0  0  0  0  0  0  0  0  0  0  0
   11.5600    4.2790  -58.7110 C   0  0  0  0  0  0  0  0  0  0  0  0
   10.4270    3.5720  -58.1980 C   0  0  0  0  0  0  0  0  0  0  0  0
    9.1450    3.5660  -58.9490 C   0  0  0  0  0  0  0  0  0  0  0  0
    8.0360    2.9800  -58.6350 N   0  0  0  0  0  0  0  0  0  0  0  0
    7.9940    2.2640  -57.4590 C   0  0  0  0  0  0  0  0  0  0  0  0
    6.8790    1.6230  -57.0490 C   0  0  0  0  0  0  0  0  0  0  0  0
    5.6170    1.6590  -57.8520 C   0  0  0  0  0  0  0  0  0  0  0  0
    5.6940    1.2320  -59.3530 C   0  0  0  0  0  0  0  0  0  0  0  0
    4.6230    2.2970  -59.6430 C   0  0  0  0  0  0  0  0  0  0  0  0
    5.1570    3.0430  -58.4080 C   0  0  0  0  0  0  0  0  0  0  0  0
    6.9990    0.7800  -55.8040 C   0  0  0  0  0  0  0  0  0  0  0  0
    5.9970    0.0150  -55.5130 N   0  0  0  0  0  0  0  0  0  0  0  0
    6.0190   -0.8100  -54.3130 C   0  0  0  0  0  0  0  0  0  0  0  0
    7.1700   -1.7630  -54.3810 C   0  0  0  0  0  0  0  0  0  0  0  0
    7.6700   -2.4770  -53.3610 C   0  0  0  0  0  0  0  0  0  0  0  0
    8.7590   -3.5030  -53.5530 C   0  0  0  0  0  0  0  0  0  0  0  0
    9.8560   -3.4020  -52.4890 C   0  0  1  0  0  0  0  0  0  0  0  0
   10.8020   -2.2290  -52.7630 C   0  0  0  0  0  0  0  0  0  0  0  0
    9.2010   -3.3050  -51.1070 C   0  0  0  0  0  0  0  0  0  0  0  0
    8.1490   -2.1920  -51.0720 C   0  0  2  0  0  0  0  0  0  0  0  0
    7.4330   -2.1690  -49.7260 C   0  0  0  0  0  0  0  0  0  0  0  0
    7.1430   -2.3620  -52.0860 O   0  0  0  0  0  0  0  0  0  0  0  0
    8.1700    0.8650  -55.0760 N   0  0  0  0  0  0  0  0  0  0  0  0
    9.3020    1.5100  -55.4570 N   0  0  0  0  0  0  0  0  0  0  0  0
    9.2110    2.1630  -56.5760 C   0  0  0  0  0  0  0  0  0  0  0  0
   10.4140    2.8840  -57.0490 C   0  0  0  0  0  0  0  0  0  0  0  0
   11.6060    5.6330  -58.9820 C   0  0  0  0  0  0  0  0  0  0  0  0
   11.7908    8.2936  -60.9944 H   0  0  0  0  0  0  0  0  0  0  0  0
   13.4142    8.2672  -61.7630 H   0  0  0  0  0  0  0  0  0  0  0  0
   12.3963    6.7871  -61.7630 H   0  0  0  0  0  0  0  0  0  0  0  0
   14.3956    7.2435  -59.9766 H   0  0  0  0  0  0  0  0  0  0  0  0
   12.9828    7.9742  -59.0989 H   0  0  0  0  0  0  0  0  0  0  0  0
   14.6609    4.7265  -59.8357 H   0  0  0  0  0  0  0  0  0  0  0  0
   13.1564    2.7058  -58.9379 H   0  0  0  0  0  0  0  0  0  0  0  0
    9.1385    4.1321  -59.8921 H   0  0  0  0  0  0  0  0  0  0  0  0
    5.0431    1.0934  -57.1032 H   0  0  0  0  0  0  0  0  0  0  0  0
    6.6663    1.4170  -59.8330 H   0  0  0  0  0  0  0  0  0  0  0  0
    5.5663    0.1844  -59.6632 H   0  0  0  0  0  0  0  0  0  0  0  0
    4.7496    2.8317  -60.5959 H   0  0  0  0  0  0  0  0  0  0  0  0
    3.5593    2.0413  -59.7578 H   0  0  0  0  0  0  0  0  0  0  0  0
    5.9752    3.7480  -58.6167 H   0  0  0  0  0  0  0  0  0  0  0  0
    4.5180    3.7183  -57.8200 H   0  0  0  0  0  0  0  0  0  0  0  0
    6.1285   -0.1661  -53.4279 H   0  0  0  0  0  0  0  0  0  0  0  0
    5.0789   -1.3767  -54.2417 H   0  0  0  0  0  0  0  0  0  0  0  0
    7.6527   -1.8907  -55.3611 H   0  0  0  0  0  0  0  0  0  0  0  0
    8.3108   -4.5063  -53.5031 H   0  0  0  0  0  0  0  0  0  0  0  0
    9.2251   -3.3157  -54.5316 H   0  0  0  0  0  0  0  0  0  0  0  0
   10.4800   -4.3073  -52.5225 H   0  0  0  0  0  0  0  0  0  0  0  0
   11.1449   -1.8038  -51.8082 H   0  0  0  0  0  0  0  0  0  0  0  0
   11.6694   -2.5842  -53.3388 H   0  0  0  0  0  0  0  0  0  0  0  0
   10.2711   -1.4566  -53.3388 H   0  0  0  0  0  0  0  0  0  0  0  0
    8.7172   -4.2642  -50.8707 H   0  0  0  0  0  0  0  0  0  0  0  0
    9.9805   -3.0723  -50.3666 H   0  0  0  0  0  0  0  0  0  0  0  0
    8.6947   -1.2531  -51.2474 H   0  0  0  0  0  0  0  0  0  0  0  0
    8.1759   -2.1929  -48.9151 H   0  0  0  0  0  0  0  0  0  0  0  0
    6.8321   -1.2511  -49.6459 H   0  0  0  0  0  0  0  0  0  0  0  0
    6.7745   -3.0465  -49.6459 H   0  0  0  0  0  0  0  0  0  0  0  0
    8.2690    0.2120  -54.3030 H   0  0  0  0  0  0  0  0  0  0  0  0
   11.3273    2.8538  -56.4367 H   0  0  0  0  0  0  0  0  0  0  0  0
   10.7805    6.3465  -58.8425 H   0  0  0  0  0  0  0  0  0  0  0  0
  1  2  1  0
  2  3  1  0
  3  4  1  0
  4  5  2  0
  5  6  1  0
  6  7  1  0
  7  8  1  0
  8  9  2  0
  9 10  1  0
 10 11  2  0
 11 12  1  0
 12 13  1  0
 13 14  1  0
 14 15  1  0
 11 16  1  0
 16 17  2  0
 17 18  1  0
 18 19  1  0
 19 20  2  0
 20 21  1  0
 21 22  1  0
 22 23  1  0
 22 24  1  0
 24 25  1  0
 25 26  1  0
 25 27  1  0
 16 28  1  0
 28 29  1  0
 29 30  2  0
 30 31  1  0
  6 32  2  0
 32  3  1  0
 31  7  2  0
 30 10  1  0
 15 12  1  0
 27 20  1  0
  1 33  1  0
  1 34  1  0
  1 35  1  0
  2 36  1  0
  2 37  1  0
  4 38  1  0
  5 39  1  0
  8 40  1  0
 12 41  1  0
 13 42  1  0
 13 43  1  0
 14 44  1  0
 14 45  1  0
 15 46  1  0
 15 47  1  0
 18 48  1  0
 18 49  1  0
 19 50  1  0
 21 51  1  0
 21 52  1  0
 22 53  1  1
 23 54  1  0
 23 55  1  0
 23 56  1  0
 24 57  1  0
 24 58  1  0
 25 59  1  6
 26 60  1  0
 26 61  1  0
 26 62  1  0
 28 63  1  0
 31 64  1  0
 32 65  1  0
M  END
>  <meeko>  (286) 
{"is_sidechain": false}

$$$$

     RDKit          3D

 65 69  0  0  0  0  0  0  0  0999 V2000
    8.1480   -2.6360  -50.1380 C   0  0  0  0  0  0  0  0  0  0  0  0
    8.0030   -3.1920  -51.5430 C   0  0  0  0  0  0  0  0  0  0  0  0
    8.7950   -2.4530  -52.5090 N   0  0  0  0  0  0  0  0  0  0  0  0
   10.1420   -2.6010  -52.7060 C   0  0  0  0  0  0  0  0  0  0  0  0
   10.5240   -1.7220  -53.6970 C   0  0  0  0  0  0  0  0  0  0  0  0
    9.3670   -1.0100  -54.1120 C   0  0  0  0  0  0  0  0  0  0  0  0
    9.2760    0.0070  -55.1160 C   0  0  0  0  0  0  0  0  0  0  0  0
   10.4460    0.3050  -55.9850 C   0  0  0  0  0  0  0  0  0  0  0  0
   10.5260    1.1550  -56.9570 N   0  0  0  0  0  0  0  0  0  0  0  0
    9.4040    1.8930  -57.2590 C   0  0  0  0  0  0  0  0  0  0  0  0
    9.3660    2.7610  -58.2930 C   0  0  0  0  0  0  0  0  0  0  0  0
   10.5930    3.1300  -59.0720 C   0  0  0  0  0  0  0  0  0  0  0  0
   11.9260    3.4080  -58.2980 C   0  0  0  0  0  0  0  0  0  0  0  0
   11.5710    4.8990  -58.2870 C   0  0  0  0  0  0  0  0  0  0  0  0
   10.6920    4.6290  -59.5140 C   0  0  0  0  0  0  0  0  0  0  0  0
    7.9990    3.3120  -58.5990 C   0  0  0  0  0  0  0  0  0  0  0  0
    7.4950    3.6400  -59.7420 N   0  0  0  0  0  0  0  0  0  0  0  0
    8.1520    3.3430  -61.0050 C   0  0  0  0  0  0  0  0  0  0  0  0
    7.1500    2.6420  -61.8730 C   0  0  0  0  0  0  0  0  0  0  0  0
    5.9030    2.3000  -61.5130 C   0  0  0  0  0  0  0  0  0  0  0  0
    4.9410    1.6410  -62.4710 C   0  0  0  0  0  0  0  0  0  0  0  0
    3.5490    2.2630  -62.3180 C   0  0  1  0  0  0  0  0  0  0  0  0
    2.5310    1.5690  -63.2200 C   0  0  0  0  0  0  0  0  0  0  0  0
    3.0940    2.2560  -60.8480 C   0  0  0  0  0  0  0  0  0  0  0  0
    4.2390    1.9080  -59.8890 C   0  0  2  0  0  0  0  0  0  0  0  0
    3.8870    2.2840  -58.4550 C   0  0  0  0  0  0  0  0  0  0  0  0
    5.4370    2.6060  -60.2440 O   0  0  0  0  0  0  0  0  0  0  0  0
    7.1270    3.4290  -57.5320 N   0  0  0  0  0  0  0  0  0  0  0  0
    7.0950    2.5280  -56.5070 N   0  0  0  0  0  0  0  0  0  0  0  0
    8.1600    1.7890  -56.4050 C   0  0  0  0  0  0  0  0  0  0  0  0
    8.1920    0.7590  -55.3440 C   0  0  0  0  0  0  0  0  0  0  0  0
    8.3130   -1.4870  -53.3560 C   0  0  0  0  0  0  0  0  0  0  0  0
    7.9408   -3.4305  -49.4060 H   0  0  0  0  0  0  0  0  0  0  0  0
    9.1732   -2.2639  -49.9949 H   0  0  0  0  0  0  0  0  0  0  0  0
    7.4351   -1.8106  -49.9949 H   0  0  0  0  0  0  0  0  0  0  0  0
    8.3316   -4.2418  -51.5443 H   0  0  0  0  0  0  0  0  0  0  0  0
    6.9459   -3.1033  -51.8341 H   0  0  0  0  0  0  0  0  0  0  0  0
   10.8022   -3.2977  -52.1688 H   0  0  0  0  0  0  0  0  0  0  0  0
   11.5417   -1.5949  -54.0948 H   0  0  0  0  0  0  0  0  0  0  0  0
   11.3594   -0.2706  -55.7743 H   0  0  0  0  0  0  0  0  0  0  0  0
   10.5016    2.2836  -59.7686 H   0  0  0  0  0  0  0  0  0  0  0  0
   11.9765    2.9462  -57.3009 H   0  0  0  0  0  0  0  0  0  0  0  0
   12.8927    3.0579  -58.6891 H   0  0  0  0  0  0  0  0  0  0  0  0
   11.0224    5.2335  -57.3942 H   0  0  0  0  0  0  0  0  0  0  0  0
   12.3468    5.6788  -58.2909 H   0  0  0  0  0  0  0  0  0  0  0  0
    9.7325    5.1670  -59.5121 H   0  0  0  0  0  0  0  0  0  0  0  0
   11.0297    4.9013  -60.5248 H   0  0  0  0  0  0  0  0  0  0  0  0
    8.4809    4.2755  -61.4870 H   0  0  0  0  0  0  0  0  0  0  0  0
    9.0385    2.7118  -60.8446 H   0  0  0  0  0  0  0  0  0  0  0  0
    7.4648    2.3854  -62.8953 H   0  0  0  0  0  0  0  0  0  0  0  0
    5.2949    1.7870  -63.5022 H   0  0  0  0  0  0  0  0  0  0  0  0
    4.8850    0.5654  -62.2473 H   0  0  0  0  0  0  0  0  0  0  0  0
    3.6145    3.3130  -62.6393 H   0  0  0  0  0  0  0  0  0  0  0  0
    1.7804    1.0573  -62.5998 H   0  0  0  0  0  0  0  0  0  0  0  0
    2.0337    2.3170  -63.8550 H   0  0  0  0  0  0  0  0  0  0  0  0
    3.0456    0.8328  -63.8550 H   0  0  0  0  0  0  0  0  0  0  0  0
    2.7082    3.2538  -60.5918 H   0  0  0  0  0  0  0  0  0  0  0  0
    2.3162    1.4859  -60.7389 H   0  0  0  0  0  0  0  0  0  0  0  0
    4.3978    0.8222  -59.9655 H   0  0  0  0  0  0  0  0  0  0  0  0
    4.4693    1.6619  -57.7594 H   0  0  0  0  0  0  0  0  0  0  0  0
    4.1244    3.3446  -58.2852 H   0  0  0  0  0  0  0  0  0  0  0  0
    2.8131    2.1169  -58.2852 H   0  0  0  0  0  0  0  0  0  0  0  0
    6.2150    3.7620  -57.8400 H   0  0  0  0  0  0  0  0  0  0  0  0
    7.2972    0.6060  -54.7228 H   0  0  0  0  0  0  0  0  0  0  0  0
    7.2679   -1.1503  -53.4219 H   0  0  0  0  0  0  0  0  0  0  0  0
  1  2  1  0
  2  3  1  0
  3  4  1  0
  4  5  2  0
  5  6  1  0
  6  7  1  0
  7  8  1  0
  8  9  2  0
  9 10  1  0
 10 11  2  0
 11 12  1  0
 12 13  1  0
 13 14  1  0
 14 15  1  0
 11 16  1  0
 16 17  2  0
 17 18  1  0
 18 19  1  0
 19 20  2  0
 20 21  1  0
 21 22  1  0
 22 23  1  0
 22 24  1  0
 24 25  1  0
 25 26  1  0
 25 27  1  0
 16 28  1  0
 28 29  1  0
 29 30  2  0
 30 31  1  0
  6 32  2  0
 32  3  1  0
 31  7  2  0
 30 10  1  0
 15 12  1  0
 27 20  1  0
  1 33  1  0
  1 34  1  0
  1 35  1  0
  2 36  1  0
  2 37  1  0
  4 38  1  0
  5 39  1  0
  8 40  1  0
 12 41  1  0
 13 42  1  0
 13 43  1  0
 14 44  1  0
 14 45  1  0
 15 46  1  0
 15 47  1  0
 18 48  1  0
 18 49  1  0
 19 50  1  0
 21 51  1  0
 21 52  1  0
 22 53  1  6
 23 54  1  0
 23 55  1  0
 23 56  1  0
 24 57  1  0
 24 58  1  0
 25 59  1  1
 26 60  1  0
 26 61  1  0
 26 62  1  0
 28 63  1  0
 31 64  1  0
 32 65  1  0
M  END
>  <meeko>  (287) 
{"is_sidechain": false}

$$$$

     RDKit          3D

 65 69  0  0  0  0  0  0  0  0999 V2000
    2.9810    0.3870  -63.2230 C   0  0  0  0  0  0  0  0  0  0  0  0
    3.3860    1.8170  -62.9140 C   0  0  0  0  0  0  0  0  0  0  0  0
    3.7780    1.9860  -61.5250 N   0  0  0  0  0  0  0  0  0  0  0  0
    2.9230    2.2600  -60.4930 C   0  0  0  0  0  0  0  0  0  0  0  0
    3.6730    2.3540  -59.3390 C   0  0  0  0  0  0  0  0  0  0  0  0
    5.0340    2.1350  -59.6870 C   0  0  0  0  0  0  0  0  0  0  0  0
    6.1770    2.1330  -58.8150 C   0  0  0  0  0  0  0  0  0  0  0  0
    7.3530    2.7190  -59.1340 C   0  0  0  0  0  0  0  0  0  0  0  0
    8.4610    2.7140  -58.3090 N   0  0  0  0  0  0  0  0  0  0  0  0
    8.5010    1.9510  -57.1510 C   0  0  0  0  0  0  0  0  0  0  0  0
    9.5870    1.6640  -56.4120 C   0  0  0  0  0  0  0  0  0  0  0  0
   10.9120    2.2840  -56.6440 C   0  0  0  0  0  0  0  0  0  0  0  0
   11.2970    2.5490  -58.1340 C   0  0  0  0  0  0  0  0  0  0  0  0
   11.9770    3.8450  -57.6560 C   0  0  0  0  0  0  0  0  0  0  0  0
   10.9850    3.8340  -56.4790 C   0  0  0  0  0  0  0  0  0  0  0  0
    9.3320    0.5930  -55.4060 C   0  0  0  0  0  0  0  0  0  0  0  0
    9.9890   -0.4690  -55.1260 N   0  0  0  0  0  0  0  0  0  0  0  0
   11.0900   -0.9260  -55.9530 C   0  0  0  0  0  0  0  0  0  0  0  0
   10.7820   -2.3230  -56.3950 C   0  0  0  0  0  0  0  0  0  0  0  0
   11.6770   -3.2450  -56.7830 C   0  0  0  0  0  0  0  0  0  0  0  0
   11.2600   -4.6310  -57.2120 C   0  0  0  0  0  0  0  0  0  0  0  0
   12.2670   -5.6600  -56.6920 C   0  0  1  0  0  0  0  0  0  0  0  0
   11.9040   -7.0710  -57.1450 C   0  0  0  0  0  0  0  0  0  0  0  0
   13.6990   -5.2870  -57.1100 C   0  0  0  0  0  0  0  0  0  0  0  0
   13.8050   -3.8340  -57.5890 C   0  0  2  0  0  0  0  0  0  0  0  0
   15.2530   -3.3580  -57.5590 C   0  0  0  0  0  0  0  0  0  0  0  0
   13.0340   -2.9590  -56.7580 O   0  0  0  0  0  0  0  0  0  0  0  0
    8.1590    0.7770  -54.7040 N   0  0  0  0  0  0  0  0  0  0  0  0
    7.1230    1.0030  -55.3830 N   0  0  0  0  0  0  0  0  0  0  0  0
    7.2040    1.4220  -56.6920 C   0  0  0  0  0  0  0  0  0  0  0  0
    6.1170    1.5130  -57.4830 C   0  0  0  0  0  0  0  0  0  0  0  0
    5.0620    1.9140  -61.0520 C   0  0  0  0  0  0  0  0  0  0  0  0
    2.8257   -0.1615  -62.2823 H   0  0  0  0  0  0  0  0  0  0  0  0
    2.0478    0.3879  -63.8053 H   0  0  0  0  0  0  0  0  0  0  0  0
    3.7761   -0.1016  -63.8053 H   0  0  0  0  0  0  0  0  0  0  0  0
    4.2342    2.0925  -63.5580 H   0  0  0  0  0  0  0  0  0  0  0  0
    2.5161    2.4635  -63.1016 H   0  0  0  0  0  0  0  0  0  0  0  0
    1.8326    2.3833  -60.5696 H   0  0  0  0  0  0  0  0  0  0  0  0
    3.2871    2.5613  -58.3300 H   0  0  0  0  0  0  0  0  0  0  0  0
    7.4319    3.2287  -60.1056 H   0  0  0  0  0  0  0  0  0  0  0  0
    9.3420    3.0050  -58.7150 H   0  0  0  0  0  0  0  0  0  0  0  0
   11.4721    1.5905  -55.9995 H   0  0  0  0  0  0  0  0  0  0  0  0
   11.9807    1.8060  -58.5705 H   0  0  0  0  0  0  0  0  0  0  0  0
   10.5432    2.5521  -58.9351 H   0  0  0  0  0  0  0  0  0  0  0  0
   13.0331    3.7328  -57.3697 H   0  0  0  0  0  0  0  0  0  0  0  0
   12.0929    4.7195  -58.3131 H   0  0  0  0  0  0  0  0  0  0  0  0
   11.4057    4.1741  -55.5212 H   0  0  0  0  0  0  0  0  0  0  0  0
   10.0799    4.4591  -56.4793 H   0  0  0  0  0  0  0  0  0  0  0  0
   11.1960   -0.2709  -56.8302 H   0  0  0  0  0  0  0  0  0  0  0  0
   12.0322   -0.9016  -55.3858 H   0  0  0  0  0  0  0  0  0  0  0  0
    9.7233   -2.6216  -56.4024 H   0  0  0  0  0  0  0  0  0  0  0  0
   10.2640   -4.8557  -56.8027 H   0  0  0  0  0  0  0  0  0  0  0  0
   11.2284   -4.6769  -58.3106 H   0  0  0  0  0  0  0  0  0  0  0  0
   12.2240   -5.6479  -55.5929 H   0  0  0  0  0  0  0  0  0  0  0  0
   11.7400   -7.7083  -56.2635 H   0  0  0  0  0  0  0  0  0  0  0  0
   10.9853   -7.0372  -57.7490 H   0  0  0  0  0  0  0  0  0  0  0  0
   12.7249   -7.4848  -57.7490 H   0  0  0  0  0  0  0  0  0  0  0  0
   14.3668   -5.4246  -56.2468 H   0  0  0  0  0  0  0  0  0  0  0  0
   13.9861   -5.9396  -57.9477 H   0  0  0  0  0  0  0  0  0  0  0  0
   13.4187   -3.8067  -58.6186 H   0  0  0  0  0  0  0  0  0  0  0  0
   15.5819   -3.2499  -56.5149 H   0  0  0  0  0  0  0  0  0  0  0  0
   15.8914   -4.0936  -58.0702 H   0  0  0  0  0  0  0  0  0  0  0  0
   15.3305   -2.3871  -58.0702 H   0  0  0  0  0  0  0  0  0  0  0  0
    5.1581    1.1124  -57.1223 H   0  0  0  0  0  0  0  0  0  0  0  0
    5.9606    1.7147  -61.6544 H   0  0  0  0  0  0  0  0  0  0  0  0
  1  2  1  0
  2  3  1  0
  3  4  1  0
  4  5  2  0
  5  6  1  0
  6  7  1  0
  7  8  2  0
  8  9  1  0
  9 10  1  0
 10 11  2  0
 11 12  1  0
 12 13  1  0
 13 14  1  0
 14 15  1  0
 11 16  1  0
 16 17  2  0
 17 18  1  0
 18 19  1  0
 19 20  2  0
 20 21  1  0
 21 22  1  0
 22 23  1  0
 22 24  1  0
 24 25  1  0
 25 26  1  0
 25 27  1  0
 16 28  1  0
 28 29  2  0
 29 30  1  0
 30 31  2  0
  6 32  2  0
 32  3  1  0
 31  7  1  0
 30 10  1  0
 15 12  1  0
 27 20  1  0
  1 33  1  0
  1 34  1  0
  1 35  1  0
  2 36  1  0
  2 37  1  0
  4 38  1  0
  5 39  1  0
  8 40  1  0
  9 41  1  0
 12 42  1  0
 13 43  1  0
 13 44  1  0
 14 45  1  0
 14 46  1  0
 15 47  1  0
 15 48  1  0
 18 49  1  0
 18 50  1  0
 19 51  1  0
 21 52  1  0
 21 53  1  0
 22 54  1  1
 23 55  1  0
 23 56  1  0
 23 57  1  0
 24 58  1  0
 24 59  1  0
 25 60  1  6
 26 61  1  0
 26 62  1  0
 26 63  1  0
 31 64  1  0
 32 65  1  0
M  END
>  <meeko>  (288) 
{"is_sidechain": false}

$$$$

     RDKit          3D

 33 36  0  0  0  0  0  0  0  0999 V2000
    8.0370   -2.1810  -51.2690 N   0  0  0  0  0  0  0  0  0  0  0  0
    7.7750   -1.5510  -52.2070 C   0  0  0  0  0  0  0  0  0  0  0  0
    7.4590   -0.7700  -53.3680 C   0  0  0  0  0  0  0  0  0  0  0  0
    6.1380   -0.6780  -53.8130 C   0  0  0  0  0  0  0  0  0  0  0  0
    5.8320    0.0860  -54.9460 C   0  0  0  0  0  0  0  0  0  0  0  0
    6.8450    0.7630  -55.6430 C   0  0  0  0  0  0  0  0  0  0  0  0
    6.5060    1.5340  -56.7920 N   0  0  0  0  0  0  0  0  0  0  0  0
    5.2570    1.9570  -57.1950 C   0  0  0  0  0  0  0  0  0  0  0  0
    5.4270    2.6690  -58.3600 C   0  0  0  0  0  0  0  0  0  0  0  0
    6.8100    2.6190  -58.5990 C   0  0  0  0  0  0  0  0  0  0  0  0
    7.6570    3.3700  -59.9310 S   0  0  0  0  0  0  0  0  0  0  0  0
    8.8570    4.2400  -59.0030 C   0  0  0  0  0  0  0  0  0  0  0  0
    8.6170    5.2380  -58.0820 C   0  0  0  0  0  0  0  0  0  0  0  0
    9.8310    5.6560  -57.5980 N   0  0  0  0  0  0  0  0  0  0  0  0
   10.8350    4.9460  -58.1990 C   0  0  0  0  0  0  0  0  0  0  0  0
   12.1430    5.1110  -57.9460 N   0  0  0  0  0  0  0  0  0  0  0  0
   12.8950    4.2810  -58.6920 C   0  0  0  0  0  0  0  0  0  0  0  0
   12.4790    3.3700  -59.5960 N   0  0  0  0  0  0  0  0  0  0  0  0
   11.1460    3.2530  -59.8090 C   0  0  0  0  0  0  0  0  0  0  0  0
   10.2610    4.0560  -59.0950 C   0  0  0  0  0  0  0  0  0  0  0  0
    7.4680    1.9480  -57.6550 N   0  0  0  0  0  0  0  0  0  0  0  0
    8.1700    0.6670  -55.1930 C   0  0  0  0  0  0  0  0  0  0  0  0
    8.4720   -0.0970  -54.0600 C   0  0  0  0  0  0  0  0  0  0  0  0
    5.3380   -1.2058  -53.2733 H   0  0  0  0  0  0  0  0  0  0  0  0
    4.7903    0.1561  -55.2923 H   0  0  0  0  0  0  0  0  0  0  0  0
    4.3039    1.7619  -56.6816 H   0  0  0  0  0  0  0  0  0  0  0  0
    4.6549    3.1649  -58.9666 H   0  0  0  0  0  0  0  0  0  0  0  0
    7.6312    5.6281  -57.7886 H   0  0  0  0  0  0  0  0  0  0  0  0
    9.9870    6.3790  -56.9090 H   0  0  0  0  0  0  0  0  0  0  0  0
   13.9829    4.3543  -58.5469 H   0  0  0  0  0  0  0  0  0  0  0  0
   10.7651    2.5271  -60.5425 H   0  0  0  0  0  0  0  0  0  0  0  0
    8.9725    1.1927  -55.7311 H   0  0  0  0  0  0  0  0  0  0  0  0
    9.5127   -0.1689  -53.7111 H   0  0  0  0  0  0  0  0  0  0  0  0
  1  2  3  0
  2  3  1  0
  3  4  1  0
  4  5  2  0
  5  6  1  0
  6  7  1  0
  7  8  1  0
  8  9  2  0
  9 10  1  0
 10 11  1  0
 11 12  1  0
 12 13  2  0
 13 14  1  0
 14 15  1  0
 15 16  2  0
 16 17  1  0
 17 18  2  0
 18 19  1  0
 19 20  2  0
 10 21  2  0
  6 22  2  0
 22 23  1  0
 23  3  2  0
 21  7  1  0
 20 12  1  0
 20 15  1  0
  4 24  1  0
  5 25  1  0
  8 26  1  0
  9 27  1  0
 13 28  1  0
 14 29  1  0
 17 30  1  0
 19 31  1  0
 22 32  1  0
 23 33  1  0
M  END
>  <meeko>  (289) 
{"is_sidechain": false}

$$$$

     RDKit          3D

 33 36  0  0  0  0  0  0  0  0999 V2000
    8.1980   -2.5140  -51.0770 N   0  0  0  0  0  0  0  0  0  0  0  0
    7.9280   -1.8670  -52.0010 C   0  0  0  0  0  0  0  0  0  0  0  0
    7.6020   -1.0630  -53.1430 C   0  0  0  0  0  0  0  0  0  0  0  0
    8.6110   -0.3890  -53.8390 C   0  0  0  0  0  0  0  0  0  0  0  0
    8.3000    0.3990  -54.9540 C   0  0  0  0  0  0  0  0  0  0  0  0
    6.9700    0.5170  -55.3800 C   0  0  0  0  0  0  0  0  0  0  0  0
    6.6210    1.3120  -56.5090 N   0  0  0  0  0  0  0  0  0  0  0  0
    5.3870    1.8330  -56.8400 C   0  0  0  0  0  0  0  0  0  0  0  0
    5.5450    2.5220  -58.0210 C   0  0  0  0  0  0  0  0  0  0  0  0
    6.8990    2.3600  -58.3420 C   0  0  0  0  0  0  0  0  0  0  0  0
    7.6780    3.0530  -59.7460 S   0  0  0  0  0  0  0  0  0  0  0  0
    8.8200    4.0330  -58.9520 C   0  0  0  0  0  0  0  0  0  0  0  0
    8.5800    5.0140  -58.0640 C   0  0  0  0  0  0  0  0  0  0  0  0
    9.7110    5.6320  -57.5310 N   0  0  0  0  0  0  0  0  0  0  0  0
   10.7090    5.0100  -58.1010 C   0  0  0  0  0  0  0  0  0  0  0  0
   12.0510    5.1810  -57.9700 N   0  0  0  0  0  0  0  0  0  0  0  0
   12.9150    4.3950  -58.6820 C   0  0  0  0  0  0  0  0  0  0  0  0
   12.5630    3.4570  -59.5130 N   0  0  0  0  0  0  0  0  0  0  0  0
   11.1910    3.2610  -59.6670 C   0  0  0  0  0  0  0  0  0  0  0  0
   10.2400    3.9570  -59.0290 C   0  0  0  0  0  0  0  0  0  0  0  0
    7.5570    1.6520  -57.4280 N   0  0  0  0  0  0  0  0  0  0  0  0
    5.9590   -0.1620  -54.6790 C   0  0  0  0  0  0  0  0  0  0  0  0
    6.2760   -0.9470  -53.5650 C   0  0  0  0  0  0  0  0  0  0  0  0
    9.6562   -0.4786  -53.5081 H   0  0  0  0  0  0  0  0  0  0  0  0
    9.0997    0.9255  -55.4956 H   0  0  0  0  0  0  0  0  0  0  0  0
    4.4540    1.7193  -56.2685 H   0  0  0  0  0  0  0  0  0  0  0  0
    4.7802    3.0753  -58.5857 H   0  0  0  0  0  0  0  0  0  0  0  0
    7.5599    5.3092  -57.7772 H   0  0  0  0  0  0  0  0  0  0  0  0
   12.3810    5.8950  -57.3400 H   0  0  0  0  0  0  0  0  0  0  0  0
   13.9919    4.5693  -58.5412 H   0  0  0  0  0  0  0  0  0  0  0  0
   10.8647    2.4758  -60.3649 H   0  0  0  0  0  0  0  0  0  0  0  0
    4.9128   -0.0759  -55.0078 H   0  0  0  0  0  0  0  0  0  0  0  0
    5.4788   -1.4740  -53.0203 H   0  0  0  0  0  0  0  0  0  0  0  0
  1  2  3  0
  2  3  1  0
  3  4  1  0
  4  5  2  0
  5  6  1  0
  6  7  1  0
  7  8  1  0
  8  9  2  0
  9 10  1  0
 10 11  1  0
 11 12  1  0
 12 13  2  0
 13 14  1  0
 14 15  2  0
 15 16  1  0
 16 17  1  0
 17 18  2  0
 18 19  1  0
 19 20  2  0
 10 21  2  0
  6 22  2  0
 22 23  1  0
 23  3  2  0
 21  7  1  0
 20 12  1  0
 20 15  1  0
  4 24  1  0
  5 25  1  0
  8 26  1  0
  9 27  1  0
 13 28  1  0
 16 29  1  0
 17 30  1  0
 19 31  1  0
 22 32  1  0
 23 33  1  0
M  END
>  <meeko>  (290) 
{"is_sidechain": false}

$$$$

     RDKit          3D

 33 36  0  0  0  0  0  0  0  0999 V2000
    8.1360   -2.2290  -51.3400 N   0  0  0  0  0  0  0  0  0  0  0  0
    7.8550   -1.5950  -52.2700 C   0  0  0  0  0  0  0  0  0  0  0  0
    7.5140   -0.8080  -53.4190 C   0  0  0  0  0  0  0  0  0  0  0  0
    8.5050   -0.0980  -54.1040 C   0  0  0  0  0  0  0  0  0  0  0  0
    8.1800    0.6740  -55.2250 C   0  0  0  0  0  0  0  0  0  0  0  0
    6.8520    0.7410  -55.6700 C   0  0  0  0  0  0  0  0  0  0  0  0
    6.4900    1.5190  -56.8080 N   0  0  0  0  0  0  0  0  0  0  0  0
    5.2270    1.9040  -57.2110 C   0  0  0  0  0  0  0  0  0  0  0  0
    5.3780    2.6440  -58.3610 C   0  0  0  0  0  0  0  0  0  0  0  0
    6.7610    2.6620  -58.5820 C   0  0  0  0  0  0  0  0  0  0  0  0
    7.5700    3.4530  -59.9100 S   0  0  0  0  0  0  0  0  0  0  0  0
    8.7820    4.2560  -59.0210 C   0  0  0  0  0  0  0  0  0  0  0  0
    8.6610    5.1860  -58.0540 C   0  0  0  0  0  0  0  0  0  0  0  0
    9.8580    5.6360  -57.4990 N   0  0  0  0  0  0  0  0  0  0  0  0
   10.7710    4.9460  -58.1280 C   0  0  0  0  0  0  0  0  0  0  0  0
   12.1230    5.0280  -57.9290 N   0  0  0  0  0  0  0  0  0  0  0  0
   12.8410    4.2380  -58.6630 C   0  0  0  0  0  0  0  0  0  0  0  0
   12.3680    3.3540  -59.6010 N   0  0  0  0  0  0  0  0  0  0  0  0
   11.0170    3.2510  -59.8300 C   0  0  0  0  0  0  0  0  0  0  0  0
   10.1860    4.0210  -59.1280 C   0  0  0  0  0  0  0  0  0  0  0  0
    7.4400    1.9820  -57.6610 N   0  0  0  0  0  0  0  0  0  0  0  0
    5.8590    0.0280  -54.9800 C   0  0  0  0  0  0  0  0  0  0  0  0
    6.1890   -0.7420  -53.8600 C   0  0  0  0  0  0  0  0  0  0  0  0
    9.5483   -0.1467  -53.7589 H   0  0  0  0  0  0  0  0  0  0  0  0
    8.9668    1.2286  -55.7574 H   0  0  0  0  0  0  0  0  0  0  0  0
    4.2788    1.6643  -56.7076 H   0  0  0  0  0  0  0  0  0  0  0  0
    4.5912    3.1146  -58.9689 H   0  0  0  0  0  0  0  0  0  0  0  0
    7.6825    5.5652  -57.7242 H   0  0  0  0  0  0  0  0  0  0  0  0
   13.9311    4.2793  -58.5215 H   0  0  0  0  0  0  0  0  0  0  0  0
   13.0000    2.7590  -60.1230 H   0  0  0  0  0  0  0  0  0  0  0  0
   10.6283    2.5457  -60.5793 H   0  0  0  0  0  0  0  0  0  0  0  0
    4.8147    0.0752  -55.3223 H   0  0  0  0  0  0  0  0  0  0  0  0
    5.4043   -1.2969  -53.3250 H   0  0  0  0  0  0  0  0  0  0  0  0
  1  2  3  0
  2  3  1  0
  3  4  1  0
  4  5  2  0
  5  6  1  0
  6  7  1  0
  7  8  1  0
  8  9  2  0
  9 10  1  0
 10 11  1  0
 11 12  1  0
 12 13  2  0
 13 14  1  0
 14 15  2  0
 15 16  1  0
 16 17  2  0
 17 18  1  0
 18 19  1  0
 19 20  2  0
 10 21  2  0
  6 22  2  0
 22 23  1  0
 23  3  2  0
 21  7  1  0
 20 12  1  0
 20 15  1  0
  4 24  1  0
  5 25  1  0
  8 26  1  0
  9 27  1  0
 13 28  1  0
 17 29  1  0
 18 30  1  0
 19 31  1  0
 22 32  1  0
 23 33  1  0
M  END
>  <meeko>  (291) 
{"is_sidechain": false}

$$$$

     RDKit          3D

 33 35  0  0  0  0  0  0  0  0999 V2000
   10.0660    3.3720  -56.2490 C   0  0  0  0  0  0  0  0  0  0  0  0
    9.5350    2.1780  -57.0340 C   0  0  0  0  0  0  0  0  0  0  0  0
    8.1980    2.3360  -57.7080 C   0  0  0  0  0  0  0  0  0  0  0  0
    7.0020    2.4230  -56.9860 C   0  0  0  0  0  0  0  0  0  0  0  0
    5.7580    2.5820  -57.5000 N   0  0  0  0  0  0  0  0  0  0  0  0
    5.5970    2.6810  -58.7920 N   0  0  0  0  0  0  0  0  0  0  0  0
    6.6890    2.6260  -59.5900 C   0  0  0  0  0  0  0  0  0  0  0  0
    6.7400    2.7210  -60.9960 C   0  0  0  0  0  0  0  0  0  0  0  0
    8.0590    2.6120  -61.3590 C   0  0  0  0  0  0  0  0  0  0  0  0
    8.8140    2.4640  -60.2120 N   0  0  0  0  0  0  0  0  0  0  0  0
   10.2650    2.2820  -60.2600 C   0  0  0  0  0  0  0  0  0  0  0  0
   11.0620    3.5150  -59.9050 C   0  0  0  0  0  0  0  0  0  0  0  0
   12.2810    3.3600  -59.2220 C   0  0  0  0  0  0  0  0  0  0  0  0
   13.0670    4.4680  -58.9010 C   0  0  0  0  0  0  0  0  0  0  0  0
   12.6550    5.7450  -59.2710 C   0  0  0  0  0  0  0  0  0  0  0  0
   11.4610    5.9140  -59.9680 C   0  0  0  0  0  0  0  0  0  0  0  0
   10.6730    4.8070  -60.2910 C   0  0  0  0  0  0  0  0  0  0  0  0
    7.9890    2.4570  -59.0960 C   0  0  0  0  0  0  0  0  0  0  0  0
    9.9767    3.1712  -55.1712 H   0  0  0  0  0  0  0  0  0  0  0  0
   11.1229    3.5382  -56.5047 H   0  0  0  0  0  0  0  0  0  0  0  0
    9.4816    4.2681  -56.5047 H   0  0  0  0  0  0  0  0  0  0  0  0
   10.2729    1.9408  -57.8146 H   0  0  0  0  0  0  0  0  0  0  0  0
    9.3814    1.3903  -56.2817 H   0  0  0  0  0  0  0  0  0  0  0  0
    7.0796    2.3555  -55.8908 H   0  0  0  0  0  0  0  0  0  0  0  0
    5.8843    2.8568  -61.6737 H   0  0  0  0  0  0  0  0  0  0  0  0
    8.4483    2.6380  -62.3875 H   0  0  0  0  0  0  0  0  0  0  0  0
   10.5348    1.4831  -59.5536 H   0  0  0  0  0  0  0  0  0  0  0  0
   10.5156    2.0364  -61.3025 H   0  0  0  0  0  0  0  0  0  0  0  0
   12.6196    2.3530  -58.9370 H   0  0  0  0  0  0  0  0  0  0  0  0
   14.0124    4.3319  -58.3554 H   0  0  0  0  0  0  0  0  0  0  0  0
   13.2712    6.6191  -59.0134 H   0  0  0  0  0  0  0  0  0  0  0  0
   11.1376    6.9226  -60.2650 H   0  0  0  0  0  0  0  0  0  0  0  0
    9.7384    4.9492  -60.8534 H   0  0  0  0  0  0  0  0  0  0  0  0
  1  2  1  0
  2  3  1  0
  3  4  2  0
  4  5  1  0
  5  6  2  0
  6  7  1  0
  7  8  1  0
  8  9  2  0
  9 10  1  0
 10 11  1  0
 11 12  1  0
 12 13  2  0
 13 14  1  0
 14 15  2  0
 15 16  1  0
 16 17  2  0
 10 18  1  0
 18  3  1  0
 18  7  2  0
 17 12  1  0
  1 19  1  0
  1 20  1  0
  1 21  1  0
  2 22  1  0
  2 23  1  0
  4 24  1  0
  8 25  1  0
  9 26  1  0
 11 27  1  0
 11 28  1  0
 13 29  1  0
 14 30  1  0
 15 31  1  0
 16 32  1  0
 17 33  1  0
M  END
>  <meeko>  (292) 
{"is_sidechain": false}

$$$$

     RDKit          3D

 51 54  0  0  0  0  0  0  0  0999 V2000
    7.7470   -2.4100  -50.3710 C   0  0  0  0  0  0  0  0  0  0  0  0
    7.7200   -2.6020  -51.8840 C   0  0  0  0  0  0  0  0  0  0  0  0
    7.4370   -4.0450  -52.2880 C   0  0  0  0  0  0  0  0  0  0  0  0
    8.8480   -1.9110  -52.6570 C   0  0  0  0  0  0  0  0  0  0  0  0
    7.6650   -1.1060  -53.1870 C   0  0  0  0  0  0  0  0  0  0  0  0
    7.5950   -0.1090  -54.0810 C   0  0  0  0  0  0  0  0  0  0  0  0
    8.7430    0.5000  -54.8180 C   0  0  0  0  0  0  0  0  0  0  0  0
    8.2690    1.0190  -56.0970 N   0  0  0  0  0  0  0  0  0  0  0  0
    8.8590    2.0490  -56.6090 C   0  0  0  0  0  0  0  0  0  0  0  0
    9.8980    2.6770  -55.9610 N   0  0  0  0  0  0  0  0  0  0  0  0
   10.7050    3.4000  -56.5790 N   0  0  0  0  0  0  0  0  0  0  0  0
   10.5520    3.7310  -57.8950 C   0  0  0  0  0  0  0  0  0  0  0  0
   11.5050    4.4270  -58.5520 C   0  0  0  0  0  0  0  0  0  0  0  0
   11.3120    4.8450  -59.9280 C   0  0  0  0  0  0  0  0  0  0  0  0
   10.1380    4.5720  -60.5130 C   0  0  0  0  0  0  0  0  0  0  0  0
    9.1330    3.9040  -59.8520 N   0  0  0  0  0  0  0  0  0  0  0  0
    9.2880    3.3880  -58.5660 C   0  0  0  0  0  0  0  0  0  0  0  0
    8.4020    2.6050  -57.9220 C   0  0  0  0  0  0  0  0  0  0  0  0
    7.0330    2.1700  -58.4170 C   0  0  0  0  0  0  0  0  0  0  0  0
    7.0760    1.6060  -59.8520 C   0  0  0  0  0  0  0  0  0  0  0  0
    5.7450    1.7410  -60.5960 C   0  0  0  0  0  0  0  0  0  0  0  0
    4.5540    1.6140  -59.6560 C   0  0  0  0  0  0  0  0  0  0  0  0
    4.5530    2.7010  -58.5780 C   0  0  0  0  0  0  0  0  0  0  0  0
    5.9480    3.2490  -58.2560 C   0  0  0  0  0  0  0  0  0  0  0  0
    6.7570   -1.6990  -52.4980 O   0  0  0  0  0  0  0  0  0  0  0  0
    7.6102   -3.3825  -49.8755 H   0  0  0  0  0  0  0  0  0  0  0  0
    8.7145   -1.9796  -50.0732 H   0  0  0  0  0  0  0  0  0  0  0  0
    6.9357   -1.7294  -50.0732 H   0  0  0  0  0  0  0  0  0  0  0  0
    7.3161   -4.6616  -51.3851 H   0  0  0  0  0  0  0  0  0  0  0  0
    6.5140   -4.0843  -52.8852 H   0  0  0  0  0  0  0  0  0  0  0  0
    8.2767   -4.4300  -52.8852 H   0  0  0  0  0  0  0  0  0  0  0  0
    9.5785   -1.3546  -52.0513 H   0  0  0  0  0  0  0  0  0  0  0  0
    9.5948   -2.4242  -53.2807 H   0  0  0  0  0  0  0  0  0  0  0  0
    6.5959    0.2999  -54.2921 H   0  0  0  0  0  0  0  0  0  0  0  0
    9.1689    1.3210  -54.2226 H   0  0  0  0  0  0  0  0  0  0  0  0
    9.5174   -0.2616  -54.9916 H   0  0  0  0  0  0  0  0  0  0  0  0
   12.4425    4.6810  -58.0356 H   0  0  0  0  0  0  0  0  0  0  0  0
   12.1075    5.3714  -60.4757 H   0  0  0  0  0  0  0  0  0  0  0  0
    9.9727    4.8914  -61.5526 H   0  0  0  0  0  0  0  0  0  0  0  0
    8.3440    3.5920  -60.4020 H   0  0  0  0  0  0  0  0  0  0  0  0
    6.7360    1.3445  -57.7535 H   0  0  0  0  0  0  0  0  0  0  0  0
    7.8484    2.1482  -60.4172 H   0  0  0  0  0  0  0  0  0  0  0  0
    7.2975    0.5314  -59.7731 H   0  0  0  0  0  0  0  0  0  0  0  0
    5.7090    2.7258  -61.0847 H   0  0  0  0  0  0  0  0  0  0  0  0
    5.6838    0.9290  -61.3356 H   0  0  0  0  0  0  0  0  0  0  0  0
    3.6278    1.6964  -60.2437 H   0  0  0  0  0  0  0  0  0  0  0  0
    4.6219    0.6381  -59.1530 H   0  0  0  0  0  0  0  0  0  0  0  0
    3.9240    3.5340  -58.9250 H   0  0  0  0  0  0  0  0  0  0  0  0
    4.1674    2.2404  -57.6565 H   0  0  0  0  0  0  0  0  0  0  0  0
    6.1700    4.0827  -58.9384 H   0  0  0  0  0  0  0  0  0  0  0  0
    5.9514    3.5859  -57.2089 H   0  0  0  0  0  0  0  0  0  0  0  0
  1  2  1  0
  2  3  1  0
  2  4  1  0
  4  5  1  0
  5  6  2  0
  6  7  1  0
  7  8  1  0
  8  9  2  0
  9 10  1  0
 10 11  2  0
 11 12  1  0
 12 13  2  0
 13 14  1  0
 14 15  2  0
 15 16  1  0
 16 17  1  0
 17 18  2  0
 18 19  1  0
 19 20  1  0
 20 21  1  0
 21 22  1  0
 22 23  1  0
 23 24  1  0
  5 25  1  0
 25  2  1  0
 18  9  1  0
 24 19  1  0
 17 12  1  0
  1 26  1  0
  1 27  1  0
  1 28  1  0
  3 29  1  0
  3 30  1  0
  3 31  1  0
  4 32  1  0
  4 33  1  0
  6 34  1  0
  7 35  1  0
  7 36  1  0
 13 37  1  0
 14 38  1  0
 15 39  1  0
 16 40  1  0
 19 41  1  0
 20 42  1  0
 20 43  1  0
 21 44  1  0
 21 45  1  0
 22 46  1  0
 22 47  1  0
 23 48  1  0
 23 49  1  0
 24 50  1  0
 24 51  1  0
M  END
>  <meeko>  (293) 
{"is_sidechain": false}

$$$$

     RDKit          3D

 51 54  0  0  0  0  0  0  0  0999 V2000
    7.7980   -2.5730  -50.2060 C   0  0  0  0  0  0  0  0  0  0  0  0
    7.6740   -2.8090  -51.7080 C   0  0  0  0  0  0  0  0  0  0  0  0
    7.4240   -4.2730  -52.0550 C   0  0  0  0  0  0  0  0  0  0  0  0
    8.7140   -2.0930  -52.5760 C   0  0  0  0  0  0  0  0  0  0  0  0
    7.4710   -1.3220  -53.0080 C   0  0  0  0  0  0  0  0  0  0  0  0
    7.3070   -0.3030  -53.8660 C   0  0  0  0  0  0  0  0  0  0  0  0
    8.3730    0.3530  -54.6830 C   0  0  0  0  0  0  0  0  0  0  0  0
    7.7460    1.1530  -55.7290 N   0  0  0  0  0  0  0  0  0  0  0  0
    8.6060    1.8740  -56.5820 C   0  0  0  0  0  0  0  0  0  0  0  0
    9.8510    2.1800  -56.1640 N   0  0  0  0  0  0  0  0  0  0  0  0
   10.7040    2.8950  -56.9450 N   0  0  0  0  0  0  0  0  0  0  0  0
   10.3130    3.3050  -58.1540 C   0  0  0  0  0  0  0  0  0  0  0  0
   11.1880    4.0440  -58.9400 C   0  0  0  0  0  0  0  0  0  0  0  0
   10.8120    4.4890  -60.2000 C   0  0  0  0  0  0  0  0  0  0  0  0
    9.5460    4.1710  -60.6340 C   0  0  0  0  0  0  0  0  0  0  0  0
    8.6690    3.4560  -59.8980 N   0  0  0  0  0  0  0  0  0  0  0  0
    9.0380    3.0160  -58.6670 C   0  0  0  0  0  0  0  0  0  0  0  0
    8.1660    2.2640  -57.8600 C   0  0  0  0  0  0  0  0  0  0  0  0
    6.7790    1.8580  -58.3630 C   0  0  0  0  0  0  0  0  0  0  0  0
    6.7980    1.2360  -59.7740 C   0  0  0  0  0  0  0  0  0  0  0  0
    5.3990    0.7950  -60.2050 C   0  0  0  0  0  0  0  0  0  0  0  0
    4.3930    1.9380  -60.1080 C   0  0  0  0  0  0  0  0  0  0  0  0
    4.3640    2.5470  -58.7090 C   0  0  0  0  0  0  0  0  0  0  0  0
    5.7530    3.0020  -58.2590 C   0  0  0  0  0  0  0  0  0  0  0  0
    6.6320   -1.9640  -52.2750 O   0  0  0  0  0  0  0  0  0  0  0  0
    7.3528   -3.4202  -49.6637 H   0  0  0  0  0  0  0  0  0  0  0  0
    8.8604   -2.4821  -49.9356 H   0  0  0  0  0  0  0  0  0  0  0  0
    7.2702   -1.6465  -49.9356 H   0  0  0  0  0  0  0  0  0  0  0  0
    7.3242   -4.8575  -51.1285 H   0  0  0  0  0  0  0  0  0  0  0  0
    6.4984   -4.3575  -52.6434 H   0  0  0  0  0  0  0  0  0  0  0  0
    8.2691   -4.6598  -52.6434 H   0  0  0  0  0  0  0  0  0  0  0  0
    9.4778   -1.5143  -52.0359 H   0  0  0  0  0  0  0  0  0  0  0  0
    9.4187   -2.5905  -53.2585 H   0  0  0  0  0  0  0  0  0  0  0  0
    6.2854    0.0888  -53.9793 H   0  0  0  0  0  0  0  0  0  0  0  0
    8.9841    1.0022  -54.0388 H   0  0  0  0  0  0  0  0  0  0  0  0
    9.0169   -0.4141  -55.1380 H   0  0  0  0  0  0  0  0  0  0  0  0
    7.0730    1.8030  -55.3370 H   0  0  0  0  0  0  0  0  0  0  0  0
   12.1925    4.2798  -58.5588 H   0  0  0  0  0  0  0  0  0  0  0  0
   11.5004    5.0738  -60.8277 H   0  0  0  0  0  0  0  0  0  0  0  0
    9.2328    4.5165  -61.6302 H   0  0  0  0  0  0  0  0  0  0  0  0
    6.4466    1.0621  -57.6803 H   0  0  0  0  0  0  0  0  0  0  0  0
    7.1750    1.9817  -60.4894 H   0  0  0  0  0  0  0  0  0  0  0  0
    7.4507    0.3508  -59.7547 H   0  0  0  0  0  0  0  0  0  0  0  0
    5.4408    0.4441  -61.2467 H   0  0  0  0  0  0  0  0  0  0  0  0
    5.0700   -0.0099  -59.5313 H   0  0  0  0  0  0  0  0  0  0  0  0
    4.6701    2.7192  -60.8312 H   0  0  0  0  0  0  0  0  0  0  0  0
    3.3934    1.5346  -60.3272 H   0  0  0  0  0  0  0  0  0  0  0  0
    3.6886    3.4153  -58.7125 H   0  0  0  0  0  0  0  0  0  0  0  0
    4.0128    1.7759  -58.0075 H   0  0  0  0  0  0  0  0  0  0  0  0
    6.0807    3.8360  -58.8969 H   0  0  0  0  0  0  0  0  0  0  0  0
    5.6906    3.3171  -57.2069 H   0  0  0  0  0  0  0  0  0  0  0  0
  1  2  1  0
  2  3  1  0
  2  4  1  0
  4  5  1  0
  5  6  2  0
  6  7  1  0
  7  8  1  0
  8  9  1  0
  9 10  1  0
 10 11  2  0
 11 12  1  0
 12 13  2  0
 13 14  1  0
 14 15  2  0
 15 16  1  0
 16 17  2  0
 17 18  1  0
 18 19  1  0
 19 20  1  0
 20 21  1  0
 21 22  1  0
 22 23  1  0
 23 24  1  0
  5 25  1  0
 25  2  1  0
 18  9  2  0
 24 19  1  0
 17 12  1  0
  1 26  1  0
  1 27  1  0
  1 28  1  0
  3 29  1  0
  3 30  1  0
  3 31  1  0
  4 32  1  0
  4 33  1  0
  6 34  1  0
  7 35  1  0
  7 36  1  0
  8 37  1  0
 13 38  1  0
 14 39  1  0
 15 40  1  0
 19 41  1  0
 20 42  1  0
 20 43  1  0
 21 44  1  0
 21 45  1  0
 22 46  1  0
 22 47  1  0
 23 48  1  0
 23 49  1  0
 24 50  1  0
 24 51  1  0
M  END
>  <meeko>  (294) 
{"is_sidechain": false}

$$$$

     RDKit          3D

 51 54  0  0  0  0  0  0  0  0999 V2000
    7.8450   -2.3660  -50.4780 C   0  0  0  0  0  0  0  0  0  0  0  0
    7.8190   -2.6710  -51.9720 C   0  0  0  0  0  0  0  0  0  0  0  0
    7.4480   -4.1200  -52.2680 C   0  0  0  0  0  0  0  0  0  0  0  0
    8.9970   -2.1130  -52.7780 C   0  0  0  0  0  0  0  0  0  0  0  0
    7.8780   -1.2530  -53.3600 C   0  0  0  0  0  0  0  0  0  0  0  0
    7.8830   -0.2920  -54.2950 C   0  0  0  0  0  0  0  0  0  0  0  0
    9.0760    0.2210  -55.0340 C   0  0  0  0  0  0  0  0  0  0  0  0
    8.6650    1.1050  -56.1150 N   0  0  0  0  0  0  0  0  0  0  0  0
    9.5210    1.8220  -56.7700 C   0  0  0  0  0  0  0  0  0  0  0  0
   10.8750    1.8680  -56.4990 N   0  0  0  0  0  0  0  0  0  0  0  0
   11.8050    2.6070  -57.1520 N   0  0  0  0  0  0  0  0  0  0  0  0
   11.3410    3.3170  -58.1360 C   0  0  0  0  0  0  0  0  0  0  0  0
   12.3020    4.1450  -58.9030 C   0  0  0  0  0  0  0  0  0  0  0  0
   11.8850    4.8990  -59.9200 C   0  0  0  0  0  0  0  0  0  0  0  0
   10.4530    4.8750  -60.2470 C   0  0  0  0  0  0  0  0  0  0  0  0
    9.5310    4.1950  -59.6510 N   0  0  0  0  0  0  0  0  0  0  0  0
    9.9030    3.3970  -58.5880 C   0  0  0  0  0  0  0  0  0  0  0  0
    8.9940    2.6620  -57.9100 C   0  0  0  0  0  0  0  0  0  0  0  0
    7.5090    2.6580  -58.2440 C   0  0  0  0  0  0  0  0  0  0  0  0
    6.6090    2.3740  -57.0290 C   0  0  0  0  0  0  0  0  0  0  0  0
    5.1280    2.5820  -57.3610 C   0  0  0  0  0  0  0  0  0  0  0  0
    4.7650    2.2270  -58.8040 C   0  0  0  0  0  0  0  0  0  0  0  0
    5.7300    1.2180  -59.4090 C   0  0  0  0  0  0  0  0  0  0  0  0
    7.1620    1.7580  -59.4500 C   0  0  0  0  0  0  0  0  0  0  0  0
    6.9220   -1.7590  -52.6660 O   0  0  0  0  0  0  0  0  0  0  0  0
    7.7650   -3.3050  -49.9106 H   0  0  0  0  0  0  0  0  0  0  0  0
    8.7893   -1.8628  -50.2229 H   0  0  0  0  0  0  0  0  0  0  0  0
    6.9995   -1.7102  -50.2229 H   0  0  0  0  0  0  0  0  0  0  0  0
    7.3088   -4.6635  -51.3218 H   0  0  0  0  0  0  0  0  0  0  0  0
    6.5137   -4.1482  -52.8479 H   0  0  0  0  0  0  0  0  0  0  0  0
    8.2538   -4.5937  -52.8479 H   0  0  0  0  0  0  0  0  0  0  0  0
    9.7669   -1.5790  -52.2018 H   0  0  0  0  0  0  0  0  0  0  0  0
    9.7034   -2.7163  -53.3670 H   0  0  0  0  0  0  0  0  0  0  0  0
    6.9129    0.1638  -54.5425 H   0  0  0  0  0  0  0  0  0  0  0  0
    9.7217    0.7764  -54.3379 H   0  0  0  0  0  0  0  0  0  0  0  0
    9.6238   -0.6320  -55.4609 H   0  0  0  0  0  0  0  0  0  0  0  0
   11.1890    1.4050  -55.6540 H   0  0  0  0  0  0  0  0  0  0  0  0
   13.3677    4.1371  -58.6307 H   0  0  0  0  0  0  0  0  0  0  0  0
   12.5893    5.5182  -60.4949 H   0  0  0  0  0  0  0  0  0  0  0  0
   10.1315    5.5039  -61.0903 H   0  0  0  0  0  0  0  0  0  0  0  0
    7.2851    3.6900  -58.5520 H   0  0  0  0  0  0  0  0  0  0  0  0
    6.7599    1.3324  -56.7091 H   0  0  0  0  0  0  0  0  0  0  0  0
    6.8829    3.0757  -56.2274 H   0  0  0  0  0  0  0  0  0  0  0  0
    4.5293    1.9515  -56.6872 H   0  0  0  0  0  0  0  0  0  0  0  0
    4.9171    3.6538  -57.2311 H   0  0  0  0  0  0  0  0  0  0  0  0
    3.7512    1.8005  -58.8194 H   0  0  0  0  0  0  0  0  0  0  0  0
    4.8215    3.1483  -59.4023 H   0  0  0  0  0  0  0  0  0  0  0  0
    5.7124    0.3002  -58.8029 H   0  0  0  0  0  0  0  0  0  0  0  0
    5.4105    1.0147  -60.4418 H   0  0  0  0  0  0  0  0  0  0  0  0
    7.8568    0.9052  -59.4609 H   0  0  0  0  0  0  0  0  0  0  0  0
    7.2517    2.3765  -60.3552 H   0  0  0  0  0  0  0  0  0  0  0  0
  1  2  1  0
  2  3  1  0
  2  4  1  0
  4  5  1  0
  5  6  2  0
  6  7  1  0
  7  8  1  0
  8  9  2  0
  9 10  1  0
 10 11  1  0
 11 12  2  0
 12 13  1  0
 13 14  2  0
 14 15  1  0
 15 16  2  0
 16 17  1  0
 17 18  2  0
 18 19  1  0
 19 20  1  0
 20 21  1  0
 21 22  1  0
 22 23  1  0
 23 24  1  0
  5 25  1  0
 25  2  1  0
 18  9  1  0
 24 19  1  0
 17 12  1  0
  1 26  1  0
  1 27  1  0
  1 28  1  0
  3 29  1  0
  3 30  1  0
  3 31  1  0
  4 32  1  0
  4 33  1  0
  6 34  1  0
  7 35  1  0
  7 36  1  0
 10 37  1  0
 13 38  1  0
 14 39  1  0
 15 40  1  0
 19 41  1  0
 20 42  1  0
 20 43  1  0
 21 44  1  0
 21 45  1  0
 22 46  1  0
 22 47  1  0
 23 48  1  0
 23 49  1  0
 24 50  1  0
 24 51  1  0
M  END
>  <meeko>  (295) 
{"is_sidechain": false}

$$$$

     RDKit          3D

 51 54  0  0  0  0  0  0  0  0999 V2000
    7.8200   -2.2200  -51.4240 C   0  0  0  0  0  0  0  0  0  0  0  0
    8.0520   -2.1910  -52.9300 C   0  0  0  0  0  0  0  0  0  0  0  0
    8.9230   -3.3440  -53.4140 C   0  0  0  0  0  0  0  0  0  0  0  0
    8.3910   -0.8170  -53.5200 C   0  0  0  0  0  0  0  0  0  0  0  0
    7.0140   -1.0140  -54.1470 C   0  0  0  0  0  0  0  0  0  0  0  0
    6.2850   -0.2310  -54.9550 C   0  0  0  0  0  0  0  0  0  0  0  0
    6.6800    1.1130  -55.4850 C   0  0  0  0  0  0  0  0  0  0  0  0
    5.6130    1.5790  -56.3390 N   0  0  0  0  0  0  0  0  0  0  0  0
    5.7490    2.0910  -57.5150 C   0  0  0  0  0  0  0  0  0  0  0  0
    4.5390    2.2690  -58.1600 N   0  0  0  0  0  0  0  0  0  0  0  0
    4.3650    2.2180  -59.5070 N   0  0  0  0  0  0  0  0  0  0  0  0
    5.4620    2.3290  -60.1910 C   0  0  0  0  0  0  0  0  0  0  0  0
    5.3710    2.2760  -61.6680 C   0  0  0  0  0  0  0  0  0  0  0  0
    6.4520    2.4850  -62.4190 C   0  0  0  0  0  0  0  0  0  0  0  0
    7.7150    2.7850  -61.7270 C   0  0  0  0  0  0  0  0  0  0  0  0
    7.9160    2.8160  -60.4530 N   0  0  0  0  0  0  0  0  0  0  0  0
    6.8490    2.5350  -59.6230 C   0  0  0  0  0  0  0  0  0  0  0  0
    6.9990    2.4680  -58.2780 C   0  0  0  0  0  0  0  0  0  0  0  0
    8.2830    2.8420  -57.5590 C   0  0  0  0  0  0  0  0  0  0  0  0
    9.5280    2.1450  -58.1330 C   0  0  0  0  0  0  0  0  0  0  0  0
   10.7530    2.3550  -57.2380 C   0  0  0  0  0  0  0  0  0  0  0  0
   10.7640    3.7060  -56.5200 C   0  0  0  0  0  0  0  0  0  0  0  0
    9.9740    4.7640  -57.2790 C   0  0  0  0  0  0  0  0  0  0  0  0
    8.5020    4.3730  -57.4400 C   0  0  0  0  0  0  0  0  0  0  0  0
    6.7820   -2.1730  -53.6440 O   0  0  0  0  0  0  0  0  0  0  0  0
    8.7811   -2.0999  -50.9026 H   0  0  0  0  0  0  0  0  0  0  0  0
    7.1443   -1.3993  -51.1412 H   0  0  0  0  0  0  0  0  0  0  0  0
    7.3671   -3.1817  -51.1412 H   0  0  0  0  0  0  0  0  0  0  0  0
    9.3311   -3.8842  -52.5471 H   0  0  0  0  0  0  0  0  0  0  0  0
    8.3167   -4.0314  -54.0222 H   0  0  0  0  0  0  0  0  0  0  0  0
    9.7499   -2.9486  -54.0222 H   0  0  0  0  0  0  0  0  0  0  0  0
    8.4800    0.0095  -52.7996 H   0  0  0  0  0  0  0  0  0  0  0  0
    9.3100   -0.5756  -54.0742 H   0  0  0  0  0  0  0  0  0  0  0  0
    5.2994   -0.6134  -55.2587 H   0  0  0  0  0  0  0  0  0  0  0  0
    6.8270    1.8159  -54.6517 H   0  0  0  0  0  0  0  0  0  0  0  0
    7.6220    1.0432  -56.0486 H   0  0  0  0  0  0  0  0  0  0  0  0
    3.7580    1.9370  -57.5960 H   0  0  0  0  0  0  0  0  0  0  0  0
    4.4048    2.0627  -62.1486 H   0  0  0  0  0  0  0  0  0  0  0  0
    6.4016    2.4350  -63.5167 H   0  0  0  0  0  0  0  0  0  0  0  0
    8.5827    3.0071  -62.3655 H   0  0  0  0  0  0  0  0  0  0  0  0
    8.1435    2.4604  -56.5368 H   0  0  0  0  0  0  0  0  0  0  0  0
    9.3272    1.0667  -58.2164 H   0  0  0  0  0  0  0  0  0  0  0  0
    9.7431    2.5813  -59.1196 H   0  0  0  0  0  0  0  0  0  0  0  0
   10.7701    1.5583  -56.4797 H   0  0  0  0  0  0  0  0  0  0  0  0
   11.6374    2.3304  -57.8916 H   0  0  0  0  0  0  0  0  0  0  0  0
   10.3205    3.5806  -55.5212 H   0  0  0  0  0  0  0  0  0  0  0  0
   11.8081    4.0457  -56.4530 H   0  0  0  0  0  0  0  0  0  0  0  0
   10.0311    5.7140  -56.7274 H   0  0  0  0  0  0  0  0  0  0  0  0
   10.4123    4.8609  -58.2832 H   0  0  0  0  0  0  0  0  0  0  0  0
    7.9460    4.7381  -56.5639 H   0  0  0  0  0  0  0  0  0  0  0  0
    8.1450    4.8268  -58.3763 H   0  0  0  0  0  0  0  0  0  0  0  0
  1  2  1  0
  2  3  1  0
  2  4  1  0
  4  5  1  0
  5  6  2  0
  6  7  1  0
  7  8  1  0
  8  9  2  0
  9 10  1  0
 10 11  1  0
 11 12  2  0
 12 13  1  0
 13 14  2  0
 14 15  1  0
 15 16  2  0
 16 17  1  0
 17 18  2  0
 18 19  1  0
 19 20  1  0
 20 21  1  0
 21 22  1  0
 22 23  1  0
 23 24  1  0
  5 25  1  0
 25  2  1  0
 18  9  1  0
 24 19  1  0
 17 12  1  0
  1 26  1  0
  1 27  1  0
  1 28  1  0
  3 29  1  0
  3 30  1  0
  3 31  1  0
  4 32  1  0
  4 33  1  0
  6 34  1  0
  7 35  1  0
  7 36  1  0
 10 37  1  0
 13 38  1  0
 14 39  1  0
 15 40  1  0
 19 41  1  0
 20 42  1  0
 20 43  1  0
 21 44  1  0
 21 45  1  0
 22 46  1  0
 22 47  1  0
 23 48  1  0
 23 49  1  0
 24 50  1  0
 24 51  1  0
M  END
>  <meeko>  (296) 
{"is_sidechain": false}

$$$$

     RDKit          3D

 51 54  0  0  0  0  0  0  0  0999 V2000
   13.1990    4.0600  -59.2410 C   0  0  0  0  0  0  0  0  0  0  0  0
   12.3150    5.2920  -59.3970 C   0  0  0  0  0  0  0  0  0  0  0  0
   13.1070    6.5390  -59.7750 C   0  0  0  0  0  0  0  0  0  0  0  0
   11.0140    5.0750  -60.1750 C   0  0  0  0  0  0  0  0  0  0  0  0
   10.4230    5.3740  -58.8000 C   0  0  0  0  0  0  0  0  0  0  0  0
    9.1560    5.4770  -58.3740 C   0  0  0  0  0  0  0  0  0  0  0  0
    7.9230    5.2720  -59.1960 C   0  0  0  0  0  0  0  0  0  0  0  0
    8.1270    4.2940  -60.2450 N   0  0  0  0  0  0  0  0  0  0  0  0
    7.4550    3.2200  -60.4010 C   0  0  0  0  0  0  0  0  0  0  0  0
    7.7160    2.5250  -61.5620 N   0  0  0  0  0  0  0  0  0  0  0  0
    6.7250    2.2740  -62.2900 N   0  0  0  0  0  0  0  0  0  0  0  0
    5.4490    2.3320  -61.7830 C   0  0  0  0  0  0  0  0  0  0  0  0
    4.3690    2.2340  -62.5860 C   0  0  0  0  0  0  0  0  0  0  0  0
    3.0410    2.0840  -62.0250 C   0  0  0  0  0  0  0  0  0  0  0  0
    2.9320    1.9120  -60.7000 C   0  0  0  0  0  0  0  0  0  0  0  0
    4.0270    1.9220  -59.8610 N   0  0  0  0  0  0  0  0  0  0  0  0
    5.2960    2.2930  -60.3040 C   0  0  0  0  0  0  0  0  0  0  0  0
    6.3860    2.5780  -59.5570 C   0  0  0  0  0  0  0  0  0  0  0  0
    6.6840    2.3910  -58.0790 C   0  0  0  0  0  0  0  0  0  0  0  0
    8.1610    1.9640  -57.9140 C   0  0  0  0  0  0  0  0  0  0  0  0
    8.5740    1.8370  -56.4500 C   0  0  0  0  0  0  0  0  0  0  0  0
    7.6620    0.8870  -55.6870 C   0  0  0  0  0  0  0  0  0  0  0  0
    6.2020    1.2990  -55.8240 C   0  0  0  0  0  0  0  0  0  0  0  0
    5.7860    1.4190  -57.2900 C   0  0  0  0  0  0  0  0  0  0  0  0
   11.5410    5.5230  -58.1860 O   0  0  0  0  0  0  0  0  0  0  0  0
   13.3498    3.8499  -58.1718 H   0  0  0  0  0  0  0  0  0  0  0  0
   12.7128    3.1969  -59.7193 H   0  0  0  0  0  0  0  0  0  0  0  0
   14.1723    4.2441  -59.7193 H   0  0  0  0  0  0  0  0  0  0  0  0
   13.4353    7.0559  -58.8612 H   0  0  0  0  0  0  0  0  0  0  0  0
   13.9867    6.2488  -60.3683 H   0  0  0  0  0  0  0  0  0  0  0  0
   12.4704    7.2119  -60.3683 H   0  0  0  0  0  0  0  0  0  0  0  0
   10.7953    5.8089  -60.9646 H   0  0  0  0  0  0  0  0  0  0  0  0
   10.7816    4.1891  -60.7843 H   0  0  0  0  0  0  0  0  0  0  0  0
    9.0085    5.7380  -57.3156 H   0  0  0  0  0  0  0  0  0  0  0  0
    7.1119    4.9245  -58.5392 H   0  0  0  0  0  0  0  0  0  0  0  0
    7.6673    6.2310  -59.6703 H   0  0  0  0  0  0  0  0  0  0  0  0
    4.4978    2.2683  -63.6779 H   0  0  0  0  0  0  0  0  0  0  0  0
    2.1487    2.1105  -62.6677 H   0  0  0  0  0  0  0  0  0  0  0  0
    1.9331    1.7573  -60.2660 H   0  0  0  0  0  0  0  0  0  0  0  0
    3.8180    2.0430  -58.8800 H   0  0  0  0  0  0  0  0  0  0  0  0
    6.4633    3.3731  -57.6355 H   0  0  0  0  0  0  0  0  0  0  0  0
    8.3037    0.9907  -58.4062 H   0  0  0  0  0  0  0  0  0  0  0  0
    8.7871    2.7446  -58.3708 H   0  0  0  0  0  0  0  0  0  0  0  0
    9.6049    1.4563  -56.4024 H   0  0  0  0  0  0  0  0  0  0  0  0
    8.4984    2.8312  -55.9854 H   0  0  0  0  0  0  0  0  0  0  0  0
    7.7872   -0.1300  -56.0871 H   0  0  0  0  0  0  0  0  0  0  0  0
    7.9357    0.9203  -54.6221 H   0  0  0  0  0  0  0  0  0  0  0  0
    5.5704    0.5431  -55.3345 H   0  0  0  0  0  0  0  0  0  0  0  0
    6.0764    2.2833  -55.3492 H   0  0  0  0  0  0  0  0  0  0  0  0
    5.8465    0.4247  -57.7567 H   0  0  0  0  0  0  0  0  0  0  0  0
    4.7602    1.8152  -57.3156 H   0  0  0  0  0  0  0  0  0  0  0  0
  1  2  1  0
  2  3  1  0
  2  4  1  0
  4  5  1  0
  5  6  2  0
  6  7  1  0
  7  8  1  0
  8  9  2  0
  9 10  1  0
 10 11  2  0
 11 12  1  0
 12 13  2  0
 13 14  1  0
 14 15  2  0
 15 16  1  0
 16 17  1  0
 17 18  2  0
 18 19  1  0
 19 20  1  0
 20 21  1  0
 21 22  1  0
 22 23  1  0
 23 24  1  0
  5 25  1  0
 25  2  1  0
 18  9  1  0
 24 19  1  0
 17 12  1  0
  1 26  1  0
  1 27  1  0
  1 28  1  0
  3 29  1  0
  3 30  1  0
  3 31  1  0
  4 32  1  0
  4 33  1  0
  6 34  1  0
  7 35  1  0
  7 36  1  0
 13 37  1  0
 14 38  1  0
 15 39  1  0
 16 40  1  0
 19 41  1  0
 20 42  1  0
 20 43  1  0
 21 44  1  0
 21 45  1  0
 22 46  1  0
 22 47  1  0
 23 48  1  0
 23 49  1  0
 24 50  1  0
 24 51  1  0
M  END
>  <meeko>  (297) 
{"is_sidechain": false}

$$$$

     RDKit          3D

 48 51  0  0  0  0  0  0  0  0999 V2000
    8.1200   -3.4330  -51.5000 C   0  0  0  0  0  0  0  0  0  0  0  0
    8.4120   -2.2480  -52.4190 C   0  0  2  0  0  0  0  0  0  0  0  0
    7.4210   -1.0980  -52.1470 C   0  0  0  0  0  0  0  0  0  0  0  0
    6.9030   -0.4440  -53.4250 C   0  0  0  0  0  0  0  0  0  0  0  0
    7.9910   -0.3370  -54.4560 C   0  0  0  0  0  0  0  0  0  0  0  0
    8.2540    0.8100  -55.1030 C   0  0  0  0  0  0  0  0  0  0  0  0
    9.3360    1.0120  -56.1190 C   0  0  0  0  0  0  0  0  0  0  0  0
    9.0810    2.2890  -56.7820 N   0  0  0  0  0  0  0  0  0  0  0  0
   10.1170    2.9870  -57.1230 C   0  0  0  0  0  0  0  0  0  0  0  0
   11.3960    2.5400  -56.8750 N   0  0  0  0  0  0  0  0  0  0  0  0
   12.3810    3.0220  -57.4700 N   0  0  0  0  0  0  0  0  0  0  0  0
   12.2910    4.0880  -58.3180 C   0  0  0  0  0  0  0  0  0  0  0  0
   13.3640    4.5190  -59.0130 C   0  0  0  0  0  0  0  0  0  0  0  0
   13.2840    5.6920  -59.8670 C   0  0  0  0  0  0  0  0  0  0  0  0
   12.1240    6.3640  -59.9160 C   0  0  0  0  0  0  0  0  0  0  0  0
   11.0260    5.9610  -59.1970 N   0  0  0  0  0  0  0  0  0  0  0  0
   11.0150    4.8040  -58.4140 C   0  0  0  0  0  0  0  0  0  0  0  0
    9.9260    4.3260  -57.7790 C   0  0  0  0  0  0  0  0  0  0  0  0
    8.5850    4.9580  -57.8120 C   0  0  0  0  0  0  0  0  0  0  0  0
    8.1480    5.6930  -59.0580 C   0  0  0  0  0  0  0  0  0  0  0  0
    7.5000    4.3920  -58.6990 C   0  0  0  0  0  0  0  0  0  0  0  0
    8.7500   -1.4640  -54.7080 O   0  0  0  0  0  0  0  0  0  0  0  0
    8.4160   -2.6180  -53.9160 C   0  0  1  0  0  0  0  0  0  0  0  0
    9.4480   -3.6870  -54.2630 C   0  0  0  0  0  0  0  0  0  0  0  0
    8.1992   -3.1117  -50.4510 H   0  0  0  0  0  0  0  0  0  0  0  0
    7.1032   -3.8054  -51.6937 H   0  0  0  0  0  0  0  0  0  0  0  0
    8.8473   -4.2352  -51.6937 H   0  0  0  0  0  0  0  0  0  0  0  0
    9.4336   -1.9162  -52.1819 H   0  0  0  0  0  0  0  0  0  0  0  0
    6.5640   -1.4988  -51.5859 H   0  0  0  0  0  0  0  0  0  0  0  0
    7.9597   -0.3267  -51.5770 H   0  0  0  0  0  0  0  0  0  0  0  0
    6.0808   -1.0511  -53.8317 H   0  0  0  0  0  0  0  0  0  0  0  0
    6.5509    0.5693  -53.1815 H   0  0  0  0  0  0  0  0  0  0  0  0
    7.6195    1.6768  -54.8662 H   0  0  0  0  0  0  0  0  0  0  0  0
   10.3176    1.0354  -55.6231 H   0  0  0  0  0  0  0  0  0  0  0  0
    9.3408    0.1896  -56.8495 H   0  0  0  0  0  0  0  0  0  0  0  0
   14.3156    3.9732  -58.9318 H   0  0  0  0  0  0  0  0  0  0  0  0
   14.1519    6.0203  -60.4578 H   0  0  0  0  0  0  0  0  0  0  0  0
   12.0506    7.2610  -60.5485 H   0  0  0  0  0  0  0  0  0  0  0  0
   10.1510    6.4560  -59.3270 H   0  0  0  0  0  0  0  0  0  0  0  0
    8.6641    5.2001  -56.7419 H   0  0  0  0  0  0  0  0  0  0  0  0
    7.5806    6.6314  -58.9715 H   0  0  0  0  0  0  0  0  0  0  0  0
    8.6618    6.0843  -59.9485 H   0  0  0  0  0  0  0  0  0  0  0  0
    6.4573    4.3760  -58.3490 H   0  0  0  0  0  0  0  0  0  0  0  0
    7.3420    3.4347  -59.2172 H   0  0  0  0  0  0  0  0  0  0  0  0
    7.4065   -2.9984  -54.1310 H   0  0  0  0  0  0  0  0  0  0  0  0
    9.8598   -4.1136  -53.3365 H   0  0  0  0  0  0  0  0  0  0  0  0
    8.9679   -4.4828  -54.8513 H   0  0  0  0  0  0  0  0  0  0  0  0
   10.2603   -3.2352  -54.8513 H   0  0  0  0  0  0  0  0  0  0  0  0
  1  2  1  0
  2  3  1  0
  3  4  1  0
  4  5  1  0
  5  6  2  0
  6  7  1  0
  7  8  1  0
  8  9  2  0
  9 10  1  0
 10 11  2  0
 11 12  1  0
 12 13  2  0
 13 14  1  0
 14 15  2  0
 15 16  1  0
 16 17  1  0
 17 18  2  0
 18 19  1  0
 19 20  1  0
 20 21  1  0
  5 22  1  0
 22 23  1  0
 23 24  1  0
 23  2  1  0
 18  9  1  0
 21 19  1  0
 17 12  1  0
  1 25  1  0
  1 26  1  0
  1 27  1  0
  2 28  1  1
  3 29  1  0
  3 30  1  0
  4 31  1  0
  4 32  1  0
  6 33  1  0
  7 34  1  0
  7 35  1  0
 13 36  1  0
 14 37  1  0
 15 38  1  0
 16 39  1  0
 19 40  1  0
 20 41  1  0
 20 42  1  0
 21 43  1  0
 21 44  1  0
 23 45  1  6
 24 46  1  0
 24 47  1  0
 24 48  1  0
M  END
>  <meeko>  (298) 
{"is_sidechain": false}

$$$$

     RDKit          3D

 48 51  0  0  0  0  0  0  0  0999 V2000
   12.0140    3.9540  -58.7780 C   0  0  0  0  0  0  0  0  0  0  0  0
   11.1600    3.5080  -57.5920 C   0  0  2  0  0  0  0  0  0  0  0  0
   11.1510    1.9740  -57.4990 C   0  0  0  0  0  0  0  0  0  0  0  0
   10.2480    1.5100  -56.3630 C   0  0  0  0  0  0  0  0  0  0  0  0
    8.9090    2.1910  -56.4350 C   0  0  0  0  0  0  0  0  0  0  0  0
    7.7440    1.5290  -56.3480 C   0  0  0  0  0  0  0  0  0  0  0  0
    6.3830    2.1510  -56.3670 C   0  0  0  0  0  0  0  0  0  0  0  0
    6.2860    3.0170  -57.5360 N   0  0  0  0  0  0  0  0  0  0  0  0
    5.4590    2.5820  -58.5940 C   0  0  0  0  0  0  0  0  0  0  0  0
    4.1620    2.2900  -58.3520 N   0  0  0  0  0  0  0  0  0  0  0  0
    3.3200    1.9510  -59.3630 N   0  0  0  0  0  0  0  0  0  0  0  0
    3.7640    1.9440  -60.6230 C   0  0  0  0  0  0  0  0  0  0  0  0
    2.8870    1.6350  -61.6540 C   0  0  0  0  0  0  0  0  0  0  0  0
    3.3100    1.6360  -62.9770 C   0  0  0  0  0  0  0  0  0  0  0  0
    4.6270    1.9540  -63.2230 C   0  0  0  0  0  0  0  0  0  0  0  0
    5.5090    2.2550  -62.2470 N   0  0  0  0  0  0  0  0  0  0  0  0
    5.0940    2.2480  -60.9530 C   0  0  0  0  0  0  0  0  0  0  0  0
    5.9810    2.5510  -59.9040 C   0  0  0  0  0  0  0  0  0  0  0  0
    7.4430    2.9070  -60.1810 C   0  0  0  0  0  0  0  0  0  0  0  0
    8.1350    2.4890  -61.4610 C   0  0  0  0  0  0  0  0  0  0  0  0
    8.5070    1.8250  -60.1770 C   0  0  0  0  0  0  0  0  0  0  0  0
    8.9390    3.5670  -56.5360 O   0  0  0  0  0  0  0  0  0  0  0  0
    9.7040    4.0130  -57.6730 C   0  0  1  0  0  0  0  0  0  0  0  0
    9.6060    5.5370  -57.6810 C   0  0  0  0  0  0  0  0  0  0  0  0
   12.9324    4.4337  -58.4087 H   0  0  0  0  0  0  0  0  0  0  0  0
   12.2779    3.0786  -59.3896 H   0  0  0  0  0  0  0  0  0  0  0  0
   11.4464    4.6708  -59.3896 H   0  0  0  0  0  0  0  0  0  0  0  0
   11.6162    3.9509  -56.6944 H   0  0  0  0  0  0  0  0  0  0  0  0
   10.7819    1.5567  -58.4475 H   0  0  0  0  0  0  0  0  0  0  0  0
   12.1755    1.6250  -57.3023 H   0  0  0  0  0  0  0  0  0  0  0  0
   10.1041    0.4220  -56.4378 H   0  0  0  0  0  0  0  0  0  0  0  0
   10.7243    1.7675  -55.4055 H   0  0  0  0  0  0  0  0  0  0  0  0
    7.7944    0.4341  -56.2546 H   0  0  0  0  0  0  0  0  0  0  0  0
    5.6163    1.3642  -56.4235 H   0  0  0  0  0  0  0  0  0  0  0  0
    6.2237    2.7370  -55.4498 H   0  0  0  0  0  0  0  0  0  0  0  0
    7.2040    3.2550  -57.8950 H   0  0  0  0  0  0  0  0  0  0  0  0
    1.8416    1.3857  -61.4196 H   0  0  0  0  0  0  0  0  0  0  0  0
    2.6190    1.3920  -63.7973 H   0  0  0  0  0  0  0  0  0  0  0  0
    4.9771    1.9631  -64.2657 H   0  0  0  0  0  0  0  0  0  0  0  0
    7.2842    3.8641  -59.6626 H   0  0  0  0  0  0  0  0  0  0  0  0
    7.5790    1.9286  -62.2271 H   0  0  0  0  0  0  0  0  0  0  0  0
    8.6916    3.0182  -62.2485 H   0  0  0  0  0  0  0  0  0  0  0  0
    8.2237    0.7772  -59.9987 H   0  0  0  0  0  0  0  0  0  0  0  0
    9.4484    1.6650  -59.6309 H   0  0  0  0  0  0  0  0  0  0  0  0
    9.3109    3.6056  -58.6161 H   0  0  0  0  0  0  0  0  0  0  0  0
    9.5821    5.9083  -56.6458 H   0  0  0  0  0  0  0  0  0  0  0  0
   10.4789    5.9578  -58.2015 H   0  0  0  0  0  0  0  0  0  0  0  0
    8.6864    5.8426  -58.2015 H   0  0  0  0  0  0  0  0  0  0  0  0
  1  2  1  0
  2  3  1  0
  3  4  1  0
  4  5  1  0
  5  6  2  0
  6  7  1  0
  7  8  1  0
  8  9  1  0
  9 10  1  0
 10 11  2  0
 11 12  1  0
 12 13  2  0
 13 14  1  0
 14 15  2  0
 15 16  1  0
 16 17  2  0
 17 18  1  0
 18 19  1  0
 19 20  1  0
 20 21  1  0
  5 22  1  0
 22 23  1  0
 23 24  1  0
 23  2  1  0
 18  9  2  0
 21 19  1  0
 17 12  1  0
  1 25  1  0
  1 26  1  0
  1 27  1  0
  2 28  1  1
  3 29  1  0
  3 30  1  0
  4 31  1  0
  4 32  1  0
  6 33  1  0
  7 34  1  0
  7 35  1  0
  8 36  1  0
 13 37  1  0
 14 38  1  0
 15 39  1  0
 19 40  1  0
 20 41  1  0
 20 42  1  0
 21 43  1  0
 21 44  1  0
 23 45  1  6
 24 46  1  0
 24 47  1  0
 24 48  1  0
M  END
>  <meeko>  (299) 
{"is_sidechain": false}

$$$$

     RDKit          3D

 48 51  0  0  0  0  0  0  0  0999 V2000
    8.4840    2.2910  -60.9650 C   0  0  0  0  0  0  0  0  0  0  0  0
    8.8670    3.7120  -60.5260 C   0  0  2  0  0  0  0  0  0  0  0  0
   10.3710    3.7820  -60.2320 C   0  0  0  0  0  0  0  0  0  0  0  0
   10.7110    3.6830  -58.7460 C   0  0  0  0  0  0  0  0  0  0  0  0
    9.6340    3.0320  -57.9250 C   0  0  0  0  0  0  0  0  0  0  0  0
    9.9060    2.0650  -57.0340 C   0  0  0  0  0  0  0  0  0  0  0  0
    8.9110    1.3950  -56.1410 C   0  0  0  0  0  0  0  0  0  0  0  0
    9.5130    0.2290  -55.5130 N   0  0  0  0  0  0  0  0  0  0  0  0
    8.9700   -0.2980  -54.4590 C   0  0  0  0  0  0  0  0  0  0  0  0
    7.7940    0.1310  -53.8730 N   0  0  0  0  0  0  0  0  0  0  0  0
    7.2260   -0.3710  -52.7490 N   0  0  0  0  0  0  0  0  0  0  0  0
    7.8900   -1.3350  -52.1890 C   0  0  0  0  0  0  0  0  0  0  0  0
    7.3390   -1.9160  -50.9430 C   0  0  0  0  0  0  0  0  0  0  0  0
    7.9770   -2.9040  -50.3150 C   0  0  0  0  0  0  0  0  0  0  0  0
    9.2360   -3.3850  -50.9010 C   0  0  0  0  0  0  0  0  0  0  0  0
    9.8010   -2.9620  -51.9800 N   0  0  0  0  0  0  0  0  0  0  0  0
    9.1800   -1.9450  -52.6820 C   0  0  0  0  0  0  0  0  0  0  0  0
    9.7080   -1.4730  -53.8360 C   0  0  0  0  0  0  0  0  0  0  0  0
   10.9640   -1.9800  -54.4480 C   0  0  0  0  0  0  0  0  0  0  0  0
   10.9000   -2.7710  -55.7350 C   0  0  0  0  0  0  0  0  0  0  0  0
   11.2680   -3.4610  -54.4600 C   0  0  0  0  0  0  0  0  0  0  0  0
    8.3250    3.4380  -58.1110 O   0  0  0  0  0  0  0  0  0  0  0  0
    8.0280    4.1620  -59.3170 C   0  0  1  0  0  0  0  0  0  0  0  0
    8.1010    5.6650  -59.0470 C   0  0  0  0  0  0  0  0  0  0  0  0
    8.3154    1.6655  -60.0760 H   0  0  0  0  0  0  0  0  0  0  0  0
    7.5639    2.3286  -61.5667 H   0  0  0  0  0  0  0  0  0  0  0  0
    9.2983    1.8611  -61.5667 H   0  0  0  0  0  0  0  0  0  0  0  0
    8.6463    4.4096  -61.3474 H   0  0  0  0  0  0  0  0  0  0  0  0
   10.8667    2.9526  -60.7578 H   0  0  0  0  0  0  0  0  0  0  0  0
   10.7208    4.7661  -60.5771 H   0  0  0  0  0  0  0  0  0  0  0  0
   11.6339    3.0942  -58.6388 H   0  0  0  0  0  0  0  0  0  0  0  0
   10.8251    4.7111  -58.3718 H   0  0  0  0  0  0  0  0  0  0  0  0
   10.9528    1.7368  -56.9539 H   0  0  0  0  0  0  0  0  0  0  0  0
    8.5863    2.1012  -55.3627 H   0  0  0  0  0  0  0  0  0  0  0  0
    8.0451    1.0763  -56.7398 H   0  0  0  0  0  0  0  0  0  0  0  0
    7.2360    0.8010  -54.4030 H   0  0  0  0  0  0  0  0  0  0  0  0
    6.3949   -1.5289  -50.5321 H   0  0  0  0  0  0  0  0  0  0  0  0
    7.5750   -3.3438  -49.3904 H   0  0  0  0  0  0  0  0  0  0  0  0
    9.7517   -4.1927  -50.3610 H   0  0  0  0  0  0  0  0  0  0  0  0
   11.4951   -1.0811  -54.1018 H   0  0  0  0  0  0  0  0  0  0  0  0
    9.9274   -2.9728  -56.2076 H   0  0  0  0  0  0  0  0  0  0  0  0
   11.3643   -2.6762  -56.7277 H   0  0  0  0  0  0  0  0  0  0  0  0
   10.5656   -4.1694  -53.9966 H   0  0  0  0  0  0  0  0  0  0  0  0
   12.1140   -4.0819  -54.1302 H   0  0  0  0  0  0  0  0  0  0  0  0
    6.9966    3.9206  -59.6135 H   0  0  0  0  0  0  0  0  0  0  0  0
    8.1096    5.8425  -57.9615 H   0  0  0  0  0  0  0  0  0  0  0  0
    9.0200    6.0734  -59.4926 H   0  0  0  0  0  0  0  0  0  0  0  0
    7.2259    6.1605  -59.4926 H   0  0  0  0  0  0  0  0  0  0  0  0
  1  2  1  0
  2  3  1  0
  3  4  1  0
  4  5  1  0
  5  6  2  0
  6  7  1  0
  7  8  1  0
  8  9  2  0
  9 10  1  0
 10 11  1  0
 11 12  2  0
 12 13  1  0
 13 14  2  0
 14 15  1  0
 15 16  2  0
 16 17  1  0
 17 18  2  0
 18 19  1  0
 19 20  1  0
 20 21  1  0
  5 22  1  0
 22 23  1  0
 23 24  1  0
 23  2  1  0
 18  9  1  0
 21 19  1  0
 17 12  1  0
  1 25  1  0
  1 26  1  0
  1 27  1  0
  2 28  1  6
  3 29  1  0
  3 30  1  0
  4 31  1  0
  4 32  1  0
  6 33  1  0
  7 34  1  0
  7 35  1  0
 10 36  1  0
 13 37  1  0
 14 38  1  0
 15 39  1  0
 19 40  1  0
 20 41  1  0
 20 42  1  0
 21 43  1  0
 21 44  1  0
 23 45  1  6
 24 46  1  0
 24 47  1  0
 24 48  1  0
M  END
>  <meeko>  (300) 
{"is_sidechain": false}

$$$$

     RDKit          3D

 48 51  0  0  0  0  0  0  0  0999 V2000
   10.7930    5.2160  -60.1240 C   0  0  0  0  0  0  0  0  0  0  0  0
    9.8090    4.5280  -59.1790 C   0  0  2  0  0  0  0  0  0  0  0  0
    9.8590    5.1930  -57.7940 C   0  0  0  0  0  0  0  0  0  0  0  0
    8.9350    4.4760  -56.8180 C   0  0  0  0  0  0  0  0  0  0  0  0
    9.1640    2.9920  -56.8640 C   0  0  0  0  0  0  0  0  0  0  0  0
    9.3400    2.2380  -55.7690 C   0  0  0  0  0  0  0  0  0  0  0  0
    9.5280    0.7530  -55.7670 C   0  0  0  0  0  0  0  0  0  0  0  0
    8.2910    0.1190  -55.3570 N   0  0  0  0  0  0  0  0  0  0  0  0
    8.1720   -0.8330  -54.4940 C   0  0  0  0  0  0  0  0  0  0  0  0
    6.8560   -1.1020  -54.1670 N   0  0  0  0  0  0  0  0  0  0  0  0
    6.4400   -1.5690  -52.9610 N   0  0  0  0  0  0  0  0  0  0  0  0
    7.3890   -2.0690  -52.2300 C   0  0  0  0  0  0  0  0  0  0  0  0
    7.0310   -2.5940  -50.8920 C   0  0  0  0  0  0  0  0  0  0  0  0
    7.9470   -3.1970  -50.1340 C   0  0  0  0  0  0  0  0  0  0  0  0
    9.3050   -3.3290  -50.6810 C   0  0  0  0  0  0  0  0  0  0  0  0
    9.7350   -2.8800  -51.8110 N   0  0  0  0  0  0  0  0  0  0  0  0
    8.8440   -2.1910  -52.6160 C   0  0  0  0  0  0  0  0  0  0  0  0
    9.2490   -1.6410  -53.7900 C   0  0  0  0  0  0  0  0  0  0  0  0
   10.6120   -1.8450  -54.3390 C   0  0  0  0  0  0  0  0  0  0  0  0
   10.7860   -2.4460  -55.7140 C   0  0  0  0  0  0  0  0  0  0  0  0
   11.1320   -3.2590  -54.5100 C   0  0  0  0  0  0  0  0  0  0  0  0
    9.1270    2.4180  -58.1200 O   0  0  0  0  0  0  0  0  0  0  0  0
   10.0790    3.0170  -59.0200 C   0  0  1  0  0  0  0  0  0  0  0  0
    9.9620    2.2520  -60.3350 C   0  0  0  0  0  0  0  0  0  0  0  0
   11.5548    5.7486  -59.5358 H   0  0  0  0  0  0  0  0  0  0  0  0
   11.2810    4.4613  -60.7583 H   0  0  0  0  0  0  0  0  0  0  0  0
   10.2516    5.9334  -60.7583 H   0  0  0  0  0  0  0  0  0  0  0  0
    8.8122    4.6407  -59.6303 H   0  0  0  0  0  0  0  0  0  0  0  0
   10.8895    5.1528  -57.4113 H   0  0  0  0  0  0  0  0  0  0  0  0
    9.5281    6.2375  -57.8914 H   0  0  0  0  0  0  0  0  0  0  0  0
    9.1327    4.8406  -55.7992 H   0  0  0  0  0  0  0  0  0  0  0  0
    7.8923    4.6823  -57.1011 H   0  0  0  0  0  0  0  0  0  0  0  0
    9.3467    2.7511  -54.7960 H   0  0  0  0  0  0  0  0  0  0  0  0
    9.7979    0.4145  -56.7782 H   0  0  0  0  0  0  0  0  0  0  0  0
   10.3327    0.4823  -55.0676 H   0  0  0  0  0  0  0  0  0  0  0  0
    6.2100   -0.4820  -54.6530 H   0  0  0  0  0  0  0  0  0  0  0  0
    6.0012   -2.4855  -50.5209 H   0  0  0  0  0  0  0  0  0  0  0  0
    7.6955   -3.5821  -49.1348 H   0  0  0  0  0  0  0  0  0  0  0  0
   10.0337   -3.8695  -50.0590 H   0  0  0  0  0  0  0  0  0  0  0  0
   10.9649   -0.9311  -53.8388 H   0  0  0  0  0  0  0  0  0  0  0  0
    9.9019   -2.7051  -56.3150 H   0  0  0  0  0  0  0  0  0  0  0  0
   11.3222   -2.1478  -56.6270 H   0  0  0  0  0  0  0  0  0  0  0  0
   10.5017   -4.1143  -54.2250 H   0  0  0  0  0  0  0  0  0  0  0  0
   12.0258   -3.8037  -54.1717 H   0  0  0  0  0  0  0  0  0  0  0  0
   11.1077    2.9471  -58.6366 H   0  0  0  0  0  0  0  0  0  0  0  0
    9.7988    1.1846  -60.1250 H   0  0  0  0  0  0  0  0  0  0  0  0
    9.1136    2.6457  -60.9140 H   0  0  0  0  0  0  0  0  0  0  0  0
   10.8893    2.3741  -60.9140 H   0  0  0  0  0  0  0  0  0  0  0  0
  1  2  1  0
  2  3  1  0
  3  4  1  0
  4  5  1  0
  5  6  2  0
  6  7  1  0
  7  8  1  0
  8  9  2  0
  9 10  1  0
 10 11  1  0
 11 12  2  0
 12 13  1  0
 13 14  2  0
 14 15  1  0
 15 16  2  0
 16 17  1  0
 17 18  2  0
 18 19  1  0
 19 20  1  0
 20 21  1  0
  5 22  1  0
 22 23  1  0
 23 24  1  0
 23  2  1  0
 18  9  1  0
 21 19  1  0
 17 12  1  0
  1 25  1  0
  1 26  1  0
  1 27  1  0
  2 28  1  6
  3 29  1  0
  3 30  1  0
  4 31  1  0
  4 32  1  0
  6 33  1  0
  7 34  1  0
  7 35  1  0
 10 36  1  0
 13 37  1  0
 14 38  1  0
 15 39  1  0
 19 40  1  0
 20 41  1  0
 20 42  1  0
 21 43  1  0
 21 44  1  0
 23 45  1  1
 24 46  1  0
 24 47  1  0
 24 48  1  0
M  END
>  <meeko>  (301) 
{"is_sidechain": false}

$$$$

     RDKit          3D

 48 51  0  0  0  0  0  0  0  0999 V2000
    9.6430   -3.1670  -51.5470 C   0  0  0  0  0  0  0  0  0  0  0  0
    8.9210   -2.1860  -52.4690 C   0  0  2  0  0  0  0  0  0  0  0  0
    7.7330   -1.5310  -51.7330 C   0  0  0  0  0  0  0  0  0  0  0  0
    6.4920   -1.3950  -52.6110 C   0  0  0  0  0  0  0  0  0  0  0  0
    6.8650   -1.0530  -54.0260 C   0  0  0  0  0  0  0  0  0  0  0  0
    6.3000   -0.0330  -54.6900 C   0  0  0  0  0  0  0  0  0  0  0  0
    6.6420    0.3940  -56.0850 C   0  0  0  0  0  0  0  0  0  0  0  0
    7.4260    1.6110  -55.9900 N   0  0  0  0  0  0  0  0  0  0  0  0
    7.5590    2.3930  -57.0000 C   0  0  0  0  0  0  0  0  0  0  0  0
    8.4120    3.4600  -56.8010 N   0  0  0  0  0  0  0  0  0  0  0  0
    9.2000    3.7810  -57.7210 N   0  0  0  0  0  0  0  0  0  0  0  0
    9.0290    3.3350  -59.0040 C   0  0  0  0  0  0  0  0  0  0  0  0
    9.9390    3.5790  -59.9690 C   0  0  0  0  0  0  0  0  0  0  0  0
    9.6620    3.2450  -61.3560 C   0  0  0  0  0  0  0  0  0  0  0  0
    8.4420    2.7810  -61.6690 C   0  0  0  0  0  0  0  0  0  0  0  0
    7.4740    2.5810  -60.7100 N   0  0  0  0  0  0  0  0  0  0  0  0
    7.7370    2.7200  -59.3470 C   0  0  0  0  0  0  0  0  0  0  0  0
    6.9030    2.3350  -58.3570 C   0  0  0  0  0  0  0  0  0  0  0  0
    5.5430    1.7950  -58.5780 C   0  0  0  0  0  0  0  0  0  0  0  0
    4.3930    2.3290  -57.7590 C   0  0  0  0  0  0  0  0  0  0  0  0
    4.4930    2.6810  -59.2100 C   0  0  0  0  0  0  0  0  0  0  0  0
    7.8460   -1.8170  -54.6340 O   0  0  0  0  0  0  0  0  0  0  0  0
    8.4510   -2.8180  -53.7950 C   0  0  1  0  0  0  0  0  0  0  0  0
    9.5950   -3.4190  -54.6070 C   0  0  0  0  0  0  0  0  0  0  0  0
    9.4453   -2.8983  -50.4988 H   0  0  0  0  0  0  0  0  0  0  0  0
    9.2785   -4.1869  -51.7392 H   0  0  0  0  0  0  0  0  0  0  0  0
   10.7252   -3.1221  -51.7392 H   0  0  0  0  0  0  0  0  0  0  0  0
    9.6590   -1.4165  -52.7396 H   0  0  0  0  0  0  0  0  0  0  0  0
    7.4784   -2.1482  -50.8588 H   0  0  0  0  0  0  0  0  0  0  0  0
    8.0439   -0.5168  -51.4418 H   0  0  0  0  0  0  0  0  0  0  0  0
    5.9414   -2.3473  -52.6048 H   0  0  0  0  0  0  0  0  0  0  0  0
    5.8668   -0.5842  -52.2089 H   0  0  0  0  0  0  0  0  0  0  0  0
    5.5196    0.5381  -54.1658 H   0  0  0  0  0  0  0  0  0  0  0  0
    7.2275   -0.3916  -56.5851 H   0  0  0  0  0  0  0  0  0  0  0  0
    5.7278    0.5675  -56.6716 H   0  0  0  0  0  0  0  0  0  0  0  0
   10.9032    4.0367  -59.7029 H   0  0  0  0  0  0  0  0  0  0  0  0
   10.4333    3.3694  -62.1304 H   0  0  0  0  0  0  0  0  0  0  0  0
    8.2091    2.5544  -62.7199 H   0  0  0  0  0  0  0  0  0  0  0  0
    6.6240    2.1010  -60.9810 H   0  0  0  0  0  0  0  0  0  0  0  0
    5.9542    0.7965  -58.7877 H   0  0  0  0  0  0  0  0  0  0  0  0
    3.6024    1.6470  -57.4129 H   0  0  0  0  0  0  0  0  0  0  0  0
    4.3073    2.9046  -56.8256 H   0  0  0  0  0  0  0  0  0  0  0  0
    3.7765    2.2568  -59.9289 H   0  0  0  0  0  0  0  0  0  0  0  0
    4.5116    3.6206  -59.7816 H   0  0  0  0  0  0  0  0  0  0  0  0
    7.7440   -3.6113  -53.5105 H   0  0  0  0  0  0  0  0  0  0  0  0
   10.3583   -3.8200  -53.9240 H   0  0  0  0  0  0  0  0  0  0  0  0
    9.2079   -4.2302  -55.2411 H   0  0  0  0  0  0  0  0  0  0  0  0
   10.0433   -2.6400  -55.2411 H   0  0  0  0  0  0  0  0  0  0  0  0
  1  2  1  0
  2  3  1  0
  3  4  1  0
  4  5  1  0
  5  6  2  0
  6  7  1  0
  7  8  1  0
  8  9  2  0
  9 10  1  0
 10 11  2  0
 11 12  1  0
 12 13  2  0
 13 14  1  0
 14 15  2  0
 15 16  1  0
 16 17  1  0
 17 18  2  0
 18 19  1  0
 19 20  1  0
 20 21  1  0
  5 22  1  0
 22 23  1  0
 23 24  1  0
 23  2  1  0
 18  9  1  0
 21 19  1  0
 17 12  1  0
  1 25  1  0
  1 26  1  0
  1 27  1  0
  2 28  1  6
  3 29  1  0
  3 30  1  0
  4 31  1  0
  4 32  1  0
  6 33  1  0
  7 34  1  0
  7 35  1  0
 13 36  1  0
 14 37  1  0
 15 38  1  0
 16 39  1  0
 19 40  1  0
 20 41  1  0
 20 42  1  0
 21 43  1  0
 21 44  1  0
 23 45  1  1
 24 46  1  0
 24 47  1  0
 24 48  1  0
M  END
>  <meeko>  (302) 
{"is_sidechain": false}

$$$$

     RDKit          3D

 60 63  0  0  0  0  0  0  0  0999 V2000
    7.6460    1.5350  -56.7010 C   0  0  0  0  0  0  0  0  0  0  0  0
    8.0980    1.0650  -55.3130 C   0  0  0  0  0  0  0  0  0  0  0  0
    6.9550    0.3900  -54.5510 C   0  0  0  0  0  0  0  0  0  0  0  0
    9.3530    0.2070  -55.3500 C   0  0  0  0  0  0  0  0  0  0  0  0
    9.5710   -0.9510  -54.6990 C   0  0  0  0  0  0  0  0  0  0  0  0
    8.6870   -1.5680  -53.8200 N   0  0  0  0  0  0  0  0  0  0  0  0
    8.9980   -2.7000  -53.0870 C   0  0  0  0  0  0  0  0  0  0  0  0
    8.0040   -3.1930  -52.1210 C   0  0  0  0  0  0  0  0  0  0  0  0
    8.1100   -2.8500  -50.7640 C   0  0  0  0  0  0  0  0  0  0  0  0
    7.1660   -3.3040  -49.8390 C   0  0  0  0  0  0  0  0  0  0  0  0
    6.1070   -4.1020  -50.2660 C   0  0  0  0  0  0  0  0  0  0  0  0
    6.0020   -4.4400  -51.6100 C   0  0  0  0  0  0  0  0  0  0  0  0
    4.9810   -5.2050  -52.0180 F   0  0  0  0  0  0  0  0  0  0  0  0
    6.9350   -3.9930  -52.5400 C   0  0  0  0  0  0  0  0  0  0  0  0
   10.1880   -3.3100  -53.2380 C   0  0  0  0  0  0  0  0  0  0  0  0
   11.1290   -2.7690  -54.2020 C   0  0  0  0  0  0  0  0  0  0  0  0
   10.8500   -1.6490  -54.9010 C   0  0  0  0  0  0  0  0  0  0  0  0
   11.7030   -1.1900  -55.8600 N   0  0  0  0  0  0  0  0  0  0  0  0
   11.5240   -0.1210  -56.4770 N   0  0  0  0  0  0  0  0  0  0  0  0
   10.5150    0.7460  -56.1310 C   0  0  0  0  0  0  0  0  0  0  0  0
   10.5390    1.9920  -56.4770 N   0  0  0  0  0  0  0  0  0  0  0  0
   11.6860    2.4790  -57.2400 C   0  0  0  0  0  0  0  0  0  0  0  0
   11.2970    3.7420  -57.9460 C   0  0  0  0  0  0  0  0  0  0  0  0
   10.3670    3.8380  -58.9080 C   0  0  0  0  0  0  0  0  0  0  0  0
   10.0230    5.1470  -59.5730 C   0  0  0  0  0  0  0  0  0  0  0  0
    8.5110    5.2810  -59.8010 C   0  0  2  0  0  0  0  0  0  0  0  0
    7.7830    5.6480  -58.5030 C   0  0  0  0  0  0  0  0  0  0  0  0
    7.9190    3.9970  -60.4170 C   0  0  0  0  0  0  0  0  0  0  0  0
    8.9620    2.8800  -60.5390 C   0  0  2  0  0  0  0  0  0  0  0  0
    8.3050    1.5490  -60.8850 C   0  0  0  0  0  0  0  0  0  0  0  0
    9.6560    2.7160  -59.2980 O   0  0  0  0  0  0  0  0  0  0  0  0
    6.8873    2.3239  -56.5919 H   0  0  0  0  0  0  0  0  0  0  0  0
    8.5106    1.9317  -57.2534 H   0  0  0  0  0  0  0  0  0  0  0  0
    7.2159    0.6865  -57.2534 H   0  0  0  0  0  0  0  0  0  0  0  0
    8.3781    1.9700  -54.7540 H   0  0  0  0  0  0  0  0  0  0  0  0
    7.1258    0.4908  -53.4690 H   0  0  0  0  0  0  0  0  0  0  0  0
    6.0022    0.8704  -54.8182 H   0  0  0  0  0  0  0  0  0  0  0  0
    6.9156   -0.6763  -54.8182 H   0  0  0  0  0  0  0  0  0  0  0  0
    7.8020   -1.1230  -53.6210 H   0  0  0  0  0  0  0  0  0  0  0  0
    8.9441   -2.2178  -50.4255 H   0  0  0  0  0  0  0  0  0  0  0  0
    7.2588   -3.0321  -48.7772 H   0  0  0  0  0  0  0  0  0  0  0  0
    5.3590   -4.4622  -49.5444 H   0  0  0  0  0  0  0  0  0  0  0  0
    6.8329   -4.2672  -53.6004 H   0  0  0  0  0  0  0  0  0  0  0  0
   10.4423   -4.1999  -52.6435 H   0  0  0  0  0  0  0  0  0  0  0  0
   12.0881   -3.2821  -54.3658 H   0  0  0  0  0  0  0  0  0  0  0  0
   12.5249    2.6805  -56.5577 H   0  0  0  0  0  0  0  0  0  0  0  0
   11.9946    1.7207  -57.9747 H   0  0  0  0  0  0  0  0  0  0  0  0
   11.8164    4.6659  -57.6515 H   0  0  0  0  0  0  0  0  0  0  0  0
   10.3626    5.9739  -58.9319 H   0  0  0  0  0  0  0  0  0  0  0  0
   10.5242    5.1795  -60.5517 H   0  0  0  0  0  0  0  0  0  0  0  0
    8.3589    6.1005  -60.5188 H   0  0  0  0  0  0  0  0  0  0  0  0
    8.3931    5.3405  -57.6409 H   0  0  0  0  0  0  0  0  0  0  0  0
    7.6210    6.7355  -58.4683 H   0  0  0  0  0  0  0  0  0  0  0  0
    6.8124    5.1315  -58.4683 H   0  0  0  0  0  0  0  0  0  0  0  0
    7.0955    3.6447  -59.7785 H   0  0  0  0  0  0  0  0  0  0  0  0
    7.5642    4.2403  -61.4294 H   0  0  0  0  0  0  0  0  0  0  0  0
    9.6590    3.1685  -61.3396 H   0  0  0  0  0  0  0  0  0  0  0  0
    8.0427    1.0177  -59.9582 H   0  0  0  0  0  0  0  0  0  0  0  0
    7.3937    1.7319  -61.4732 H   0  0  0  0  0  0  0  0  0  0  0  0
    9.0044    0.9368  -61.4732 H   0  0  0  0  0  0  0  0  0  0  0  0
  1  2  1  0
  2  3  1  0
  2  4  1  0
  4  5  2  0
  5  6  1  0
  6  7  1  0
  7  8  1  0
  8  9  2  0
  9 10  1  0
 10 11  2  0
 11 12  1  0
 12 13  1  0
 12 14  2  0
  7 15  2  0
 15 16  1  0
 16 17  2  0
 17 18  1  0
 18 19  2  0
 19 20  1  0
 20 21  2  0
 21 22  1  0
 22 23  1  0
 23 24  2  0
 24 25  1  0
 25 26  1  0
 26 27  1  0
 26 28  1  0
 28 29  1  0
 29 30  1  0
 29 31  1  0
 20  4  1  0
 31 24  1  0
 17  5  1  0
 14  8  1  0
  1 32  1  0
  1 33  1  0
  1 34  1  0
  2 35  1  0
  3 36  1  0
  3 37  1  0
  3 38  1  0
  6 39  1  0
  9 40  1  0
 10 41  1  0
 11 42  1  0
 14 43  1  0
 15 44  1  0
 16 45  1  0
 22 46  1  0
 22 47  1  0
 23 48  1  0
 25 49  1  0
 25 50  1  0
 26 51  1  6
 27 52  1  0
 27 53  1  0
 27 54  1  0
 28 55  1  0
 28 56  1  0
 29 57  1  6
 30 58  1  0
 30 59  1  0
 30 60  1  0
M  END
>  <meeko>  (303) 
{"is_sidechain": false}

$$$$

     RDKit          3D

 60 63  0  0  0  0  0  0  0  0999 V2000
    9.5820    3.7100  -55.9890 C   0  0  0  0  0  0  0  0  0  0  0  0
    8.7730    2.4100  -56.0140 C   0  0  0  0  0  0  0  0  0  0  0  0
    9.6620    1.1890  -55.7460 C   0  0  0  0  0  0  0  0  0  0  0  0
    7.9300    2.2930  -57.2870 C   0  0  0  0  0  0  0  0  0  0  0  0
    6.6620    1.6880  -57.2480 C   0  0  0  0  0  0  0  0  0  0  0  0
    6.1410    1.2300  -56.0190 N   0  0  0  0  0  0  0  0  0  0  0  0
    6.3560   -0.1800  -55.7000 C   0  0  0  0  0  0  0  0  0  0  0  0
    6.4160   -0.3410  -54.2130 C   0  0  0  0  0  0  0  0  0  0  0  0
    7.3660   -1.0240  -53.5550 C   0  0  0  0  0  0  0  0  0  0  0  0
    7.4370   -1.0960  -52.0520 C   0  0  0  0  0  0  0  0  0  0  0  0
    7.6280   -2.5410  -51.5810 C   0  0  2  0  0  0  0  0  0  0  0  0
    7.8910   -2.5990  -50.0780 C   0  0  0  0  0  0  0  0  0  0  0  0
    8.7730   -3.1890  -52.3690 C   0  0  0  0  0  0  0  0  0  0  0  0
    8.5150   -3.0370  -53.8720 C   0  0  2  0  0  0  0  0  0  0  0  0
    9.6660   -3.6200  -54.6810 C   0  0  0  0  0  0  0  0  0  0  0  0
    8.3840   -1.6570  -54.2450 O   0  0  0  0  0  0  0  0  0  0  0  0
    5.9430    1.5390  -58.3790 N   0  0  0  0  0  0  0  0  0  0  0  0
    6.4040    1.9950  -59.5750 N   0  0  0  0  0  0  0  0  0  0  0  0
    7.5900    2.6020  -59.6420 C   0  0  0  0  0  0  0  0  0  0  0  0
    8.0460    3.0760  -60.8600 C   0  0  0  0  0  0  0  0  0  0  0  0
    9.2790    3.7130  -60.9640 C   0  0  0  0  0  0  0  0  0  0  0  0
   10.0450    3.8670  -59.8200 C   0  0  0  0  0  0  0  0  0  0  0  0
   11.3720    4.5190  -59.8110 C   0  0  0  0  0  0  0  0  0  0  0  0
   12.5310    3.7890  -59.4730 C   0  0  0  0  0  0  0  0  0  0  0  0
   13.7980    4.3830  -59.4570 C   0  0  0  0  0  0  0  0  0  0  0  0
   13.9360    5.7270  -59.7850 C   0  0  0  0  0  0  0  0  0  0  0  0
   12.8070    6.4590  -60.1280 C   0  0  0  0  0  0  0  0  0  0  0  0
   12.9350    7.7520  -60.4530 F   0  0  0  0  0  0  0  0  0  0  0  0
   11.5420    5.8730  -60.1460 C   0  0  0  0  0  0  0  0  0  0  0  0
    9.6010    3.4180  -58.6190 N   0  0  0  0  0  0  0  0  0  0  0  0
    8.4050    2.7840  -58.5160 C   0  0  0  0  0  0  0  0  0  0  0  0
    9.7668    4.0069  -54.9461 H   0  0  0  0  0  0  0  0  0  0  0  0
   10.5427    3.5539  -56.5015 H   0  0  0  0  0  0  0  0  0  0  0  0
    9.0176    4.5030  -56.5015 H   0  0  0  0  0  0  0  0  0  0  0  0
    8.0511    2.4404  -55.1846 H   0  0  0  0  0  0  0  0  0  0  0  0
    9.7678    1.0436  -54.6608 H   0  0  0  0  0  0  0  0  0  0  0  0
    9.2017    0.2952  -56.1925 H   0  0  0  0  0  0  0  0  0  0  0  0
   10.6539    1.3525  -56.1925 H   0  0  0  0  0  0  0  0  0  0  0  0
    5.1480    1.4480  -56.0050 H   0  0  0  0  0  0  0  0  0  0  0  0
    5.5262   -0.7796  -56.1024 H   0  0  0  0  0  0  0  0  0  0  0  0
    7.3003   -0.5221  -56.1487 H   0  0  0  0  0  0  0  0  0  0  0  0
    5.6241    0.1350  -53.6161 H   0  0  0  0  0  0  0  0  0  0  0  0
    8.2847   -0.4884  -51.7022 H   0  0  0  0  0  0  0  0  0  0  0  0
    6.4925   -0.7138  -51.6374 H   0  0  0  0  0  0  0  0  0  0  0  0
    6.7022   -3.1038  -51.7710 H   0  0  0  0  0  0  0  0  0  0  0  0
    6.9573   -2.3931  -49.5342 H   0  0  0  0  0  0  0  0  0  0  0  0
    8.2592   -3.5999  -49.8085 H   0  0  0  0  0  0  0  0  0  0  0  0
    8.6460   -1.8458  -49.8085 H   0  0  0  0  0  0  0  0  0  0  0  0
    9.7212   -2.6958  -52.1088 H   0  0  0  0  0  0  0  0  0  0  0  0
    8.8314   -4.2577  -52.1152 H   0  0  0  0  0  0  0  0  0  0  0  0
    7.5796   -3.5753  -54.0850 H   0  0  0  0  0  0  0  0  0  0  0  0
   10.4346   -4.0093  -53.9971 H   0  0  0  0  0  0  0  0  0  0  0  0
    9.2916   -4.4371  -55.3151 H   0  0  0  0  0  0  0  0  0  0  0  0
   10.1032   -2.8347  -55.3151 H   0  0  0  0  0  0  0  0  0  0  0  0
    7.4248    2.9473  -61.7587 H   0  0  0  0  0  0  0  0  0  0  0  0
    9.6379    4.0865  -61.9344 H   0  0  0  0  0  0  0  0  0  0  0  0
   12.4362    2.7239  -59.2150 H   0  0  0  0  0  0  0  0  0  0  0  0
   14.6825    3.7880  -59.1856 H   0  0  0  0  0  0  0  0  0  0  0  0
   14.9269    6.2044  -59.7729 H   0  0  0  0  0  0  0  0  0  0  0  0
   10.6668    6.4777  -60.4257 H   0  0  0  0  0  0  0  0  0  0  0  0
  1  2  1  0
  2  3  1  0
  2  4  1  0
  4  5  2  0
  5  6  1  0
  6  7  1  0
  7  8  1  0
  8  9  2  0
  9 10  1  0
 10 11  1  0
 11 12  1  0
 11 13  1  0
 13 14  1  0
 14 15  1  0
 14 16  1  0
  5 17  1  0
 17 18  2  0
 18 19  1  0
 19 20  2  0
 20 21  1  0
 21 22  2  0
 22 23  1  0
 23 24  2  0
 24 25  1  0
 25 26  2  0
 26 27  1  0
 27 28  1  0
 27 29  2  0
 22 30  1  0
 30 31  2  0
 31  4  1  0
 16  9  1  0
 31 19  1  0
 29 23  1  0
  1 32  1  0
  1 33  1  0
  1 34  1  0
  2 35  1  0
  3 36  1  0
  3 37  1  0
  3 38  1  0
  6 39  1  0
  7 40  1  0
  7 41  1  0
  8 42  1  0
 10 43  1  0
 10 44  1  0
 11 45  1  1
 12 46  1  0
 12 47  1  0
 12 48  1  0
 13 49  1  0
 13 50  1  0
 14 51  1  6
 15 52  1  0
 15 53  1  0
 15 54  1  0
 20 55  1  0
 21 56  1  0
 24 57  1  0
 25 58  1  0
 26 59  1  0
 29 60  1  0
M  END
>  <meeko>  (304) 
{"is_sidechain": false}

$$$$

     RDKit          3D

 60 63  0  0  0  0  0  0  0  0999 V2000
   10.5490    0.2640  -56.3920 C   0  0  0  0  0  0  0  0  0  0  0  0
    9.7430    1.3980  -55.7520 C   0  0  0  0  0  0  0  0  0  0  0  0
    9.2990    1.0210  -54.3320 C   0  0  0  0  0  0  0  0  0  0  0  0
    8.6040    1.8480  -56.6570 C   0  0  0  0  0  0  0  0  0  0  0  0
    7.2210    1.3010  -56.3860 C   0  0  0  0  0  0  0  0  0  0  0  0
    7.0830    0.5230  -55.3590 N   0  0  0  0  0  0  0  0  0  0  0  0
    5.7910   -0.0720  -55.0490 C   0  0  0  0  0  0  0  0  0  0  0  0
    5.8520   -0.7460  -53.7150 C   0  0  0  0  0  0  0  0  0  0  0  0
    6.8410   -1.5360  -53.2680 C   0  0  0  0  0  0  0  0  0  0  0  0
    6.8680   -2.0750  -51.8600 C   0  0  0  0  0  0  0  0  0  0  0  0
    7.2560   -3.5540  -51.8240 C   0  0  2  0  0  0  0  0  0  0  0  0
    7.4730   -4.0330  -50.3910 C   0  0  0  0  0  0  0  0  0  0  0  0
    8.5120   -3.7670  -52.6740 C   0  0  0  0  0  0  0  0  0  0  0  0
    8.2640   -3.2250  -54.0820 C   0  0  2  0  0  0  0  0  0  0  0  0
    9.5040   -3.3890  -54.9530 C   0  0  0  0  0  0  0  0  0  0  0  0
    7.9330   -1.8250  -54.0680 O   0  0  0  0  0  0  0  0  0  0  0  0
    6.1970    1.6680  -57.2380 N   0  0  0  0  0  0  0  0  0  0  0  0
    6.2820    2.5460  -58.2690 N   0  0  0  0  0  0  0  0  0  0  0  0
    7.4710    3.0250  -58.4760 C   0  0  0  0  0  0  0  0  0  0  0  0
    7.6420    3.9900  -59.5840 C   0  0  0  0  0  0  0  0  0  0  0  0
    8.8370    4.5180  -59.8540 C   0  0  0  0  0  0  0  0  0  0  0  0
    9.9880    4.1050  -59.0160 C   0  0  0  0  0  0  0  0  0  0  0  0
   11.3100    4.7090  -59.3550 C   0  0  0  0  0  0  0  0  0  0  0  0
   12.5150    4.0230  -59.1450 C   0  0  0  0  0  0  0  0  0  0  0  0
   13.7330    4.6290  -59.4660 C   0  0  0  0  0  0  0  0  0  0  0  0
   13.7500    5.9220  -59.9890 C   0  0  0  0  0  0  0  0  0  0  0  0
   12.5520    6.6020  -60.1780 C   0  0  0  0  0  0  0  0  0  0  0  0
   12.5740    7.8460  -60.6730 F   0  0  0  0  0  0  0  0  0  0  0  0
   11.3340    6.0120  -59.8630 C   0  0  0  0  0  0  0  0  0  0  0  0
    9.9250    3.2880  -58.0140 N   0  0  0  0  0  0  0  0  0  0  0  0
    8.7180    2.7090  -57.6920 C   0  0  0  0  0  0  0  0  0  0  0  0
   10.9931   -0.3608  -55.6031 H   0  0  0  0  0  0  0  0  0  0  0  0
    9.8844   -0.3512  -57.0163 H   0  0  0  0  0  0  0  0  0  0  0  0
   11.3485    0.6894  -57.0163 H   0  0  0  0  0  0  0  0  0  0  0  0
   10.3939    2.2778  -55.6411 H   0  0  0  0  0  0  0  0  0  0  0  0
    9.9243    1.5520  -53.5992 H   0  0  0  0  0  0  0  0  0  0  0  0
    8.2459    1.3051  -54.1896 H   0  0  0  0  0  0  0  0  0  0  0  0
    9.4085   -0.0642  -54.1896 H   0  0  0  0  0  0  0  0  0  0  0  0
    5.0225    0.7147  -55.0262 H   0  0  0  0  0  0  0  0  0  0  0  0
    5.5379   -0.8143  -55.8203 H   0  0  0  0  0  0  0  0  0  0  0  0
    5.0043   -0.5780  -53.0344 H   0  0  0  0  0  0  0  0  0  0  0  0
    7.6000   -1.5007  -51.2731 H   0  0  0  0  0  0  0  0  0  0  0  0
    5.8571   -1.9769  -51.4375 H   0  0  0  0  0  0  0  0  0  0  0  0
    6.4326   -4.1514  -52.2426 H   0  0  0  0  0  0  0  0  0  0  0  0
    7.1234   -3.2612  -49.6895 H   0  0  0  0  0  0  0  0  0  0  0  0
    6.9079   -4.9621  -50.2254 H   0  0  0  0  0  0  0  0  0  0  0  0
    8.5441   -4.2209  -50.2254 H   0  0  0  0  0  0  0  0  0  0  0  0
    9.3594   -3.2337  -52.2184 H   0  0  0  0  0  0  0  0  0  0  0  0
    8.7447   -4.8408  -52.7270 H   0  0  0  0  0  0  0  0  0  0  0  0
    7.4208   -3.8029  -54.4882 H   0  0  0  0  0  0  0  0  0  0  0  0
   10.3898   -3.5062  -54.3115 H   0  0  0  0  0  0  0  0  0  0  0  0
    9.3908   -4.2800  -55.5881 H   0  0  0  0  0  0  0  0  0  0  0  0
    9.6263   -2.4992  -55.5881 H   0  0  0  0  0  0  0  0  0  0  0  0
    5.2590    1.3720  -56.9770 H   0  0  0  0  0  0  0  0  0  0  0  0
    6.7721    4.2761  -60.1935 H   0  0  0  0  0  0  0  0  0  0  0  0
    8.9646    5.2391  -60.6748 H   0  0  0  0  0  0  0  0  0  0  0  0
   12.5016    3.0057  -58.7267 H   0  0  0  0  0  0  0  0  0  0  0  0
   14.6768    4.0870  -59.3064 H   0  0  0  0  0  0  0  0  0  0  0  0
   14.7053    6.4007  -60.2503 H   0  0  0  0  0  0  0  0  0  0  0  0
   10.3953    6.5657  -60.0121 H   0  0  0  0  0  0  0  0  0  0  0  0
  1  2  1  0
  2  3  1  0
  2  4  1  0
  4  5  1  0
  5  6  2  0
  6  7  1  0
  7  8  1  0
  8  9  2  0
  9 10  1  0
 10 11  1  0
 11 12  1  0
 11 13  1  0
 13 14  1  0
 14 15  1  0
 14 16  1  0
  5 17  1  0
 17 18  1  0
 18 19  2  0
 19 20  1  0
 20 21  2  0
 21 22  1  0
 22 23  1  0
 23 24  2  0
 24 25  1  0
 25 26  2  0
 26 27  1  0
 27 28  1  0
 27 29  2  0
 22 30  2  0
 30 31  1  0
 31  4  2  0
 16  9  1  0
 31 19  1  0
 29 23  1  0
  1 32  1  0
  1 33  1  0
  1 34  1  0
  2 35  1  0
  3 36  1  0
  3 37  1  0
  3 38  1  0
  7 39  1  0
  7 40  1  0
  8 41  1  0
 10 42  1  0
 10 43  1  0
 11 44  1  6
 12 45  1  0
 12 46  1  0
 12 47  1  0
 13 48  1  0
 13 49  1  0
 14 50  1  6
 15 51  1  0
 15 52  1  0
 15 53  1  0
 17 54  1  0
 20 55  1  0
 21 56  1  0
 24 57  1  0
 25 58  1  0
 26 59  1  0
 29 60  1  0
M  END
>  <meeko>  (305) 
{"is_sidechain": false}

$$$$

     RDKit          3D

 60 63  0  0  0  0  0  0  0  0999 V2000
    8.5330    4.7120  -56.1940 C   0  0  0  0  0  0  0  0  0  0  0  0
    8.3870    3.1830  -56.1110 C   0  0  0  0  0  0  0  0  0  0  0  0
    9.6630    2.5530  -55.5440 C   0  0  0  0  0  0  0  0  0  0  0  0
    7.9500    2.5450  -57.4180 C   0  0  0  0  0  0  0  0  0  0  0  0
    6.7160    1.6700  -57.4940 C   0  0  0  0  0  0  0  0  0  0  0  0
    6.1250    0.9740  -56.5830 N   0  0  0  0  0  0  0  0  0  0  0  0
    6.5860    0.7740  -55.2270 C   0  0  0  0  0  0  0  0  0  0  0  0
    6.3180   -0.6560  -54.8660 C   0  0  0  0  0  0  0  0  0  0  0  0
    7.2510   -1.5740  -54.5650 C   0  0  0  0  0  0  0  0  0  0  0  0
    6.8960   -2.9850  -54.1780 C   0  0  0  0  0  0  0  0  0  0  0  0
    7.5890   -3.3990  -52.8710 C   0  0  2  0  0  0  0  0  0  0  0  0
    6.7490   -3.0300  -51.6460 C   0  0  0  0  0  0  0  0  0  0  0  0
    9.0020   -2.7940  -52.7620 C   0  0  0  0  0  0  0  0  0  0  0  0
    9.4820   -2.2570  -54.1130 C   0  0  2  0  0  0  0  0  0  0  0  0
   10.8670   -1.6340  -53.9890 C   0  0  0  0  0  0  0  0  0  0  0  0
    8.5930   -1.2340  -54.5870 O   0  0  0  0  0  0  0  0  0  0  0  0
    6.1110    1.5370  -58.7290 N   0  0  0  0  0  0  0  0  0  0  0  0
    6.7410    1.6650  -59.9250 N   0  0  0  0  0  0  0  0  0  0  0  0
    7.8980    2.2490  -59.8550 C   0  0  0  0  0  0  0  0  0  0  0  0
    8.6660    2.4230  -61.1070 C   0  0  0  0  0  0  0  0  0  0  0  0
    9.8080    3.1100  -61.1140 C   0  0  0  0  0  0  0  0  0  0  0  0
   10.2730    3.7070  -59.8390 C   0  0  0  0  0  0  0  0  0  0  0  0
   11.5140    4.5340  -59.9060 C   0  0  0  0  0  0  0  0  0  0  0  0
   12.7350    3.9480  -59.5380 C   0  0  0  0  0  0  0  0  0  0  0  0
   13.9180    4.6910  -59.5770 C   0  0  0  0  0  0  0  0  0  0  0  0
   13.8830    6.0260  -59.9740 C   0  0  0  0  0  0  0  0  0  0  0  0
   12.6670    6.6070  -60.3200 C   0  0  0  0  0  0  0  0  0  0  0  0
   12.6350    7.8940  -60.6880 F   0  0  0  0  0  0  0  0  0  0  0  0
   11.4820    5.8790  -60.2870 C   0  0  0  0  0  0  0  0  0  0  0  0
    9.7020    3.5450  -58.6870 N   0  0  0  0  0  0  0  0  0  0  0  0
    8.5490    2.7930  -58.6080 C   0  0  0  0  0  0  0  0  0  0  0  0
    8.5731    5.1322  -55.1782 H   0  0  0  0  0  0  0  0  0  0  0  0
    9.4592    4.9632  -56.7316 H   0  0  0  0  0  0  0  0  0  0  0  0
    7.6711    5.1340  -56.7316 H   0  0  0  0  0  0  0  0  0  0  0  0
    7.5644    2.9740  -55.4113 H   0  0  0  0  0  0  0  0  0  0  0  0
    9.6242    2.5721  -54.4448 H   0  0  0  0  0  0  0  0  0  0  0  0
    9.7429    1.5119  -55.8900 H   0  0  0  0  0  0  0  0  0  0  0  0
   10.5381    3.1226  -55.8900 H   0  0  0  0  0  0  0  0  0  0  0  0
    7.6643    0.9819  -55.1624 H   0  0  0  0  0  0  0  0  0  0  0  0
    6.0636    1.4523  -54.5363 H   0  0  0  0  0  0  0  0  0  0  0  0
    5.2674   -0.9813  -54.8459 H   0  0  0  0  0  0  0  0  0  0  0  0
    5.8066   -3.0559  -54.0434 H   0  0  0  0  0  0  0  0  0  0  0  0
    7.2352   -3.6592  -54.9783 H   0  0  0  0  0  0  0  0  0  0  0  0
    7.6896   -4.4941  -52.8956 H   0  0  0  0  0  0  0  0  0  0  0  0
    7.3077   -3.2755  -50.7308 H   0  0  0  0  0  0  0  0  0  0  0  0
    6.5290   -1.9524  -51.6634 H   0  0  0  0  0  0  0  0  0  0  0  0
    5.8065   -3.5970  -51.6634 H   0  0  0  0  0  0  0  0  0  0  0  0
    8.9837   -1.9692  -52.0344 H   0  0  0  0  0  0  0  0  0  0  0  0
    9.6943   -3.5843  -52.4363 H   0  0  0  0  0  0  0  0  0  0  0  0
    9.5082   -3.1064  -54.8115 H   0  0  0  0  0  0  0  0  0  0  0  0
   11.1233   -1.5187  -52.9255 H   0  0  0  0  0  0  0  0  0  0  0  0
   11.6072   -2.2859  -54.4760 H   0  0  0  0  0  0  0  0  0  0  0  0
   10.8703   -0.6477  -54.4760 H   0  0  0  0  0  0  0  0  0  0  0  0
    5.3230    0.8920  -58.7010 H   0  0  0  0  0  0  0  0  0  0  0  0
    8.2908    1.9809  -62.0418 H   0  0  0  0  0  0  0  0  0  0  0  0
   10.3894    3.2307  -62.0400 H   0  0  0  0  0  0  0  0  0  0  0  0
   12.7610    2.8963  -59.2166 H   0  0  0  0  0  0  0  0  0  0  0  0
   14.8731    4.2236  -59.2953 H   0  0  0  0  0  0  0  0  0  0  0  0
   14.8102    6.6165  -60.0136 H   0  0  0  0  0  0  0  0  0  0  0  0
   10.5290    6.3568  -60.5580 H   0  0  0  0  0  0  0  0  0  0  0  0
  1  2  1  0
  2  3  1  0
  2  4  1  0
  4  5  1  0
  5  6  2  0
  6  7  1  0
  7  8  1  0
  8  9  2  0
  9 10  1  0
 10 11  1  0
 11 12  1  0
 11 13  1  0
 13 14  1  0
 14 15  1  0
 14 16  1  0
  5 17  1  0
 17 18  1  0
 18 19  2  0
 19 20  1  0
 20 21  2  0
 21 22  1  0
 22 23  1  0
 23 24  2  0
 24 25  1  0
 25 26  2  0
 26 27  1  0
 27 28  1  0
 27 29  2  0
 22 30  2  0
 30 31  1  0
 31  4  2  0
 16  9  1  0
 31 19  1  0
 29 23  1  0
  1 32  1  0
  1 33  1  0
  1 34  1  0
  2 35  1  0
  3 36  1  0
  3 37  1  0
  3 38  1  0
  7 39  1  0
  7 40  1  0
  8 41  1  0
 10 42  1  0
 10 43  1  0
 11 44  1  6
 12 45  1  0
 12 46  1  0
 12 47  1  0
 13 48  1  0
 13 49  1  0
 14 50  1  6
 15 51  1  0
 15 52  1  0
 15 53  1  0
 17 54  1  0
 20 55  1  0
 21 56  1  0
 24 57  1  0
 25 58  1  0
 26 59  1  0
 29 60  1  0
M  END
>  <meeko>  (306) 
{"is_sidechain": false}

$$$$

     RDKit          3D

 60 63  0  0  0  0  0  0  0  0999 V2000
   10.8470    0.4090  -57.0050 C   0  0  0  0  0  0  0  0  0  0  0  0
   10.2710    0.2900  -55.5880 C   0  0  0  0  0  0  0  0  0  0  0  0
   10.5790   -1.0890  -54.9930 C   0  0  0  0  0  0  0  0  0  0  0  0
    8.8080    0.6770  -55.5520 C   0  0  0  0  0  0  0  0  0  0  0  0
    7.8210    0.0580  -54.8720 C   0  0  0  0  0  0  0  0  0  0  0  0
    7.9700   -0.9810  -53.9620 N   0  0  0  0  0  0  0  0  0  0  0  0
    6.9510   -1.4160  -53.1320 C   0  0  0  0  0  0  0  0  0  0  0  0
    7.2810   -2.3980  -52.0870 C   0  0  0  0  0  0  0  0  0  0  0  0
    8.5890   -2.5040  -51.5880 C   0  0  0  0  0  0  0  0  0  0  0  0
    8.8960   -3.4310  -50.5870 C   0  0  0  0  0  0  0  0  0  0  0  0
    7.8960   -4.2560  -50.0760 C   0  0  0  0  0  0  0  0  0  0  0  0
    6.6010   -4.1480  -50.5690 C   0  0  0  0  0  0  0  0  0  0  0  0
    5.6410   -4.9410  -50.0760 F   0  0  0  0  0  0  0  0  0  0  0  0
    6.2840   -3.2300  -51.5650 C   0  0  0  0  0  0  0  0  0  0  0  0
    5.7020   -0.9250  -53.2600 C   0  0  0  0  0  0  0  0  0  0  0  0
    5.4320    0.0150  -54.3340 C   0  0  0  0  0  0  0  0  0  0  0  0
    6.4280    0.4830  -55.1120 C   0  0  0  0  0  0  0  0  0  0  0  0
    6.1720    1.2030  -56.2500 N   0  0  0  0  0  0  0  0  0  0  0  0
    7.1010    1.6860  -56.9380 N   0  0  0  0  0  0  0  0  0  0  0  0
    8.3270    1.8710  -56.3280 C   0  0  0  0  0  0  0  0  0  0  0  0
    8.8330    3.0300  -56.5140 N   0  0  0  0  0  0  0  0  0  0  0  0
   10.0350    3.5150  -55.8850 C   0  0  0  0  0  0  0  0  0  0  0  0
   11.1400    3.8310  -56.8530 C   0  0  0  0  0  0  0  0  0  0  0  0
   11.1560    3.7750  -58.1970 C   0  0  0  0  0  0  0  0  0  0  0  0
   12.3870    4.1000  -59.0020 C   0  0  0  0  0  0  0  0  0  0  0  0
   12.0810    5.0950  -60.1230 C   0  0  2  0  0  0  0  0  0  0  0  0
   11.9860    6.5310  -59.6060 C   0  0  0  0  0  0  0  0  0  0  0  0
   10.8270    4.6430  -60.8810 C   0  0  0  0  0  0  0  0  0  0  0  0
    9.6650    4.1890  -59.9840 C   0  0  2  0  0  0  0  0  0  0  0  0
    8.7970    5.3270  -59.4530 C   0  0  0  0  0  0  0  0  0  0  0  0
   10.0770    3.3150  -58.9220 O   0  0  0  0  0  0  0  0  0  0  0  0
   11.9227    0.6312  -56.9461 H   0  0  0  0  0  0  0  0  0  0  0  0
   10.6974   -0.5390  -57.5424 H   0  0  0  0  0  0  0  0  0  0  0  0
   10.3339    1.2201  -57.5424 H   0  0  0  0  0  0  0  0  0  0  0  0
   10.7717    1.0167  -54.9313 H   0  0  0  0  0  0  0  0  0  0  0  0
   10.5649   -1.0260  -53.8949 H   0  0  0  0  0  0  0  0  0  0  0  0
    9.8200   -1.8110  -55.3286 H   0  0  0  0  0  0  0  0  0  0  0  0
   11.5731   -1.4194  -55.3286 H   0  0  0  0  0  0  0  0  0  0  0  0
    8.8910   -1.3630  -53.7980 H   0  0  0  0  0  0  0  0  0  0  0  0
    9.3795   -1.8520  -51.9880 H   0  0  0  0  0  0  0  0  0  0  0  0
    9.9242   -3.5087  -50.2040 H   0  0  0  0  0  0  0  0  0  0  0  0
    8.1298   -4.9873  -49.2883 H   0  0  0  0  0  0  0  0  0  0  0  0
    5.2528   -3.1583  -51.9412 H   0  0  0  0  0  0  0  0  0  0  0  0
    4.9046   -1.2296  -52.5662 H   0  0  0  0  0  0  0  0  0  0  0  0
    4.3999    0.3496  -54.5149 H   0  0  0  0  0  0  0  0  0  0  0  0
    9.7896    4.4310  -55.3276 H   0  0  0  0  0  0  0  0  0  0  0  0
   10.4019    2.7102  -55.2310 H   0  0  0  0  0  0  0  0  0  0  0  0
   12.0826    4.1592  -56.3907 H   0  0  0  0  0  0  0  0  0  0  0  0
   13.1449    4.5362  -58.3347 H   0  0  0  0  0  0  0  0  0  0  0  0
   12.7545    3.1694  -59.4591 H   0  0  0  0  0  0  0  0  0  0  0  0
   12.9199    5.1025  -60.8344 H   0  0  0  0  0  0  0  0  0  0  0  0
   11.9864    6.5255  -58.5060 H   0  0  0  0  0  0  0  0  0  0  0  0
   12.8478    7.1095  -59.9700 H   0  0  0  0  0  0  0  0  0  0  0  0
   11.0555    6.9910  -59.9700 H   0  0  0  0  0  0  0  0  0  0  0  0
   10.4764    5.4845  -61.4966 H   0  0  0  0  0  0  0  0  0  0  0  0
   11.1220    3.7660  -61.4759 H   0  0  0  0  0  0  0  0  0  0  0  0
    9.0252    3.6063  -60.6631 H   0  0  0  0  0  0  0  0  0  0  0  0
    8.8073    5.3135  -58.3531 H   0  0  0  0  0  0  0  0  0  0  0  0
    9.1933    6.2884  -59.8116 H   0  0  0  0  0  0  0  0  0  0  0  0
    7.7650    5.1991  -59.8116 H   0  0  0  0  0  0  0  0  0  0  0  0
  1  2  1  0
  2  3  1  0
  2  4  1  0
  4  5  2  0
  5  6  1  0
  6  7  1  0
  7  8  1  0
  8  9  2  0
  9 10  1  0
 10 11  2  0
 11 12  1  0
 12 13  1  0
 12 14  2  0
  7 15  2  0
 15 16  1  0
 16 17  2  0
 17 18  1  0
 18 19  2  0
 19 20  1  0
 20 21  2  0
 21 22  1  0
 22 23  1  0
 23 24  2  0
 24 25  1  0
 25 26  1  0
 26 27  1  0
 26 28  1  0
 28 29  1  0
 29 30  1  0
 29 31  1  0
 20  4  1  0
 31 24  1  0
 17  5  1  0
 14  8  1  0
  1 32  1  0
  1 33  1  0
  1 34  1  0
  2 35  1  0
  3 36  1  0
  3 37  1  0
  3 38  1  0
  6 39  1  0
  9 40  1  0
 10 41  1  0
 11 42  1  0
 14 43  1  0
 15 44  1  0
 16 45  1  0
 22 46  1  0
 22 47  1  0
 23 48  1  0
 25 49  1  0
 25 50  1  0
 26 51  1  6
 27 52  1  0
 27 53  1  0
 27 54  1  0
 28 55  1  0
 28 56  1  0
 29 57  1  6
 30 58  1  0
 30 59  1  0
 30 60  1  0
M  END
>  <meeko>  (307) 
{"is_sidechain": false}

$$$$

     RDKit          3D

 52 55  0  0  0  0  0  0  0  0999 V2000
   10.4330   -2.6530  -52.6060 C   0  0  0  0  0  0  0  0  0  0  0  0
    8.9550   -2.9400  -52.3180 C   0  0  0  0  0  0  0  0  0  0  0  0
    8.7720   -3.1400  -50.8070 C   0  0  0  0  0  0  0  0  0  0  0  0
    8.0290   -1.8350  -52.8740 C   0  0  2  0  0  0  0  0  0  0  0  0
    7.4400   -1.1230  -51.7710 O   0  0  0  0  0  0  0  0  0  0  0  0
    6.9210   -2.3590  -53.7920 C   0  0  0  0  0  0  0  0  0  0  0  0
    6.4950   -1.2380  -54.5890 O   0  0  0  0  0  0  0  0  0  0  0  0
    7.5820   -0.3800  -54.6390 C   0  0  0  0  0  0  0  0  0  0  0  0
    7.5490    0.7770  -55.3140 C   0  0  0  0  0  0  0  0  0  0  0  0
    6.3890    1.2870  -56.1120 C   0  0  0  0  0  0  0  0  0  0  0  0
    6.8370    1.4040  -57.4970 N   0  0  0  0  0  0  0  0  0  0  0  0
    6.0080    1.9180  -58.3420 C   0  0  0  0  0  0  0  0  0  0  0  0
    4.7540    2.3320  -57.9510 N   0  0  0  0  0  0  0  0  0  0  0  0
    3.8090    2.3530  -58.7680 N   0  0  0  0  0  0  0  0  0  0  0  0
    3.9830    2.1470  -60.1080 C   0  0  0  0  0  0  0  0  0  0  0  0
    2.9250    2.0580  -60.9410 C   0  0  0  0  0  0  0  0  0  0  0  0
    3.1080    1.9390  -62.3750 C   0  0  0  0  0  0  0  0  0  0  0  0
    4.3580    1.9870  -62.8600 C   0  0  0  0  0  0  0  0  0  0  0  0
    5.4530    2.1230  -62.0380 N   0  0  0  0  0  0  0  0  0  0  0  0
    5.3560    2.1280  -60.6450 C   0  0  0  0  0  0  0  0  0  0  0  0
    6.3830    2.1010  -59.7750 C   0  0  0  0  0  0  0  0  0  0  0  0
    7.7990    2.1280  -60.2460 C   0  0  0  0  0  0  0  0  0  0  0  0
    8.6880    3.2860  -59.7290 C   0  0  0  0  0  0  0  0  0  0  0  0
    9.3900    3.2670  -61.1040 C   0  0  0  0  0  0  0  0  0  0  0  0
    8.1080    2.6270  -61.6820 C   0  0  0  0  0  0  0  0  0  0  0  0
    8.7320   -0.8430  -53.7950 C   0  0  0  0  0  0  0  0  0  0  0  0
   10.9778   -2.5472  -51.6563 H   0  0  0  0  0  0  0  0  0  0  0  0
   10.8621   -3.4846  -53.1842 H   0  0  0  0  0  0  0  0  0  0  0  0
   10.5197   -1.7212  -53.1842 H   0  0  0  0  0  0  0  0  0  0  0  0
    8.6613   -3.8628  -52.8398 H   0  0  0  0  0  0  0  0  0  0  0  0
    9.4174   -2.4347  -50.2630 H   0  0  0  0  0  0  0  0  0  0  0  0
    7.7211   -2.9580  -50.5377 H   0  0  0  0  0  0  0  0  0  0  0  0
    9.0464   -4.1706  -50.5377 H   0  0  0  0  0  0  0  0  0  0  0  0
    7.0940   -1.7930  -51.1510 H   0  0  0  0  0  0  0  0  0  0  0  0
    7.3085   -3.1606  -54.4379 H   0  0  0  0  0  0  0  0  0  0  0  0
    6.0857   -2.7788  -53.2123 H   0  0  0  0  0  0  0  0  0  0  0  0
    8.4509    1.4058  -55.2790 H   0  0  0  0  0  0  0  0  0  0  0  0
    5.5471    0.5821  -56.0463 H   0  0  0  0  0  0  0  0  0  0  0  0
    6.0479    2.2597  -55.7280 H   0  0  0  0  0  0  0  0  0  0  0  0
    1.9066    2.0760  -60.5255 H   0  0  0  0  0  0  0  0  0  0  0  0
    2.2457    1.8129  -63.0463 H   0  0  0  0  0  0  0  0  0  0  0  0
    4.5120    1.9155  -63.9468 H   0  0  0  0  0  0  0  0  0  0  0  0
    6.3640    2.0010  -62.4600 H   0  0  0  0  0  0  0  0  0  0  0  0
    7.9744    1.0777  -59.9700 H   0  0  0  0  0  0  0  0  0  0  0  0
    8.1454    4.2159  -59.5033 H   0  0  0  0  0  0  0  0  0  0  0  0
    9.2532    3.2073  -58.7886 H   0  0  0  0  0  0  0  0  0  0  0  0
    9.6284    4.2611  -61.5100 H   0  0  0  0  0  0  0  0  0  0  0  0
   10.3778    2.8027  -61.2404 H   0  0  0  0  0  0  0  0  0  0  0  0
    7.3784    3.3440  -62.0864 H   0  0  0  0  0  0  0  0  0  0  0  0
    8.1382    1.9408  -62.5412 H   0  0  0  0  0  0  0  0  0  0  0  0
    9.5077   -1.3333  -54.4015 H   0  0  0  0  0  0  0  0  0  0  0  0
    9.2672   -0.0365  -53.2723 H   0  0  0  0  0  0  0  0  0  0  0  0
  1  2  1  0
  2  3  1  0
  2  4  1  0
  4  5  1  1
  4  6  1  0
  6  7  1  0
  7  8  1  0
  8  9  2  0
  9 10  1  0
 10 11  1  0
 11 12  2  0
 12 13  1  0
 13 14  2  0
 14 15  1  0
 15 16  2  0
 16 17  1  0
 17 18  2  0
 18 19  1  0
 19 20  1  0
 20 21  2  0
 21 22  1  0
 22 23  1  0
 23 24  1  0
 24 25  1  0
  8 26  1  0
 26  4  1  0
 21 12  1  0
 25 22  1  0
 20 15  1  0
  1 27  1  0
  1 28  1  0
  1 29  1  0
  2 30  1  0
  3 31  1  0
  3 32  1  0
  3 33  1  0
  5 34  1  0
  6 35  1  0
  6 36  1  0
  9 37  1  0
 10 38  1  0
 10 39  1  0
 16 40  1  0
 17 41  1  0
 18 42  1  0
 19 43  1  0
 22 44  1  0
 23 45  1  0
 23 46  1  0
 24 47  1  0
 24 48  1  0
 25 49  1  0
 25 50  1  0
 26 51  1  0
 26 52  1  0
M  END
>  <meeko>  (308) 
{"is_sidechain": false}

$$$$

     RDKit          3D

 52 55  0  0  0  0  0  0  0  0999 V2000
   10.8050   -5.0170  -57.1860 C   0  0  0  0  0  0  0  0  0  0  0  0
   11.2720   -4.9560  -55.7270 C   0  0  0  0  0  0  0  0  0  0  0  0
   12.7680   -5.2910  -55.6700 C   0  0  0  0  0  0  0  0  0  0  0  0
   10.9590   -3.5920  -55.0710 C   0  0  1  0  0  0  0  0  0  0  0  0
   11.7080   -3.4810  -53.8480 O   0  0  0  0  0  0  0  0  0  0  0  0
   11.2670   -2.3910  -55.9680 C   0  0  0  0  0  0  0  0  0  0  0  0
   10.4950   -1.2930  -55.4400 O   0  0  0  0  0  0  0  0  0  0  0  0
    9.3960   -1.8760  -54.8310 C   0  0  0  0  0  0  0  0  0  0  0  0
    8.4020   -1.1470  -54.3020 C   0  0  0  0  0  0  0  0  0  0  0  0
    8.3080    0.3480  -54.3320 C   0  0  0  0  0  0  0  0  0  0  0  0
    7.7460    0.7530  -55.6170 N   0  0  0  0  0  0  0  0  0  0  0  0
    8.3360    1.6680  -56.3080 C   0  0  0  0  0  0  0  0  0  0  0  0
    9.4710    2.3050  -55.8600 N   0  0  0  0  0  0  0  0  0  0  0  0
   10.2790    2.8080  -56.6700 N   0  0  0  0  0  0  0  0  0  0  0  0
   10.0280    2.8960  -58.0120 C   0  0  0  0  0  0  0  0  0  0  0  0
   10.9760    3.3170  -58.8740 C   0  0  0  0  0  0  0  0  0  0  0  0
   10.6810    3.4910  -60.2850 C   0  0  0  0  0  0  0  0  0  0  0  0
    9.4240    3.2820  -60.7010 C   0  0  0  0  0  0  0  0  0  0  0  0
    8.4250    2.8990  -59.8340 N   0  0  0  0  0  0  0  0  0  0  0  0
    8.6630    2.6140  -58.4910 C   0  0  0  0  0  0  0  0  0  0  0  0
    7.7780    2.0970  -57.6210 C   0  0  0  0  0  0  0  0  0  0  0  0
    6.3690    1.7970  -58.0060 C   0  0  0  0  0  0  0  0  0  0  0  0
    5.2520    2.1700  -56.9810 C   0  0  0  0  0  0  0  0  0  0  0  0
    4.3650    2.5390  -58.1830 C   0  0  0  0  0  0  0  0  0  0  0  0
    5.6680    2.8250  -58.9500 C   0  0  0  0  0  0  0  0  0  0  0  0
    9.4790   -3.3710  -54.7760 C   0  0  0  0  0  0  0  0  0  0  0  0
    9.7147   -5.1594  -57.2163 H   0  0  0  0  0  0  0  0  0  0  0  0
   11.0663   -4.0771  -57.6942 H   0  0  0  0  0  0  0  0  0  0  0  0
   11.2990   -5.8583  -57.6942 H   0  0  0  0  0  0  0  0  0  0  0  0
   10.7133   -5.7014  -55.1420 H   0  0  0  0  0  0  0  0  0  0  0  0
   13.0879   -5.3626  -54.6200 H   0  0  0  0  0  0  0  0  0  0  0  0
   12.9481   -6.2517  -56.1746 H   0  0  0  0  0  0  0  0  0  0  0  0
   13.3406   -4.4988  -56.1746 H   0  0  0  0  0  0  0  0  0  0  0  0
   12.6530   -3.5290  -54.0870 H   0  0  0  0  0  0  0  0  0  0  0  0
   12.3407   -2.1543  -55.9347 H   0  0  0  0  0  0  0  0  0  0  0  0
   11.0109   -2.5958  -57.0180 H   0  0  0  0  0  0  0  0  0  0  0  0
    7.5871   -1.6929  -53.8041 H   0  0  0  0  0  0  0  0  0  0  0  0
    7.6563    0.6949  -53.5165 H   0  0  0  0  0  0  0  0  0  0  0  0
    9.3068    0.7903  -54.2022 H   0  0  0  0  0  0  0  0  0  0  0  0
   11.9887    3.5319  -58.5022 H   0  0  0  0  0  0  0  0  0  0  0  0
   11.4684    3.7866  -60.9940 H   0  0  0  0  0  0  0  0  0  0  0  0
    9.1836    3.4204  -61.7654 H   0  0  0  0  0  0  0  0  0  0  0  0
    7.5470    2.6000  -60.2400 H   0  0  0  0  0  0  0  0  0  0  0  0
    6.5766    0.7575  -58.2997 H   0  0  0  0  0  0  0  0  0  0  0  0
    4.8816    1.3270  -56.3793 H   0  0  0  0  0  0  0  0  0  0  0  0
    5.4346    2.8770  -56.1584 H   0  0  0  0  0  0  0  0  0  0  0  0
    3.7656    1.7092  -58.5857 H   0  0  0  0  0  0  0  0  0  0  0  0
    3.5576    3.2821  -58.1064 H   0  0  0  0  0  0  0  0  0  0  0  0
    5.6490    2.5348  -60.0109 H   0  0  0  0  0  0  0  0  0  0  0  0
    6.0514    3.8481  -59.0778 H   0  0  0  0  0  0  0  0  0  0  0  0
    9.2036   -3.7545  -53.7825 H   0  0  0  0  0  0  0  0  0  0  0  0
    8.7970   -3.8885  -55.4667 H   0  0  0  0  0  0  0  0  0  0  0  0
  1  2  1  0
  2  3  1  0
  2  4  1  0
  4  5  1  1
  4  6  1  0
  6  7  1  0
  7  8  1  0
  8  9  2  0
  9 10  1  0
 10 11  1  0
 11 12  2  0
 12 13  1  0
 13 14  2  0
 14 15  1  0
 15 16  2  0
 16 17  1  0
 17 18  2  0
 18 19  1  0
 19 20  1  0
 20 21  2  0
 21 22  1  0
 22 23  1  0
 23 24  1  0
 24 25  1  0
  8 26  1  0
 26  4  1  0
 21 12  1  0
 25 22  1  0
 20 15  1  0
  1 27  1  0
  1 28  1  0
  1 29  1  0
  2 30  1  0
  3 31  1  0
  3 32  1  0
  3 33  1  0
  5 34  1  0
  6 35  1  0
  6 36  1  0
  9 37  1  0
 10 38  1  0
 10 39  1  0
 16 40  1  0
 17 41  1  0
 18 42  1  0
 19 43  1  0
 22 44  1  0
 23 45  1  0
 23 46  1  0
 24 47  1  0
 24 48  1  0
 25 49  1  0
 25 50  1  0
 26 51  1  0
 26 52  1  0
M  END
>  <meeko>  (309) 
{"is_sidechain": false}

$$$$

     RDKit          3D

 52 55  0  0  0  0  0  0  0  0999 V2000
    8.9520   -3.1770  -50.7170 C   0  0  0  0  0  0  0  0  0  0  0  0
    9.0610   -2.9790  -52.2340 C   0  0  0  0  0  0  0  0  0  0  0  0
   10.4960   -2.5600  -52.5790 C   0  0  0  0  0  0  0  0  0  0  0  0
    8.0100   -1.9770  -52.7690 C   0  0  2  0  0  0  0  0  0  0  0  0
    7.4220   -1.2740  -51.6610 O   0  0  0  0  0  0  0  0  0  0  0  0
    6.8880   -2.6440  -53.5750 C   0  0  0  0  0  0  0  0  0  0  0  0
    6.3460   -1.6420  -54.4580 O   0  0  0  0  0  0  0  0  0  0  0  0
    7.3350   -0.6830  -54.5930 C   0  0  0  0  0  0  0  0  0  0  0  0
    7.1490    0.4300  -55.3160 C   0  0  0  0  0  0  0  0  0  0  0  0
    5.9130    0.7620  -56.0950 C   0  0  0  0  0  0  0  0  0  0  0  0
    6.1010    2.1190  -56.5880 N   0  0  0  0  0  0  0  0  0  0  0  0
    6.7550    2.2060  -57.8370 C   0  0  0  0  0  0  0  0  0  0  0  0
    6.2590    1.5300  -58.8970 N   0  0  0  0  0  0  0  0  0  0  0  0
    6.8460    1.6120  -60.1160 N   0  0  0  0  0  0  0  0  0  0  0  0
    7.9280    2.3780  -60.2740 C   0  0  0  0  0  0  0  0  0  0  0  0
    8.5120    2.4900  -61.5290 C   0  0  0  0  0  0  0  0  0  0  0  0
    9.6310    3.2890  -61.7260 C   0  0  0  0  0  0  0  0  0  0  0  0
   10.1320    3.9600  -60.6340 C   0  0  0  0  0  0  0  0  0  0  0  0
    9.5940    3.8750  -59.4000 N   0  0  0  0  0  0  0  0  0  0  0  0
    8.5070    3.0880  -59.2080 C   0  0  0  0  0  0  0  0  0  0  0  0
    7.9310    2.9790  -57.9300 C   0  0  0  0  0  0  0  0  0  0  0  0
    8.5650    3.7340  -56.6600 C   0  0  0  0  0  0  0  0  0  0  0  0
    9.0200    5.2240  -56.7890 C   0  0  0  0  0  0  0  0  0  0  0  0
   10.1300    4.9070  -55.7700 C   0  0  0  0  0  0  0  0  0  0  0  0
   10.0520    3.4510  -56.2620 C   0  0  0  0  0  0  0  0  0  0  0  0
    8.5600   -0.9870  -53.7900 C   0  0  0  0  0  0  0  0  0  0  0  0
    9.4206   -2.3257  -50.2015 H   0  0  0  0  0  0  0  0  0  0  0  0
    7.8918   -3.2405  -50.4307 H   0  0  0  0  0  0  0  0  0  0  0  0
    9.4654   -4.1068  -50.4307 H   0  0  0  0  0  0  0  0  0  0  0  0
    8.8383   -3.9313  -52.7375 H   0  0  0  0  0  0  0  0  0  0  0  0
   11.0628   -2.3945  -51.6509 H   0  0  0  0  0  0  0  0  0  0  0  0
   10.9788   -3.3547  -53.1667 H   0  0  0  0  0  0  0  0  0  0  0  0
   10.4753   -1.6304  -53.1667 H   0  0  0  0  0  0  0  0  0  0  0  0
    6.5060   -1.5820  -51.5500 H   0  0  0  0  0  0  0  0  0  0  0  0
    7.2916   -3.4836  -54.1599 H   0  0  0  0  0  0  0  0  0  0  0  0
    6.1086   -3.0397  -52.9071 H   0  0  0  0  0  0  0  0  0  0  0  0
    7.9716    1.1599  -55.3394 H   0  0  0  0  0  0  0  0  0  0  0  0
    5.7922    0.0633  -56.9359 H   0  0  0  0  0  0  0  0  0  0  0  0
    5.0104    0.6816  -55.4715 H   0  0  0  0  0  0  0  0  0  0  0  0
    5.2010    2.5870  -56.6620 H   0  0  0  0  0  0  0  0  0  0  0  0
    8.0826    1.9386  -62.3785 H   0  0  0  0  0  0  0  0  0  0  0  0
   10.0989    3.3819  -62.7172 H   0  0  0  0  0  0  0  0  0  0  0  0
   11.0166    4.5985  -60.7747 H   0  0  0  0  0  0  0  0  0  0  0  0
    7.7114    3.4288  -56.0369 H   0  0  0  0  0  0  0  0  0  0  0  0
    9.3825    5.5075  -57.7881 H   0  0  0  0  0  0  0  0  0  0  0  0
    8.3180    6.0572  -56.6374 H   0  0  0  0  0  0  0  0  0  0  0  0
   11.0900    5.4080  -55.9634 H   0  0  0  0  0  0  0  0  0  0  0  0
   10.0370    5.1689  -54.7057 H   0  0  0  0  0  0  0  0  0  0  0  0
   10.7160    3.2166  -57.1071 H   0  0  0  0  0  0  0  0  0  0  0  0
   10.3253    2.6064  -55.6124 H   0  0  0  0  0  0  0  0  0  0  0  0
    9.3453   -1.4432  -54.4106 H   0  0  0  0  0  0  0  0  0  0  0  0
    9.0389   -0.1017  -53.3463 H   0  0  0  0  0  0  0  0  0  0  0  0
  1  2  1  0
  2  3  1  0
  2  4  1  0
  4  5  1  1
  4  6  1  0
  6  7  1  0
  7  8  1  0
  8  9  2  0
  9 10  1  0
 10 11  1  0
 11 12  1  0
 12 13  1  0
 13 14  2  0
 14 15  1  0
 15 16  2  0
 16 17  1  0
 17 18  2  0
 18 19  1  0
 19 20  2  0
 20 21  1  0
 21 22  1  0
 22 23  1  0
 23 24  1  0
 24 25  1  0
  8 26  1  0
 26  4  1  0
 21 12  2  0
 25 22  1  0
 20 15  1  0
  1 27  1  0
  1 28  1  0
  1 29  1  0
  2 30  1  0
  3 31  1  0
  3 32  1  0
  3 33  1  0
  5 34  1  0
  6 35  1  0
  6 36  1  0
  9 37  1  0
 10 38  1  0
 10 39  1  0
 11 40  1  0
 16 41  1  0
 17 42  1  0
 18 43  1  0
 22 44  1  0
 23 45  1  0
 23 46  1  0
 24 47  1  0
 24 48  1  0
 25 49  1  0
 25 50  1  0
 26 51  1  0
 26 52  1  0
M  END
>  <meeko>  (310) 
{"is_sidechain": false}

$$$$

     RDKit          3D

 52 55  0  0  0  0  0  0  0  0999 V2000
    7.8270   -2.4800  -49.6930 C   0  0  0  0  0  0  0  0  0  0  0  0
    8.2300   -3.4250  -50.8370 C   0  0  0  0  0  0  0  0  0  0  0  0
    7.4470   -4.7350  -50.6960 C   0  0  0  0  0  0  0  0  0  0  0  0
    8.1060   -2.7380  -52.2190 C   0  0  1  0  0  0  0  0  0  0  0  0
    9.3680   -2.9290  -52.8970 O   0  0  0  0  0  0  0  0  0  0  0  0
    7.0130   -3.3050  -53.1310 C   0  0  0  0  0  0  0  0  0  0  0  0
    6.7490   -2.2970  -54.1320 O   0  0  0  0  0  0  0  0  0  0  0  0
    7.1240   -1.0920  -53.5560 C   0  0  0  0  0  0  0  0  0  0  0  0
    6.9790    0.0780  -54.1990 C   0  0  0  0  0  0  0  0  0  0  0  0
    6.3880    0.2800  -55.5670 C   0  0  0  0  0  0  0  0  0  0  0  0
    6.5150    1.6810  -55.9330 N   0  0  0  0  0  0  0  0  0  0  0  0
    6.7700    1.9170  -57.3010 C   0  0  0  0  0  0  0  0  0  0  0  0
    5.7380    1.9390  -58.1740 N   0  0  0  0  0  0  0  0  0  0  0  0
    5.9500    2.1550  -59.4920 N   0  0  0  0  0  0  0  0  0  0  0  0
    7.1950    2.3380  -59.9370 C   0  0  0  0  0  0  0  0  0  0  0  0
    7.4010    2.5730  -61.2900 C   0  0  0  0  0  0  0  0  0  0  0  0
    8.6780    2.7740  -61.7950 C   0  0  0  0  0  0  0  0  0  0  0  0
    9.7230    2.7320  -60.9020 C   0  0  0  0  0  0  0  0  0  0  0  0
    9.5610    2.5060  -59.5810 N   0  0  0  0  0  0  0  0  0  0  0  0
    8.3170    2.3070  -59.0860 C   0  0  0  0  0  0  0  0  0  0  0  0
    8.1140    2.0700  -57.7150 C   0  0  0  0  0  0  0  0  0  0  0  0
    9.2990    1.9740  -56.6170 C   0  0  0  0  0  0  0  0  0  0  0  0
    9.9440    3.3240  -56.1730 C   0  0  0  0  0  0  0  0  0  0  0  0
   11.1510    2.9790  -57.0640 C   0  0  0  0  0  0  0  0  0  0  0  0
   10.7440    1.5000  -56.9310 C   0  0  0  0  0  0  0  0  0  0  0  0
    7.7420   -1.2570  -52.2010 C   0  0  0  0  0  0  0  0  0  0  0  0
    8.0336   -2.9644  -48.7273 H   0  0  0  0  0  0  0  0  0  0  0  0
    8.4057   -1.5474  -49.7667 H   0  0  0  0  0  0  0  0  0  0  0  0
    6.7534   -2.2521  -49.7667 H   0  0  0  0  0  0  0  0  0  0  0  0
    9.2977   -3.6798  -50.7662 H   0  0  0  0  0  0  0  0  0  0  0  0
    7.3086   -4.9665  -49.6296 H   0  0  0  0  0  0  0  0  0  0  0  0
    6.4643   -4.6286  -51.1786 H   0  0  0  0  0  0  0  0  0  0  0  0
    8.0061   -5.5501  -51.1786 H   0  0  0  0  0  0  0  0  0  0  0  0
   10.0890   -2.7410  -52.2730 H   0  0  0  0  0  0  0  0  0  0  0  0
    7.3605   -4.2329  -53.6087 H   0  0  0  0  0  0  0  0  0  0  0  0
    6.1042   -3.5456  -52.5599 H   0  0  0  0  0  0  0  0  0  0  0  0
    7.3274    0.9787  -53.6724 H   0  0  0  0  0  0  0  0  0  0  0  0
    6.9259   -0.3425  -56.2971 H   0  0  0  0  0  0  0  0  0  0  0  0
    5.3266   -0.0086  -55.5606 H   0  0  0  0  0  0  0  0  0  0  0  0
    5.6630    2.1740  -55.6610 H   0  0  0  0  0  0  0  0  0  0  0  0
    6.5385    2.6003  -61.9722 H   0  0  0  0  0  0  0  0  0  0  0  0
    8.8474    2.9594  -62.8660 H   0  0  0  0  0  0  0  0  0  0  0  0
   10.7425    2.8906  -61.2834 H   0  0  0  0  0  0  0  0  0  0  0  0
    8.6612    1.3284  -55.9953 H   0  0  0  0  0  0  0  0  0  0  0  0
    9.3876    4.2203  -56.4846 H   0  0  0  0  0  0  0  0  0  0  0  0
   10.0691    3.5783  -55.1101 H   0  0  0  0  0  0  0  0  0  0  0  0
   11.0950    3.3796  -58.0869 H   0  0  0  0  0  0  0  0  0  0  0  0
   12.1668    3.3230  -56.8194 H   0  0  0  0  0  0  0  0  0  0  0  0
   10.8406    0.9156  -57.8579 H   0  0  0  0  0  0  0  0  0  0  0  0
   11.2813    0.8177  -56.2559 H   0  0  0  0  0  0  0  0  0  0  0  0
    8.6342   -0.6241  -52.0852 H   0  0  0  0  0  0  0  0  0  0  0  0
    7.0869   -0.9635  -51.3675 H   0  0  0  0  0  0  0  0  0  0  0  0
  1  2  1  0
  2  3  1  0
  2  4  1  0
  4  5  1  6
  4  6  1  0
  6  7  1  0
  7  8  1  0
  8  9  2  0
  9 10  1  0
 10 11  1  0
 11 12  1  0
 12 13  1  0
 13 14  2  0
 14 15  1  0
 15 16  2  0
 16 17  1  0
 17 18  2  0
 18 19  1  0
 19 20  2  0
 20 21  1  0
 21 22  1  0
 22 23  1  0
 23 24  1  0
 24 25  1  0
  8 26  1  0
 26  4  1  0
 21 12  2  0
 25 22  1  0
 20 15  1  0
  1 27  1  0
  1 28  1  0
  1 29  1  0
  2 30  1  0
  3 31  1  0
  3 32  1  0
  3 33  1  0
  5 34  1  0
  6 35  1  0
  6 36  1  0
  9 37  1  0
 10 38  1  0
 10 39  1  0
 11 40  1  0
 16 41  1  0
 17 42  1  0
 18 43  1  0
 22 44  1  0
 23 45  1  0
 23 46  1  0
 24 47  1  0
 24 48  1  0
 25 49  1  0
 25 50  1  0
 26 51  1  0
 26 52  1  0
M  END
>  <meeko>  (311) 
{"is_sidechain": false}

$$$$

     RDKit          3D

 52 55  0  0  0  0  0  0  0  0999 V2000
    5.7770   -3.9610  -50.4730 C   0  0  0  0  0  0  0  0  0  0  0  0
    6.8190   -2.9940  -51.0610 C   0  0  0  0  0  0  0  0  0  0  0  0
    7.7810   -2.6050  -49.9280 C   0  0  0  0  0  0  0  0  0  0  0  0
    7.5450   -3.5980  -52.3060 C   0  0  2  0  0  0  0  0  0  0  0  0
    7.4060   -5.0210  -52.3190 O   0  0  0  0  0  0  0  0  0  0  0  0
    9.0250   -3.2000  -52.4200 C   0  0  0  0  0  0  0  0  0  0  0  0
    9.0610   -1.8810  -52.9850 O   0  0  0  0  0  0  0  0  0  0  0  0
    7.9200   -1.8140  -53.7730 C   0  0  0  0  0  0  0  0  0  0  0  0
    7.6610   -0.7530  -54.5490 C   0  0  0  0  0  0  0  0  0  0  0  0
    8.5310    0.4580  -54.6670 C   0  0  0  0  0  0  0  0  0  0  0  0
    8.0650    1.2990  -55.7590 N   0  0  0  0  0  0  0  0  0  0  0  0
    8.9050    1.8890  -56.5470 C   0  0  0  0  0  0  0  0  0  0  0  0
   10.2800    1.7550  -56.4730 N   0  0  0  0  0  0  0  0  0  0  0  0
   11.1920    2.3330  -57.2940 N   0  0  0  0  0  0  0  0  0  0  0  0
   10.6910    3.1030  -58.2100 C   0  0  0  0  0  0  0  0  0  0  0  0
   11.6350    3.7750  -59.1340 C   0  0  0  0  0  0  0  0  0  0  0  0
   11.1870    4.5780  -60.0970 C   0  0  0  0  0  0  0  0  0  0  0  0
    9.7340    4.7680  -60.2040 C   0  0  0  0  0  0  0  0  0  0  0  0
    8.8240    4.2370  -59.4610 N   0  0  0  0  0  0  0  0  0  0  0  0
    9.2250    3.3920  -58.4430 C   0  0  0  0  0  0  0  0  0  0  0  0
    8.3370    2.7870  -57.6230 C   0  0  0  0  0  0  0  0  0  0  0  0
    6.8710    3.0270  -57.8110 C   0  0  0  0  0  0  0  0  0  0  0  0
    5.9110    2.6450  -56.6580 C   0  0  0  0  0  0  0  0  0  0  0  0
    4.8920    2.2210  -57.7380 C   0  0  0  0  0  0  0  0  0  0  0  0
    6.0780    2.0470  -58.7100 C   0  0  0  0  0  0  0  0  0  0  0  0
    7.0400   -3.0160  -53.6270 C   0  0  0  0  0  0  0  0  0  0  0  0
    5.8192   -3.9218  -49.3745 H   0  0  0  0  0  0  0  0  0  0  0  0
    4.7724   -3.6680  -50.8120 H   0  0  0  0  0  0  0  0  0  0  0  0
    5.9943   -4.9846  -50.8120 H   0  0  0  0  0  0  0  0  0  0  0  0
    6.3274   -2.0880  -51.4450 H   0  0  0  0  0  0  0  0  0  0  0  0
    7.3016   -2.7989  -48.9572 H   0  0  0  0  0  0  0  0  0  0  0  0
    8.7018   -3.2015  -50.0078 H   0  0  0  0  0  0  0  0  0  0  0  0
    8.0284   -1.5362  -50.0078 H   0  0  0  0  0  0  0  0  0  0  0  0
    7.3850   -5.3180  -53.2440 H   0  0  0  0  0  0  0  0  0  0  0  0
    9.4936   -3.1979  -51.4248 H   0  0  0  0  0  0  0  0  0  0  0  0
    9.5765   -3.9130  -53.0505 H   0  0  0  0  0  0  0  0  0  0  0  0
    6.7370   -0.7741  -55.1455 H   0  0  0  0  0  0  0  0  0  0  0  0
    8.4929    1.0273  -53.7265 H   0  0  0  0  0  0  0  0  0  0  0  0
    9.5651    0.1423  -54.8694 H   0  0  0  0  0  0  0  0  0  0  0  0
   10.6410    1.0530  -55.8280 H   0  0  0  0  0  0  0  0  0  0  0  0
   12.7167    3.6087  -59.0231 H   0  0  0  0  0  0  0  0  0  0  0  0
   11.8798    5.0811  -60.7876 H   0  0  0  0  0  0  0  0  0  0  0  0
    9.3846    5.4359  -61.0051 H   0  0  0  0  0  0  0  0  0  0  0  0
    7.0255    4.0761  -58.1032 H   0  0  0  0  0  0  0  0  0  0  0  0
    6.2675    1.8255  -56.0166 H   0  0  0  0  0  0  0  0  0  0  0  0
    5.6485    3.3585  -55.8630 H   0  0  0  0  0  0  0  0  0  0  0  0
    4.3462    1.2930  -57.5122 H   0  0  0  0  0  0  0  0  0  0  0  0
    4.0282    2.8527  -57.9927 H   0  0  0  0  0  0  0  0  0  0  0  0
    6.4902    1.0281  -58.7530 H   0  0  0  0  0  0  0  0  0  0  0  0
    5.9687    2.2138  -59.7918 H   0  0  0  0  0  0  0  0  0  0  0  0
    5.9790   -2.7329  -53.5629 H   0  0  0  0  0  0  0  0  0  0  0  0
    7.0878   -3.7151  -54.4749 H   0  0  0  0  0  0  0  0  0  0  0  0
  1  2  1  0
  2  3  1  0
  2  4  1  0
  4  5  1  6
  4  6  1  0
  6  7  1  0
  7  8  1  0
  8  9  2  0
  9 10  1  0
 10 11  1  0
 11 12  2  0
 12 13  1  0
 13 14  1  0
 14 15  2  0
 15 16  1  0
 16 17  2  0
 17 18  1  0
 18 19  2  0
 19 20  1  0
 20 21  2  0
 21 22  1  0
 22 23  1  0
 23 24  1  0
 24 25  1  0
  8 26  1  0
 26  4  1  0
 21 12  1  0
 25 22  1  0
 20 15  1  0
  1 27  1  0
  1 28  1  0
  1 29  1  0
  2 30  1  0
  3 31  1  0
  3 32  1  0
  3 33  1  0
  5 34  1  0
  6 35  1  0
  6 36  1  0
  9 37  1  0
 10 38  1  0
 10 39  1  0
 13 40  1  0
 16 41  1  0
 17 42  1  0
 18 43  1  0
 22 44  1  0
 23 45  1  0
 23 46  1  0
 24 47  1  0
 24 48  1  0
 25 49  1  0
 25 50  1  0
 26 51  1  0
 26 52  1  0
M  END
>  <meeko>  (312) 
{"is_sidechain": false}

$$$$

     RDKit          3D

 52 55  0  0  0  0  0  0  0  0999 V2000
   10.7880   -4.8350  -57.2760 C   0  0  0  0  0  0  0  0  0  0  0  0
   11.1690   -4.8620  -55.7900 C   0  0  0  0  0  0  0  0  0  0  0  0
   12.6460   -5.2560  -55.6620 C   0  0  0  0  0  0  0  0  0  0  0  0
   10.8630   -3.5210  -55.0870 C   0  0  1  0  0  0  0  0  0  0  0  0
   11.5750   -3.4790  -53.8380 O   0  0  0  0  0  0  0  0  0  0  0  0
   11.2240   -2.2890  -55.9200 C   0  0  0  0  0  0  0  0  0  0  0  0
   10.4570   -1.1970  -55.3730 O   0  0  0  0  0  0  0  0  0  0  0  0
    9.3250   -1.7840  -54.8260 C   0  0  0  0  0  0  0  0  0  0  0  0
    8.3110   -1.0520  -54.3470 C   0  0  0  0  0  0  0  0  0  0  0  0
    8.2640    0.4440  -54.3320 C   0  0  0  0  0  0  0  0  0  0  0  0
    7.7880    0.9360  -55.6170 N   0  0  0  0  0  0  0  0  0  0  0  0
    8.5910    1.5610  -56.4210 C   0  0  0  0  0  0  0  0  0  0  0  0
    9.9360    1.7810  -56.1880 N   0  0  0  0  0  0  0  0  0  0  0  0
   10.8040    2.4020  -57.0220 N   0  0  0  0  0  0  0  0  0  0  0  0
   10.2800    2.8490  -58.1220 C   0  0  0  0  0  0  0  0  0  0  0  0
   11.1790    3.5500  -59.0690 C   0  0  0  0  0  0  0  0  0  0  0  0
   10.7110    4.0340  -60.2200 C   0  0  0  0  0  0  0  0  0  0  0  0
    9.2830    3.8420  -60.5050 C   0  0  0  0  0  0  0  0  0  0  0  0
    8.4140    3.2500  -59.7590 N   0  0  0  0  0  0  0  0  0  0  0  0
    8.8330    2.7260  -58.5540 C   0  0  0  0  0  0  0  0  0  0  0  0
    7.9960    2.0820  -57.7100 C   0  0  0  0  0  0  0  0  0  0  0  0
    6.5390    1.8700  -57.9870 C   0  0  0  0  0  0  0  0  0  0  0  0
    6.1170    1.2000  -59.3180 C   0  0  0  0  0  0  0  0  0  0  0  0
    4.8750    2.1160  -59.3040 C   0  0  0  0  0  0  0  0  0  0  0  0
    5.6670    3.0830  -58.3960 C   0  0  0  0  0  0  0  0  0  0  0  0
    9.3790   -3.2820  -54.8270 C   0  0  0  0  0  0  0  0  0  0  0  0
    9.6950   -4.7575  -57.3729 H   0  0  0  0  0  0  0  0  0  0  0  0
   11.2614   -3.9682  -57.7602 H   0  0  0  0  0  0  0  0  0  0  0  0
   11.1344   -5.7599  -57.7602 H   0  0  0  0  0  0  0  0  0  0  0  0
   10.5518   -5.6136  -55.2761 H   0  0  0  0  0  0  0  0  0  0  0  0
   12.9154   -5.3279  -54.5979 H   0  0  0  0  0  0  0  0  0  0  0  0
   12.8094   -6.2291  -56.1481 H   0  0  0  0  0  0  0  0  0  0  0  0
   13.2723   -4.4935  -56.1481 H   0  0  0  0  0  0  0  0  0  0  0  0
   11.4880   -2.5720  -53.4860 H   0  0  0  0  0  0  0  0  0  0  0  0
   12.3004   -2.0767  -55.8408 H   0  0  0  0  0  0  0  0  0  0  0  0
   10.9984   -2.4443  -56.9854 H   0  0  0  0  0  0  0  0  0  0  0  0
    7.4464   -1.5915  -53.9329 H   0  0  0  0  0  0  0  0  0  0  0  0
    7.5819    0.7799  -53.5371 H   0  0  0  0  0  0  0  0  0  0  0  0
    9.2742    0.8370  -54.1445 H   0  0  0  0  0  0  0  0  0  0  0  0
   10.3440    1.3310  -55.3690 H   0  0  0  0  0  0  0  0  0  0  0  0
   12.2434    3.6723  -58.8198 H   0  0  0  0  0  0  0  0  0  0  0  0
   11.3694    4.5572  -60.9291 H   0  0  0  0  0  0  0  0  0  0  0  0
    8.9148    4.2475  -61.4589 H   0  0  0  0  0  0  0  0  0  0  0  0
    6.3979    1.3635  -57.0208 H   0  0  0  0  0  0  0  0  0  0  0  0
    6.8059    1.3733  -60.1579 H   0  0  0  0  0  0  0  0  0  0  0  0
    6.0303    0.1077  -59.4148 H   0  0  0  0  0  0  0  0  0  0  0  0
    4.6021    2.5310  -60.2855 H   0  0  0  0  0  0  0  0  0  0  0  0
    3.8843    1.7365  -59.0134 H   0  0  0  0  0  0  0  0  0  0  0  0
    6.2073    3.8774  -58.9317 H   0  0  0  0  0  0  0  0  0  0  0  0
    5.1675    3.7166  -57.6483 H   0  0  0  0  0  0  0  0  0  0  0  0
    9.0668   -3.6979  -53.8577 H   0  0  0  0  0  0  0  0  0  0  0  0
    8.7087   -3.7589  -55.5573 H   0  0  0  0  0  0  0  0  0  0  0  0
  1  2  1  0
  2  3  1  0
  2  4  1  0
  4  5  1  1
  4  6  1  0
  6  7  1  0
  7  8  1  0
  8  9  2  0
  9 10  1  0
 10 11  1  0
 11 12  2  0
 12 13  1  0
 13 14  1  0
 14 15  2  0
 15 16  1  0
 16 17  2  0
 17 18  1  0
 18 19  2  0
 19 20  1  0
 20 21  2  0
 21 22  1  0
 22 23  1  0
 23 24  1  0
 24 25  1  0
  8 26  1  0
 26  4  1  0
 21 12  1  0
 25 22  1  0
 20 15  1  0
  1 27  1  0
  1 28  1  0
  1 29  1  0
  2 30  1  0
  3 31  1  0
  3 32  1  0
  3 33  1  0
  5 34  1  0
  6 35  1  0
  6 36  1  0
  9 37  1  0
 10 38  1  0
 10 39  1  0
 13 40  1  0
 16 41  1  0
 17 42  1  0
 18 43  1  0
 22 44  1  0
 23 45  1  0
 23 46  1  0
 24 47  1  0
 24 48  1  0
 25 49  1  0
 25 50  1  0
 26 51  1  0
 26 52  1  0
M  END
>  <meeko>  (313) 
{"is_sidechain": false}

$$$$

     RDKit          3D

 52 55  0  0  0  0  0  0  0  0999 V2000
    7.7120   -2.2350  -49.8140 C   0  0  0  0  0  0  0  0  0  0  0  0
    8.2830   -3.2100  -50.8510 C   0  0  0  0  0  0  0  0  0  0  0  0
    7.8050   -4.6290  -50.5150 C   0  0  0  0  0  0  0  0  0  0  0  0
    7.9190   -2.8000  -52.2950 C   0  0  2  0  0  0  0  0  0  0  0  0
    7.3670   -3.9400  -52.9780 O   0  0  0  0  0  0  0  0  0  0  0  0
    9.0980   -2.2460  -53.0960 C   0  0  0  0  0  0  0  0  0  0  0  0
    8.5240   -1.4820  -54.1730 O   0  0  0  0  0  0  0  0  0  0  0  0
    7.2770   -1.0740  -53.7270 C   0  0  0  0  0  0  0  0  0  0  0  0
    6.4540   -0.3060  -54.4570 C   0  0  0  0  0  0  0  0  0  0  0  0
    6.6530    0.2530  -55.8370 C   0  0  0  0  0  0  0  0  0  0  0  0
    7.6020    1.3400  -55.8720 N   0  0  0  0  0  0  0  0  0  0  0  0
    7.8930    2.0740  -56.8910 C   0  0  0  0  0  0  0  0  0  0  0  0
    8.9650    2.9140  -56.6580 N   0  0  0  0  0  0  0  0  0  0  0  0
    9.8560    3.3050  -57.6070 N   0  0  0  0  0  0  0  0  0  0  0  0
    9.4430    3.1320  -58.8260 C   0  0  0  0  0  0  0  0  0  0  0  0
   10.3590    3.5240  -59.9230 C   0  0  0  0  0  0  0  0  0  0  0  0
    9.9600    3.4610  -61.1930 C   0  0  0  0  0  0  0  0  0  0  0  0
    8.5850    3.0100  -61.4510 C   0  0  0  0  0  0  0  0  0  0  0  0
    7.7210    2.6120  -60.5800 N   0  0  0  0  0  0  0  0  0  0  0  0
    8.0930    2.5880  -59.2510 C   0  0  0  0  0  0  0  0  0  0  0  0
    7.2830    2.1090  -58.2760 C   0  0  0  0  0  0  0  0  0  0  0  0
    5.8600    1.7320  -58.5250 C   0  0  0  0  0  0  0  0  0  0  0  0
    5.2540    1.9930  -59.9250 C   0  0  0  0  0  0  0  0  0  0  0  0
    3.9090    2.2610  -59.2160 C   0  0  0  0  0  0  0  0  0  0  0  0
    4.7120    2.5970  -57.9400 C   0  0  0  0  0  0  0  0  0  0  0  0
    6.9340   -1.6390  -52.3800 C   0  0  0  0  0  0  0  0  0  0  0  0
    7.9299   -2.6070  -48.8020 H   0  0  0  0  0  0  0  0  0  0  0  0
    8.1733   -1.2455  -49.9481 H   0  0  0  0  0  0  0  0  0  0  0  0
    6.6233   -2.1532  -49.9481 H   0  0  0  0  0  0  0  0  0  0  0  0
    9.3816   -3.1819  -50.8035 H   0  0  0  0  0  0  0  0  0  0  0  0
    7.7633   -4.7529  -49.4228 H   0  0  0  0  0  0  0  0  0  0  0  0
    6.8034   -4.7889  -50.9407 H   0  0  0  0  0  0  0  0  0  0  0  0
    8.5057   -5.3624  -50.9407 H   0  0  0  0  0  0  0  0  0  0  0  0
    7.2780   -3.6890  -53.9190 H   0  0  0  0  0  0  0  0  0  0  0  0
    9.7221   -1.6007  -52.4603 H   0  0  0  0  0  0  0  0  0  0  0  0
    9.7421   -3.0534  -53.4743 H   0  0  0  0  0  0  0  0  0  0  0  0
    5.4981   -0.0493  -53.9770 H   0  0  0  0  0  0  0  0  0  0  0  0
    7.0171   -0.5519  -56.4924 H   0  0  0  0  0  0  0  0  0  0  0  0
    5.6843    0.6499  -56.1749 H   0  0  0  0  0  0  0  0  0  0  0  0
    9.3360    2.7970  -55.7170 H   0  0  0  0  0  0  0  0  0  0  0  0
   11.3763    3.8697  -59.6872 H   0  0  0  0  0  0  0  0  0  0  0  0
   10.6344    3.7362  -62.0173 H   0  0  0  0  0  0  0  0  0  0  0  0
    8.2573    3.0122  -62.5010 H   0  0  0  0  0  0  0  0  0  0  0  0
    6.0452    0.7147  -58.1499 H   0  0  0  0  0  0  0  0  0  0  0  0
    5.6755    2.8610  -60.4531 H   0  0  0  0  0  0  0  0  0  0  0  0
    5.3430    1.2602  -60.7405 H   0  0  0  0  0  0  0  0  0  0  0  0
    3.3343    3.1030  -59.6293 H   0  0  0  0  0  0  0  0  0  0  0  0
    3.1042    1.5111  -59.2078 H   0  0  0  0  0  0  0  0  0  0  0  0
    4.9558    3.6626  -57.8175 H   0  0  0  0  0  0  0  0  0  0  0  0
    4.3050    2.4184  -56.9338 H   0  0  0  0  0  0  0  0  0  0  0  0
    7.1038   -0.9051  -51.5784 H   0  0  0  0  0  0  0  0  0  0  0  0
    5.8792   -1.9285  -52.2638 H   0  0  0  0  0  0  0  0  0  0  0  0
  1  2  1  0
  2  3  1  0
  2  4  1  0
  4  5  1  6
  4  6  1  0
  6  7  1  0
  7  8  1  0
  8  9  2  0
  9 10  1  0
 10 11  1  0
 11 12  2  0
 12 13  1  0
 13 14  1  0
 14 15  2  0
 15 16  1  0
 16 17  2  0
 17 18  1  0
 18 19  2  0
 19 20  1  0
 20 21  2  0
 21 22  1  0
 22 23  1  0
 23 24  1  0
 24 25  1  0
  8 26  1  0
 26  4  1  0
 21 12  1  0
 25 22  1  0
 20 15  1  0
  1 27  1  0
  1 28  1  0
  1 29  1  0
  2 30  1  0
  3 31  1  0
  3 32  1  0
  3 33  1  0
  5 34  1  0
  6 35  1  0
  6 36  1  0
  9 37  1  0
 10 38  1  0
 10 39  1  0
 13 40  1  0
 16 41  1  0
 17 42  1  0
 18 43  1  0
 22 44  1  0
 23 45  1  0
 23 46  1  0
 24 47  1  0
 24 48  1  0
 25 49  1  0
 25 50  1  0
 26 51  1  0
 26 52  1  0
M  END
>  <meeko>  (314) 
{"is_sidechain": false}

$$$$

     RDKit          3D

 52 55  0  0  0  0  0  0  0  0999 V2000
    8.2100   -2.9780  -49.7690 C   0  0  0  0  0  0  0  0  0  0  0  0
    7.5500   -3.8200  -50.8680 C   0  0  0  0  0  0  0  0  0  0  0  0
    6.0910   -4.0910  -50.4780 C   0  0  0  0  0  0  0  0  0  0  0  0
    7.6660   -3.1560  -52.2580 C   0  0  1  0  0  0  0  0  0  0  0  0
    8.1400   -4.1340  -53.2010 O   0  0  0  0  0  0  0  0  0  0  0  0
    6.3540   -2.5530  -52.7660 C   0  0  0  0  0  0  0  0  0  0  0  0
    6.7170   -1.5800  -53.7650 O   0  0  0  0  0  0  0  0  0  0  0  0
    8.0040   -1.1770  -53.4420 C   0  0  0  0  0  0  0  0  0  0  0  0
    8.6590   -0.2470  -54.1500 C   0  0  0  0  0  0  0  0  0  0  0  0
    8.1160    0.4740  -55.3440 C   0  0  0  0  0  0  0  0  0  0  0  0
    8.9310    1.6450  -55.5970 N   0  0  0  0  0  0  0  0  0  0  0  0
    8.9470    2.3490  -56.6770 C   0  0  0  0  0  0  0  0  0  0  0  0
    9.9810    3.2640  -56.7160 N   0  0  0  0  0  0  0  0  0  0  0  0
   10.6260    3.6290  -57.8580 N   0  0  0  0  0  0  0  0  0  0  0  0
    9.9760    3.3560  -58.9500 C   0  0  0  0  0  0  0  0  0  0  0  0
   10.6150    3.7070  -60.2400 C   0  0  0  0  0  0  0  0  0  0  0  0
    9.9550    3.5460  -61.3860 C   0  0  0  0  0  0  0  0  0  0  0  0
    8.5800    3.0320  -61.3140 C   0  0  0  0  0  0  0  0  0  0  0  0
    7.9440    2.6590  -60.2560 N   0  0  0  0  0  0  0  0  0  0  0  0
    8.5980    2.7290  -59.0420 C   0  0  0  0  0  0  0  0  0  0  0  0
    8.0470    2.2810  -57.8900 C   0  0  0  0  0  0  0  0  0  0  0  0
    6.6200    1.8540  -57.7850 C   0  0  0  0  0  0  0  0  0  0  0  0
    5.6310    2.2910  -58.8930 C   0  0  0  0  0  0  0  0  0  0  0  0
    4.5420    2.3530  -57.8000 C   0  0  0  0  0  0  0  0  0  0  0  0
    5.6730    2.5410  -56.7650 C   0  0  0  0  0  0  0  0  0  0  0  0
    8.5840   -1.9400  -52.2900 C   0  0  0  0  0  0  0  0  0  0  0  0
    7.9093   -3.3616  -48.7829 H   0  0  0  0  0  0  0  0  0  0  0  0
    9.3039   -3.0384  -49.8680 H   0  0  0  0  0  0  0  0  0  0  0  0
    7.8901   -1.9302  -49.8680 H   0  0  0  0  0  0  0  0  0  0  0  0
    8.0825   -4.7788  -50.9528 H   0  0  0  0  0  0  0  0  0  0  0  0
    6.0015   -4.1076  -49.3818 H   0  0  0  0  0  0  0  0  0  0  0  0
    5.4487   -3.2968  -50.8863 H   0  0  0  0  0  0  0  0  0  0  0  0
    5.7768   -5.0629  -50.8863 H   0  0  0  0  0  0  0  0  0  0  0  0
    7.3730   -4.6810  -53.4590 H   0  0  0  0  0  0  0  0  0  0  0  0
    5.7211   -3.3361  -53.2091 H   0  0  0  0  0  0  0  0  0  0  0  0
    5.7822   -2.0917  -51.9473 H   0  0  0  0  0  0  0  0  0  0  0  0
    9.6794    0.0075  -53.8274 H   0  0  0  0  0  0  0  0  0  0  0  0
    8.1427   -0.1906  -56.2201 H   0  0  0  0  0  0  0  0  0  0  0  0
    7.0761    0.7781  -55.1541 H   0  0  0  0  0  0  0  0  0  0  0  0
   10.5630    3.2080  -55.8820 H   0  0  0  0  0  0  0  0  0  0  0  0
   11.6411    4.1031  -60.2515 H   0  0  0  0  0  0  0  0  0  0  0  0
   10.4225    3.7891  -62.3516 H   0  0  0  0  0  0  0  0  0  0  0  0
    8.0341    2.9574  -62.2660 H   0  0  0  0  0  0  0  0  0  0  0  0
    6.9242    0.8054  -57.6513 H   0  0  0  0  0  0  0  0  0  0  0  0
    5.8656    3.2577  -59.3625 H   0  0  0  0  0  0  0  0  0  0  0  0
    5.4954    1.7033  -59.8129 H   0  0  0  0  0  0  0  0  0  0  0  0
    3.8549    3.2076  -57.8869 H   0  0  0  0  0  0  0  0  0  0  0  0
    3.7894    1.5581  -57.6919 H   0  0  0  0  0  0  0  0  0  0  0  0
    5.9213    3.5889  -56.5408 H   0  0  0  0  0  0  0  0  0  0  0  0
    5.5774    2.1830  -55.7293 H   0  0  0  0  0  0  0  0  0  0  0  0
    9.6288   -2.2270  -52.4801 H   0  0  0  0  0  0  0  0  0  0  0  0
    8.6246   -1.3765  -51.3462 H   0  0  0  0  0  0  0  0  0  0  0  0
  1  2  1  0
  2  3  1  0
  2  4  1  0
  4  5  1  6
  4  6  1  0
  6  7  1  0
  7  8  1  0
  8  9  2  0
  9 10  1  0
 10 11  1  0
 11 12  2  0
 12 13  1  0
 13 14  1  0
 14 15  2  0
 15 16  1  0
 16 17  2  0
 17 18  1  0
 18 19  2  0
 19 20  1  0
 20 21  2  0
 21 22  1  0
 22 23  1  0
 23 24  1  0
 24 25  1  0
  8 26  1  0
 26  4  1  0
 21 12  1  0
 25 22  1  0
 20 15  1  0
  1 27  1  0
  1 28  1  0
  1 29  1  0
  2 30  1  0
  3 31  1  0
  3 32  1  0
  3 33  1  0
  5 34  1  0
  6 35  1  0
  6 36  1  0
  9 37  1  0
 10 38  1  0
 10 39  1  0
 13 40  1  0
 16 41  1  0
 17 42  1  0
 18 43  1  0
 22 44  1  0
 23 45  1  0
 23 46  1  0
 24 47  1  0
 24 48  1  0
 25 49  1  0
 25 50  1  0
 26 51  1  0
 26 52  1  0
M  END
>  <meeko>  (315) 
{"is_sidechain": false}

$$$$

     RDKit          3D

 52 55  0  0  0  0  0  0  0  0999 V2000
    7.8120   -2.5050  -49.7230 C   0  0  0  0  0  0  0  0  0  0  0  0
    8.2380   -3.5230  -50.7900 C   0  0  0  0  0  0  0  0  0  0  0  0
    7.4300   -4.8130  -50.5980 C   0  0  0  0  0  0  0  0  0  0  0  0
    8.0980   -2.9570  -52.2200 C   0  0  2  0  0  0  0  0  0  0  0  0
    7.7940   -4.0350  -53.1220 O   0  0  0  0  0  0  0  0  0  0  0  0
    9.3390   -2.2120  -52.7130 C   0  0  0  0  0  0  0  0  0  0  0  0
    8.8880   -1.3660  -53.7870 O   0  0  0  0  0  0  0  0  0  0  0  0
    7.5590   -1.0950  -53.5260 C   0  0  0  0  0  0  0  0  0  0  0  0
    6.8100   -0.2790  -54.2850 C   0  0  0  0  0  0  0  0  0  0  0  0
    7.1600    0.5420  -55.4920 C   0  0  0  0  0  0  0  0  0  0  0  0
    6.0530    1.1310  -56.2160 N   0  0  0  0  0  0  0  0  0  0  0  0
    6.1770    2.0240  -57.1230 C   0  0  0  0  0  0  0  0  0  0  0  0
    5.0080    2.3750  -57.7670 N   0  0  0  0  0  0  0  0  0  0  0  0
    5.0310    2.4310  -59.0200 N   0  0  0  0  0  0  0  0  0  0  0  0
    6.2130    2.4850  -59.7130 C   0  0  0  0  0  0  0  0  0  0  0  0
    6.2440    2.3850  -61.0580 C   0  0  0  0  0  0  0  0  0  0  0  0
    7.4690    2.6350  -61.7960 C   0  0  0  0  0  0  0  0  0  0  0  0
    8.5360    3.0790  -61.1160 C   0  0  0  0  0  0  0  0  0  0  0  0
    8.5120    3.2550  -59.7500 N   0  0  0  0  0  0  0  0  0  0  0  0
    7.4370    2.8470  -58.9610 C   0  0  0  0  0  0  0  0  0  0  0  0
    7.3870    2.7610  -57.6160 C   0  0  0  0  0  0  0  0  0  0  0  0
    8.4100    3.2690  -56.6690 C   0  0  0  0  0  0  0  0  0  0  0  0
    9.8650    2.7610  -56.7890 C   0  0  0  0  0  0  0  0  0  0  0  0
   10.3280    4.1730  -56.3760 C   0  0  0  0  0  0  0  0  0  0  0  0
    8.9610    4.7060  -56.8510 C   0  0  0  0  0  0  0  0  0  0  0  0
    7.0330   -1.8740  -52.3570 C   0  0  0  0  0  0  0  0  0  0  0  0
    7.9885   -2.9268  -48.7226 H   0  0  0  0  0  0  0  0  0  0  0  0
    8.3996   -1.5826  -49.8409 H   0  0  0  0  0  0  0  0  0  0  0  0
    6.7426   -2.2760  -49.8409 H   0  0  0  0  0  0  0  0  0  0  0  0
    9.3072   -3.7487  -50.6637 H   0  0  0  0  0  0  0  0  0  0  0  0
    7.3058   -5.0113  -49.5232 H   0  0  0  0  0  0  0  0  0  0  0  0
    6.4413   -4.6995  -51.0666 H   0  0  0  0  0  0  0  0  0  0  0  0
    7.9636   -5.6531  -51.0666 H   0  0  0  0  0  0  0  0  0  0  0  0
    7.3020   -4.7050  -52.6080 H   0  0  0  0  0  0  0  0  0  0  0  0
    9.7688   -1.6054  -51.9023 H   0  0  0  0  0  0  0  0  0  0  0  0
   10.1225   -2.9078  -53.0475 H   0  0  0  0  0  0  0  0  0  0  0  0
    5.7598   -0.1983  -53.9679 H   0  0  0  0  0  0  0  0  0  0  0  0
    7.8159    1.3605  -55.1606 H   0  0  0  0  0  0  0  0  0  0  0  0
    7.6275   -0.1613  -56.1968 H   0  0  0  0  0  0  0  0  0  0  0  0
    5.3288    2.1103  -61.6029 H   0  0  0  0  0  0  0  0  0  0  0  0
    7.5204    2.4651  -62.8816 H   0  0  0  0  0  0  0  0  0  0  0  0
    9.4599    3.3100  -61.6665 H   0  0  0  0  0  0  0  0  0  0  0  0
    9.3990    3.4340  -59.2970 H   0  0  0  0  0  0  0  0  0  0  0  0
    7.7813    3.0037  -55.8063 H   0  0  0  0  0  0  0  0  0  0  0  0
   10.1322    1.9654  -56.0779 H   0  0  0  0  0  0  0  0  0  0  0  0
   10.2334    2.2791  -57.7066 H   0  0  0  0  0  0  0  0  0  0  0  0
   10.5159    4.2947  -55.2990 H   0  0  0  0  0  0  0  0  0  0  0  0
   11.2705    4.5992  -56.7502 H   0  0  0  0  0  0  0  0  0  0  0  0
    8.5072    5.4581  -56.1889 H   0  0  0  0  0  0  0  0  0  0  0  0
    8.8517    5.2505  -57.8005 H   0  0  0  0  0  0  0  0  0  0  0  0
    6.9723   -1.2515  -51.4521 H   0  0  0  0  0  0  0  0  0  0  0  0
    6.0119   -2.2595  -52.4938 H   0  0  0  0  0  0  0  0  0  0  0  0
  1  2  1  0
  2  3  1  0
  2  4  1  0
  4  5  1  6
  4  6  1  0
  6  7  1  0
  7  8  1  0
  8  9  2  0
  9 10  1  0
 10 11  1  0
 11 12  2  0
 12 13  1  0
 13 14  2  0
 14 15  1  0
 15 16  2  0
 16 17  1  0
 17 18  2  0
 18 19  1  0
 19 20  1  0
 20 21  2  0
 21 22  1  0
 22 23  1  0
 23 24  1  0
 24 25  1  0
  8 26  1  0
 26  4  1  0
 21 12  1  0
 25 22  1  0
 20 15  1  0
  1 27  1  0
  1 28  1  0
  1 29  1  0
  2 30  1  0
  3 31  1  0
  3 32  1  0
  3 33  1  0
  5 34  1  0
  6 35  1  0
  6 36  1  0
  9 37  1  0
 10 38  1  0
 10 39  1  0
 16 40  1  0
 17 41  1  0
 18 42  1  0
 19 43  1  0
 22 44  1  0
 23 45  1  0
 23 46  1  0
 24 47  1  0
 24 48  1  0
 25 49  1  0
 25 50  1  0
 26 51  1  0
 26 52  1  0
M  END
>  <meeko>  (316) 
{"is_sidechain": false}

$$$$

     RDKit          3D

 52 55  0  0  0  0  0  0  0  0999 V2000
    5.9840   -3.7760  -50.7780 C   0  0  0  0  0  0  0  0  0  0  0  0
    6.7880   -3.2950  -51.9980 C   0  0  0  0  0  0  0  0  0  0  0  0
    7.3800   -4.5110  -52.7180 C   0  0  0  0  0  0  0  0  0  0  0  0
    7.8140   -2.1820  -51.6260 C   0  0  1  0  0  0  0  0  0  0  0  0
    7.9730   -2.1710  -50.2010 O   0  0  0  0  0  0  0  0  0  0  0  0
    9.1900   -2.3210  -52.2850 C   0  0  0  0  0  0  0  0  0  0  0  0
    9.1490   -1.6160  -53.5360 O   0  0  0  0  0  0  0  0  0  0  0  0
    8.1690   -0.6500  -53.3800 C   0  0  0  0  0  0  0  0  0  0  0  0
    7.9130    0.2650  -54.3250 C   0  0  0  0  0  0  0  0  0  0  0  0
    8.6600    0.4100  -55.6150 C   0  0  0  0  0  0  0  0  0  0  0  0
    9.2060    1.7530  -55.6540 N   0  0  0  0  0  0  0  0  0  0  0  0
    8.9530    2.5600  -56.6160 C   0  0  0  0  0  0  0  0  0  0  0  0
    9.6780    3.7330  -56.6180 N   0  0  0  0  0  0  0  0  0  0  0  0
   10.2120    4.0840  -57.6990 N   0  0  0  0  0  0  0  0  0  0  0  0
    9.8270    3.5410  -58.9010 C   0  0  0  0  0  0  0  0  0  0  0  0
   10.4940    3.7980  -60.0450 C   0  0  0  0  0  0  0  0  0  0  0  0
    9.9680    3.3550  -61.3250 C   0  0  0  0  0  0  0  0  0  0  0  0
    8.7530    2.7840  -61.3520 C   0  0  0  0  0  0  0  0  0  0  0  0
    8.0170    2.5750  -60.2070 N   0  0  0  0  0  0  0  0  0  0  0  0
    8.5480    2.8050  -58.9380 C   0  0  0  0  0  0  0  0  0  0  0  0
    8.0060    2.4330  -57.7640 C   0  0  0  0  0  0  0  0  0  0  0  0
    6.6440    1.8530  -57.6550 C   0  0  0  0  0  0  0  0  0  0  0  0
    5.7320    2.4240  -56.5270 C   0  0  0  0  0  0  0  0  0  0  0  0
    4.5500    2.2930  -57.5030 C   0  0  0  0  0  0  0  0  0  0  0  0
    5.5760    2.4290  -58.6390 C   0  0  0  0  0  0  0  0  0  0  0  0
    7.4060   -0.7890  -52.1020 C   0  0  0  0  0  0  0  0  0  0  0  0
    6.4982   -3.4684  -49.8555 H   0  0  0  0  0  0  0  0  0  0  0  0
    4.9783   -3.3311  -50.8030 H   0  0  0  0  0  0  0  0  0  0  0  0
    5.9005   -4.8725  -50.8030 H   0  0  0  0  0  0  0  0  0  0  0  0
    6.1215   -2.7940  -52.7155 H   0  0  0  0  0  0  0  0  0  0  0  0
    7.7350   -5.2402  -51.9749 H   0  0  0  0  0  0  0  0  0  0  0  0
    6.6075   -4.9761  -53.3480 H   0  0  0  0  0  0  0  0  0  0  0  0
    8.2225   -4.1898  -53.3480 H   0  0  0  0  0  0  0  0  0  0  0  0
    7.1430   -2.4900  -49.8070 H   0  0  0  0  0  0  0  0  0  0  0  0
    9.9625   -1.8850  -51.6345 H   0  0  0  0  0  0  0  0  0  0  0  0
    9.4333   -3.3812  -52.4484 H   0  0  0  0  0  0  0  0  0  0  0  0
    7.0869    0.9668  -54.1380 H   0  0  0  0  0  0  0  0  0  0  0  0
    9.4743   -0.3280  -55.6624 H   0  0  0  0  0  0  0  0  0  0  0  0
    7.9912    0.2387  -56.4714 H   0  0  0  0  0  0  0  0  0  0  0  0
   11.4457    4.3485  -60.0085 H   0  0  0  0  0  0  0  0  0  0  0  0
   10.5507    3.4842  -62.2490 H   0  0  0  0  0  0  0  0  0  0  0  0
    8.3321    2.4733  -62.3196 H   0  0  0  0  0  0  0  0  0  0  0  0
    7.2180    1.9570  -60.2800 H   0  0  0  0  0  0  0  0  0  0  0  0
    6.9715    0.8030  -57.6739 H   0  0  0  0  0  0  0  0  0  0  0  0
    5.6592    1.7894  -55.6315 H   0  0  0  0  0  0  0  0  0  0  0  0
    5.9626    3.3748  -56.0242 H   0  0  0  0  0  0  0  0  0  0  0  0
    4.0283    1.3253  -57.4671 H   0  0  0  0  0  0  0  0  0  0  0  0
    3.6650    2.9429  -57.4366 H   0  0  0  0  0  0  0  0  0  0  0  0
    5.3741    1.7979  -59.5170 H   0  0  0  0  0  0  0  0  0  0  0  0
    5.7309    3.3817  -59.1666 H   0  0  0  0  0  0  0  0  0  0  0  0
    7.7022   -0.0177  -51.3758 H   0  0  0  0  0  0  0  0  0  0  0  0
    6.3196   -0.6668  -52.2233 H   0  0  0  0  0  0  0  0  0  0  0  0
  1  2  1  0
  2  3  1  0
  2  4  1  0
  4  5  1  1
  4  6  1  0
  6  7  1  0
  7  8  1  0
  8  9  2  0
  9 10  1  0
 10 11  1  0
 11 12  2  0
 12 13  1  0
 13 14  2  0
 14 15  1  0
 15 16  2  0
 16 17  1  0
 17 18  2  0
 18 19  1  0
 19 20  1  0
 20 21  2  0
 21 22  1  0
 22 23  1  0
 23 24  1  0
 24 25  1  0
  8 26  1  0
 26  4  1  0
 21 12  1  0
 25 22  1  0
 20 15  1  0
  1 27  1  0
  1 28  1  0
  1 29  1  0
  2 30  1  0
  3 31  1  0
  3 32  1  0
  3 33  1  0
  5 34  1  0
  6 35  1  0
  6 36  1  0
  9 37  1  0
 10 38  1  0
 10 39  1  0
 16 40  1  0
 17 41  1  0
 18 42  1  0
 19 43  1  0
 22 44  1  0
 23 45  1  0
 23 46  1  0
 24 47  1  0
 24 48  1  0
 25 49  1  0
 25 50  1  0
 26 51  1  0
 26 52  1  0
M  END
>  <meeko>  (317) 
{"is_sidechain": false}

$$$$

     RDKit          3D

 34 37  0  0  0  0  0  0  0  0999 V2000
    5.6140    2.2430  -58.2360 O   0  0  0  0  0  0  0  0  0  0  0  0
    6.7780    2.2070  -57.8470 C   0  0  0  0  0  0  0  0  0  0  0  0
    7.0950    1.4480  -56.7640 N   0  0  0  0  0  0  0  0  0  0  0  0
    8.3700    1.1610  -56.1350 C   0  0  2  0  0  0  0  0  0  0  0  0
    8.2740    0.2680  -54.9100 C   0  0  0  0  0  0  0  0  0  0  0  0
    7.2190    0.3910  -54.0160 C   0  0  0  0  0  0  0  0  0  0  0  0
    7.0940   -0.3640  -52.9090 N   0  0  0  0  0  0  0  0  0  0  0  0
    8.0440   -1.2970  -52.6220 N   0  0  0  0  0  0  0  0  0  0  0  0
    9.0990   -1.4740  -53.4280 C   0  0  0  0  0  0  0  0  0  0  0  0
   10.0410   -2.4300  -53.0910 C   0  0  0  0  0  0  0  0  0  0  0  0
   11.1320   -2.6230  -53.9110 C   0  0  0  0  0  0  0  0  0  0  0  0
   11.3370   -1.9240  -55.0400 N   0  0  0  0  0  0  0  0  0  0  0  0
   10.4070   -0.9960  -55.3530 C   0  0  0  0  0  0  0  0  0  0  0  0
    9.2590   -0.7090  -54.5950 C   0  0  0  0  0  0  0  0  0  0  0  0
    9.2500    2.4110  -55.9660 C   0  0  0  0  0  0  0  0  0  0  0  0
    9.9110    2.8440  -57.2390 C   0  0  0  0  0  0  0  0  0  0  0  0
   11.3070    2.9860  -57.2930 C   0  0  0  0  0  0  0  0  0  0  0  0
   11.9410    3.3800  -58.4740 C   0  0  0  0  0  0  0  0  0  0  0  0
   11.1920    3.6300  -59.6210 C   0  0  0  0  0  0  0  0  0  0  0  0
    9.8080    3.4850  -59.5850 C   0  0  0  0  0  0  0  0  0  0  0  0
    9.1830    3.1020  -58.3960 C   0  0  0  0  0  0  0  0  0  0  0  0
    7.7700    2.9660  -58.4810 O   0  0  0  0  0  0  0  0  0  0  0  0
    6.2740    0.9990  -56.3760 H   0  0  0  0  0  0  0  0  0  0  0  0
    8.9196    0.5332  -56.8518 H   0  0  0  0  0  0  0  0  0  0  0  0
    6.4451    1.1447  -54.2232 H   0  0  0  0  0  0  0  0  0  0  0  0
    9.9203   -3.0303  -52.1772 H   0  0  0  0  0  0  0  0  0  0  0  0
   11.8710   -3.3867  -53.6272 H   0  0  0  0  0  0  0  0  0  0  0  0
   10.5606   -0.4179  -56.2762 H   0  0  0  0  0  0  0  0  0  0  0  0
    8.6198    3.2355  -55.6013 H   0  0  0  0  0  0  0  0  0  0  0  0
   10.0483    2.1549  -55.2539 H   0  0  0  0  0  0  0  0  0  0  0  0
   11.9087    2.7846  -56.3945 H   0  0  0  0  0  0  0  0  0  0  0  0
   13.0349    3.4930  -58.4978 H   0  0  0  0  0  0  0  0  0  0  0  0
   11.6914    3.9404  -60.5506 H   0  0  0  0  0  0  0  0  0  0  0  0
    9.2093    3.6712  -60.4888 H   0  0  0  0  0  0  0  0  0  0  0  0
  1  2  2  0
  2  3  1  0
  3  4  1  0
  4  5  1  0
  5  6  2  0
  6  7  1  0
  7  8  2  0
  8  9  1  0
  9 10  2  0
 10 11  1  0
 11 12  2  0
 12 13  1  0
 13 14  2  0
  4 15  1  0
 15 16  1  0
 16 17  2  0
 17 18  1  0
 18 19  2  0
 19 20  1  0
 20 21  2  0
 21 22  1  0
 22  2  1  0
 14  5  1  0
 21 16  1  0
 14  9  1  0
  3 23  1  0
  4 24  1  6
  6 25  1  0
 10 26  1  0
 11 27  1  0
 13 28  1  0
 15 29  1  0
 15 30  1  0
 17 31  1  0
 18 32  1  0
 19 33  1  0
 20 34  1  0
M  END
>  <meeko>  (318) 
{"is_sidechain": false}

$$$$

     RDKit          3D

 34 37  0  0  0  0  0  0  0  0999 V2000
   10.8960    0.7920  -56.3300 O   0  0  0  0  0  0  0  0  0  0  0  0
   10.6330    1.6870  -57.1270 C   0  0  0  0  0  0  0  0  0  0  0  0
    9.3580    1.8340  -57.5810 N   0  0  0  0  0  0  0  0  0  0  0  0
    8.9190    2.6370  -58.7030 C   0  0  1  0  0  0  0  0  0  0  0  0
    7.4330    2.4240  -58.9380 C   0  0  0  0  0  0  0  0  0  0  0  0
    6.5940    2.2290  -57.8470 C   0  0  0  0  0  0  0  0  0  0  0  0
    5.2690    2.0440  -57.9610 N   0  0  0  0  0  0  0  0  0  0  0  0
    4.6990    2.0470  -59.2000 N   0  0  0  0  0  0  0  0  0  0  0  0
    5.4380    2.2370  -60.3010 C   0  0  0  0  0  0  0  0  0  0  0  0
    4.8070    2.2390  -61.5330 C   0  0  0  0  0  0  0  0  0  0  0  0
    5.5540    2.4430  -62.6750 C   0  0  0  0  0  0  0  0  0  0  0  0
    6.8810    2.6450  -62.6590 N   0  0  0  0  0  0  0  0  0  0  0  0
    7.4830    2.6360  -61.4490 C   0  0  0  0  0  0  0  0  0  0  0  0
    6.8260    2.4360  -60.2230 C   0  0  0  0  0  0  0  0  0  0  0  0
    9.2150    4.1380  -58.4760 C   0  0  0  0  0  0  0  0  0  0  0  0
   10.6360    4.4920  -58.8100 C   0  0  0  0  0  0  0  0  0  0  0  0
   10.8950    5.6590  -59.5490 C   0  0  0  0  0  0  0  0  0  0  0  0
   12.2020    6.0310  -59.8760 C   0  0  0  0  0  0  0  0  0  0  0  0
   13.2750    5.2470  -59.4600 C   0  0  0  0  0  0  0  0  0  0  0  0
   13.0370    4.0970  -58.7140 C   0  0  0  0  0  0  0  0  0  0  0  0
   11.7250    3.7310  -58.3970 C   0  0  0  0  0  0  0  0  0  0  0  0
   11.6280    2.5550  -57.5950 O   0  0  0  0  0  0  0  0  0  0  0  0
    8.7860    1.0500  -57.2900 H   0  0  0  0  0  0  0  0  0  0  0  0
    9.4801    2.3170  -59.5934 H   0  0  0  0  0  0  0  0  0  0  0  0
    7.0375    2.2261  -56.8404 H   0  0  0  0  0  0  0  0  0  0  0  0
    3.7207    2.0795  -61.6009 H   0  0  0  0  0  0  0  0  0  0  0  0
    5.0369    2.4400  -63.6459 H   0  0  0  0  0  0  0  0  0  0  0  0
    8.5707    2.7976  -61.4218 H   0  0  0  0  0  0  0  0  0  0  0  0
    8.5428    4.7320  -59.1126 H   0  0  0  0  0  0  0  0  0  0  0  0
    9.0536    4.3570  -57.4102 H   0  0  0  0  0  0  0  0  0  0  0  0
   10.0552    6.2901  -59.8755 H   0  0  0  0  0  0  0  0  0  0  0  0
   12.3832    6.9438  -60.4624 H   0  0  0  0  0  0  0  0  0  0  0  0
   14.3044    5.5351  -59.7196 H   0  0  0  0  0  0  0  0  0  0  0  0
   13.8794    3.4767  -58.3741 H   0  0  0  0  0  0  0  0  0  0  0  0
  1  2  2  0
  2  3  1  0
  3  4  1  0
  4  5  1  0
  5  6  2  0
  6  7  1  0
  7  8  2  0
  8  9  1  0
  9 10  2  0
 10 11  1  0
 11 12  2  0
 12 13  1  0
 13 14  2  0
  4 15  1  0
 15 16  1  0
 16 17  2  0
 17 18  1  0
 18 19  2  0
 19 20  1  0
 20 21  2  0
 21 22  1  0
 22  2  1  0
 14  5  1  0
 21 16  1  0
 14  9  1  0
  3 23  1  0
  4 24  1  6
  6 25  1  0
 10 26  1  0
 11 27  1  0
 13 28  1  0
 15 29  1  0
 15 30  1  0
 17 31  1  0
 18 32  1  0
 19 33  1  0
 20 34  1  0
M  END
>  <meeko>  (319) 
{"is_sidechain": false}

$$$$
