
     RDKit          3D

 45 49  0  0  0  0  0  0  0  0999 V2000
    6.7370    1.9020  -56.3490 O   0  0  0  0  0  0  0  0  0  0  0  0
    7.8360    1.3950  -56.1380 C   0  0  0  0  0  0  0  0  0  0  0  0
    8.9600    1.7870  -56.8570 N   0  0  0  0  0  0  0  0  0  0  0  0
    8.9810    2.8070  -57.9110 C   0  0  2  0  0  0  0  0  0  0  0  0
   10.3750    2.7710  -58.5940 C   0  0  0  0  0  0  0  0  0  0  0  0
   10.4700    3.8180  -59.7150 C   0  0  1  0  0  0  0  0  0  0  0  0
    9.3890    3.5300  -60.7670 C   0  0  0  0  0  0  0  0  0  0  0  0
    7.9970    3.5870  -60.1180 C   0  0  2  0  0  0  0  0  0  0  0  0
    7.7760    4.9840  -59.5140 C   0  0  0  0  0  0  0  0  0  0  0  0
    8.8540    5.2830  -58.4590 C   0  0  2  0  0  0  0  0  0  0  0  0
   10.2410    5.2160  -59.1180 C   0  0  0  0  0  0  0  0  0  0  0  0
    8.7730    4.2310  -57.3380 C   0  0  0  0  0  0  0  0  0  0  0  0
    7.9130    2.5330  -59.0000 C   0  0  0  0  0  0  0  0  0  0  0  0
    8.0560    0.3570  -55.1330 C   0  0  0  0  0  0  0  0  0  0  0  0
    9.2480   -0.1340  -54.8580 N   0  0  0  0  0  0  0  0  0  0  0  0
    9.1980   -1.1000  -53.8750 N   0  0  0  0  0  0  0  0  0  0  0  0
    7.9760   -1.3200  -53.4250 C   0  0  0  0  0  0  0  0  0  0  0  0
    7.6400   -2.3000  -52.3740 C   0  0  0  0  0  0  0  0  0  0  0  0
    8.0420   -2.1720  -51.0340 C   0  0  0  0  0  0  0  0  0  0  0  0
    7.6910   -3.1350  -50.0800 C   0  0  0  0  0  0  0  0  0  0  0  0
    6.9330   -4.2420  -50.4490 C   0  0  0  0  0  0  0  0  0  0  0  0
    6.5230   -4.3900  -51.7690 C   0  0  0  0  0  0  0  0  0  0  0  0
    6.8730   -3.4280  -52.7210 C   0  0  0  0  0  0  0  0  0  0  0  0
    6.7930   -0.3330  -54.2000 S   0  0  0  0  0  0  0  0  0  0  0  0
    9.8330    1.3290  -56.6310 H   0  0  0  0  0  0  0  0  0  0  0  0
   11.1493    2.9798  -57.8411 H   0  0  0  0  0  0  0  0  0  0  0  0
   10.5222    1.7738  -59.0344 H   0  0  0  0  0  0  0  0  0  0  0  0
   11.4636    3.7739  -60.1850 H   0  0  0  0  0  0  0  0  0  0  0  0
    9.4492    4.2826  -61.5670 H   0  0  0  0  0  0  0  0  0  0  0  0
    9.5513    2.5263  -61.1868 H   0  0  0  0  0  0  0  0  0  0  0  0
    7.2269    3.3842  -60.8768 H   0  0  0  0  0  0  0  0  0  0  0  0
    7.8305    5.7381  -60.3130 H   0  0  0  0  0  0  0  0  0  0  0  0
    6.7864    5.0154  -59.0348 H   0  0  0  0  0  0  0  0  0  0  0  0
    8.6921    6.2863  -58.0380 H   0  0  0  0  0  0  0  0  0  0  0  0
   10.3014    5.9685  -59.9180 H   0  0  0  0  0  0  0  0  0  0  0  0
   11.0122    5.4166  -58.3597 H   0  0  0  0  0  0  0  0  0  0  0  0
    9.5536    4.4377  -56.5911 H   0  0  0  0  0  0  0  0  0  0  0  0
    7.7777    4.2843  -56.8728 H   0  0  0  0  0  0  0  0  0  0  0  0
    6.9131    2.5695  -58.5431 H   0  0  0  0  0  0  0  0  0  0  0  0
    8.0965    1.5394  -59.4347 H   0  0  0  0  0  0  0  0  0  0  0  0
    8.6419   -1.3017  -50.7295 H   0  0  0  0  0  0  0  0  0  0  0  0
    8.0155   -3.0160  -49.0357 H   0  0  0  0  0  0  0  0  0  0  0  0
    6.6590   -4.9979  -49.6983 H   0  0  0  0  0  0  0  0  0  0  0  0
    5.9234   -5.2637  -52.0643 H   0  0  0  0  0  0  0  0  0  0  0  0
    6.5423   -3.5552  -53.7624 H   0  0  0  0  0  0  0  0  0  0  0  0
  1  2  2  0
  2  3  1  0
  4  3  1  1
  4  5  1  0
  5  6  1  0
  6  7  1  0
  7  8  1  0
  8  9  1  0
  9 10  1  0
 10 11  1  0
 10 12  1  0
  8 13  1  0
  2 14  1  0
 14 15  2  0
 15 16  1  0
 16 17  2  0
 17 18  1  0
 18 19  2  0
 19 20  1  0
 20 21  2  0
 21 22  1  0
 22 23  2  0
 17 24  1  0
 12  4  1  0
 24 14  1  0
 13  4  1  0
 23 18  1  0
 11  6  1  0
  3 25  1  0
  5 26  1  0
  5 27  1  0
  6 28  1  6
  7 29  1  0
  7 30  1  0
  8 31  1  6
  9 32  1  0
  9 33  1  0
 10 34  1  1
 11 35  1  0
 11 36  1  0
 12 37  1  0
 12 38  1  0
 13 39  1  0
 13 40  1  0
 19 41  1  0
 20 42  1  0
 21 43  1  0
 22 44  1  0
 23 45  1  0
M  END
>  <meeko>  (1) 
{"is_sidechain": false}

$$$$

     RDKit          3D

 46 50  0  0  0  0  0  0  0  0999 V2000
    9.6560    1.1490  -55.7000 O   0  0  0  0  0  0  0  0  0  0  0  0
    8.4310    1.1500  -55.7900 C   0  0  0  0  0  0  0  0  0  0  0  0
    7.7550    1.9870  -56.6690 N   0  0  0  0  0  0  0  0  0  0  0  0
    8.3760    2.9510  -57.5780 C   0  0  2  0  0  0  0  0  0  0  0  0
    7.2980    3.4390  -58.5840 C   0  0  0  0  0  0  0  0  0  0  0  0
    7.8860    4.4580  -59.5730 C   0  0  1  0  0  0  0  0  0  0  0  0
    8.4240    5.6660  -58.7900 C   0  0  0  0  0  0  0  0  0  0  0  0
    9.5120    5.2110  -57.8060 C   0  0  2  0  0  0  0  0  0  0  0  0
   10.6570    4.5460  -58.5880 C   0  0  0  0  0  0  0  0  0  0  0  0
   10.1290    3.3340  -59.3740 C   0  0  2  0  0  0  0  0  0  0  0  0
    9.0370    3.8010  -60.3500 C   0  0  0  0  0  0  0  0  0  0  0  0
    9.5310    2.3140  -58.3900 C   0  0  0  0  0  0  0  0  0  0  0  0
    8.9130    4.1920  -56.8200 C   0  0  0  0  0  0  0  0  0  0  0  0
    7.5500    0.2890  -55.0040 C   0  0  0  0  0  0  0  0  0  0  0  0
    6.2330    0.2190  -55.0820 N   0  0  0  0  0  0  0  0  0  0  0  0
    5.8970   -0.7250  -54.1460 C   0  0  0  0  0  0  0  0  0  0  0  0
    7.0250   -1.2090  -53.5190 C   0  0  0  0  0  0  0  0  0  0  0  0
    7.2980   -2.1890  -52.4760 C   0  0  0  0  0  0  0  0  0  0  0  0
    7.1000   -3.5570  -52.7160 C   0  0  0  0  0  0  0  0  0  0  0  0
    7.3590   -4.5070  -51.7230 C   0  0  0  0  0  0  0  0  0  0  0  0
    7.8200   -4.1000  -50.4730 C   0  0  0  0  0  0  0  0  0  0  0  0
    8.0220   -2.7470  -50.2170 C   0  0  0  0  0  0  0  0  0  0  0  0
    7.7630   -1.7990  -51.2110 C   0  0  0  0  0  0  0  0  0  0  0  0
    8.1000   -0.5570  -54.0680 O   0  0  0  0  0  0  0  0  0  0  0  0
    6.7440    1.9080  -56.6650 H   0  0  0  0  0  0  0  0  0  0  0  0
    6.9126    2.5749  -59.1450 H   0  0  0  0  0  0  0  0  0  0  0  0
    6.4885    3.9258  -58.0203 H   0  0  0  0  0  0  0  0  0  0  0  0
    7.1074    4.7889  -60.2761 H   0  0  0  0  0  0  0  0  0  0  0  0
    8.8512    6.3955  -59.4938 H   0  0  0  0  0  0  0  0  0  0  0  0
    7.5993    6.1289  -58.2282 H   0  0  0  0  0  0  0  0  0  0  0  0
    9.8963    6.0802  -57.2521 H   0  0  0  0  0  0  0  0  0  0  0  0
   11.0887    5.2745  -59.2901 H   0  0  0  0  0  0  0  0  0  0  0  0
   11.4265    4.2067  -57.8790 H   0  0  0  0  0  0  0  0  0  0  0  0
   10.9517    2.8673  -59.9355 H   0  0  0  0  0  0  0  0  0  0  0  0
    9.4647    4.5302  -61.0538 H   0  0  0  0  0  0  0  0  0  0  0  0
    8.6505    2.9322  -60.9030 H   0  0  0  0  0  0  0  0  0  0  0  0
    9.1441    1.4522  -58.9536 H   0  0  0  0  0  0  0  0  0  0  0  0
   10.3181    1.9909  -57.6928 H   0  0  0  0  0  0  0  0  0  0  0  0
    9.6917    3.8738  -56.1112 H   0  0  0  0  0  0  0  0  0  0  0  0
    8.0797    4.6669  -56.2814 H   0  0  0  0  0  0  0  0  0  0  0  0
    4.8697   -1.0509  -53.9260 H   0  0  0  0  0  0  0  0  0  0  0  0
    6.7356   -3.8873  -53.6999 H   0  0  0  0  0  0  0  0  0  0  0  0
    7.1987   -5.5756  -51.9289 H   0  0  0  0  0  0  0  0  0  0  0  0
    8.0238   -4.8458  -49.6906 H   0  0  0  0  0  0  0  0  0  0  0  0
    8.3861   -2.4231  -49.2308 H   0  0  0  0  0  0  0  0  0  0  0  0
    7.9260   -0.7321  -50.9985 H   0  0  0  0  0  0  0  0  0  0  0  0
  1  2  2  0
  2  3  1  0
  4  3  1  1
  4  5  1  0
  5  6  1  0
  6  7  1  0
  7  8  1  0
  8  9  1  0
  9 10  1  0
 10 11  1  0
 10 12  1  0
  8 13  1  0
  2 14  1  0
 14 15  2  0
 15 16  1  0
 16 17  2  0
 17 18  1  0
 18 19  2  0
 19 20  1  0
 20 21  2  0
 21 22  1  0
 22 23  2  0
 17 24  1  0
 12  4  1  0
 24 14  1  0
 13  4  1  0
 23 18  1  0
 11  6  1  0
  3 25  1  0
  5 26  1  0
  5 27  1  0
  6 28  1  6
  7 29  1  0
  7 30  1  0
  8 31  1  1
  9 32  1  0
  9 33  1  0
 10 34  1  6
 11 35  1  0
 11 36  1  0
 12 37  1  0
 12 38  1  0
 13 39  1  0
 13 40  1  0
 16 41  1  0
 19 42  1  0
 20 43  1  0
 21 44  1  0
 22 45  1  0
 23 46  1  0
M  END
>  <meeko>  (2) 
{"is_sidechain": false}

$$$$

     RDKit          3D

 48 52  0  0  0  0  0  0  0  0999 V2000
    7.3850    1.9230  -56.2630 O   0  0  0  0  0  0  0  0  0  0  0  0
    8.5120    1.4360  -56.2140 C   0  0  0  0  0  0  0  0  0  0  0  0
    9.5460    1.8800  -57.0270 N   0  0  0  0  0  0  0  0  0  0  0  0
    9.4360    2.9210  -58.0520 C   0  0  2  0  0  0  0  0  0  0  0  0
    9.1860    4.3180  -57.4300 C   0  0  0  0  0  0  0  0  0  0  0  0
    9.1270    5.3970  -58.5280 C   0  0  1  0  0  0  0  0  0  0  0  0
   10.4640    5.4250  -59.2840 C   0  0  0  0  0  0  0  0  0  0  0  0
   10.7310    4.0570  -59.9290 C   0  0  2  0  0  0  0  0  0  0  0  0
    9.5960    3.7260  -60.9110 C   0  0  0  0  0  0  0  0  0  0  0  0
    8.2530    3.6870  -60.1640 C   0  0  2  0  0  0  0  0  0  0  0  0
    7.9940    5.0550  -59.5120 C   0  0  0  0  0  0  0  0  0  0  0  0
    8.3110    2.6070  -59.0690 C   0  0  0  0  0  0  0  0  0  0  0  0
   10.7790    2.9830  -58.8320 C   0  0  0  0  0  0  0  0  0  0  0  0
    8.8910    0.3560  -55.3190 C   0  0  0  0  0  0  0  0  0  0  0  0
    8.2500   -0.0530  -54.2410 N   0  0  0  0  0  0  0  0  0  0  0  0
    8.9740   -1.1130  -53.7320 N   0  0  0  0  0  0  0  0  0  0  0  0
   10.0070   -1.2770  -54.5310 C   0  0  0  0  0  0  0  0  0  0  0  0
   11.1080   -2.2690  -54.4530 C   0  0  0  0  0  0  0  0  0  0  0  0
   11.2160   -3.1340  -55.6880 C   0  0  0  0  0  0  0  0  0  0  0  0
   10.7290   -4.4500  -55.6840 C   0  0  0  0  0  0  0  0  0  0  0  0
   10.8460   -5.2490  -56.8230 C   0  0  0  0  0  0  0  0  0  0  0  0
   11.4520   -4.7450  -57.9720 C   0  0  0  0  0  0  0  0  0  0  0  0
   11.9430   -3.4410  -57.9850 C   0  0  0  0  0  0  0  0  0  0  0  0
   11.8270   -2.6390  -56.8500 C   0  0  0  0  0  0  0  0  0  0  0  0
   10.0350   -0.3720  -55.5590 O   0  0  0  0  0  0  0  0  0  0  0  0
   10.4240    1.3760  -56.9520 H   0  0  0  0  0  0  0  0  0  0  0  0
    8.2312    4.3051  -56.8840 H   0  0  0  0  0  0  0  0  0  0  0  0
   10.0130    4.5543  -56.7443 H   0  0  0  0  0  0  0  0  0  0  0  0
    8.9394    6.3806  -58.0726 H   0  0  0  0  0  0  0  0  0  0  0  0
   10.4233    6.1957  -60.0678 H   0  0  0  0  0  0  0  0  0  0  0  0
   11.2743    5.6552  -58.5766 H   0  0  0  0  0  0  0  0  0  0  0  0
   11.6896    4.0830  -60.4678 H   0  0  0  0  0  0  0  0  0  0  0  0
    9.5553    4.4968  -61.6947 H   0  0  0  0  0  0  0  0  0  0  0  0
    9.7860    2.7428  -61.3662 H   0  0  0  0  0  0  0  0  0  0  0  0
    7.4437    3.4544  -60.8718 H   0  0  0  0  0  0  0  0  0  0  0  0
    7.9463    5.8272  -60.2940 H   0  0  0  0  0  0  0  0  0  0  0  0
    7.0412    5.0170  -58.9636 H   0  0  0  0  0  0  0  0  0  0  0  0
    7.3460    2.5745  -58.5419 H   0  0  0  0  0  0  0  0  0  0  0  0
    8.5203    1.6354  -59.5403 H   0  0  0  0  0  0  0  0  0  0  0  0
   10.9710    2.0041  -59.2955 H   0  0  0  0  0  0  0  0  0  0  0  0
   11.5822    3.2400  -58.1257 H   0  0  0  0  0  0  0  0  0  0  0  0
   12.0570   -1.7289  -54.3199 H   0  0  0  0  0  0  0  0  0  0  0  0
   10.8901   -2.9345  -53.6047 H   0  0  0  0  0  0  0  0  0  0  0  0
   10.2525   -4.8543  -54.7787 H   0  0  0  0  0  0  0  0  0  0  0  0
   10.4589   -6.2786  -56.8133 H   0  0  0  0  0  0  0  0  0  0  0  0
   11.5428   -5.3762  -58.8683 H   0  0  0  0  0  0  0  0  0  0  0  0
   12.4227   -3.0437  -58.8917 H   0  0  0  0  0  0  0  0  0  0  0  0
   12.2174   -1.6107  -56.8659 H   0  0  0  0  0  0  0  0  0  0  0  0
  1  2  2  0
  2  3  1  0
  4  3  1  1
  4  5  1  0
  5  6  1  0
  6  7  1  0
  7  8  1  0
  8  9  1  0
  9 10  1  0
 10 11  1  0
 10 12  1  0
  8 13  1  0
  2 14  1  0
 14 15  2  0
 15 16  1  0
 16 17  2  0
 17 18  1  0
 18 19  1  0
 19 20  2  0
 20 21  1  0
 21 22  2  0
 22 23  1  0
 23 24  2  0
 17 25  1  0
 12  4  1  0
 25 14  1  0
 13  4  1  0
 24 19  1  0
 11  6  1  0
  3 26  1  0
  5 27  1  0
  5 28  1  0
  6 29  1  1
  7 30  1  0
  7 31  1  0
  8 32  1  6
  9 33  1  0
  9 34  1  0
 10 35  1  6
 11 36  1  0
 11 37  1  0
 12 38  1  0
 12 39  1  0
 13 40  1  0
 13 41  1  0
 18 42  1  0
 18 43  1  0
 20 44  1  0
 21 45  1  0
 22 46  1  0
 23 47  1  0
 24 48  1  0
M  END
>  <meeko>  (3) 
{"is_sidechain": false}

$$$$

     RDKit          3D

 38 41  0  0  0  0  0  0  0  0999 V2000
    2.8130    0.7830  -62.4180 C   0  0  0  0  0  0  0  0  0  0  0  0
    4.0880    1.5090  -62.2940 C   0  0  0  0  0  0  0  0  0  0  0  0
    4.7950    2.1250  -63.2160 N   0  0  0  0  0  0  0  0  0  0  0  0
    5.9040    2.6410  -62.5770 N   0  0  0  0  0  0  0  0  0  0  0  0
    5.7960    2.3040  -61.3070 C   0  0  0  0  0  0  0  0  0  0  0  0
    6.7210    2.6200  -60.2320 C   0  0  0  0  0  0  0  0  0  0  0  0
    6.4940    2.3990  -59.0440 O   0  0  0  0  0  0  0  0  0  0  0  0
    7.9060    3.2050  -60.6620 N   0  0  0  0  0  0  0  0  0  0  0  0
    9.0120    3.6230  -59.7950 C   0  0  2  0  0  0  0  0  0  0  0  0
    8.6020    4.7930  -58.8660 C   0  0  0  0  0  0  0  0  0  0  0  0
    9.7960    5.2460  -58.0070 C   0  0  1  0  0  0  0  0  0  0  0  0
   10.2900    4.0610  -57.1610 C   0  0  0  0  0  0  0  0  0  0  0  0
   10.7360    2.9060  -58.0750 C   0  0  2  0  0  0  0  0  0  0  0  0
   11.8670    3.3950  -58.9940 C   0  0  0  0  0  0  0  0  0  0  0  0
   11.3750    4.5740  -59.8480 C   0  0  2  0  0  0  0  0  0  0  0  0
   10.9320    5.7210  -58.9270 C   0  0  0  0  0  0  0  0  0  0  0  0
   10.1770    4.1170  -60.6960 C   0  0  0  0  0  0  0  0  0  0  0  0
    9.5430    2.4500  -58.9350 C   0  0  0  0  0  0  0  0  0  0  0  0
    4.6540    1.5750  -61.0500 O   0  0  0  0  0  0  0  0  0  0  0  0
    2.4196    0.5590  -61.4155 H   0  0  0  0  0  0  0  0  0  0  0  0
    2.0890    1.4043  -62.9656 H   0  0  0  0  0  0  0  0  0  0  0  0
    2.9779   -0.1567  -62.9656 H   0  0  0  0  0  0  0  0  0  0  0  0
    8.0010    3.3470  -61.6610 H   0  0  0  0  0  0  0  0  0  0  0  0
    8.2568    5.6381  -59.4797 H   0  0  0  0  0  0  0  0  0  0  0  0
    7.7953    4.4518  -58.2005 H   0  0  0  0  0  0  0  0  0  0  0  0
    9.4861    6.0693  -57.3466 H   0  0  0  0  0  0  0  0  0  0  0  0
   11.1406    4.3849  -56.5433 H   0  0  0  0  0  0  0  0  0  0  0  0
    9.4694    3.7128  -56.5165 H   0  0  0  0  0  0  0  0  0  0  0  0
   11.0939    2.0652  -57.4627 H   0  0  0  0  0  0  0  0  0  0  0  0
   12.7203    3.7201  -58.3807 H   0  0  0  0  0  0  0  0  0  0  0  0
   12.1763    2.5728  -59.6561 H   0  0  0  0  0  0  0  0  0  0  0  0
   12.1875    4.9195  -60.5041 H   0  0  0  0  0  0  0  0  0  0  0  0
   11.7854    6.0466  -58.3141 H   0  0  0  0  0  0  0  0  0  0  0  0
   10.5730    6.5599  -59.5413 H   0  0  0  0  0  0  0  0  0  0  0  0
    9.8258    4.9617  -61.3068 H   0  0  0  0  0  0  0  0  0  0  0  0
   10.5001    3.2844  -61.3382 H   0  0  0  0  0  0  0  0  0  0  0  0
    9.8659    1.6333  -59.5973 H   0  0  0  0  0  0  0  0  0  0  0  0
    8.7377    2.1045  -58.2701 H   0  0  0  0  0  0  0  0  0  0  0  0
  1  2  1  0
  2  3  2  0
  3  4  1  0
  4  5  2  0
  5  6  1  0
  6  7  2  0
  6  8  1  0
  9  8  1  6
  9 10  1  0
 10 11  1  0
 11 12  1  0
 12 13  1  0
 13 14  1  0
 14 15  1  0
 15 16  1  0
 15 17  1  0
 13 18  1  0
  5 19  1  0
 19  2  1  0
 17  9  1  0
 18  9  1  0
 16 11  1  0
  1 20  1  0
  1 21  1  0
  1 22  1  0
  8 23  1  0
 10 24  1  0
 10 25  1  0
 11 26  1  1
 12 27  1  0
 12 28  1  0
 13 29  1  1
 14 30  1  0
 14 31  1  0
 15 32  1  6
 16 33  1  0
 16 34  1  0
 17 35  1  0
 17 36  1  0
 18 37  1  0
 18 38  1  0
M  END
>  <meeko>  (4) 
{"is_sidechain": false}

$$$$

     RDKit          3D

 45 49  0  0  0  0  0  0  0  0999 V2000
    9.9280    1.2840  -55.8110 O   0  0  0  0  0  0  0  0  0  0  0  0
    8.7030    1.1790  -55.8130 C   0  0  0  0  0  0  0  0  0  0  0  0
    7.8990    1.9640  -56.6310 N   0  0  0  0  0  0  0  0  0  0  0  0
    8.3820    2.9840  -57.5680 C   0  0  2  0  0  0  0  0  0  0  0  0
    9.5410    2.4540  -58.4480 C   0  0  0  0  0  0  0  0  0  0  0  0
    9.9900    3.5280  -59.4560 C   0  0  1  0  0  0  0  0  0  0  0  0
    8.8080    3.8980  -60.3650 C   0  0  0  0  0  0  0  0  0  0  0  0
    7.6480    4.4470  -59.5210 C   0  0  2  0  0  0  0  0  0  0  0  0
    8.1200    5.6960  -58.7590 C   0  0  0  0  0  0  0  0  0  0  0  0
    9.2980    5.3370  -57.8400 C   0  0  2  0  0  0  0  0  0  0  0  0
   10.4520    4.7790  -58.6890 C   0  0  0  0  0  0  0  0  0  0  0  0
    8.8470    4.2660  -56.8310 C   0  0  0  0  0  0  0  0  0  0  0  0
    7.2100    3.3760  -58.5090 C   0  0  0  0  0  0  0  0  0  0  0  0
    7.9760    0.2380  -54.9750 C   0  0  0  0  0  0  0  0  0  0  0  0
    8.4630   -0.5390  -54.0320 N   0  0  0  0  0  0  0  0  0  0  0  0
    7.3450   -1.2040  -53.5770 C   0  0  0  0  0  0  0  0  0  0  0  0
    7.4110   -2.1930  -52.5050 C   0  0  0  0  0  0  0  0  0  0  0  0
    7.0380   -3.5240  -52.7500 C   0  0  0  0  0  0  0  0  0  0  0  0
    7.0980   -4.4800  -51.7320 C   0  0  0  0  0  0  0  0  0  0  0  0
    7.5300   -4.1160  -50.4580 C   0  0  0  0  0  0  0  0  0  0  0  0
    7.9030   -2.7980  -50.2010 C   0  0  0  0  0  0  0  0  0  0  0  0
    7.8440   -1.8410  -51.2180 C   0  0  0  0  0  0  0  0  0  0  0  0
    6.2120   -0.8550  -54.2110 N   0  0  0  0  0  0  0  0  0  0  0  0
    6.6270    0.0990  -55.1350 O   0  0  0  0  0  0  0  0  0  0  0  0
    6.8980    1.8150  -56.5740 H   0  0  0  0  0  0  0  0  0  0  0  0
   10.3908    2.1852  -57.8034 H   0  0  0  0  0  0  0  0  0  0  0  0
    9.1904    1.5711  -59.0026 H   0  0  0  0  0  0  0  0  0  0  0  0
   10.8181    3.1399  -60.0673 H   0  0  0  0  0  0  0  0  0  0  0  0
    9.1288    4.6646  -61.0857 H   0  0  0  0  0  0  0  0  0  0  0  0
    8.4702    2.9993  -60.9018 H   0  0  0  0  0  0  0  0  0  0  0  0
    6.8047    4.7092  -60.1768 H   0  0  0  0  0  0  0  0  0  0  0  0
    8.4407    6.4628  -59.4796 H   0  0  0  0  0  0  0  0  0  0  0  0
    7.2902    6.0815  -58.1485 H   0  0  0  0  0  0  0  0  0  0  0  0
    9.6345    6.2353  -57.3016 H   0  0  0  0  0  0  0  0  0  0  0  0
   10.7786    5.5456  -59.4071 H   0  0  0  0  0  0  0  0  0  0  0  0
   11.2863    4.5061  -58.0260 H   0  0  0  0  0  0  0  0  0  0  0  0
    9.6885    4.0168  -56.1679 H   0  0  0  0  0  0  0  0  0  0  0  0
    8.0054    4.6631  -56.2445 H   0  0  0  0  0  0  0  0  0  0  0  0
    6.3803    3.7709  -57.9043 H   0  0  0  0  0  0  0  0  0  0  0  0
    6.8921    2.4806  -59.0632 H   0  0  0  0  0  0  0  0  0  0  0  0
    6.6951   -3.8176  -53.7531 H   0  0  0  0  0  0  0  0  0  0  0  0
    6.8041   -5.5201  -51.9366 H   0  0  0  0  0  0  0  0  0  0  0  0
    7.5765   -4.8679  -49.6564 H   0  0  0  0  0  0  0  0  0  0  0  0
    8.2445   -2.5103  -49.1957 H   0  0  0  0  0  0  0  0  0  0  0  0
    8.1397   -0.8027  -51.0073 H   0  0  0  0  0  0  0  0  0  0  0  0
  1  2  2  0
  2  3  1  0
  4  3  1  1
  4  5  1  0
  5  6  1  0
  6  7  1  0
  7  8  1  0
  8  9  1  0
  9 10  1  0
 10 11  1  0
 10 12  1  0
  8 13  1  0
  2 14  1  0
 14 15  2  0
 15 16  1  0
 16 17  1  0
 17 18  2  0
 18 19  1  0
 19 20  2  0
 20 21  1  0
 21 22  2  0
 16 23  2  0
 23 24  1  0
 12  4  1  0
 24 14  1  0
 13  4  1  0
 22 17  1  0
 11  6  1  0
  3 25  1  0
  5 26  1  0
  5 27  1  0
  6 28  1  6
  7 29  1  0
  7 30  1  0
  8 31  1  6
  9 32  1  0
  9 33  1  0
 10 34  1  1
 11 35  1  0
 11 36  1  0
 12 37  1  0
 12 38  1  0
 13 39  1  0
 13 40  1  0
 18 41  1  0
 19 42  1  0
 20 43  1  0
 21 44  1  0
 22 45  1  0
M  END
>  <meeko>  (5) 
{"is_sidechain": false}

$$$$

     RDKit          3D

 34 37  0  0  0  0  0  0  0  0999 V2000
    5.8820    2.3770  -59.1220 O   0  0  0  0  0  0  0  0  0  0  0  0
    6.1540    2.3780  -60.3200 C   0  0  0  0  0  0  0  0  0  0  0  0
    7.3660    2.8370  -60.8130 N   0  0  0  0  0  0  0  0  0  0  0  0
    8.4680    3.3720  -60.0070 C   0  0  2  0  0  0  0  0  0  0  0  0
    9.6540    3.6980  -60.9540 C   0  0  0  0  0  0  0  0  0  0  0  0
   10.8480    4.2660  -60.1690 C   0  0  1  0  0  0  0  0  0  0  0  0
   10.4120    5.5520  -59.4500 C   0  0  0  0  0  0  0  0  0  0  0  0
    9.2550    5.2470  -58.4860 C   0  0  2  0  0  0  0  0  0  0  0  0
    9.7140    4.2040  -57.4540 C   0  0  0  0  0  0  0  0  0  0  0  0
   10.1530    2.9120  -58.1650 C   0  0  2  0  0  0  0  0  0  0  0  0
   11.3050    3.2310  -59.1310 C   0  0  0  0  0  0  0  0  0  0  0  0
    8.9640    2.3430  -58.9610 C   0  0  0  0  0  0  0  0  0  0  0  0
    8.0650    4.6810  -59.2830 C   0  0  0  0  0  0  0  0  0  0  0  0
    5.2510    1.9060  -61.3420 C   0  0  0  0  0  0  0  0  0  0  0  0
    5.1890    2.3040  -62.5910 N   0  0  0  0  0  0  0  0  0  0  0  0
    4.1760    1.5540  -63.1390 N   0  0  0  0  0  0  0  0  0  0  0  0
    3.6350    0.7220  -62.2520 N   0  0  0  0  0  0  0  0  0  0  0  0
    4.3340    0.9400  -61.0590 O   0  0  0  0  0  0  0  0  0  0  0  0
    7.4890    2.7940  -61.8200 H   0  0  0  0  0  0  0  0  0  0  0  0
    9.9671    2.7773  -61.4680 H   0  0  0  0  0  0  0  0  0  0  0  0
    9.3229    4.4532  -61.6820 H   0  0  0  0  0  0  0  0  0  0  0  0
   11.6764    4.4903  -60.8571 H   0  0  0  0  0  0  0  0  0  0  0  0
   11.2620    5.9583  -58.8822 H   0  0  0  0  0  0  0  0  0  0  0  0
   10.0768    6.2876  -60.1960 H   0  0  0  0  0  0  0  0  0  0  0  0
    8.9513    6.1699  -57.9702 H   0  0  0  0  0  0  0  0  0  0  0  0
   10.5606    4.6087  -56.8799 H   0  0  0  0  0  0  0  0  0  0  0  0
    8.8773    3.9754  -56.7775 H   0  0  0  0  0  0  0  0  0  0  0  0
   10.4882    2.1743  -57.4211 H   0  0  0  0  0  0  0  0  0  0  0  0
   12.1554    3.6358  -58.5628 H   0  0  0  0  0  0  0  0  0  0  0  0
   11.6078    2.3091  -59.6491 H   0  0  0  0  0  0  0  0  0  0  0  0
    9.2808    1.4254  -59.4782 H   0  0  0  0  0  0  0  0  0  0  0  0
    8.1428    2.1214  -58.2634 H   0  0  0  0  0  0  0  0  0  0  0  0
    7.2344    4.4716  -58.5929 H   0  0  0  0  0  0  0  0  0  0  0  0
    7.7567    5.4222  -60.0351 H   0  0  0  0  0  0  0  0  0  0  0  0
  1  2  2  0
  2  3  1  0
  4  3  1  6
  4  5  1  0
  5  6  1  0
  6  7  1  0
  7  8  1  0
  8  9  1  0
  9 10  1  0
 10 11  1  0
 10 12  1  0
  8 13  1  0
  2 14  1  0
 14 15  2  0
 15 16  1  0
 16 17  2  0
 17 18  1  0
 12  4  1  0
 18 14  1  0
 13  4  1  0
 11  6  1  0
  3 19  1  0
  5 20  1  0
  5 21  1  0
  6 22  1  6
  7 23  1  0
  7 24  1  0
  8 25  1  1
  9 26  1  0
  9 27  1  0
 10 28  1  1
 11 29  1  0
 11 30  1  0
 12 31  1  0
 12 32  1  0
 13 33  1  0
 13 34  1  0
M  END
>  <meeko>  (6) 
{"is_sidechain": false}

$$$$

     RDKit          3D

 35 38  0  0  0  0  0  0  0  0999 V2000
    5.9140    2.3800  -59.0780 O   0  0  0  0  0  0  0  0  0  0  0  0
    6.1580    2.4020  -60.2810 C   0  0  0  0  0  0  0  0  0  0  0  0
    7.3600    2.8850  -60.7840 N   0  0  0  0  0  0  0  0  0  0  0  0
    8.4650    3.4170  -59.9800 C   0  0  2  0  0  0  0  0  0  0  0  0
    8.9580    2.3890  -58.9310 C   0  0  0  0  0  0  0  0  0  0  0  0
   10.1520    2.9550  -58.1400 C   0  0  1  0  0  0  0  0  0  0  0  0
   11.3030    3.2640  -59.1090 C   0  0  0  0  0  0  0  0  0  0  0  0
   10.8500    4.2970  -60.1510 C   0  0  2  0  0  0  0  0  0  0  0  0
   10.4230    5.5880  -59.4360 C   0  0  0  0  0  0  0  0  0  0  0  0
    9.2650    5.2930  -58.4690 C   0  0  2  0  0  0  0  0  0  0  0  0
    9.7210    4.2520  -57.4330 C   0  0  0  0  0  0  0  0  0  0  0  0
    8.0710    4.7310  -59.2610 C   0  0  0  0  0  0  0  0  0  0  0  0
    9.6520    3.7330  -60.9310 C   0  0  0  0  0  0  0  0  0  0  0  0
    5.2370    1.9330  -61.3040 C   0  0  0  0  0  0  0  0  0  0  0  0
    5.1690    2.3290  -62.5600 N   0  0  0  0  0  0  0  0  0  0  0  0
    4.1470    1.6060  -63.1440 N   0  0  0  0  0  0  0  0  0  0  0  0
    3.6700    0.8260  -62.2050 C   0  0  0  0  0  0  0  0  0  0  0  0
    4.3000    0.9650  -61.0060 O   0  0  0  0  0  0  0  0  0  0  0  0
    7.4700    2.8620  -61.7910 H   0  0  0  0  0  0  0  0  0  0  0  0
    8.1378    2.1611  -58.2344 H   0  0  0  0  0  0  0  0  0  0  0  0
    9.2782    1.4748  -59.4523 H   0  0  0  0  0  0  0  0  0  0  0  0
   10.4852    2.2184  -57.3941 H   0  0  0  0  0  0  0  0  0  0  0  0
   12.1565    3.6669  -58.5440 H   0  0  0  0  0  0  0  0  0  0  0  0
   11.5996    2.3383  -59.6239 H   0  0  0  0  0  0  0  0  0  0  0  0
   11.6780    4.5135  -60.8421 H   0  0  0  0  0  0  0  0  0  0  0  0
   11.2763    5.9911  -58.8708 H   0  0  0  0  0  0  0  0  0  0  0  0
   10.0914    6.3232  -60.1840 H   0  0  0  0  0  0  0  0  0  0  0  0
    8.9664    6.2195  -57.9568 H   0  0  0  0  0  0  0  0  0  0  0  0
   10.5708    4.6548  -56.8624 H   0  0  0  0  0  0  0  0  0  0  0  0
    8.8848    4.0305  -56.7535 H   0  0  0  0  0  0  0  0  0  0  0  0
    7.2404    4.5294  -58.5686 H   0  0  0  0  0  0  0  0  0  0  0  0
    7.7657    5.4708  -60.0156 H   0  0  0  0  0  0  0  0  0  0  0  0
    9.3277    4.4738  -61.6766 H   0  0  0  0  0  0  0  0  0  0  0  0
    9.9634    2.8000  -61.4235 H   0  0  0  0  0  0  0  0  0  0  0  0
    2.8387    0.1248  -62.3701 H   0  0  0  0  0  0  0  0  0  0  0  0
  1  2  2  0
  2  3  1  0
  4  3  1  6
  4  5  1  0
  5  6  1  0
  6  7  1  0
  7  8  1  0
  8  9  1  0
  9 10  1  0
 10 11  1  0
 10 12  1  0
  8 13  1  0
  2 14  1  0
 14 15  2  0
 15 16  1  0
 16 17  2  0
 17 18  1  0
 12  4  1  0
 18 14  1  0
 13  4  1  0
 11  6  1  0
  3 19  1  0
  5 20  1  0
  5 21  1  0
  6 22  1  1
  7 23  1  0
  7 24  1  0
  8 25  1  6
  9 26  1  0
  9 27  1  0
 10 28  1  1
 11 29  1  0
 11 30  1  0
 12 31  1  0
 12 32  1  0
 13 33  1  0
 13 34  1  0
 17 35  1  0
M  END
>  <meeko>  (7) 
{"is_sidechain": false}

$$$$

     RDKit          3D

 44 47  0  0  0  0  0  0  0  0999 V2000
    7.3240    1.8460  -56.3140 O   0  0  0  0  0  0  0  0  0  0  0  0
    8.4920    1.5100  -56.1740 C   0  0  0  0  0  0  0  0  0  0  0  0
    8.9250    0.5630  -55.1140 C   0  0  0  0  0  0  0  0  0  0  0  0
    8.0030   -0.0600  -54.3620 C   0  0  0  0  0  0  0  0  0  0  0  0
    8.3290   -1.0230  -53.3030 C   0  0  0  0  0  0  0  0  0  0  0  0
    7.4770   -1.2590  -52.2170 C   0  0  0  0  0  0  0  0  0  0  0  0
    7.8130   -2.2040  -51.2430 C   0  0  0  0  0  0  0  0  0  0  0  0
    8.9990   -2.9270  -51.3510 C   0  0  0  0  0  0  0  0  0  0  0  0
    9.8460   -2.7130  -52.4360 C   0  0  0  0  0  0  0  0  0  0  0  0
    9.5100   -1.7700  -53.4100 C   0  0  0  0  0  0  0  0  0  0  0  0
    9.5390    1.9450  -56.9500 N   0  0  0  0  0  0  0  0  0  0  0  0
    9.4100    2.8760  -58.0770 C   0  0  2  0  0  0  0  0  0  0  0  0
    8.9900    4.2910  -57.6070 C   0  0  0  0  0  0  0  0  0  0  0  0
    8.9130    5.2580  -58.8010 C   0  0  1  0  0  0  0  0  0  0  0  0
   10.2920    5.3510  -59.4720 C   0  0  0  0  0  0  0  0  0  0  0  0
   10.7280    3.9630  -59.9690 C   0  0  2  0  0  0  0  0  0  0  0  0
    9.6990    3.4390  -60.9830 C   0  0  0  0  0  0  0  0  0  0  0  0
    8.3150    3.3360  -60.3210 C   0  0  2  0  0  0  0  0  0  0  0  0
    7.8880    4.7250  -59.8180 C   0  0  0  0  0  0  0  0  0  0  0  0
    8.3920    2.3670  -59.1290 C   0  0  0  0  0  0  0  0  0  0  0  0
   10.7930    2.9980  -58.7740 C   0  0  0  0  0  0  0  0  0  0  0  0
    9.9954    0.3732  -54.9460 H   0  0  0  0  0  0  0  0  0  0  0  0
    6.9427    0.1642  -54.5504 H   0  0  0  0  0  0  0  0  0  0  0  0
    6.5358   -0.6963  -52.1296 H   0  0  0  0  0  0  0  0  0  0  0  0
    7.1400   -2.3769  -50.3902 H   0  0  0  0  0  0  0  0  0  0  0  0
    9.2661   -3.6656  -50.5808 H   0  0  0  0  0  0  0  0  0  0  0  0
   10.7800   -3.2870  -52.5258 H   0  0  0  0  0  0  0  0  0  0  0  0
   10.1786   -1.6121  -54.2691 H   0  0  0  0  0  0  0  0  0  0  0  0
   10.4630    1.5860  -56.7540 H   0  0  0  0  0  0  0  0  0  0  0  0
    8.0032    4.2334  -57.1243 H   0  0  0  0  0  0  0  0  0  0  0  0
    9.7407    4.6655  -56.8955 H   0  0  0  0  0  0  0  0  0  0  0  0
    8.6060    6.2545  -58.4508 H   0  0  0  0  0  0  0  0  0  0  0  0
   10.2362    6.0428  -60.3254 H   0  0  0  0  0  0  0  0  0  0  0  0
   11.0260    5.7203  -58.7406 H   0  0  0  0  0  0  0  0  0  0  0  0
   11.7161    4.0344  -60.4471 H   0  0  0  0  0  0  0  0  0  0  0  0
    9.6440    4.1304  -61.8368 H   0  0  0  0  0  0  0  0  0  0  0  0
   10.0088    2.4422  -61.3300 H   0  0  0  0  0  0  0  0  0  0  0  0
    7.5822    2.9652  -61.0528 H   0  0  0  0  0  0  0  0  0  0  0  0
    7.8273    5.4177  -60.6704 H   0  0  0  0  0  0  0  0  0  0  0  0
    6.9054    4.6446  -59.3301 H   0  0  0  0  0  0  0  0  0  0  0  0
    7.3990    2.2882  -58.6625 H   0  0  0  0  0  0  0  0  0  0  0  0
    8.7207    1.3824  -59.4931 H   0  0  0  0  0  0  0  0  0  0  0  0
   11.1042    2.0051  -59.1307 H   0  0  0  0  0  0  0  0  0  0  0  0
   11.5173    3.3922  -58.0460 H   0  0  0  0  0  0  0  0  0  0  0  0
  1  2  2  0
  2  3  1  0
  3  4  2  0
  4  5  1  0
  5  6  2  0
  6  7  1  0
  7  8  2  0
  8  9  1  0
  9 10  2  0
  2 11  1  0
 12 11  1  1
 12 13  1  0
 13 14  1  0
 14 15  1  0
 15 16  1  0
 16 17  1  0
 17 18  1  0
 18 19  1  0
 18 20  1  0
 16 21  1  0
 10  5  1  0
 20 12  1  0
 21 12  1  0
 19 14  1  0
  3 22  1  0
  4 23  1  0
  6 24  1  0
  7 25  1  0
  8 26  1  0
  9 27  1  0
 10 28  1  0
 11 29  1  0
 13 30  1  0
 13 31  1  0
 14 32  1  1
 15 33  1  0
 15 34  1  0
 16 35  1  6
 17 36  1  0
 17 37  1  0
 18 38  1  6
 19 39  1  0
 19 40  1  0
 20 41  1  0
 20 42  1  0
 21 43  1  0
 21 44  1  0
M  END
>  <meeko>  (8) 
{"is_sidechain": false}

$$$$

     RDKit          3D

 46 50  0  0  0  0  0  0  0  0999 V2000
    6.7410    1.5450  -56.1590 O   0  0  0  0  0  0  0  0  0  0  0  0
    7.8820    1.1550  -55.9440 C   0  0  0  0  0  0  0  0  0  0  0  0
    9.0100    1.6450  -56.5670 N   0  0  0  0  0  0  0  0  0  0  0  0
    9.0330    2.7000  -57.5780 C   0  0  2  0  0  0  0  0  0  0  0  0
   10.4630    2.7790  -58.1750 C   0  0  0  0  0  0  0  0  0  0  0  0
   10.5540    3.8740  -59.2500 C   0  0  1  0  0  0  0  0  0  0  0  0
    9.5580    3.5590  -60.3760 C   0  0  0  0  0  0  0  0  0  0  0  0
    8.1290    3.5010  -59.8120 C   0  0  2  0  0  0  0  0  0  0  0  0
    7.7810    4.8570  -59.1740 C   0  0  0  0  0  0  0  0  0  0  0  0
    8.7720    5.1820  -58.0440 C   0  0  2  0  0  0  0  0  0  0  0  0
   10.1970    5.2290  -58.6190 C   0  0  0  0  0  0  0  0  0  0  0  0
    8.6930    4.0830  -56.9700 C   0  0  0  0  0  0  0  0  0  0  0  0
    8.0490    2.4020  -58.7380 C   0  0  0  0  0  0  0  0  0  0  0  0
    8.1740    0.1040  -54.9780 C   0  0  0  0  0  0  0  0  0  0  0  0
    7.2940   -0.5010  -54.1070 C   0  0  0  0  0  0  0  0  0  0  0  0
    8.0470   -1.4180  -53.4160 N   0  0  0  0  0  0  0  0  0  0  0  0
    7.6410   -2.3150  -52.3950 C   0  0  0  0  0  0  0  0  0  0  0  0
    8.1240   -2.1870  -51.0850 C   0  0  0  0  0  0  0  0  0  0  0  0
    7.7090   -3.0840  -50.0960 C   0  0  0  0  0  0  0  0  0  0  0  0
    6.8140   -4.1060  -50.4060 C   0  0  0  0  0  0  0  0  0  0  0  0
    6.3290   -4.2380  -51.7050 C   0  0  0  0  0  0  0  0  0  0  0  0
    6.7390   -3.3480  -52.7000 C   0  0  0  0  0  0  0  0  0  0  0  0
    9.3310   -1.3670  -53.8560 N   0  0  0  0  0  0  0  0  0  0  0  0
    9.4170   -0.4450  -54.8050 N   0  0  0  0  0  0  0  0  0  0  0  0
    9.8880    1.2220  -56.2840 H   0  0  0  0  0  0  0  0  0  0  0  0
   11.1766    3.0063  -57.3693 H   0  0  0  0  0  0  0  0  0  0  0  0
   10.7012    1.8114  -58.6408 H   0  0  0  0  0  0  0  0  0  0  0  0
   11.5744    3.9128  -59.6591 H   0  0  0  0  0  0  0  0  0  0  0  0
    9.6152    4.3449  -61.1435 H   0  0  0  0  0  0  0  0  0  0  0  0
    9.8110    2.5850  -60.8202 H   0  0  0  0  0  0  0  0  0  0  0  0
    7.4205    3.2781  -60.6233 H   0  0  0  0  0  0  0  0  0  0  0  0
    7.8338    5.6437  -59.9410 H   0  0  0  0  0  0  0  0  0  0  0  0
    6.7645    4.8071  -58.7567 H   0  0  0  0  0  0  0  0  0  0  0  0
    8.5207    6.1553  -57.5972 H   0  0  0  0  0  0  0  0  0  0  0  0
   10.2543    6.0148  -59.3867 H   0  0  0  0  0  0  0  0  0  0  0  0
   10.9068    5.4477  -57.8076 H   0  0  0  0  0  0  0  0  0  0  0  0
    9.4093    4.3106  -56.1668 H   0  0  0  0  0  0  0  0  0  0  0  0
    7.6689    4.0519  -56.5697 H   0  0  0  0  0  0  0  0  0  0  0  0
    7.0242    2.3588  -58.3406 H   0  0  0  0  0  0  0  0  0  0  0  0
    8.3209    1.4391  -59.1951 H   0  0  0  0  0  0  0  0  0  0  0  0
    6.2200   -0.2940  -53.9905 H   0  0  0  0  0  0  0  0  0  0  0  0
    8.8295   -1.3808  -50.8353 H   0  0  0  0  0  0  0  0  0  0  0  0
    8.0905   -2.9825  -49.0693 H   0  0  0  0  0  0  0  0  0  0  0  0
    6.4903   -4.8090  -49.6243 H   0  0  0  0  0  0  0  0  0  0  0  0
    5.6217   -5.0448  -51.9476 H   0  0  0  0  0  0  0  0  0  0  0  0
    6.3548   -3.4560  -53.7250 H   0  0  0  0  0  0  0  0  0  0  0  0
  1  2  2  0
  2  3  1  0
  4  3  1  1
  4  5  1  0
  5  6  1  0
  6  7  1  0
  7  8  1  0
  8  9  1  0
  9 10  1  0
 10 11  1  0
 10 12  1  0
  8 13  1  0
  2 14  1  0
 14 15  2  0
 15 16  1  0
 16 17  1  0
 17 18  2  0
 18 19  1  0
 19 20  2  0
 20 21  1  0
 21 22  2  0
 16 23  1  0
 23 24  2  0
 12  4  1  0
 24 14  1  0
 13  4  1  0
 22 17  1  0
 11  6  1  0
  3 25  1  0
  5 26  1  0
  5 27  1  0
  6 28  1  6
  7 29  1  0
  7 30  1  0
  8 31  1  6
  9 32  1  0
  9 33  1  0
 10 34  1  1
 11 35  1  0
 11 36  1  0
 12 37  1  0
 12 38  1  0
 13 39  1  0
 13 40  1  0
 15 41  1  0
 18 42  1  0
 19 43  1  0
 20 44  1  0
 21 45  1  0
 22 46  1  0
M  END
>  <meeko>  (9) 
{"is_sidechain": false}

$$$$

     RDKit          3D

 37 39  0  0  0  0  0  0  0  0999 V2000
    8.5080    4.8550  -56.6340 O   0  0  0  0  0  0  0  0  0  0  0  0
    8.4580    4.2370  -57.6960 C   0  0  0  0  0  0  0  0  0  0  0  0
    9.5000    4.2930  -58.6160 N   0  0  0  0  0  0  0  0  0  0  0  0
   10.6370    5.1860  -58.4450 C   0  0  0  0  0  0  0  0  0  0  0  0
   11.7420    4.4970  -57.6260 C   0  0  0  0  0  0  0  0  0  0  0  0
   12.7610    3.8000  -58.5220 C   0  0  0  0  0  0  0  0  0  0  0  0
   13.4650    4.7860  -59.4570 C   0  0  0  0  0  0  0  0  0  0  0  0
   12.6160    6.0120  -59.8030 C   0  0  0  0  0  0  0  0  0  0  0  0
   11.1300    5.6810  -59.8170 C   0  0  0  0  0  0  0  0  0  0  0  0
    7.3390    3.4090  -58.1120 C   0  0  0  0  0  0  0  0  0  0  0  0
    6.5150    2.7370  -57.3330 N   0  0  0  0  0  0  0  0  0  0  0  0
    5.6150    2.1080  -58.1710 N   0  0  0  0  0  0  0  0  0  0  0  0
    5.9480    2.4380  -59.4030 C   0  0  0  0  0  0  0  0  0  0  0  0
    5.3380    2.0580  -60.6710 C   0  0  0  0  0  0  0  0  0  0  0  0
    5.8590    2.5690  -61.8690 C   0  0  0  0  0  0  0  0  0  0  0  0
    5.2960    2.2220  -63.1010 C   0  0  0  0  0  0  0  0  0  0  0  0
    4.2040    1.3590  -63.1490 C   0  0  0  0  0  0  0  0  0  0  0  0
    3.6750    0.8420  -61.9680 C   0  0  0  0  0  0  0  0  0  0  0  0
    4.2390    1.1890  -60.7370 C   0  0  0  0  0  0  0  0  0  0  0  0
    7.0390    3.2710  -59.4480 O   0  0  0  0  0  0  0  0  0  0  0  0
    9.3400    3.8730  -59.5240 H   0  0  0  0  0  0  0  0  0  0  0  0
   10.3280    6.0737  -57.8736 H   0  0  0  0  0  0  0  0  0  0  0  0
   12.2604    5.2544  -57.0196 H   0  0  0  0  0  0  0  0  0  0  0  0
   11.2699    3.7350  -56.9884 H   0  0  0  0  0  0  0  0  0  0  0  0
   13.5151    3.3095  -57.8889 H   0  0  0  0  0  0  0  0  0  0  0  0
   12.2255    3.0651  -59.1410 H   0  0  0  0  0  0  0  0  0  0  0  0
   14.3893    5.1290  -58.9692 H   0  0  0  0  0  0  0  0  0  0  0  0
   13.6632    4.2535  -60.3989 H   0  0  0  0  0  0  0  0  0  0  0  0
   12.7997    6.7960  -59.0536 H   0  0  0  0  0  0  0  0  0  0  0  0
   12.9010    6.3542  -60.8088 H   0  0  0  0  0  0  0  0  0  0  0  0
   10.5672    6.5853  -60.0916 H   0  0  0  0  0  0  0  0  0  0  0  0
   10.9681    4.8748  -60.5476 H   0  0  0  0  0  0  0  0  0  0  0  0
    6.7213    3.2513  -61.8389 H   0  0  0  0  0  0  0  0  0  0  0  0
    5.7156    2.6306  -64.0321 H   0  0  0  0  0  0  0  0  0  0  0  0
    3.7598    1.0859  -64.1176 H   0  0  0  0  0  0  0  0  0  0  0  0
    2.8126    0.1601  -62.0045 H   0  0  0  0  0  0  0  0  0  0  0  0
    3.8161    0.7758  -59.8094 H   0  0  0  0  0  0  0  0  0  0  0  0
  1  2  2  0
  2  3  1  0
  3  4  1  0
  4  5  1  0
  5  6  1  0
  6  7  1  0
  7  8  1  0
  8  9  1  0
  2 10  1  0
 10 11  2  0
 11 12  1  0
 12 13  2  0
 13 14  1  0
 14 15  2  0
 15 16  1  0
 16 17  2  0
 17 18  1  0
 18 19  2  0
 13 20  1  0
  9  4  1  0
 20 10  1  0
 19 14  1  0
  3 21  1  0
  4 22  1  0
  5 23  1  0
  5 24  1  0
  6 25  1  0
  6 26  1  0
  7 27  1  0
  7 28  1  0
  8 29  1  0
  8 30  1  0
  9 31  1  0
  9 32  1  0
 15 33  1  0
 16 34  1  0
 17 35  1  0
 18 36  1  0
 19 37  1  0
M  END
>  <meeko>  (10) 
{"is_sidechain": false}

$$$$

     RDKit          3D

 34 36  0  0  0  0  0  0  0  0999 V2000
    7.3400   -3.0010  -52.3730 O   0  0  0  0  0  0  0  0  0  0  0  0
    8.1220   -2.2400  -52.9550 C   0  0  0  0  0  0  0  0  0  0  0  0
    9.4260   -2.7160  -53.3960 C   0  0  0  0  0  0  0  0  0  0  0  0
   10.5840   -2.6660  -52.7650 N   0  0  0  0  0  0  0  0  0  0  0  0
   11.5240   -3.2050  -53.6190 N   0  0  0  0  0  0  0  0  0  0  0  0
   10.8850   -3.5290  -54.7250 C   0  0  0  0  0  0  0  0  0  0  0  0
   11.3850   -4.1260  -55.9580 C   0  0  0  0  0  0  0  0  0  0  0  0
   11.4890   -3.3420  -57.1170 C   0  0  0  0  0  0  0  0  0  0  0  0
   11.9660   -3.8890  -58.3110 C   0  0  0  0  0  0  0  0  0  0  0  0
   12.3440   -5.2280  -58.3610 C   0  0  0  0  0  0  0  0  0  0  0  0
   12.2460   -6.0210  -57.2200 C   0  0  0  0  0  0  0  0  0  0  0  0
   11.7690   -5.4740  -56.0250 C   0  0  0  0  0  0  0  0  0  0  0  0
    9.5480   -3.2440  -54.6600 O   0  0  0  0  0  0  0  0  0  0  0  0
    7.7320   -0.9080  -53.1960 N   0  0  0  0  0  0  0  0  0  0  0  0
    6.3160   -0.5650  -53.0970 C   0  0  0  0  0  0  0  0  0  0  0  0
    5.7480   -0.3320  -54.4990 C   0  0  0  0  0  0  0  0  0  0  0  0
    6.5730    0.7010  -55.2740 C   0  0  0  0  0  0  0  0  0  0  0  0
    8.0690    0.3660  -55.2520 C   0  0  0  0  0  0  0  0  0  0  0  0
    8.5450    0.1350  -53.8210 C   0  0  0  0  0  0  0  0  0  0  0  0
   11.1913   -2.2835  -57.0852 H   0  0  0  0  0  0  0  0  0  0  0  0
   12.0428   -3.2618  -59.2114 H   0  0  0  0  0  0  0  0  0  0  0  0
   12.7197   -5.6593  -59.3006 H   0  0  0  0  0  0  0  0  0  0  0  0
   12.5443   -7.0791  -57.2592 H   0  0  0  0  0  0  0  0  0  0  0  0
   11.6940   -6.1067  -55.1283 H   0  0  0  0  0  0  0  0  0  0  0  0
    5.7719   -1.3897  -52.6134 H   0  0  0  0  0  0  0  0  0  0  0  0
    6.2016    0.3507  -52.4983 H   0  0  0  0  0  0  0  0  0  0  0  0
    5.7567   -1.2835  -55.0510 H   0  0  0  0  0  0  0  0  0  0  0  0
    4.7222    0.0517  -54.3967 H   0  0  0  0  0  0  0  0  0  0  0  0
    6.2279    0.7216  -56.3183 H   0  0  0  0  0  0  0  0  0  0  0  0
    6.4344    1.6804  -54.7929 H   0  0  0  0  0  0  0  0  0  0  0  0
    8.2445   -0.5449  -55.8431 H   0  0  0  0  0  0  0  0  0  0  0  0
    8.6285    1.2105  -55.6806 H   0  0  0  0  0  0  0  0  0  0  0  0
    9.5990   -0.1797  -53.8320 H   0  0  0  0  0  0  0  0  0  0  0  0
    8.4455    1.0685  -53.2477 H   0  0  0  0  0  0  0  0  0  0  0  0
  1  2  2  0
  2  3  1  0
  3  4  2  0
  4  5  1  0
  5  6  2  0
  6  7  1  0
  7  8  2  0
  8  9  1  0
  9 10  2  0
 10 11  1  0
 11 12  2  0
  6 13  1  0
  2 14  1  0
 14 15  1  0
 15 16  1  0
 16 17  1  0
 17 18  1  0
 18 19  1  0
 13  3  1  0
 19 14  1  0
 12  7  1  0
  8 20  1  0
  9 21  1  0
 10 22  1  0
 11 23  1  0
 12 24  1  0
 15 25  1  0
 15 26  1  0
 16 27  1  0
 16 28  1  0
 17 29  1  0
 17 30  1  0
 18 31  1  0
 18 32  1  0
 19 33  1  0
 19 34  1  0
M  END
>  <meeko>  (11) 
{"is_sidechain": false}

$$$$

     RDKit          3D

 34 36  0  0  0  0  0  0  0  0999 V2000
    8.8650   -1.4450  -54.1340 O   0  0  0  0  0  0  0  0  0  0  0  0
    9.6830   -0.9840  -54.9290 C   0  0  0  0  0  0  0  0  0  0  0  0
   10.8660   -1.6380  -55.2280 N   0  0  0  0  0  0  0  0  0  0  0  0
   11.1480   -2.9740  -54.7640 C   0  0  0  0  0  0  0  0  0  0  0  0
   11.5740   -3.8560  -55.9080 C   0  0  0  0  0  0  0  0  0  0  0  0
   12.0120   -5.1660  -55.6660 C   0  0  0  0  0  0  0  0  0  0  0  0
   12.3830   -5.9960  -56.7250 C   0  0  0  0  0  0  0  0  0  0  0  0
   12.3140   -5.5280  -58.0360 C   0  0  0  0  0  0  0  0  0  0  0  0
   11.8690   -4.2310  -58.2890 C   0  0  0  0  0  0  0  0  0  0  0  0
   11.4980   -3.3990  -57.2320 C   0  0  0  0  0  0  0  0  0  0  0  0
    9.5090    0.2680  -55.6380 C   0  0  0  0  0  0  0  0  0  0  0  0
    8.4420    1.0420  -55.6050 N   0  0  0  0  0  0  0  0  0  0  0  0
    8.7240    2.1170  -56.4250 N   0  0  0  0  0  0  0  0  0  0  0  0
    9.9410    1.9230  -56.8980 C   0  0  0  0  0  0  0  0  0  0  0  0
   10.7350    2.7420  -57.8050 C   0  0  0  0  0  0  0  0  0  0  0  0
   10.2680    3.1040  -59.0790 C   0  0  0  0  0  0  0  0  0  0  0  0
   11.0500    3.8910  -59.9290 C   0  0  0  0  0  0  0  0  0  0  0  0
   12.3080    4.3250  -59.5180 C   0  0  0  0  0  0  0  0  0  0  0  0
   12.7860    3.9760  -58.2580 C   0  0  0  0  0  0  0  0  0  0  0  0
   12.0040    3.1890  -57.4070 C   0  0  0  0  0  0  0  0  0  0  0  0
   10.5040    0.7610  -56.4400 O   0  0  0  0  0  0  0  0  0  0  0  0
   11.4280   -1.2580  -55.9810 H   0  0  0  0  0  0  0  0  0  0  0  0
   11.9558   -2.9343  -54.0184 H   0  0  0  0  0  0  0  0  0  0  0  0
   10.2350   -3.3927  -54.3156 H   0  0  0  0  0  0  0  0  0  0  0  0
   12.0636   -5.5423  -54.6337 H   0  0  0  0  0  0  0  0  0  0  0  0
   12.7302   -7.0204  -56.5248 H   0  0  0  0  0  0  0  0  0  0  0  0
   12.6102   -6.1811  -58.8701 H   0  0  0  0  0  0  0  0  0  0  0  0
   11.8103   -3.8629  -59.3239 H   0  0  0  0  0  0  0  0  0  0  0  0
   11.1437   -2.3783  -57.4383 H   0  0  0  0  0  0  0  0  0  0  0  0
    9.2760    2.7645  -59.4115 H   0  0  0  0  0  0  0  0  0  0  0  0
   10.6714    4.1680  -60.9240 H   0  0  0  0  0  0  0  0  0  0  0  0
   12.9233    4.9430  -60.1884 H   0  0  0  0  0  0  0  0  0  0  0  0
   13.7789    4.3193  -57.9319 H   0  0  0  0  0  0  0  0  0  0  0  0
   12.3885    2.9169  -56.4130 H   0  0  0  0  0  0  0  0  0  0  0  0
  1  2  2  0
  2  3  1  0
  3  4  1  0
  4  5  1  0
  5  6  2  0
  6  7  1  0
  7  8  2  0
  8  9  1  0
  9 10  2  0
  2 11  1  0
 11 12  2  0
 12 13  1  0
 13 14  2  0
 14 15  1  0
 15 16  2  0
 16 17  1  0
 17 18  2  0
 18 19  1  0
 19 20  2  0
 14 21  1  0
 10  5  1  0
 21 11  1  0
 20 15  1  0
  3 22  1  0
  4 23  1  0
  4 24  1  0
  6 25  1  0
  7 26  1  0
  8 27  1  0
  9 28  1  0
 10 29  1  0
 16 30  1  0
 17 31  1  0
 18 32  1  0
 19 33  1  0
 20 34  1  0
M  END
>  <meeko>  (12) 
{"is_sidechain": false}

$$$$

     RDKit          3D

 40 42  0  0  0  0  0  0  0  0999 V2000
    7.6820    3.3990  -57.1560 O   0  0  0  0  0  0  0  0  0  0  0  0
    8.2910    2.3810  -56.8330 C   0  0  0  0  0  0  0  0  0  0  0  0
    9.6040    2.1640  -57.2360 N   0  0  0  0  0  0  0  0  0  0  0  0
   10.3830    3.1800  -57.9340 C   0  0  0  0  0  0  0  0  0  0  0  0
   10.0140    3.2110  -59.4240 C   0  0  0  0  0  0  0  0  0  0  0  0
   10.0630    4.5740  -60.1110 C   0  0  0  0  0  0  0  0  0  0  0  0
   11.4070    5.3020  -60.0790 C   0  0  0  0  0  0  0  0  0  0  0  0
   12.0690    5.3600  -58.7050 C   0  0  0  0  0  0  0  0  0  0  0  0
   12.7850    4.0880  -58.2320 C   0  0  0  0  0  0  0  0  0  0  0  0
   11.8830    3.0230  -57.6140 C   0  0  0  0  0  0  0  0  0  0  0  0
    7.7380    1.3210  -56.0100 C   0  0  0  0  0  0  0  0  0  0  0  0
    6.4890    0.9020  -55.9840 N   0  0  0  0  0  0  0  0  0  0  0  0
    6.4370   -0.1130  -55.0490 N   0  0  0  0  0  0  0  0  0  0  0  0
    7.6560   -0.2460  -54.5670 C   0  0  0  0  0  0  0  0  0  0  0  0
    8.1680   -1.1630  -53.5560 C   0  0  0  0  0  0  0  0  0  0  0  0
    9.4070   -1.8080  -53.6960 C   0  0  0  0  0  0  0  0  0  0  0  0
    9.8720   -2.6830  -52.7080 C   0  0  0  0  0  0  0  0  0  0  0  0
    9.1040   -2.9240  -51.5710 C   0  0  0  0  0  0  0  0  0  0  0  0
    7.8730   -2.2930  -51.4190 C   0  0  0  0  0  0  0  0  0  0  0  0
    7.4080   -1.4180  -52.4040 C   0  0  0  0  0  0  0  0  0  0  0  0
    8.5440    0.6370  -55.1280 O   0  0  0  0  0  0  0  0  0  0  0  0
   10.0880    1.3760  -56.8220 H   0  0  0  0  0  0  0  0  0  0  0  0
   10.1269    4.1849  -57.5670 H   0  0  0  0  0  0  0  0  0  0  0  0
   10.7100    2.5445  -59.9544 H   0  0  0  0  0  0  0  0  0  0  0  0
    8.9596    2.9007  -59.4688 H   0  0  0  0  0  0  0  0  0  0  0  0
    9.7864    4.4277  -61.1656 H   0  0  0  0  0  0  0  0  0  0  0  0
    9.3703    5.2129  -59.5436 H   0  0  0  0  0  0  0  0  0  0  0  0
   12.0923    4.7864  -60.7679 H   0  0  0  0  0  0  0  0  0  0  0  0
   11.2031    6.3432  -60.3695 H   0  0  0  0  0  0  0  0  0  0  0  0
   12.8108    6.1720  -58.7262 H   0  0  0  0  0  0  0  0  0  0  0  0
   11.2445    5.5102  -57.9925 H   0  0  0  0  0  0  0  0  0  0  0  0
   13.2929    3.6414  -59.0995 H   0  0  0  0  0  0  0  0  0  0  0  0
   13.4723    4.4049  -57.4338 H   0  0  0  0  0  0  0  0  0  0  0  0
   12.2107    2.0404  -57.9842 H   0  0  0  0  0  0  0  0  0  0  0  0
   11.9796    3.1307  -56.5235 H   0  0  0  0  0  0  0  0  0  0  0  0
   10.0186   -1.6237  -54.5916 H   0  0  0  0  0  0  0  0  0  0  0  0
   10.8452   -3.1812  -52.8293 H   0  0  0  0  0  0  0  0  0  0  0  0
    9.4700   -3.6119  -50.7946 H   0  0  0  0  0  0  0  0  0  0  0  0
    7.2652   -2.4834  -50.5221 H   0  0  0  0  0  0  0  0  0  0  0  0
    6.4342   -0.9229  -52.2750 H   0  0  0  0  0  0  0  0  0  0  0  0
  1  2  2  0
  2  3  1  0
  3  4  1  0
  4  5  1  0
  5  6  1  0
  6  7  1  0
  7  8  1  0
  8  9  1  0
  9 10  1  0
  2 11  1  0
 11 12  2  0
 12 13  1  0
 13 14  2  0
 14 15  1  0
 15 16  2  0
 16 17  1  0
 17 18  2  0
 18 19  1  0
 19 20  2  0
 14 21  1  0
 10  4  1  0
 21 11  1  0
 20 15  1  0
  3 22  1  0
  4 23  1  0
  5 24  1  0
  5 25  1  0
  6 26  1  0
  6 27  1  0
  7 28  1  0
  7 29  1  0
  8 30  1  0
  8 31  1  0
  9 32  1  0
  9 33  1  0
 10 34  1  0
 10 35  1  0
 16 36  1  0
 17 37  1  0
 18 38  1  0
 19 39  1  0
 20 40  1  0
M  END
>  <meeko>  (13) 
{"is_sidechain": false}

$$$$

     RDKit          3D

 34 36  0  0  0  0  0  0  0  0999 V2000
    8.3090    0.0280  -53.2110 O   0  0  0  0  0  0  0  0  0  0  0  0
    8.9320   -0.3410  -54.2050 C   0  0  0  0  0  0  0  0  0  0  0  0
    8.8070    0.3190  -55.4220 N   0  0  0  0  0  0  0  0  0  0  0  0
    7.8490    1.3830  -55.6130 C   0  0  0  0  0  0  0  0  0  0  0  0
    8.1980    2.2820  -56.7930 C   0  0  0  0  0  0  0  0  0  0  0  0
    6.8950    3.0190  -57.0620 C   0  0  0  0  0  0  0  0  0  0  0  0
    5.7900    2.0140  -56.7400 C   0  0  0  0  0  0  0  0  0  0  0  0
    6.4560    0.8690  -55.9760 C   0  0  0  0  0  0  0  0  0  0  0  0
    9.8340   -1.4780  -54.2310 C   0  0  0  0  0  0  0  0  0  0  0  0
   10.4510   -2.0280  -53.2050 N   0  0  0  0  0  0  0  0  0  0  0  0
   11.1930   -3.0770  -53.7120 N   0  0  0  0  0  0  0  0  0  0  0  0
   10.9800   -3.0970  -55.0130 C   0  0  0  0  0  0  0  0  0  0  0  0
   11.5100   -3.9930  -56.0340 C   0  0  0  0  0  0  0  0  0  0  0  0
   12.0710   -5.2390  -55.7120 C   0  0  0  0  0  0  0  0  0  0  0  0
   12.5710   -6.0760  -56.7130 C   0  0  0  0  0  0  0  0  0  0  0  0
   12.5160   -5.6800  -58.0480 C   0  0  0  0  0  0  0  0  0  0  0  0
   11.9610   -4.4470  -58.3840 C   0  0  0  0  0  0  0  0  0  0  0  0
   11.4620   -3.6100  -57.3830 C   0  0  0  0  0  0  0  0  0  0  0  0
   10.1200   -2.1090  -55.4220 O   0  0  0  0  0  0  0  0  0  0  0  0
    9.2420   -0.1080  -56.2320 H   0  0  0  0  0  0  0  0  0  0  0  0
    7.8699    1.9124  -54.6490 H   0  0  0  0  0  0  0  0  0  0  0  0
    9.0022    2.9848  -56.5297 H   0  0  0  0  0  0  0  0  0  0  0  0
    8.5681    1.7251  -57.6664 H   0  0  0  0  0  0  0  0  0  0  0  0
    6.8119    3.9039  -56.4139 H   0  0  0  0  0  0  0  0  0  0  0  0
    6.8334    3.3780  -58.1000 H   0  0  0  0  0  0  0  0  0  0  0  0
    5.0156    2.4866  -56.1179 H   0  0  0  0  0  0  0  0  0  0  0  0
    5.3022    1.6508  -57.6566 H   0  0  0  0  0  0  0  0  0  0  0  0
    5.8850    0.6288  -55.0670 H   0  0  0  0  0  0  0  0  0  0  0  0
    6.5020   -0.0521  -56.5756 H   0  0  0  0  0  0  0  0  0  0  0  0
   12.1174   -5.5597  -54.6608 H   0  0  0  0  0  0  0  0  0  0  0  0
   13.0089   -7.0493  -56.4467 H   0  0  0  0  0  0  0  0  0  0  0  0
   12.9101   -6.3397  -58.8351 H   0  0  0  0  0  0  0  0  0  0  0  0
   11.9158   -4.1327  -59.4372 H   0  0  0  0  0  0  0  0  0  0  0  0
   11.0257   -2.6378  -57.6560 H   0  0  0  0  0  0  0  0  0  0  0  0
  1  2  2  0
  2  3  1  0
  3  4  1  0
  4  5  1  0
  5  6  1  0
  6  7  1  0
  7  8  1  0
  2  9  1  0
  9 10  2  0
 10 11  1  0
 11 12  2  0
 12 13  1  0
 13 14  2  0
 14 15  1  0
 15 16  2  0
 16 17  1  0
 17 18  2  0
 12 19  1  0
  8  4  1  0
 19  9  1  0
 18 13  1  0
  3 20  1  0
  4 21  1  0
  5 22  1  0
  5 23  1  0
  6 24  1  0
  6 25  1  0
  7 26  1  0
  7 27  1  0
  8 28  1  0
  8 29  1  0
 14 30  1  0
 15 31  1  0
 16 32  1  0
 17 33  1  0
 18 34  1  0
M  END
>  <meeko>  (14) 
{"is_sidechain": false}

$$$$

     RDKit          3D

 39 42  0  0  0  0  0  0  0  0999 V2000
    7.7580   -2.7720  -50.0700 C   0  0  0  0  0  0  0  0  0  0  0  0
    8.1130   -2.2380  -51.3990 C   0  0  0  0  0  0  0  0  0  0  0  0
    7.5230   -1.2900  -52.0980 N   0  0  0  0  0  0  0  0  0  0  0  0
    8.2790   -1.2160  -53.2420 C   0  0  0  0  0  0  0  0  0  0  0  0
    9.3130   -2.1280  -53.2030 C   0  0  0  0  0  0  0  0  0  0  0  0
   10.3880   -2.4840  -54.1020 C   0  0  0  0  0  0  0  0  0  0  0  0
   11.4550   -1.8770  -54.1380 O   0  0  0  0  0  0  0  0  0  0  0  0
   10.1280   -3.5650  -54.9290 N   0  0  0  0  0  0  0  0  0  0  0  0
   11.0630   -4.1070  -55.9220 C   0  0  2  0  0  0  0  0  0  0  0  0
   10.2910   -5.1120  -56.8200 C   0  0  0  0  0  0  0  0  0  0  0  0
   11.2130   -5.7230  -57.8880 C   0  0  1  0  0  0  0  0  0  0  0  0
   11.7790   -4.5980  -58.7670 C   0  0  0  0  0  0  0  0  0  0  0  0
   12.5710   -3.6050  -57.9020 C   0  0  2  0  0  0  0  0  0  0  0  0
   13.7220   -4.3470  -57.2010 C   0  0  0  0  0  0  0  0  0  0  0  0
   13.1650   -5.4770  -56.3190 C   0  0  2  0  0  0  0  0  0  0  0  0
   12.3690   -6.4590  -57.1940 C   0  0  0  0  0  0  0  0  0  0  0  0
   12.2320   -4.8740  -55.2530 C   0  0  0  0  0  0  0  0  0  0  0  0
   11.6380   -2.9990  -56.8390 C   0  0  0  0  0  0  0  0  0  0  0  0
    9.2040   -2.7930  -52.0040 O   0  0  0  0  0  0  0  0  0  0  0  0
    8.1869   -2.1268  -49.2891 H   0  0  0  0  0  0  0  0  0  0  0  0
    6.6633   -2.7964  -49.9651 H   0  0  0  0  0  0  0  0  0  0  0  0
    8.1592   -3.7908  -49.9651 H   0  0  0  0  0  0  0  0  0  0  0  0
    8.0864   -0.5242  -54.0753 H   0  0  0  0  0  0  0  0  0  0  0  0
    9.2310   -4.0210  -54.8520 H   0  0  0  0  0  0  0  0  0  0  0  0
    9.8866   -5.9185  -56.1908 H   0  0  0  0  0  0  0  0  0  0  0  0
    9.4779   -4.5727  -57.3281 H   0  0  0  0  0  0  0  0  0  0  0  0
   10.6465   -6.4301  -58.5117 H   0  0  0  0  0  0  0  0  0  0  0  0
   12.4451   -5.0303  -59.5282 H   0  0  0  0  0  0  0  0  0  0  0  0
   10.9482   -4.0687  -59.2564 H   0  0  0  0  0  0  0  0  0  0  0  0
   12.9779   -2.8048  -58.5377 H   0  0  0  0  0  0  0  0  0  0  0  0
   14.3937   -4.7754  -57.9595 H   0  0  0  0  0  0  0  0  0  0  0  0
   14.2749   -3.6368  -56.5685 H   0  0  0  0  0  0  0  0  0  0  0  0
   13.9942   -6.0080  -55.8287 H   0  0  0  0  0  0  0  0  0  0  0  0
   13.0350   -6.8916  -57.9551 H   0  0  0  0  0  0  0  0  0  0  0  0
   11.9597   -7.2591  -56.5597 H   0  0  0  0  0  0  0  0  0  0  0  0
   11.8237   -5.6836  -54.6303 H   0  0  0  0  0  0  0  0  0  0  0  0
   12.8087   -4.1713  -54.6336 H   0  0  0  0  0  0  0  0  0  0  0  0
   12.2048   -2.2817  -56.2273 H   0  0  0  0  0  0  0  0  0  0  0  0
   10.8046   -2.4914  -57.3468 H   0  0  0  0  0  0  0  0  0  0  0  0
  1  2  1  0
  2  3  2  0
  3  4  1  0
  4  5  2  0
  5  6  1  0
  6  7  2  0
  6  8  1  0
  9  8  1  1
  9 10  1  0
 10 11  1  0
 11 12  1  0
 12 13  1  0
 13 14  1  0
 14 15  1  0
 15 16  1  0
 15 17  1  0
 13 18  1  0
  5 19  1  0
 19  2  1  0
 17  9  1  0
 18  9  1  0
 16 11  1  0
  1 20  1  0
  1 21  1  0
  1 22  1  0
  4 23  1  0
  8 24  1  0
 10 25  1  0
 10 26  1  0
 11 27  1  6
 12 28  1  0
 12 29  1  0
 13 30  1  6
 14 31  1  0
 14 32  1  0
 15 33  1  1
 16 34  1  0
 16 35  1  0
 17 36  1  0
 17 37  1  0
 18 38  1  0
 18 39  1  0
M  END
>  <meeko>  (15) 
{"is_sidechain": false}

$$$$

     RDKit          3D

 40 43  0  0  0  0  0  0  0  0999 V2000
    7.7440   -2.7490  -49.9960 C   0  0  0  0  0  0  0  0  0  0  0  0
    8.0510   -2.2480  -51.3510 C   0  0  0  0  0  0  0  0  0  0  0  0
    7.4250   -1.3580  -52.1960 C   0  0  0  0  0  0  0  0  0  0  0  0
    8.2180   -1.2970  -53.3660 C   0  0  0  0  0  0  0  0  0  0  0  0
    9.2850   -2.1530  -53.1710 C   0  0  0  0  0  0  0  0  0  0  0  0
   10.4070   -2.4900  -54.0260 C   0  0  0  0  0  0  0  0  0  0  0  0
   11.5020   -1.9450  -53.9400 O   0  0  0  0  0  0  0  0  0  0  0  0
   10.1190   -3.4790  -54.9430 N   0  0  0  0  0  0  0  0  0  0  0  0
   11.0450   -4.0270  -55.9330 C   0  0  2  0  0  0  0  0  0  0  0  0
   10.2570   -4.9890  -56.8630 C   0  0  0  0  0  0  0  0  0  0  0  0
   11.1770   -5.6000  -57.9320 C   0  0  1  0  0  0  0  0  0  0  0  0
   11.7880   -4.4720  -58.7770 C   0  0  0  0  0  0  0  0  0  0  0  0
   12.5950   -3.5220  -57.8800 C   0  0  2  0  0  0  0  0  0  0  0  0
   13.7150   -4.3120  -57.1810 C   0  0  0  0  0  0  0  0  0  0  0  0
   13.1140   -5.4440  -56.3320 C   0  0  2  0  0  0  0  0  0  0  0  0
   12.3030   -6.3840  -57.2390 C   0  0  0  0  0  0  0  0  0  0  0  0
   12.1840   -4.8380  -55.2660 C   0  0  0  0  0  0  0  0  0  0  0  0
   11.6650   -2.9150  -56.8150 C   0  0  0  0  0  0  0  0  0  0  0  0
    9.1800   -2.7360  -51.9330 O   0  0  0  0  0  0  0  0  0  0  0  0
    8.1649   -2.0621  -49.2470 H   0  0  0  0  0  0  0  0  0  0  0  0
    6.6534   -2.8098  -49.8659 H   0  0  0  0  0  0  0  0  0  0  0  0
    8.1850   -3.7483  -49.8659 H   0  0  0  0  0  0  0  0  0  0  0  0
    6.4944   -0.8052  -52.0001 H   0  0  0  0  0  0  0  0  0  0  0  0
    8.0227   -0.6856  -54.2593 H   0  0  0  0  0  0  0  0  0  0  0  0
    9.1720   -3.8420  -54.9030 H   0  0  0  0  0  0  0  0  0  0  0  0
    9.8221   -5.7981  -56.2579 H   0  0  0  0  0  0  0  0  0  0  0  0
    9.4651   -4.4167  -57.3684 H   0  0  0  0  0  0  0  0  0  0  0  0
   10.5992   -6.2756  -58.5799 H   0  0  0  0  0  0  0  0  0  0  0  0
   12.4525   -4.9063  -59.5385 H   0  0  0  0  0  0  0  0  0  0  0  0
   10.9795   -3.9080  -59.2652 H   0  0  0  0  0  0  0  0  0  0  0  0
   13.0324   -2.7194  -58.4920 H   0  0  0  0  0  0  0  0  0  0  0  0
   14.3843   -4.7429  -57.9401 H   0  0  0  0  0  0  0  0  0  0  0  0
   14.2796   -3.6322  -56.5259 H   0  0  0  0  0  0  0  0  0  0  0  0
   13.9209   -6.0090  -55.8424 H   0  0  0  0  0  0  0  0  0  0  0  0
   12.9671   -6.8185  -58.0007 H   0  0  0  0  0  0  0  0  0  0  0  0
   11.8629   -7.1859  -56.6281 H   0  0  0  0  0  0  0  0  0  0  0  0
   11.7464   -5.6488  -54.6651 H   0  0  0  0  0  0  0  0  0  0  0  0
   12.7712   -4.1636  -54.6254 H   0  0  0  0  0  0  0  0  0  0  0  0
   12.2437   -2.2296  -56.1784 H   0  0  0  0  0  0  0  0  0  0  0  0
   10.8539   -2.3715  -57.3216 H   0  0  0  0  0  0  0  0  0  0  0  0
  1  2  1  0
  2  3  2  0
  3  4  1  0
  4  5  2  0
  5  6  1  0
  6  7  2  0
  6  8  1  0
  9  8  1  1
  9 10  1  0
 10 11  1  0
 11 12  1  0
 12 13  1  0
 13 14  1  0
 14 15  1  0
 15 16  1  0
 15 17  1  0
 13 18  1  0
  5 19  1  0
 19  2  1  0
 17  9  1  0
 18  9  1  0
 16 11  1  0
  1 20  1  0
  1 21  1  0
  1 22  1  0
  3 23  1  0
  4 24  1  0
  8 25  1  0
 10 26  1  0
 10 27  1  0
 11 28  1  6
 12 29  1  0
 12 30  1  0
 13 31  1  6
 14 32  1  0
 14 33  1  0
 15 34  1  1
 16 35  1  0
 16 36  1  0
 17 37  1  0
 17 38  1  0
 18 39  1  0
 18 40  1  0
M  END
>  <meeko>  (16) 
{"is_sidechain": false}

$$$$

     RDKit          3D

 45 49  0  0  0  0  0  0  0  0999 V2000
    9.6220    1.2300  -55.7530 O   0  0  0  0  0  0  0  0  0  0  0  0
    8.3970    1.1920  -55.8260 C   0  0  0  0  0  0  0  0  0  0  0  0
    7.6710    2.0010  -56.6870 N   0  0  0  0  0  0  0  0  0  0  0  0
    8.2320    2.9920  -57.6060 C   0  0  2  0  0  0  0  0  0  0  0  0
    8.6000    4.3090  -56.8760 C   0  0  0  0  0  0  0  0  0  0  0  0
    9.1390    5.3490  -57.8750 C   0  0  1  0  0  0  0  0  0  0  0  0
   10.3850    4.7800  -58.5760 C   0  0  0  0  0  0  0  0  0  0  0  0
   10.0230    3.4920  -59.3350 C   0  0  2  0  0  0  0  0  0  0  0  0
    8.9380    3.8050  -60.3780 C   0  0  0  0  0  0  0  0  0  0  0  0
    7.6890    4.3660  -59.6820 C   0  0  2  0  0  0  0  0  0  0  0  0
    8.0590    5.6510  -58.9260 C   0  0  0  0  0  0  0  0  0  0  0  0
    7.1610    3.3270  -58.6790 C   0  0  0  0  0  0  0  0  0  0  0  0
    9.4850    2.4500  -58.3390 C   0  0  0  0  0  0  0  0  0  0  0  0
    7.5710    0.3040  -55.0310 C   0  0  0  0  0  0  0  0  0  0  0  0
    6.2620    0.1630  -55.1250 N   0  0  0  0  0  0  0  0  0  0  0  0
    5.9100   -0.7800  -54.1810 N   0  0  0  0  0  0  0  0  0  0  0  0
    7.0250   -1.1480  -53.5790 C   0  0  0  0  0  0  0  0  0  0  0  0
    7.2380   -2.1130  -52.5070 C   0  0  0  0  0  0  0  0  0  0  0  0
    7.7650   -1.7360  -51.2630 C   0  0  0  0  0  0  0  0  0  0  0  0
    7.9590   -2.6820  -50.2520 C   0  0  0  0  0  0  0  0  0  0  0  0
    7.6270   -4.0170  -50.4730 C   0  0  0  0  0  0  0  0  0  0  0  0
    7.1020   -4.4090  -51.7030 C   0  0  0  0  0  0  0  0  0  0  0  0
    6.9080   -3.4620  -52.7130 C   0  0  0  0  0  0  0  0  0  0  0  0
    8.1260   -0.4970  -54.0690 O   0  0  0  0  0  0  0  0  0  0  0  0
    6.6620    1.8830  -56.6610 H   0  0  0  0  0  0  0  0  0  0  0  0
    7.7030    4.7120  -56.3830 H   0  0  0  0  0  0  0  0  0  0  0  0
    9.3801    4.0955  -56.1304 H   0  0  0  0  0  0  0  0  0  0  0  0
    9.4037    6.2734  -57.3408 H   0  0  0  0  0  0  0  0  0  0  0  0
   10.7741    5.5239  -59.2868 H   0  0  0  0  0  0  0  0  0  0  0  0
   11.1496    4.5492  -57.8196 H   0  0  0  0  0  0  0  0  0  0  0  0
   10.9169    3.0956  -59.8388 H   0  0  0  0  0  0  0  0  0  0  0  0
    9.3223    4.5483  -61.0921 H   0  0  0  0  0  0  0  0  0  0  0  0
    8.6708    2.8805  -60.9107 H   0  0  0  0  0  0  0  0  0  0  0  0
    6.9168    4.5882  -60.4332 H   0  0  0  0  0  0  0  0  0  0  0  0
    8.4425    6.3957  -59.6390 H   0  0  0  0  0  0  0  0  0  0  0  0
    7.1639    6.0442  -58.4218 H   0  0  0  0  0  0  0  0  0  0  0  0
    6.2671    3.7304  -58.1808 H   0  0  0  0  0  0  0  0  0  0  0  0
    6.9151    2.4055  -59.2271 H   0  0  0  0  0  0  0  0  0  0  0  0
    9.2163    1.5334  -58.8846 H   0  0  0  0  0  0  0  0  0  0  0  0
   10.2658    2.2348  -57.5947 H   0  0  0  0  0  0  0  0  0  0  0  0
    8.0287   -0.6838  -51.0807 H   0  0  0  0  0  0  0  0  0  0  0  0
    8.3740   -2.3722  -49.2815 H   0  0  0  0  0  0  0  0  0  0  0  0
    7.7792   -4.7610  -49.6772 H   0  0  0  0  0  0  0  0  0  0  0  0
    6.8404   -5.4628  -51.8791 H   0  0  0  0  0  0  0  0  0  0  0  0
    6.4917   -3.7777  -53.6810 H   0  0  0  0  0  0  0  0  0  0  0  0
  1  2  2  0
  2  3  1  0
  4  3  1  1
  4  5  1  0
  5  6  1  0
  6  7  1  0
  7  8  1  0
  8  9  1  0
  9 10  1  0
 10 11  1  0
 10 12  1  0
  8 13  1  0
  2 14  1  0
 14 15  2  0
 15 16  1  0
 16 17  2  0
 17 18  1  0
 18 19  2  0
 19 20  1  0
 20 21  2  0
 21 22  1  0
 22 23  2  0
 17 24  1  0
 12  4  1  0
 24 14  1  0
 13  4  1  0
 23 18  1  0
 11  6  1  0
  3 25  1  0
  5 26  1  0
  5 27  1  0
  6 28  1  1
  7 29  1  0
  7 30  1  0
  8 31  1  6
  9 32  1  0
  9 33  1  0
 10 34  1  6
 11 35  1  0
 11 36  1  0
 12 37  1  0
 12 38  1  0
 13 39  1  0
 13 40  1  0
 19 41  1  0
 20 42  1  0
 21 43  1  0
 22 44  1  0
 23 45  1  0
M  END
>  <meeko>  (17) 
{"is_sidechain": false}

$$$$

     RDKit          3D

 51 55  0  0  0  0  0  0  0  0999 V2000
    7.0140    1.5140  -56.0130 O   0  0  0  0  0  0  0  0  0  0  0  0
    8.1680    1.1190  -55.8690 C   0  0  0  0  0  0  0  0  0  0  0  0
    9.2400    1.6640  -56.5610 N   0  0  0  0  0  0  0  0  0  0  0  0
    9.1640    2.7530  -57.5350 C   0  0  2  0  0  0  0  0  0  0  0  0
    8.0670    2.4980  -58.5970 C   0  0  0  0  0  0  0  0  0  0  0  0
    8.0430    3.6320  -59.6370 C   0  0  1  0  0  0  0  0  0  0  0  0
    7.7710    4.9670  -58.9230 C   0  0  0  0  0  0  0  0  0  0  0  0
    8.8760    5.2510  -57.8910 C   0  0  2  0  0  0  0  0  0  0  0  0
   10.2340    5.3130  -58.6070 C   0  0  0  0  0  0  0  0  0  0  0  0
   10.5160    3.9780  -59.3130 C   0  0  2  0  0  0  0  0  0  0  0  0
    9.4070    3.7030  -60.3420 C   0  0  0  0  0  0  0  0  0  0  0  0
   10.5280    2.8480  -58.2720 C   0  0  0  0  0  0  0  0  0  0  0  0
    8.8990    4.1170  -56.8500 C   0  0  0  0  0  0  0  0  0  0  0  0
    8.5470    0.0480  -54.9660 C   0  0  0  0  0  0  0  0  0  0  0  0
    9.6820   -0.6280  -54.9910 N   0  0  0  0  0  0  0  0  0  0  0  0
    9.6090   -1.5410  -53.9600 N   0  0  0  0  0  0  0  0  0  0  0  0
    8.4380   -1.3590  -53.3830 C   0  0  0  0  0  0  0  0  0  0  0  0
    7.8280   -2.0640  -52.2220 C   0  0  0  0  0  0  0  0  0  0  0  0
    6.8900   -3.1830  -52.6980 C   0  0  0  0  0  0  0  0  0  0  0  0
    6.2920   -3.9530  -51.5230 C   0  0  0  0  0  0  0  0  0  0  0  0
    7.3760   -4.4950  -50.5950 C   0  0  0  0  0  0  0  0  0  0  0  0
    8.3120   -3.3890  -50.1190 C   0  0  0  0  0  0  0  0  0  0  0  0
    8.9150   -2.6180  -51.2910 C   0  0  0  0  0  0  0  0  0  0  0  0
    7.7040   -0.3630  -53.9680 O   0  0  0  0  0  0  0  0  0  0  0  0
   10.1490    1.2570  -56.3590 H   0  0  0  0  0  0  0  0  0  0  0  0
    8.2722    1.5450  -59.1065 H   0  0  0  0  0  0  0  0  0  0  0  0
    7.0897    2.4588  -58.0937 H   0  0  0  0  0  0  0  0  0  0  0  0
    7.2532    3.4393  -60.3780 H   0  0  0  0  0  0  0  0  0  0  0  0
    7.7495    5.7785  -59.6653 H   0  0  0  0  0  0  0  0  0  0  0  0
    6.8024    4.9068  -58.4051 H   0  0  0  0  0  0  0  0  0  0  0  0
    8.6794    6.2101  -57.3894 H   0  0  0  0  0  0  0  0  0  0  0  0
   10.2168    6.1225  -59.3515 H   0  0  0  0  0  0  0  0  0  0  0  0
   11.0247    5.5045  -57.8666 H   0  0  0  0  0  0  0  0  0  0  0  0
   11.4903    4.0272  -59.8212 H   0  0  0  0  0  0  0  0  0  0  0  0
    9.3910    4.5131  -61.0859 H   0  0  0  0  0  0  0  0  0  0  0  0
    9.6066    2.7431  -60.8407 H   0  0  0  0  0  0  0  0  0  0  0  0
   10.7292    1.8934  -58.7801 H   0  0  0  0  0  0  0  0  0  0  0  0
   11.3116    3.0637  -57.5308 H   0  0  0  0  0  0  0  0  0  0  0  0
    9.6957    4.3146  -56.1178 H   0  0  0  0  0  0  0  0  0  0  0  0
    7.9214    4.0773  -56.3473 H   0  0  0  0  0  0  0  0  0  0  0  0
    7.2299   -1.3375  -51.6524 H   0  0  0  0  0  0  0  0  0  0  0  0
    6.0736   -2.7384  -53.2860 H   0  0  0  0  0  0  0  0  0  0  0  0
    7.4756   -3.8865  -53.3080 H   0  0  0  0  0  0  0  0  0  0  0  0
    5.6370   -3.2792  -50.9512 H   0  0  0  0  0  0  0  0  0  0  0  0
    5.7250   -4.8060  -51.9241 H   0  0  0  0  0  0  0  0  0  0  0  0
    6.8975   -4.9590  -49.7199 H   0  0  0  0  0  0  0  0  0  0  0  0
    7.9708   -5.2321  -51.1544 H   0  0  0  0  0  0  0  0  0  0  0  0
    7.7455   -2.6902  -49.4859 H   0  0  0  0  0  0  0  0  0  0  0  0
    9.1337   -3.8538  -49.5544 H   0  0  0  0  0  0  0  0  0  0  0  0
    9.5100   -1.7801  -50.8987 H   0  0  0  0  0  0  0  0  0  0  0  0
    9.5444   -3.3096  -51.8703 H   0  0  0  0  0  0  0  0  0  0  0  0
  1  2  2  0
  2  3  1  0
  4  3  1  1
  4  5  1  0
  5  6  1  0
  6  7  1  0
  7  8  1  0
  8  9  1  0
  9 10  1  0
 10 11  1  0
 10 12  1  0
  8 13  1  0
  2 14  1  0
 14 15  2  0
 15 16  1  0
 16 17  2  0
 17 18  1  0
 18 19  1  0
 19 20  1  0
 20 21  1  0
 21 22  1  0
 22 23  1  0
 17 24  1  0
 12  4  1  0
 24 14  1  0
 13  4  1  0
 23 18  1  0
 11  6  1  0
  3 25  1  0
  5 26  1  0
  5 27  1  0
  6 28  1  6
  7 29  1  0
  7 30  1  0
  8 31  1  1
  9 32  1  0
  9 33  1  0
 10 34  1  6
 11 35  1  0
 11 36  1  0
 12 37  1  0
 12 38  1  0
 13 39  1  0
 13 40  1  0
 18 41  1  0
 19 42  1  0
 19 43  1  0
 20 44  1  0
 20 45  1  0
 21 46  1  0
 21 47  1  0
 22 48  1  0
 22 49  1  0
 23 50  1  0
 23 51  1  0
M  END
>  <meeko>  (18) 
{"is_sidechain": false}

$$$$

     RDKit          3D

 47 51  0  0  0  0  0  0  0  0999 V2000
    6.4050    2.1990  -56.7190 O   0  0  0  0  0  0  0  0  0  0  0  0
    7.4240    1.6250  -56.3480 C   0  0  0  0  0  0  0  0  0  0  0  0
    8.6880    1.9040  -56.8510 N   0  0  0  0  0  0  0  0  0  0  0  0
    8.9920    2.9010  -57.8810 C   0  0  2  0  0  0  0  0  0  0  0  0
    8.0700    2.7470  -59.1160 C   0  0  0  0  0  0  0  0  0  0  0  0
    8.3750    3.8360  -60.1590 C   0  0  1  0  0  0  0  0  0  0  0  0
    8.1370    5.2190  -59.5340 C   0  0  0  0  0  0  0  0  0  0  0  0
    9.0550    5.4100  -58.3160 C   0  0  2  0  0  0  0  0  0  0  0  0
   10.5210    5.2930  -58.7600 C   0  0  0  0  0  0  0  0  0  0  0  0
   10.7730    3.9110  -59.3800 C   0  0  2  0  0  0  0  0  0  0  0  0
    9.8460    3.7220  -60.5930 C   0  0  0  0  0  0  0  0  0  0  0  0
   10.4700    2.8210  -58.3370 C   0  0  0  0  0  0  0  0  0  0  0  0
    8.7530    4.3130  -57.2810 C   0  0  0  0  0  0  0  0  0  0  0  0
    7.3830    0.5500  -55.2950 C   0  0  0  0  0  0  0  0  0  0  0  0
    6.2570   -0.1740  -55.1460 N   0  0  0  0  0  0  0  0  0  0  0  0
    6.3180   -1.1160  -54.1770 C   0  0  0  0  0  0  0  0  0  0  0  0
    7.4320   -1.3510  -53.3840 C   0  0  0  0  0  0  0  0  0  0  0  0
    7.5110   -2.3750  -52.3280 C   0  0  0  0  0  0  0  0  0  0  0  0
    8.1030   -2.1180  -51.0770 C   0  0  0  0  0  0  0  0  0  0  0  0
    8.1730   -3.1050  -50.0880 C   0  0  0  0  0  0  0  0  0  0  0  0
    7.6490   -4.3720  -50.3260 C   0  0  0  0  0  0  0  0  0  0  0  0
    7.0510   -4.6520  -51.5490 C   0  0  0  0  0  0  0  0  0  0  0  0
    6.9820   -3.6630  -52.5360 C   0  0  0  0  0  0  0  0  0  0  0  0
    8.5260   -0.5790  -53.5840 N   0  0  0  0  0  0  0  0  0  0  0  0
    8.5070    0.3880  -54.5540 N   0  0  0  0  0  0  0  0  0  0  0  0
    9.4560    1.3600  -56.4680 H   0  0  0  0  0  0  0  0  0  0  0  0
    8.2336    1.7576  -59.5681 H   0  0  0  0  0  0  0  0  0  0  0  0
    7.0237    2.8493  -58.7922 H   0  0  0  0  0  0  0  0  0  0  0  0
    7.7186    3.7073  -61.0322 H   0  0  0  0  0  0  0  0  0  0  0  0
    8.3541    5.9980  -60.2796 H   0  0  0  0  0  0  0  0  0  0  0  0
    7.0881    5.2939  -59.2111 H   0  0  0  0  0  0  0  0  0  0  0  0
    8.8806    6.4015  -57.8727 H   0  0  0  0  0  0  0  0  0  0  0  0
   10.7392    6.0720  -59.5054 H   0  0  0  0  0  0  0  0  0  0  0  0
   11.1748    5.4208  -57.8847 H   0  0  0  0  0  0  0  0  0  0  0  0
   11.8230    3.8360  -59.6993 H   0  0  0  0  0  0  0  0  0  0  0  0
   10.0651    4.4971  -61.3422 H   0  0  0  0  0  0  0  0  0  0  0  0
   10.0172    2.7246  -61.0241 H   0  0  0  0  0  0  0  0  0  0  0  0
   10.6585    1.8326  -58.7814 H   0  0  0  0  0  0  0  0  0  0  0  0
   11.1203    2.9747  -57.4632 H   0  0  0  0  0  0  0  0  0  0  0  0
    9.4105    4.4496  -56.4097 H   0  0  0  0  0  0  0  0  0  0  0  0
    7.6971    4.3932  -56.9833 H   0  0  0  0  0  0  0  0  0  0  0  0
    5.4258   -1.7364  -54.0066 H   0  0  0  0  0  0  0  0  0  0  0  0
    8.5192   -1.1205  -50.8728 H   0  0  0  0  0  0  0  0  0  0  0  0
    8.6435   -2.8789  -49.1197 H   0  0  0  0  0  0  0  0  0  0  0  0
    7.7078   -5.1488  -49.5494 H   0  0  0  0  0  0  0  0  0  0  0  0
    6.6321   -5.6509  -51.7408 H   0  0  0  0  0  0  0  0  0  0  0  0
    6.5028   -3.8974  -53.4980 H   0  0  0  0  0  0  0  0  0  0  0  0
  1  2  2  0
  2  3  1  0
  4  3  1  1
  4  5  1  0
  5  6  1  0
  6  7  1  0
  7  8  1  0
  8  9  1  0
  9 10  1  0
 10 11  1  0
 10 12  1  0
  8 13  1  0
  2 14  1  0
 14 15  2  0
 15 16  1  0
 16 17  2  0
 17 18  1  0
 18 19  2  0
 19 20  1  0
 20 21  2  0
 21 22  1  0
 22 23  2  0
 17 24  1  0
 24 25  2  0
 12  4  1  0
 25 14  1  0
 13  4  1  0
 23 18  1  0
 11  6  1  0
  3 26  1  0
  5 27  1  0
  5 28  1  0
  6 29  1  6
  7 30  1  0
  7 31  1  0
  8 32  1  1
  9 33  1  0
  9 34  1  0
 10 35  1  6
 11 36  1  0
 11 37  1  0
 12 38  1  0
 12 39  1  0
 13 40  1  0
 13 41  1  0
 16 42  1  0
 19 43  1  0
 20 44  1  0
 21 45  1  0
 22 46  1  0
 23 47  1  0
M  END
>  <meeko>  (19) 
{"is_sidechain": false}

$$$$

     RDKit          3D

 51 55  0  0  0  0  0  0  0  0999 V2000
   10.0210   -1.5230  -53.6950 C   0  0  0  0  0  0  0  0  0  0  0  0
    8.6710   -0.9390  -54.0000 C   0  0  0  0  0  0  0  0  0  0  0  0
    8.6500    0.0300  -54.9450 N   0  0  0  0  0  0  0  0  0  0  0  0
    7.4510    0.5710  -55.2340 C   0  0  0  0  0  0  0  0  0  0  0  0
    7.3960    1.6570  -56.2880 C   0  0  0  0  0  0  0  0  0  0  0  0
    6.3540    2.2330  -56.5800 O   0  0  0  0  0  0  0  0  0  0  0  0
    8.6210    1.9310  -56.8780 N   0  0  0  0  0  0  0  0  0  0  0  0
    8.8650    2.9280  -57.9200 C   0  0  2  0  0  0  0  0  0  0  0  0
    8.7580    4.3390  -57.2850 C   0  0  0  0  0  0  0  0  0  0  0  0
    9.0050    5.4360  -58.3340 C   0  0  1  0  0  0  0  0  0  0  0  0
   10.4110    5.2580  -58.9270 C   0  0  0  0  0  0  0  0  0  0  0  0
   10.5310    3.8750  -59.5850 C   0  0  2  0  0  0  0  0  0  0  0  0
    9.4770    3.7480  -60.6980 C   0  0  0  0  0  0  0  0  0  0  0  0
    8.0650    3.9250  -60.1140 C   0  0  2  0  0  0  0  0  0  0  0  0
    7.9600    5.3080  -59.4520 C   0  0  0  0  0  0  0  0  0  0  0  0
    7.8160    2.8350  -59.0550 C   0  0  0  0  0  0  0  0  0  0  0  0
   10.2830    2.7850  -58.5270 C   0  0  0  0  0  0  0  0  0  0  0  0
    6.2720    0.2310  -54.6640 N   0  0  0  0  0  0  0  0  0  0  0  0
    6.3490   -0.7380  -53.7290 C   0  0  0  0  0  0  0  0  0  0  0  0
    7.5210   -1.3750  -53.3430 C   0  0  0  0  0  0  0  0  0  0  0  0
    7.5070   -2.4170  -52.3190 C   0  0  0  0  0  0  0  0  0  0  0  0
    7.8460   -2.1210  -50.9890 C   0  0  0  0  0  0  0  0  0  0  0  0
    7.8350   -3.1180  -50.0110 C   0  0  0  0  0  0  0  0  0  0  0  0
    7.4870   -4.4240  -50.3510 C   0  0  0  0  0  0  0  0  0  0  0  0
    7.1500   -4.7340  -51.6670 C   0  0  0  0  0  0  0  0  0  0  0  0
    7.1610   -3.7370  -52.6450 C   0  0  0  0  0  0  0  0  0  0  0  0
   10.1573   -1.5819  -52.6051 H   0  0  0  0  0  0  0  0  0  0  0  0
   10.0906   -2.5317  -54.1283 H   0  0  0  0  0  0  0  0  0  0  0  0
   10.8037   -0.8830  -54.1283 H   0  0  0  0  0  0  0  0  0  0  0  0
    9.3990    1.3730  -56.5330 H   0  0  0  0  0  0  0  0  0  0  0  0
    7.7512    4.4671  -56.8609 H   0  0  0  0  0  0  0  0  0  0  0  0
    9.5219    4.4280  -56.4985 H   0  0  0  0  0  0  0  0  0  0  0  0
    8.9245    6.4276  -57.8647 H   0  0  0  0  0  0  0  0  0  0  0  0
   10.5895    6.0377  -59.6821 H   0  0  0  0  0  0  0  0  0  0  0  0
   11.1562    5.3415  -58.1222 H   0  0  0  0  0  0  0  0  0  0  0  0
   11.5377    3.7558  -60.0120 H   0  0  0  0  0  0  0  0  0  0  0  0
    9.6558    4.5228  -61.4581 H   0  0  0  0  0  0  0  0  0  0  0  0
    9.5546    2.7501  -61.1542 H   0  0  0  0  0  0  0  0  0  0  0  0
    7.3175    3.8413  -60.9167 H   0  0  0  0  0  0  0  0  0  0  0  0
    8.1373    6.0878  -60.2073 H   0  0  0  0  0  0  0  0  0  0  0  0
    6.9546    5.4269  -59.0218 H   0  0  0  0  0  0  0  0  0  0  0  0
    6.8103    2.9674  -58.6295 H   0  0  0  0  0  0  0  0  0  0  0  0
    7.8993    1.8487  -59.5349 H   0  0  0  0  0  0  0  0  0  0  0  0
   10.3765    1.7955  -58.9984 H   0  0  0  0  0  0  0  0  0  0  0  0
   11.0259    2.8949  -57.7232 H   0  0  0  0  0  0  0  0  0  0  0  0
    5.4151   -1.0462  -53.2362 H   0  0  0  0  0  0  0  0  0  0  0  0
    8.1233   -1.0926  -50.7143 H   0  0  0  0  0  0  0  0  0  0  0  0
    8.1010   -2.8724  -48.9723 H   0  0  0  0  0  0  0  0  0  0  0  0
    7.4784   -5.2095  -49.5810 H   0  0  0  0  0  0  0  0  0  0  0  0
    6.8751   -5.7646  -51.9358 H   0  0  0  0  0  0  0  0  0  0  0  0
    6.8955   -3.9894  -53.6822 H   0  0  0  0  0  0  0  0  0  0  0  0
  1  2  1  0
  2  3  2  0
  3  4  1  0
  4  5  1  0
  5  6  2  0
  5  7  1  0
  8  7  1  1
  8  9  1  0
  9 10  1  0
 10 11  1  0
 11 12  1  0
 12 13  1  0
 13 14  1  0
 14 15  1  0
 14 16  1  0
 12 17  1  0
  4 18  2  0
 18 19  1  0
 19 20  2  0
 20 21  1  0
 21 22  2  0
 22 23  1  0
 23 24  2  0
 24 25  1  0
 25 26  2  0
 20  2  1  0
 26 21  1  0
 16  8  1  0
 17  8  1  0
 15 10  1  0
  1 27  1  0
  1 28  1  0
  1 29  1  0
  7 30  1  0
  9 31  1  0
  9 32  1  0
 10 33  1  1
 11 34  1  0
 11 35  1  0
 12 36  1  6
 13 37  1  0
 13 38  1  0
 14 39  1  6
 15 40  1  0
 15 41  1  0
 16 42  1  0
 16 43  1  0
 17 44  1  0
 17 45  1  0
 19 46  1  0
 22 47  1  0
 23 48  1  0
 24 49  1  0
 25 50  1  0
 26 51  1  0
M  END
>  <meeko>  (20) 
{"is_sidechain": false}

$$$$

     RDKit          3D

 48 52  0  0  0  0  0  0  0  0999 V2000
    6.3850    2.1280  -56.7420 O   0  0  0  0  0  0  0  0  0  0  0  0
    7.4260    1.6200  -56.3410 C   0  0  0  0  0  0  0  0  0  0  0  0
    8.6860    1.9710  -56.8060 N   0  0  0  0  0  0  0  0  0  0  0  0
    8.9700    2.9780  -57.8280 C   0  0  2  0  0  0  0  0  0  0  0  0
    7.9930    2.8690  -59.0250 C   0  0  0  0  0  0  0  0  0  0  0  0
    8.2830    3.9700  -60.0610 C   0  0  1  0  0  0  0  0  0  0  0  0
    8.1070    5.3470  -59.4010 C   0  0  0  0  0  0  0  0  0  0  0  0
    9.0800    5.4900  -58.2210 C   0  0  2  0  0  0  0  0  0  0  0  0
   10.5230    5.3460  -58.7300 C   0  0  0  0  0  0  0  0  0  0  0  0
   10.7120    3.9680  -59.3850 C   0  0  2  0  0  0  0  0  0  0  0  0
    9.7300    3.8270  -60.5610 C   0  0  0  0  0  0  0  0  0  0  0  0
   10.4240    2.8680  -58.3480 C   0  0  0  0  0  0  0  0  0  0  0  0
    8.7950    4.3830  -57.1940 C   0  0  0  0  0  0  0  0  0  0  0  0
    7.4400    0.5400  -55.2810 C   0  0  0  0  0  0  0  0  0  0  0  0
    6.3000   -0.1340  -55.0470 N   0  0  0  0  0  0  0  0  0  0  0  0
    6.3680   -1.0850  -54.0910 C   0  0  0  0  0  0  0  0  0  0  0  0
    7.5090   -1.3980  -53.3680 C   0  0  0  0  0  0  0  0  0  0  0  0
    7.5440   -2.4430  -52.3400 C   0  0  0  0  0  0  0  0  0  0  0  0
    7.0930   -3.7470  -52.6150 C   0  0  0  0  0  0  0  0  0  0  0  0
    7.1280   -4.7440  -51.6360 C   0  0  0  0  0  0  0  0  0  0  0  0
    7.6120   -4.4560  -50.3640 C   0  0  0  0  0  0  0  0  0  0  0  0
    8.0630   -3.1720  -50.0690 C   0  0  0  0  0  0  0  0  0  0  0  0
    8.0300   -2.1750  -51.0480 C   0  0  0  0  0  0  0  0  0  0  0  0
    8.6150   -0.6320  -53.7070 C   0  0  0  0  0  0  0  0  0  0  0  0
    8.6220    0.3390  -54.6470 N   0  0  0  0  0  0  0  0  0  0  0  0
    9.4570    1.4610  -56.3830 H   0  0  0  0  0  0  0  0  0  0  0  0
    8.1120    1.8843  -59.5006 H   0  0  0  0  0  0  0  0  0  0  0  0
    6.9639    2.9906  -58.6559 H   0  0  0  0  0  0  0  0  0  0  0  0
    7.5876    3.8745  -60.9079 H   0  0  0  0  0  0  0  0  0  0  0  0
    8.3126    6.1348  -60.1406 H   0  0  0  0  0  0  0  0  0  0  0  0
    7.0749    5.4426  -59.0327 H   0  0  0  0  0  0  0  0  0  0  0  0
    8.9495    6.4765  -57.7522 H   0  0  0  0  0  0  0  0  0  0  0  0
   10.7288    6.1330  -59.4704 H   0  0  0  0  0  0  0  0  0  0  0  0
   11.2173    5.4422  -57.8822 H   0  0  0  0  0  0  0  0  0  0  0  0
   11.7449    3.8701  -59.7504 H   0  0  0  0  0  0  0  0  0  0  0  0
    9.9373    4.6111  -61.3041 H   0  0  0  0  0  0  0  0  0  0  0  0
    9.8564    2.8348  -61.0187 H   0  0  0  0  0  0  0  0  0  0  0  0
   10.5671    1.8830  -58.8163 H   0  0  0  0  0  0  0  0  0  0  0  0
   11.1144    2.9897  -57.5003 H   0  0  0  0  0  0  0  0  0  0  0  0
    9.4933    4.4865  -56.3504 H   0  0  0  0  0  0  0  0  0  0  0  0
    7.7556    4.4846  -56.8486 H   0  0  0  0  0  0  0  0  0  0  0  0
    5.4520   -1.6525  -53.8697 H   0  0  0  0  0  0  0  0  0  0  0  0
    6.7065   -3.9858  -53.6168 H   0  0  0  0  0  0  0  0  0  0  0  0
    6.7723   -5.7579  -51.8717 H   0  0  0  0  0  0  0  0  0  0  0  0
    7.6384   -5.2404  -49.5933 H   0  0  0  0  0  0  0  0  0  0  0  0
    8.4459   -2.9420  -49.0638 H   0  0  0  0  0  0  0  0  0  0  0  0
    8.3899   -1.1646  -50.8039 H   0  0  0  0  0  0  0  0  0  0  0  0
    9.5552   -0.8295  -53.1713 H   0  0  0  0  0  0  0  0  0  0  0  0
  1  2  2  0
  2  3  1  0
  4  3  1  1
  4  5  1  0
  5  6  1  0
  6  7  1  0
  7  8  1  0
  8  9  1  0
  9 10  1  0
 10 11  1  0
 10 12  1  0
  8 13  1  0
  2 14  1  0
 14 15  2  0
 15 16  1  0
 16 17  2  0
 17 18  1  0
 18 19  2  0
 19 20  1  0
 20 21  2  0
 21 22  1  0
 22 23  2  0
 17 24  1  0
 24 25  2  0
 12  4  1  0
 25 14  1  0
 13  4  1  0
 23 18  1  0
 11  6  1  0
  3 26  1  0
  5 27  1  0
  5 28  1  0
  6 29  1  6
  7 30  1  0
  7 31  1  0
  8 32  1  1
  9 33  1  0
  9 34  1  0
 10 35  1  6
 11 36  1  0
 11 37  1  0
 12 38  1  0
 12 39  1  0
 13 40  1  0
 13 41  1  0
 16 42  1  0
 19 43  1  0
 20 44  1  0
 21 45  1  0
 22 46  1  0
 23 47  1  0
 24 48  1  0
M  END
>  <meeko>  (21) 
{"is_sidechain": false}

$$$$

     RDKit          3D

 42 46  0  0  0  0  0  0  0  0999 V2000
    6.3960    2.1670  -56.5200 O   0  0  0  0  0  0  0  0  0  0  0  0
    7.4540    1.5910  -56.2980 C   0  0  0  0  0  0  0  0  0  0  0  0
    8.6660    1.9100  -56.8700 N   0  0  0  0  0  0  0  0  0  0  0  0
    8.9060    2.9800  -57.8360 C   0  0  2  0  0  0  0  0  0  0  0  0
    7.9820    2.8500  -59.0710 C   0  0  0  0  0  0  0  0  0  0  0  0
    8.2860    3.9590  -60.0940 C   0  0  1  0  0  0  0  0  0  0  0  0
    8.0730    5.3310  -59.4300 C   0  0  0  0  0  0  0  0  0  0  0  0
    9.0110    5.4860  -58.2220 C   0  0  2  0  0  0  0  0  0  0  0  0
   10.4680    5.3580  -58.6910 C   0  0  0  0  0  0  0  0  0  0  0  0
   10.6900    3.9870  -59.3470 C   0  0  2  0  0  0  0  0  0  0  0  0
    9.7490    3.8410  -60.5520 C   0  0  0  0  0  0  0  0  0  0  0  0
   10.3760    2.8820  -58.3250 C   0  0  0  0  0  0  0  0  0  0  0  0
    8.7070    4.3770  -57.1990 C   0  0  0  0  0  0  0  0  0  0  0  0
    7.5200    0.4390  -55.3390 C   0  0  0  0  0  0  0  0  0  0  0  0
    6.3410   -0.2250  -54.9690 C   0  0  0  0  0  0  0  0  0  0  0  0
    6.4210   -1.2960  -54.0760 C   0  0  0  0  0  0  0  0  0  0  0  0
    7.6710   -1.6300  -53.6140 C   0  0  0  0  0  0  0  0  0  0  0  0
    8.7670   -0.9200  -54.0330 C   0  0  0  0  0  0  0  0  0  0  0  0
    8.7650    0.1120  -54.8830 N   0  0  0  0  0  0  0  0  0  0  0  0
    9.9330   -1.3880  -53.4740 O   0  0  0  0  0  0  0  0  0  0  0  0
    9.4180   -2.4630  -52.6660 C   0  0  0  0  0  0  0  0  0  0  0  0
    7.9850   -2.6240  -52.7490 O   0  0  0  0  0  0  0  0  0  0  0  0
    9.4440    1.3250  -56.5700 H   0  0  0  0  0  0  0  0  0  0  0  0
    8.1440    1.8693  -59.5421 H   0  0  0  0  0  0  0  0  0  0  0  0
    6.9364    2.9466  -58.7434 H   0  0  0  0  0  0  0  0  0  0  0  0
    7.6172    3.8567  -60.9613 H   0  0  0  0  0  0  0  0  0  0  0  0
    8.2864    6.1254  -60.1603 H   0  0  0  0  0  0  0  0  0  0  0  0
    7.0304    5.4067  -59.0876 H   0  0  0  0  0  0  0  0  0  0  0  0
    8.8576    6.4713  -57.7575 H   0  0  0  0  0  0  0  0  0  0  0  0
   10.6866    6.1510  -59.4213 H   0  0  0  0  0  0  0  0  0  0  0  0
   11.1367    5.4556  -57.8231 H   0  0  0  0  0  0  0  0  0  0  0  0
   11.7346    3.9013  -59.6808 H   0  0  0  0  0  0  0  0  0  0  0  0
    9.9671    4.6338  -61.2826 H   0  0  0  0  0  0  0  0  0  0  0  0
    9.9043    2.8549  -61.0141 H   0  0  0  0  0  0  0  0  0  0  0  0
   10.5340    1.9006  -58.7960 H   0  0  0  0  0  0  0  0  0  0  0  0
   11.0430    3.0049  -57.4590 H   0  0  0  0  0  0  0  0  0  0  0  0
    9.3849    4.4824  -56.3392 H   0  0  0  0  0  0  0  0  0  0  0  0
    7.6610    4.4725  -56.8722 H   0  0  0  0  0  0  0  0  0  0  0  0
    5.3694    0.0926  -55.3755 H   0  0  0  0  0  0  0  0  0  0  0  0
    5.5239   -1.8470  -53.7571 H   0  0  0  0  0  0  0  0  0  0  0  0
    9.8912   -3.4002  -52.9943 H   0  0  0  0  0  0  0  0  0  0  0  0
    9.6510   -2.2155  -51.6198 H   0  0  0  0  0  0  0  0  0  0  0  0
  1  2  2  0
  2  3  1  0
  4  3  1  1
  4  5  1  0
  5  6  1  0
  6  7  1  0
  7  8  1  0
  8  9  1  0
  9 10  1  0
 10 11  1  0
 10 12  1  0
  8 13  1  0
  2 14  1  0
 14 15  2  0
 15 16  1  0
 16 17  2  0
 17 18  1  0
 18 19  2  0
 18 20  1  0
 20 21  1  0
 21 22  1  0
 12  4  1  0
 19 14  1  0
 13  4  1  0
 22 17  1  0
 11  6  1  0
  3 23  1  0
  5 24  1  0
  5 25  1  0
  6 26  1  6
  7 27  1  0
  7 28  1  0
  8 29  1  1
  9 30  1  0
  9 31  1  0
 10 32  1  6
 11 33  1  0
 11 34  1  0
 12 35  1  0
 12 36  1  0
 13 37  1  0
 13 38  1  0
 15 39  1  0
 16 40  1  0
 21 41  1  0
 21 42  1  0
M  END
>  <meeko>  (22) 
{"is_sidechain": false}

$$$$

     RDKit          3D

 48 52  0  0  0  0  0  0  0  0999 V2000
    6.3660    2.1520  -56.6850 O   0  0  0  0  0  0  0  0  0  0  0  0
    7.4130    1.6200  -56.3440 C   0  0  0  0  0  0  0  0  0  0  0  0
    8.6600    1.9220  -56.8510 N   0  0  0  0  0  0  0  0  0  0  0  0
    8.9480    2.9250  -57.8760 C   0  0  2  0  0  0  0  0  0  0  0  0
    8.0100    2.7770  -59.0980 C   0  0  0  0  0  0  0  0  0  0  0  0
    8.3010    3.8730  -60.1390 C   0  0  1  0  0  0  0  0  0  0  0  0
    8.0710    5.2520  -59.5030 C   0  0  0  0  0  0  0  0  0  0  0  0
    9.0060    5.4350  -58.2960 C   0  0  2  0  0  0  0  0  0  0  0  0
   10.4670    5.3220  -58.7610 C   0  0  0  0  0  0  0  0  0  0  0  0
   10.7100    3.9430  -59.3940 C   0  0  2  0  0  0  0  0  0  0  0  0
    9.7660    3.7620  -60.5960 C   0  0  0  0  0  0  0  0  0  0  0  0
   10.4190    2.8470  -58.3530 C   0  0  0  0  0  0  0  0  0  0  0  0
    8.7190    4.3330  -57.2640 C   0  0  0  0  0  0  0  0  0  0  0  0
    7.4230    0.5530  -55.3030 C   0  0  0  0  0  0  0  0  0  0  0  0
    8.5690    0.3080  -54.5670 C   0  0  0  0  0  0  0  0  0  0  0  0
    8.6240   -0.6540  -53.6070 N   0  0  0  0  0  0  0  0  0  0  0  0
    7.4850   -1.3710  -53.3950 C   0  0  0  0  0  0  0  0  0  0  0  0
    7.5520   -2.4130  -52.3500 C   0  0  0  0  0  0  0  0  0  0  0  0
    7.0420   -3.7030  -52.5910 C   0  0  0  0  0  0  0  0  0  0  0  0
    7.0870   -4.7030  -51.6150 C   0  0  0  0  0  0  0  0  0  0  0  0
    7.6490   -4.4360  -50.3720 C   0  0  0  0  0  0  0  0  0  0  0  0
    8.1710   -3.1740  -50.1080 C   0  0  0  0  0  0  0  0  0  0  0  0
    8.1250   -2.1740  -51.0870 C   0  0  0  0  0  0  0  0  0  0  0  0
    6.3430   -1.1110  -54.1590 C   0  0  0  0  0  0  0  0  0  0  0  0
    6.2720   -0.1550  -55.1210 N   0  0  0  0  0  0  0  0  0  0  0  0
    9.4270    1.3850  -56.4530 H   0  0  0  0  0  0  0  0  0  0  0  0
    8.1680    1.7903  -59.5578 H   0  0  0  0  0  0  0  0  0  0  0  0
    6.9680    2.8762  -58.7598 H   0  0  0  0  0  0  0  0  0  0  0  0
    7.6325    3.7491  -61.0037 H   0  0  0  0  0  0  0  0  0  0  0  0
    8.2780    6.0356  -60.2467 H   0  0  0  0  0  0  0  0  0  0  0  0
    7.0265    5.3254  -59.1660 H   0  0  0  0  0  0  0  0  0  0  0  0
    8.8370    6.4235  -57.8440 H   0  0  0  0  0  0  0  0  0  0  0  0
   10.6748    6.1060  -59.5041 H   0  0  0  0  0  0  0  0  0  0  0  0
   11.1331    5.4447  -57.8943 H   0  0  0  0  0  0  0  0  0  0  0  0
   11.7554    3.8692  -59.7283 H   0  0  0  0  0  0  0  0  0  0  0  0
    9.9743    4.5422  -61.3429 H   0  0  0  0  0  0  0  0  0  0  0  0
    9.9312    2.7680  -61.0372 H   0  0  0  0  0  0  0  0  0  0  0  0
   10.6004    1.8611  -58.8058 H   0  0  0  0  0  0  0  0  0  0  0  0
   11.0809    2.9957  -57.4871 H   0  0  0  0  0  0  0  0  0  0  0  0
    9.3895    4.4640  -56.4019 H   0  0  0  0  0  0  0  0  0  0  0  0
    7.6678    4.4120  -56.9499 H   0  0  0  0  0  0  0  0  0  0  0  0
    9.4666    0.9122  -54.7652 H   0  0  0  0  0  0  0  0  0  0  0  0
    6.5972   -3.9296  -53.5712 H   0  0  0  0  0  0  0  0  0  0  0  0
    6.6777   -5.7010  -51.8307 H   0  0  0  0  0  0  0  0  0  0  0  0
    7.6808   -5.2194  -49.6004 H   0  0  0  0  0  0  0  0  0  0  0  0
    8.6213   -2.9610  -49.1272 H   0  0  0  0  0  0  0  0  0  0  0  0
    8.5450   -1.1820  -50.8645 H   0  0  0  0  0  0  0  0  0  0  0  0
    5.4461   -1.7188  -53.9689 H   0  0  0  0  0  0  0  0  0  0  0  0
  1  2  2  0
  2  3  1  0
  4  3  1  1
  4  5  1  0
  5  6  1  0
  6  7  1  0
  7  8  1  0
  8  9  1  0
  9 10  1  0
 10 11  1  0
 10 12  1  0
  8 13  1  0
  2 14  1  0
 14 15  2  0
 15 16  1  0
 16 17  2  0
 17 18  1  0
 18 19  2  0
 19 20  1  0
 20 21  2  0
 21 22  1  0
 22 23  2  0
 17 24  1  0
 24 25  2  0
 12  4  1  0
 25 14  1  0
 13  4  1  0
 23 18  1  0
 11  6  1  0
  3 26  1  0
  5 27  1  0
  5 28  1  0
  6 29  1  6
  7 30  1  0
  7 31  1  0
  8 32  1  1
  9 33  1  0
  9 34  1  0
 10 35  1  6
 11 36  1  0
 11 37  1  0
 12 38  1  0
 12 39  1  0
 13 40  1  0
 13 41  1  0
 15 42  1  0
 19 43  1  0
 20 44  1  0
 21 45  1  0
 22 46  1  0
 23 47  1  0
 24 48  1  0
M  END
>  <meeko>  (23) 
{"is_sidechain": false}

$$$$

     RDKit          3D

 48 52  0  0  0  0  0  0  0  0999 V2000
    7.7810    1.7430  -55.8460 O   0  0  0  0  0  0  0  0  0  0  0  0
    8.8820    1.2160  -55.9590 C   0  0  0  0  0  0  0  0  0  0  0  0
    9.8740    1.6760  -56.8150 N   0  0  0  0  0  0  0  0  0  0  0  0
    9.7690    2.8350  -57.6990 C   0  0  2  0  0  0  0  0  0  0  0  0
   11.1300    3.0240  -58.4230 C   0  0  0  0  0  0  0  0  0  0  0  0
   11.0860    4.2340  -59.3710 C   0  0  1  0  0  0  0  0  0  0  0  0
    9.9850    4.0140  -60.4190 C   0  0  0  0  0  0  0  0  0  0  0  0
    8.6240    3.8500  -59.7240 C   0  0  2  0  0  0  0  0  0  0  0  0
    8.3170    5.1160  -58.9060 C   0  0  0  0  0  0  0  0  0  0  0  0
    9.4140    5.3440  -57.8520 C   0  0  2  0  0  0  0  0  0  0  0  0
   10.7700    5.5000  -58.5580 C   0  0  0  0  0  0  0  0  0  0  0  0
    9.4690    4.1320  -56.9060 C   0  0  0  0  0  0  0  0  0  0  0  0
    8.6780    2.6360  -58.7790 C   0  0  0  0  0  0  0  0  0  0  0  0
    9.2780   -0.0060  -55.1600 C   0  0  0  0  0  0  0  0  0  0  0  0
    8.8160   -0.0650  -53.8880 N   0  0  0  0  0  0  0  0  0  0  0  0
    9.1680   -1.1660  -53.2060 C   0  0  0  0  0  0  0  0  0  0  0  0
    9.9460   -2.1740  -53.7320 C   0  0  0  0  0  0  0  0  0  0  0  0
   10.3800   -2.0190  -55.0400 C   0  0  0  0  0  0  0  0  0  0  0  0
   11.2210   -3.0190  -55.7370 C   0  0  0  0  0  0  0  0  0  0  0  0
   11.7090   -2.7670  -57.0330 C   0  0  0  0  0  0  0  0  0  0  0  0
   12.4990   -3.6980  -57.7150 C   0  0  0  0  0  0  0  0  0  0  0  0
   12.8260   -4.9070  -57.1110 C   0  0  0  0  0  0  0  0  0  0  0  0
   12.3680   -5.1810  -55.8270 C   0  0  0  0  0  0  0  0  0  0  0  0
   11.5770   -4.2480  -55.1470 C   0  0  0  0  0  0  0  0  0  0  0  0
   10.0410   -0.9340  -55.7660 N   0  0  0  0  0  0  0  0  0  0  0  0
   10.7380    1.1410  -56.7960 H   0  0  0  0  0  0  0  0  0  0  0  0
   11.9179    3.1837  -57.6721 H   0  0  0  0  0  0  0  0  0  0  0  0
   11.3401    2.1215  -59.0158 H   0  0  0  0  0  0  0  0  0  0  0  0
   12.0573    4.3499  -59.8741 H   0  0  0  0  0  0  0  0  0  0  0  0
    9.9469    4.8809  -61.0950 H   0  0  0  0  0  0  0  0  0  0  0  0
   10.2096    3.1031  -60.9934 H   0  0  0  0  0  0  0  0  0  0  0  0
    7.8390    3.6964  -60.4791 H   0  0  0  0  0  0  0  0  0  0  0  0
    8.2749    5.9837  -59.5808 H   0  0  0  0  0  0  0  0  0  0  0  0
    7.3499    4.9899  -58.3973 H   0  0  0  0  0  0  0  0  0  0  0  0
    9.1906    6.2533  -57.2748 H   0  0  0  0  0  0  0  0  0  0  0  0
   10.7317    6.3672  -59.2337 H   0  0  0  0  0  0  0  0  0  0  0  0
   11.5558    5.6509  -57.8032 H   0  0  0  0  0  0  0  0  0  0  0  0
   10.2616    4.2912  -56.1600 H   0  0  0  0  0  0  0  0  0  0  0  0
    8.4939    4.0260  -56.4081 H   0  0  0  0  0  0  0  0  0  0  0  0
    7.7009    2.5161  -58.2882 H   0  0  0  0  0  0  0  0  0  0  0  0
    8.9206    1.7388  -59.3674 H   0  0  0  0  0  0  0  0  0  0  0  0
    8.8156   -1.2693  -52.1691 H   0  0  0  0  0  0  0  0  0  0  0  0
   10.2113   -3.0627  -53.1405 H   0  0  0  0  0  0  0  0  0  0  0  0
   11.4626   -1.8130  -57.5221 H   0  0  0  0  0  0  0  0  0  0  0  0
   12.8616   -3.4739  -58.7290 H   0  0  0  0  0  0  0  0  0  0  0  0
   13.4439   -5.6430  -57.6462 H   0  0  0  0  0  0  0  0  0  0  0  0
   12.6283   -6.1344  -55.3441 H   0  0  0  0  0  0  0  0  0  0  0  0
   11.2258   -4.4790  -54.1305 H   0  0  0  0  0  0  0  0  0  0  0  0
  1  2  2  0
  2  3  1  0
  4  3  1  1
  4  5  1  0
  5  6  1  0
  6  7  1  0
  7  8  1  0
  8  9  1  0
  9 10  1  0
 10 11  1  0
 10 12  1  0
  8 13  1  0
  2 14  1  0
 14 15  2  0
 15 16  1  0
 16 17  2  0
 17 18  1  0
 18 19  1  0
 19 20  2  0
 20 21  1  0
 21 22  2  0
 22 23  1  0
 23 24  2  0
 18 25  2  0
 12  4  1  0
 25 14  1  0
 13  4  1  0
 24 19  1  0
 11  6  1  0
  3 26  1  0
  5 27  1  0
  5 28  1  0
  6 29  1  6
  7 30  1  0
  7 31  1  0
  8 32  1  6
  9 33  1  0
  9 34  1  0
 10 35  1  1
 11 36  1  0
 11 37  1  0
 12 38  1  0
 12 39  1  0
 13 40  1  0
 13 41  1  0
 16 42  1  0
 17 43  1  0
 20 44  1  0
 21 45  1  0
 22 46  1  0
 23 47  1  0
 24 48  1  0
M  END
>  <meeko>  (24) 
{"is_sidechain": false}

$$$$

     RDKit          3D

 46 50  0  0  0  0  0  0  0  0999 V2000
    6.1630    0.3470  -53.4880 C   0  0  0  0  0  0  0  0  0  0  0  0
    7.4740   -0.1910  -53.7640 N   0  0  0  0  0  0  0  0  0  0  0  0
    8.2690    0.1630  -54.8320 C   0  0  0  0  0  0  0  0  0  0  0  0
    7.9520    1.1320  -55.8720 C   0  0  0  0  0  0  0  0  0  0  0  0
    6.8120    1.3780  -56.2550 O   0  0  0  0  0  0  0  0  0  0  0  0
    9.0770    1.7410  -56.3820 N   0  0  0  0  0  0  0  0  0  0  0  0
    9.1150    2.7560  -57.4320 C   0  0  2  0  0  0  0  0  0  0  0  0
    8.6780    4.1430  -56.9000 C   0  0  0  0  0  0  0  0  0  0  0  0
    8.7720    5.2040  -58.0120 C   0  0  1  0  0  0  0  0  0  0  0  0
   10.2250    5.2960  -58.5050 C   0  0  0  0  0  0  0  0  0  0  0  0
   10.6790    3.9360  -59.0590 C   0  0  2  0  0  0  0  0  0  0  0  0
    9.7650    3.5310  -60.2260 C   0  0  0  0  0  0  0  0  0  0  0  0
    8.3100    3.4290  -59.7440 C   0  0  2  0  0  0  0  0  0  0  0  0
    7.8640    4.7900  -59.1840 C   0  0  0  0  0  0  0  0  0  0  0  0
    8.2160    2.3680  -58.6330 C   0  0  0  0  0  0  0  0  0  0  0  0
   10.5730    2.8790  -57.9460 C   0  0  0  0  0  0  0  0  0  0  0  0
    9.4130   -0.5080  -54.8060 N   0  0  0  0  0  0  0  0  0  0  0  0
    9.3460   -1.3090  -53.6950 C   0  0  0  0  0  0  0  0  0  0  0  0
   10.2930   -2.2210  -53.2020 C   0  0  0  0  0  0  0  0  0  0  0  0
    9.9980   -2.9350  -52.0350 C   0  0  0  0  0  0  0  0  0  0  0  0
    8.7840   -2.7460  -51.3730 C   0  0  0  0  0  0  0  0  0  0  0  0
    7.8290   -1.8400  -51.8510 C   0  0  0  0  0  0  0  0  0  0  0  0
    8.1430   -1.1340  -53.0190 C   0  0  0  0  0  0  0  0  0  0  0  0
    6.0135    0.4084  -52.3999 H   0  0  0  0  0  0  0  0  0  0  0  0
    6.0793    1.3522  -53.9269 H   0  0  0  0  0  0  0  0  0  0  0  0
    5.3974   -0.3096  -53.9269 H   0  0  0  0  0  0  0  0  0  0  0  0
    9.9480    1.4260  -55.9580 H   0  0  0  0  0  0  0  0  0  0  0  0
    7.6387    4.0829  -56.5446 H   0  0  0  0  0  0  0  0  0  0  0  0
    9.3458    4.4332  -56.0755 H   0  0  0  0  0  0  0  0  0  0  0  0
    8.4519    6.1808  -57.6205 H   0  0  0  0  0  0  0  0  0  0  0  0
   10.2929    6.0540  -59.2993 H   0  0  0  0  0  0  0  0  0  0  0  0
   10.8747    5.5783  -57.6635 H   0  0  0  0  0  0  0  0  0  0  0  0
   11.7188    4.0073  -59.4107 H   0  0  0  0  0  0  0  0  0  0  0  0
    9.8329    4.2879  -61.0213 H   0  0  0  0  0  0  0  0  0  0  0  0
   10.0862    2.5527  -60.6130 H   0  0  0  0  0  0  0  0  0  0  0  0
    7.6609    3.1436  -60.5849 H   0  0  0  0  0  0  0  0  0  0  0  0
    7.9270    5.5484  -59.9783 H   0  0  0  0  0  0  0  0  0  0  0  0
    6.8275    4.7089  -58.8247 H   0  0  0  0  0  0  0  0  0  0  0  0
    7.1725    2.2911  -58.2937 H   0  0  0  0  0  0  0  0  0  0  0  0
    8.5572    1.4024  -59.0345 H   0  0  0  0  0  0  0  0  0  0  0  0
   10.8978    1.9057  -58.3424 H   0  0  0  0  0  0  0  0  0  0  0  0
   11.2148    3.1878  -57.1077 H   0  0  0  0  0  0  0  0  0  0  0  0
   11.2496   -2.3716  -53.7237 H   0  0  0  0  0  0  0  0  0  0  0  0
   10.7302   -3.6522  -51.6356 H   0  0  0  0  0  0  0  0  0  0  0  0
    8.5732   -3.3196  -50.4584 H   0  0  0  0  0  0  0  0  0  0  0  0
    6.8718   -1.6891  -51.3305 H   0  0  0  0  0  0  0  0  0  0  0  0
  1  2  1  0
  2  3  1  0
  3  4  1  0
  4  5  2  0
  4  6  1  0
  7  6  1  1
  7  8  1  0
  8  9  1  0
  9 10  1  0
 10 11  1  0
 11 12  1  0
 12 13  1  0
 13 14  1  0
 13 15  1  0
 11 16  1  0
  3 17  2  0
 17 18  1  0
 18 19  2  0
 19 20  1  0
 20 21  2  0
 21 22  1  0
 22 23  2  0
 23  2  1  0
 15  7  1  0
 23 18  1  0
 16  7  1  0
 14  9  1  0
  1 24  1  0
  1 25  1  0
  1 26  1  0
  6 27  1  0
  8 28  1  0
  8 29  1  0
  9 30  1  1
 10 31  1  0
 10 32  1  0
 11 33  1  6
 12 34  1  0
 12 35  1  0
 13 36  1  6
 14 37  1  0
 14 38  1  0
 15 39  1  0
 15 40  1  0
 16 41  1  0
 16 42  1  0
 19 43  1  0
 20 44  1  0
 21 45  1  0
 22 46  1  0
M  END
>  <meeko>  (25) 
{"is_sidechain": false}

$$$$

     RDKit          3D

 47 51  0  0  0  0  0  0  0  0999 V2000
    6.2410    0.4000  -53.6810 C   0  0  0  0  0  0  0  0  0  0  0  0
    7.5880   -0.1500  -53.8550 N   0  0  0  0  0  0  0  0  0  0  0  0
    8.4220    0.2220  -54.8640 C   0  0  0  0  0  0  0  0  0  0  0  0
    8.1870    1.1770  -55.8990 C   0  0  0  0  0  0  0  0  0  0  0  0
    7.0480    1.4100  -56.2860 O   0  0  0  0  0  0  0  0  0  0  0  0
    9.3270    1.7990  -56.3890 N   0  0  0  0  0  0  0  0  0  0  0  0
    9.3060    2.8500  -57.4230 C   0  0  2  0  0  0  0  0  0  0  0  0
   10.7300    2.9600  -58.0310 C   0  0  0  0  0  0  0  0  0  0  0  0
   10.7850    4.0480  -59.1160 C   0  0  1  0  0  0  0  0  0  0  0  0
    9.7920    3.6930  -60.2340 C   0  0  0  0  0  0  0  0  0  0  0  0
    8.3700    3.6010  -59.6610 C   0  0  2  0  0  0  0  0  0  0  0  0
    7.9850    4.9520  -59.0340 C   0  0  0  0  0  0  0  0  0  0  0  0
    8.9740    5.3170  -57.9130 C   0  0  2  0  0  0  0  0  0  0  0  0
   10.3940    5.3980  -58.4960 C   0  0  0  0  0  0  0  0  0  0  0  0
    8.9320    4.2280  -56.8260 C   0  0  0  0  0  0  0  0  0  0  0  0
    8.3280    2.5100  -58.5760 C   0  0  0  0  0  0  0  0  0  0  0  0
    9.5400   -0.5190  -54.7020 N   0  0  0  0  0  0  0  0  0  0  0  0
    9.4500   -1.3490  -53.6140 C   0  0  0  0  0  0  0  0  0  0  0  0
   10.3520   -2.2700  -53.0950 C   0  0  0  0  0  0  0  0  0  0  0  0
    9.9220   -2.9650  -51.9560 C   0  0  0  0  0  0  0  0  0  0  0  0
    8.6520   -2.7380  -51.3870 C   0  0  0  0  0  0  0  0  0  0  0  0
    7.7530   -1.8070  -51.9280 C   0  0  0  0  0  0  0  0  0  0  0  0
    8.1910   -1.1200  -53.0580 C   0  0  0  0  0  0  0  0  0  0  0  0
    6.0180    0.4911  -52.6077 H   0  0  0  0  0  0  0  0  0  0  0  0
    6.1864    1.3924  -54.1523 H   0  0  0  0  0  0  0  0  0  0  0  0
    5.5074   -0.2706  -54.1523 H   0  0  0  0  0  0  0  0  0  0  0  0
   10.1560    1.7900  -55.8080 H   0  0  0  0  0  0  0  0  0  0  0  0
   11.4433    3.2123  -57.2325 H   0  0  0  0  0  0  0  0  0  0  0  0
   10.9899    1.9947  -58.4901 H   0  0  0  0  0  0  0  0  0  0  0  0
   11.8018    4.1129  -59.5306 H   0  0  0  0  0  0  0  0  0  0  0  0
    9.8228    4.4721  -61.0100 H   0  0  0  0  0  0  0  0  0  0  0  0
   10.0700    2.7222  -60.6702 H   0  0  0  0  0  0  0  0  0  0  0  0
    7.6637    3.3512  -60.4665 H   0  0  0  0  0  0  0  0  0  0  0  0
    8.0093    5.7325  -59.8087 H   0  0  0  0  0  0  0  0  0  0  0  0
    6.9729    4.8762  -58.6099 H   0  0  0  0  0  0  0  0  0  0  0  0
    8.6977    6.2879  -57.4759 H   0  0  0  0  0  0  0  0  0  0  0  0
   10.4256    6.1777  -59.2713 H   0  0  0  0  0  0  0  0  0  0  0  0
   11.1016    5.6440  -57.6905 H   0  0  0  0  0  0  0  0  0  0  0  0
    9.6470    4.4835  -56.0300 H   0  0  0  0  0  0  0  0  0  0  0  0
    7.9122    4.1732  -56.4172 H   0  0  0  0  0  0  0  0  0  0  0  0
    7.3064    2.4386  -58.1744 H   0  0  0  0  0  0  0  0  0  0  0  0
    8.6281    1.5516  -59.0248 H   0  0  0  0  0  0  0  0  0  0  0  0
   10.3130   -0.5140  -55.3600 H   0  0  0  0  0  0  0  0  0  0  0  0
   11.3392   -2.4425  -53.5485 H   0  0  0  0  0  0  0  0  0  0  0  0
   10.5918   -3.7057  -51.4948 H   0  0  0  0  0  0  0  0  0  0  0  0
    8.3577   -3.3074  -50.4930 H   0  0  0  0  0  0  0  0  0  0  0  0
    6.7613   -1.6299  -51.4863 H   0  0  0  0  0  0  0  0  0  0  0  0
  1  2  1  0
  2  3  1  0
  3  4  1  0
  4  5  2  0
  4  6  1  0
  7  6  1  1
  7  8  1  0
  8  9  1  0
  9 10  1  0
 10 11  1  0
 11 12  1  0
 12 13  1  0
 13 14  1  0
 13 15  1  0
 11 16  1  0
  3 17  2  0
 17 18  1  0
 18 19  2  0
 19 20  1  0
 20 21  2  0
 21 22  1  0
 22 23  2  0
 23  2  1  0
 15  7  1  0
 23 18  1  0
 16  7  1  0
 14  9  1  0
  1 24  1  0
  1 25  1  0
  1 26  1  0
  6 27  1  0
  8 28  1  0
  8 29  1  0
  9 30  1  6
 10 31  1  0
 10 32  1  0
 11 33  1  6
 12 34  1  0
 12 35  1  0
 13 36  1  1
 14 37  1  0
 14 38  1  0
 15 39  1  0
 15 40  1  0
 16 41  1  0
 16 42  1  0
 17 43  1  0
 19 44  1  0
 20 45  1  0
 21 46  1  0
 22 47  1  0
M  CHG  1  17   1
M  END
>  <meeko>  (26) 
{"is_sidechain": false}

$$$$

     RDKit          3D

 51 55  0  0  0  0  0  0  0  0999 V2000
    6.3090    0.0180  -53.2770 C   0  0  0  0  0  0  0  0  0  0  0  0
    7.6500   -0.3370  -53.8600 C   0  0  0  0  0  0  0  0  0  0  0  0
    8.1130    0.5130  -54.8030 N   0  0  0  0  0  0  0  0  0  0  0  0
    9.3080    0.2210  -55.3400 C   0  0  0  0  0  0  0  0  0  0  0  0
    9.8590    1.1500  -56.4000 C   0  0  0  0  0  0  0  0  0  0  0  0
   11.0100    1.0700  -56.8160 O   0  0  0  0  0  0  0  0  0  0  0  0
    8.9480    2.0930  -56.8560 N   0  0  0  0  0  0  0  0  0  0  0  0
    9.2460    3.0770  -57.8670 C   0  0  1  0  0  0  0  0  0  0  0  0
    9.6330    2.4730  -59.2340 C   0  0  0  0  0  0  0  0  0  0  0  0
    9.2570    3.6190  -60.1760 C   0  0  2  0  0  0  0  0  0  0  0  0
   10.1220    4.8730  -59.8510 C   0  0  0  0  0  0  0  0  0  0  0  0
   10.0140    5.2680  -58.3490 C   0  0  1  0  0  0  0  0  0  0  0  0
    8.5440    5.4350  -57.9630 C   0  0  0  0  0  0  0  0  0  0  0  0
    8.0150    4.0120  -58.2010 C   0  0  1  0  0  0  0  0  0  0  0  0
    7.8170    3.8540  -59.7160 C   0  0  0  0  0  0  0  0  0  0  0  0
   10.3630    4.0640  -57.4710 C   0  0  0  0  0  0  0  0  0  0  0  0
   10.0800   -0.8440  -55.0200 N   0  0  0  0  0  0  0  0  0  0  0  0
    9.5860   -1.6750  -54.0730 C   0  0  0  0  0  0  0  0  0  0  0  0
   10.4590   -2.8520  -53.7310 C   0  0  0  0  0  0  0  0  0  0  0  0
    8.3530   -1.4710  -53.4440 C   0  0  0  0  0  0  0  0  0  0  0  0
    7.8360   -2.3840  -52.4190 C   0  0  0  0  0  0  0  0  0  0  0  0
    7.0110   -3.4650  -52.7720 C   0  0  0  0  0  0  0  0  0  0  0  0
    6.5190   -4.3340  -51.7960 C   0  0  0  0  0  0  0  0  0  0  0  0
    6.8440   -4.1340  -50.4560 C   0  0  0  0  0  0  0  0  0  0  0  0
    7.6620   -3.0670  -50.0900 C   0  0  0  0  0  0  0  0  0  0  0  0
    8.1550   -2.1970  -51.0640 C   0  0  0  0  0  0  0  0  0  0  0  0
    6.3707    0.0017  -52.1789 H   0  0  0  0  0  0  0  0  0  0  0  0
    6.0179    1.0242  -53.6130 H   0  0  0  0  0  0  0  0  0  0  0  0
    5.5582   -0.7123  -53.6130 H   0  0  0  0  0  0  0  0  0  0  0  0
    8.0230    2.0530  -56.4360 H   0  0  0  0  0  0  0  0  0  0  0  0
   10.7077    2.2442  -59.2849 H   0  0  0  0  0  0  0  0  0  0  0  0
    9.1399    1.5168  -59.4634 H   0  0  0  0  0  0  0  0  0  0  0  0
    9.3908    3.4188  -61.2493 H   0  0  0  0  0  0  0  0  0  0  0  0
   11.1734    4.6529  -60.0878 H   0  0  0  0  0  0  0  0  0  0  0  0
    9.7515    5.7136  -60.4561 H   0  0  0  0  0  0  0  0  0  0  0  0
   10.6480    6.1571  -58.2166 H   0  0  0  0  0  0  0  0  0  0  0  0
    8.4343    5.7360  -56.9107 H   0  0  0  0  0  0  0  0  0  0  0  0
    8.0131    6.2164  -58.5266 H   0  0  0  0  0  0  0  0  0  0  0  0
    7.0996    3.7983  -57.6297 H   0  0  0  0  0  0  0  0  0  0  0  0
    7.1723    2.9944  -59.9516 H   0  0  0  0  0  0  0  0  0  0  0  0
    7.3202    4.7079  -60.1997 H   0  0  0  0  0  0  0  0  0  0  0  0
   11.3592    3.6641  -57.7112 H   0  0  0  0  0  0  0  0  0  0  0  0
   10.4109    4.2864  -56.3948 H   0  0  0  0  0  0  0  0  0  0  0  0
   10.5313   -2.9495  -52.6377 H   0  0  0  0  0  0  0  0  0  0  0  0
   10.0206   -3.7685  -54.1526 H   0  0  0  0  0  0  0  0  0  0  0  0
   11.4633   -2.6984  -54.1526 H   0  0  0  0  0  0  0  0  0  0  0  0
    6.7500   -3.6285  -53.8280 H   0  0  0  0  0  0  0  0  0  0  0  0
    5.8744   -5.1771  -52.0853 H   0  0  0  0  0  0  0  0  0  0  0  0
    6.4550   -4.8181  -49.6874 H   0  0  0  0  0  0  0  0  0  0  0  0
    7.9196   -2.9100  -49.0322 H   0  0  0  0  0  0  0  0  0  0  0  0
    8.7998   -1.3566  -50.7674 H   0  0  0  0  0  0  0  0  0  0  0  0
  1  2  1  0
  2  3  1  0
  3  4  2  0
  4  5  1  0
  5  6  2  0
  5  7  1  0
  8  7  1  1
  8  9  1  0
  9 10  1  0
 10 11  1  0
 11 12  1  0
 12 13  1  0
 13 14  1  0
 14 15  1  0
 12 16  1  0
  4 17  1  0
 17 18  2  0
 18 19  1  0
 18 20  1  0
 20 21  1  0
 21 22  2  0
 22 23  1  0
 23 24  2  0
 24 25  1  0
 25 26  2  0
 20  2  2  0
 26 21  1  0
 14  8  1  0
 16  8  1  0
 15 10  1  0
  1 27  1  0
  1 28  1  0
  1 29  1  0
  7 30  1  0
  9 31  1  0
  9 32  1  0
 10 33  1  6
 11 34  1  0
 11 35  1  0
 12 36  1  6
 13 37  1  0
 13 38  1  0
 14 39  1  1
 15 40  1  0
 15 41  1  0
 16 42  1  0
 16 43  1  0
 19 44  1  0
 19 45  1  0
 19 46  1  0
 22 47  1  0
 23 48  1  0
 24 49  1  0
 25 50  1  0
 26 51  1  0
M  END
>  <meeko>  (27) 
{"is_sidechain": false}

$$$$

     RDKit          3D

 46 48  0  0  0  0  0  0  0  0999 V2000
    6.2870    0.0220  -53.2120 C   0  0  0  0  0  0  0  0  0  0  0  0
    7.6260   -0.3560  -53.7820 C   0  0  0  0  0  0  0  0  0  0  0  0
    8.1100    0.4820  -54.7250 N   0  0  0  0  0  0  0  0  0  0  0  0
    9.3060    0.1680  -55.2500 C   0  0  0  0  0  0  0  0  0  0  0  0
    9.8770    1.0790  -56.3130 C   0  0  0  0  0  0  0  0  0  0  0  0
   10.9990    0.9280  -56.7860 O   0  0  0  0  0  0  0  0  0  0  0  0
    9.0270    2.1090  -56.6990 N   0  0  0  0  0  0  0  0  0  0  0  0
    9.4550    3.1900  -57.5720 C   0  0  0  0  0  0  0  0  0  0  0  0
    9.0010    2.9270  -59.0160 C   0  0  0  0  0  0  0  0  0  0  0  0
    7.6530    3.5760  -59.3150 C   0  0  0  0  0  0  0  0  0  0  0  0
    7.7060    5.0960  -59.1470 C   0  0  0  0  0  0  0  0  0  0  0  0
    8.7510    5.5630  -58.1320 C   0  0  0  0  0  0  0  0  0  0  0  0
    8.9550    4.5390  -57.0240 C   0  0  0  0  0  0  0  0  0  0  0  0
   10.0560   -0.9080  -54.9210 N   0  0  0  0  0  0  0  0  0  0  0  0
    9.5420   -1.7270  -53.9730 C   0  0  0  0  0  0  0  0  0  0  0  0
   10.3920   -2.9170  -53.6190 C   0  0  0  0  0  0  0  0  0  0  0  0
    8.3080   -1.5000  -53.3550 C   0  0  0  0  0  0  0  0  0  0  0  0
    7.7670   -2.4000  -52.3290 C   0  0  0  0  0  0  0  0  0  0  0  0
    6.9520   -3.4850  -52.6850 C   0  0  0  0  0  0  0  0  0  0  0  0
    6.4370   -4.3400  -51.7090 C   0  0  0  0  0  0  0  0  0  0  0  0
    6.7320   -4.1210  -50.3640 C   0  0  0  0  0  0  0  0  0  0  0  0
    7.5410   -3.0490  -49.9950 C   0  0  0  0  0  0  0  0  0  0  0  0
    8.0560   -2.1930  -50.9710 C   0  0  0  0  0  0  0  0  0  0  0  0
    6.3388    0.0074  -52.1133 H   0  0  0  0  0  0  0  0  0  0  0  0
    6.0153    1.0320  -53.5528 H   0  0  0  0  0  0  0  0  0  0  0  0
    5.5273   -0.6968  -53.5528 H   0  0  0  0  0  0  0  0  0  0  0  0
    8.1800    2.2080  -56.1470 H   0  0  0  0  0  0  0  0  0  0  0  0
   10.5539    3.2362  -57.5918 H   0  0  0  0  0  0  0  0  0  0  0  0
    9.7537    3.3364  -59.7057 H   0  0  0  0  0  0  0  0  0  0  0  0
    8.8930    1.8402  -59.1471 H   0  0  0  0  0  0  0  0  0  0  0  0
    7.3667    3.3418  -60.3509 H   0  0  0  0  0  0  0  0  0  0  0  0
    6.9157    3.1781  -58.6022 H   0  0  0  0  0  0  0  0  0  0  0  0
    7.9431    5.5458  -60.1224 H   0  0  0  0  0  0  0  0  0  0  0  0
    6.7233    5.4135  -58.7682 H   0  0  0  0  0  0  0  0  0  0  0  0
    9.7074    5.7213  -58.6519 H   0  0  0  0  0  0  0  0  0  0  0  0
    8.3922    6.4969  -57.6747 H   0  0  0  0  0  0  0  0  0  0  0  0
    9.6961    4.9296  -56.3111 H   0  0  0  0  0  0  0  0  0  0  0  0
    7.9845    4.3689  -56.5349 H   0  0  0  0  0  0  0  0  0  0  0  0
   10.4573   -3.0084  -52.5248 H   0  0  0  0  0  0  0  0  0  0  0  0
    9.9392   -3.8283  -54.0367 H   0  0  0  0  0  0  0  0  0  0  0  0
   11.4009   -2.7842  -54.0367 H   0  0  0  0  0  0  0  0  0  0  0  0
    6.7163   -3.6639  -53.7444 H   0  0  0  0  0  0  0  0  0  0  0  0
    5.7983   -5.1866  -52.0011 H   0  0  0  0  0  0  0  0  0  0  0  0
    6.3261   -4.7944  -49.5948 H   0  0  0  0  0  0  0  0  0  0  0  0
    7.7745   -2.8764  -48.9340 H   0  0  0  0  0  0  0  0  0  0  0  0
    8.6943   -1.3483  -50.6726 H   0  0  0  0  0  0  0  0  0  0  0  0
  1  2  1  0
  2  3  1  0
  3  4  2  0
  4  5  1  0
  5  6  2  0
  5  7  1  0
  7  8  1  0
  8  9  1  0
  9 10  1  0
 10 11  1  0
 11 12  1  0
 12 13  1  0
  4 14  1  0
 14 15  2  0
 15 16  1  0
 15 17  1  0
 17 18  1  0
 18 19  2  0
 19 20  1  0
 20 21  2  0
 21 22  1  0
 22 23  2  0
 17  2  2  0
 23 18  1  0
 13  8  1  0
  1 24  1  0
  1 25  1  0
  1 26  1  0
  7 27  1  0
  8 28  1  0
  9 29  1  0
  9 30  1  0
 10 31  1  0
 10 32  1  0
 11 33  1  0
 11 34  1  0
 12 35  1  0
 12 36  1  0
 13 37  1  0
 13 38  1  0
 16 39  1  0
 16 40  1  0
 16 41  1  0
 19 42  1  0
 20 43  1  0
 21 44  1  0
 22 45  1  0
 23 46  1  0
M  END
>  <meeko>  (28) 
{"is_sidechain": false}

$$$$

     RDKit          3D

 47 51  0  0  0  0  0  0  0  0999 V2000
   11.2660   -2.3170  -54.8280 C   0  0  0  0  0  0  0  0  0  0  0  0
   10.0580   -1.4970  -54.4760 C   0  0  0  0  0  0  0  0  0  0  0  0
    9.7530   -0.5140  -55.3470 N   0  0  0  0  0  0  0  0  0  0  0  0
    8.6770    0.2330  -55.0510 C   0  0  0  0  0  0  0  0  0  0  0  0
    8.3030    1.3470  -56.0050 C   0  0  0  0  0  0  0  0  0  0  0  0
    7.1540    1.7560  -56.1160 O   0  0  0  0  0  0  0  0  0  0  0  0
    9.3760    1.8500  -56.7300 N   0  0  0  0  0  0  0  0  0  0  0  0
    9.3090    2.9240  -57.7200 C   0  0  2  0  0  0  0  0  0  0  0  0
    8.1730    2.6870  -58.7450 C   0  0  0  0  0  0  0  0  0  0  0  0
    8.1580    3.8050  -59.8040 C   0  0  1  0  0  0  0  0  0  0  0  0
    7.9510    5.1610  -59.1050 C   0  0  0  0  0  0  0  0  0  0  0  0
    9.0940    5.4220  -58.1100 C   0  0  2  0  0  0  0  0  0  0  0  0
   10.4330    5.4260  -58.8650 C   0  0  0  0  0  0  0  0  0  0  0  0
   10.6480    4.0710  -59.5570 C   0  0  2  0  0  0  0  0  0  0  0  0
    9.5020    3.8180  -60.5490 C   0  0  0  0  0  0  0  0  0  0  0  0
   10.6530    2.9590  -58.4960 C   0  0  0  0  0  0  0  0  0  0  0  0
    9.1100    4.3070  -57.0510 C   0  0  0  0  0  0  0  0  0  0  0  0
    7.8800    0.0860  -53.9680 N   0  0  0  0  0  0  0  0  0  0  0  0
    8.2030   -0.8950  -53.1210 C   0  0  0  0  0  0  0  0  0  0  0  0
    7.4130   -1.0840  -51.9940 C   0  0  0  0  0  0  0  0  0  0  0  0
    7.6840   -2.0870  -51.0600 C   0  0  0  0  0  0  0  0  0  0  0  0
    8.7710   -2.9290  -51.2480 C   0  0  0  0  0  0  0  0  0  0  0  0
    9.5800   -2.7620  -52.3710 C   0  0  0  0  0  0  0  0  0  0  0  0
    9.3050   -1.7450  -53.3170 C   0  0  0  0  0  0  0  0  0  0  0  0
   11.7620   -2.6537  -53.9057 H   0  0  0  0  0  0  0  0  0  0  0  0
   10.9559   -3.1921  -55.4180 H   0  0  0  0  0  0  0  0  0  0  0  0
   11.9648   -1.7058  -55.4180 H   0  0  0  0  0  0  0  0  0  0  0  0
   10.2710    1.4110  -56.5320 H   0  0  0  0  0  0  0  0  0  0  0  0
    8.3314    1.7191  -59.2431 H   0  0  0  0  0  0  0  0  0  0  0  0
    7.2097    2.6880  -58.2140 H   0  0  0  0  0  0  0  0  0  0  0  0
    7.3415    3.6272  -60.5193 H   0  0  0  0  0  0  0  0  0  0  0  0
    7.9359    5.9610  -59.8599 H   0  0  0  0  0  0  0  0  0  0  0  0
    6.9958    5.1431  -58.5597 H   0  0  0  0  0  0  0  0  0  0  0  0
    8.9433    6.3951  -57.6196 H   0  0  0  0  0  0  0  0  0  0  0  0
   10.4225    6.2243  -59.6217 H   0  0  0  0  0  0  0  0  0  0  0  0
   11.2508    5.6012  -58.1505 H   0  0  0  0  0  0  0  0  0  0  0  0
   11.6073    4.0779  -60.0952 H   0  0  0  0  0  0  0  0  0  0  0  0
    9.4918    4.6163  -61.3057 H   0  0  0  0  0  0  0  0  0  0  0  0
    9.6545    2.8443  -61.0375 H   0  0  0  0  0  0  0  0  0  0  0  0
   10.8073    1.9894  -58.9920 H   0  0  0  0  0  0  0  0  0  0  0  0
   11.4649    3.1601  -57.7816 H   0  0  0  0  0  0  0  0  0  0  0  0
    9.9343    4.4897  -56.3459 H   0  0  0  0  0  0  0  0  0  0  0  0
    8.1473    4.3088  -56.5189 H   0  0  0  0  0  0  0  0  0  0  0  0
    6.5480   -0.4240  -51.8321 H   0  0  0  0  0  0  0  0  0  0  0  0
    7.0377   -2.2089  -50.1783 H   0  0  0  0  0  0  0  0  0  0  0  0
    8.9923   -3.7211  -50.5175 H   0  0  0  0  0  0  0  0  0  0  0  0
   10.4420   -3.4280  -52.5239 H   0  0  0  0  0  0  0  0  0  0  0  0
  1  2  1  0
  2  3  1  0
  3  4  2  0
  4  5  1  0
  5  6  2  0
  5  7  1  0
  8  7  1  1
  8  9  1  0
  9 10  1  0
 10 11  1  0
 11 12  1  0
 12 13  1  0
 13 14  1  0
 14 15  1  0
 14 16  1  0
 12 17  1  0
  4 18  1  0
 18 19  2  0
 19 20  1  0
 20 21  2  0
 21 22  1  0
 22 23  2  0
 23 24  1  0
 24  2  2  0
 16  8  1  0
 24 19  1  0
 17  8  1  0
 15 10  1  0
  1 25  1  0
  1 26  1  0
  1 27  1  0
  7 28  1  0
  9 29  1  0
  9 30  1  0
 10 31  1  6
 11 32  1  0
 11 33  1  0
 12 34  1  1
 13 35  1  0
 13 36  1  0
 14 37  1  6
 15 38  1  0
 15 39  1  0
 16 40  1  0
 16 41  1  0
 17 42  1  0
 17 43  1  0
 20 44  1  0
 21 45  1  0
 22 46  1  0
 23 47  1  0
M  END
>  <meeko>  (29) 
{"is_sidechain": false}

$$$$

     RDKit          3D

 44 47  0  0  0  0  0  0  0  0999 V2000
    7.7820   -2.6920  -49.9590 C   0  0  0  0  0  0  0  0  0  0  0  0
    7.9680   -2.1820  -51.3560 C   0  0  0  0  0  0  0  0  0  0  0  0
    7.0470   -1.3090  -51.9080 C   0  0  0  0  0  0  0  0  0  0  0  0
    7.2830   -0.8790  -53.2030 C   0  0  0  0  0  0  0  0  0  0  0  0
    6.3280    0.0680  -53.8670 C   0  0  0  0  0  0  0  0  0  0  0  0
    8.3540   -1.2800  -53.9140 N   0  0  0  0  0  0  0  0  0  0  0  0
    9.1960   -2.1360  -53.2820 C   0  0  0  0  0  0  0  0  0  0  0  0
   10.4030   -2.5890  -54.0780 C   0  0  0  0  0  0  0  0  0  0  0  0
   11.5400   -2.2080  -53.8210 O   0  0  0  0  0  0  0  0  0  0  0  0
   10.0980   -3.4660  -55.1100 N   0  0  0  0  0  0  0  0  0  0  0  0
   11.0590   -4.0640  -56.0370 C   0  0  2  0  0  0  0  0  0  0  0  0
   12.1850   -4.8160  -55.2870 C   0  0  0  0  0  0  0  0  0  0  0  0
   13.1520   -5.4770  -56.2850 C   0  0  1  0  0  0  0  0  0  0  0  0
   12.3780   -6.4810  -57.1540 C   0  0  0  0  0  0  0  0  0  0  0  0
   11.2650   -5.7570  -57.9270 C   0  0  2  0  0  0  0  0  0  0  0  0
   11.8890   -4.6760  -58.8250 C   0  0  0  0  0  0  0  0  0  0  0  0
   12.6590   -3.6610  -57.9660 C   0  0  2  0  0  0  0  0  0  0  0  0
   13.7660   -4.3930  -57.1870 C   0  0  0  0  0  0  0  0  0  0  0  0
   11.6920   -3.0000  -56.9680 C   0  0  0  0  0  0  0  0  0  0  0  0
   10.3080   -5.0910  -56.9260 C   0  0  0  0  0  0  0  0  0  0  0  0
    9.0520   -2.6080  -52.0300 N   0  0  0  0  0  0  0  0  0  0  0  0
    8.0677   -1.9086  -49.2416 H   0  0  0  0  0  0  0  0  0  0  0  0
    6.7271   -2.9631  -49.8050 H   0  0  0  0  0  0  0  0  0  0  0  0
    8.4147   -3.5786  -49.8050 H   0  0  0  0  0  0  0  0  0  0  0  0
    6.1658   -0.9714  -51.3427 H   0  0  0  0  0  0  0  0  0  0  0  0
    5.7685    0.6228  -53.0994 H   0  0  0  0  0  0  0  0  0  0  0  0
    6.8900    0.7756  -54.4943 H   0  0  0  0  0  0  0  0  0  0  0  0
    5.6251   -0.4999  -54.4943 H   0  0  0  0  0  0  0  0  0  0  0  0
    9.1100   -3.6920  -55.2020 H   0  0  0  0  0  0  0  0  0  0  0  0
   12.7422   -4.1026  -54.6620 H   0  0  0  0  0  0  0  0  0  0  0  0
   11.7326   -5.5984  -54.6599 H   0  0  0  0  0  0  0  0  0  0  0  0
   13.9494   -6.0005  -55.7373 H   0  0  0  0  0  0  0  0  0  0  0  0
   13.0689   -6.9540  -57.8674 H   0  0  0  0  0  0  0  0  0  0  0  0
   11.9282   -7.2481  -56.5064 H   0  0  0  0  0  0  0  0  0  0  0  0
   10.7138   -6.4796  -58.5467 H   0  0  0  0  0  0  0  0  0  0  0  0
   12.5804   -5.1489  -59.5379 H   0  0  0  0  0  0  0  0  0  0  0  0
   11.0896   -4.1543  -59.3716 H   0  0  0  0  0  0  0  0  0  0  0  0
   13.1052   -2.8922  -58.6140 H   0  0  0  0  0  0  0  0  0  0  0  0
   14.4611   -4.8629  -57.8983 H   0  0  0  0  0  0  0  0  0  0  0  0
   14.3044   -3.6668  -56.5603 H   0  0  0  0  0  0  0  0  0  0  0  0
   12.2445   -2.2693  -56.3590 H   0  0  0  0  0  0  0  0  0  0  0  0
   10.8905   -2.4980  -57.5298 H   0  0  0  0  0  0  0  0  0  0  0  0
    9.5117   -4.5726  -57.4801 H   0  0  0  0  0  0  0  0  0  0  0  0
    9.8817   -5.8703  -56.2772 H   0  0  0  0  0  0  0  0  0  0  0  0
  1  2  1  0
  2  3  2  0
  3  4  1  0
  4  5  1  0
  4  6  2  0
  6  7  1  0
  7  8  1  0
  8  9  2  0
  8 10  1  0
 11 10  1  1
 11 12  1  0
 12 13  1  0
 13 14  1  0
 14 15  1  0
 15 16  1  0
 16 17  1  0
 17 18  1  0
 17 19  1  0
 15 20  1  0
  7 21  2  0
 21  2  1  0
 19 11  1  0
 20 11  1  0
 18 13  1  0
  1 22  1  0
  1 23  1  0
  1 24  1  0
  3 25  1  0
  5 26  1  0
  5 27  1  0
  5 28  1  0
 10 29  1  0
 12 30  1  0
 12 31  1  0
 13 32  1  1
 14 33  1  0
 14 34  1  0
 15 35  1  6
 16 36  1  0
 16 37  1  0
 17 38  1  6
 18 39  1  0
 18 40  1  0
 19 41  1  0
 19 42  1  0
 20 43  1  0
 20 44  1  0
M  END
>  <meeko>  (30) 
{"is_sidechain": false}

$$$$

     RDKit          3D

 44 47  0  0  0  0  0  0  0  0999 V2000
    8.6940   -2.5690  -51.9960 C   0  0  0  0  0  0  0  0  0  0  0  0
    8.5190   -1.5380  -53.0630 C   0  0  0  0  0  0  0  0  0  0  0  0
    7.3360   -0.8270  -53.1870 C   0  0  0  0  0  0  0  0  0  0  0  0
    7.1130    0.1120  -54.1240 N   0  0  0  0  0  0  0  0  0  0  0  0
    8.1430    0.3350  -54.9720 C   0  0  0  0  0  0  0  0  0  0  0  0
    7.9190    1.3880  -56.0370 C   0  0  0  0  0  0  0  0  0  0  0  0
    6.8010    1.7900  -56.3370 O   0  0  0  0  0  0  0  0  0  0  0  0
    9.0880    1.8450  -56.6300 N   0  0  0  0  0  0  0  0  0  0  0  0
    9.1750    2.8560  -57.6820 C   0  0  2  0  0  0  0  0  0  0  0  0
    8.8490    4.2710  -57.1440 C   0  0  0  0  0  0  0  0  0  0  0  0
    8.9960    5.3210  -58.2600 C   0  0  1  0  0  0  0  0  0  0  0  0
   10.4420    5.3100  -58.7810 C   0  0  0  0  0  0  0  0  0  0  0  0
   10.7860    3.9210  -59.3410 C   0  0  2  0  0  0  0  0  0  0  0  0
    9.8230    3.5820  -60.4910 C   0  0  0  0  0  0  0  0  0  0  0  0
    8.3740    3.5840  -59.9790 C   0  0  2  0  0  0  0  0  0  0  0  0
    8.0370    4.9740  -59.4110 C   0  0  0  0  0  0  0  0  0  0  0  0
    8.2270    2.5330  -58.8640 C   0  0  0  0  0  0  0  0  0  0  0  0
   10.6280    2.8750  -58.2270 C   0  0  0  0  0  0  0  0  0  0  0  0
    9.3340   -0.2940  -54.9470 N   0  0  0  0  0  0  0  0  0  0  0  0
    9.5080   -1.2270  -53.9890 C   0  0  0  0  0  0  0  0  0  0  0  0
   10.8420   -1.9170  -53.9790 C   0  0  0  0  0  0  0  0  0  0  0  0
    8.6130   -2.0918  -51.0082 H   0  0  0  0  0  0  0  0  0  0  0  0
    7.9134   -3.3374  -52.0971 H   0  0  0  0  0  0  0  0  0  0  0  0
    9.6844   -3.0368  -52.0971 H   0  0  0  0  0  0  0  0  0  0  0  0
    6.5275   -1.0444  -52.4735 H   0  0  0  0  0  0  0  0  0  0  0  0
    9.9420    1.4190  -56.2780 H   0  0  0  0  0  0  0  0  0  0  0  0
    7.8155    4.2856  -56.7675 H   0  0  0  0  0  0  0  0  0  0  0  0
    9.5522    4.5134  -56.3336 H   0  0  0  0  0  0  0  0  0  0  0  0
    8.7543    6.3187  -57.8648 H   0  0  0  0  0  0  0  0  0  0  0  0
   10.5483    6.0610  -59.5777 H   0  0  0  0  0  0  0  0  0  0  0  0
   11.1268    5.5463  -57.9532 H   0  0  0  0  0  0  0  0  0  0  0  0
   11.8214    3.9182  -59.7123 H   0  0  0  0  0  0  0  0  0  0  0  0
    9.9289    4.3323  -61.2884 H   0  0  0  0  0  0  0  0  0  0  0  0
   10.0663    2.5839  -60.8842 H   0  0  0  0  0  0  0  0  0  0  0  0
    7.6899    3.3454  -60.8067 H   0  0  0  0  0  0  0  0  0  0  0  0
    8.1369    5.7264  -60.2072 H   0  0  0  0  0  0  0  0  0  0  0  0
    7.0050    4.9669  -59.0302 H   0  0  0  0  0  0  0  0  0  0  0  0
    7.1877    2.5310  -58.5038 H   0  0  0  0  0  0  0  0  0  0  0  0
    8.4906    1.5454  -59.2705 H   0  0  0  0  0  0  0  0  0  0  0  0
   10.8740    1.8813  -58.6295 H   0  0  0  0  0  0  0  0  0  0  0  0
   11.3075    3.1366  -57.4025 H   0  0  0  0  0  0  0  0  0  0  0  0
   11.1615   -2.0823  -52.9395 H   0  0  0  0  0  0  0  0  0  0  0  0
   10.7581   -2.8848  -54.4951 H   0  0  0  0  0  0  0  0  0  0  0  0
   11.5834   -1.2893  -54.4951 H   0  0  0  0  0  0  0  0  0  0  0  0
  1  2  1  0
  2  3  2  0
  3  4  1  0
  4  5  2  0
  5  6  1  0
  6  7  2  0
  6  8  1  0
  9  8  1  1
  9 10  1  0
 10 11  1  0
 11 12  1  0
 12 13  1  0
 13 14  1  0
 14 15  1  0
 15 16  1  0
 15 17  1  0
 13 18  1  0
  5 19  1  0
 19 20  2  0
 20 21  1  0
 20  2  1  0
 17  9  1  0
 18  9  1  0
 16 11  1  0
  1 22  1  0
  1 23  1  0
  1 24  1  0
  3 25  1  0
  8 26  1  0
 10 27  1  0
 10 28  1  0
 11 29  1  1
 12 30  1  0
 12 31  1  0
 13 32  1  6
 14 33  1  0
 14 34  1  0
 15 35  1  6
 16 36  1  0
 16 37  1  0
 17 38  1  0
 17 39  1  0
 18 40  1  0
 18 41  1  0
 21 42  1  0
 21 43  1  0
 21 44  1  0
M  END
>  <meeko>  (31) 
{"is_sidechain": false}

$$$$

     RDKit          3D

 60 64  0  0  0  0  0  0  0  0999 V2000
    6.7540   -0.2670  -53.0970 C   0  0  0  0  0  0  0  0  0  0  0  0
    8.0570   -0.5880  -53.7680 C   0  0  0  0  0  0  0  0  0  0  0  0
    8.4100    0.3240  -54.7050 N   0  0  0  0  0  0  0  0  0  0  0  0
    9.5720    0.1110  -55.3550 C   0  0  0  0  0  0  0  0  0  0  0  0
    9.9530    1.1370  -56.4010 C   0  0  0  0  0  0  0  0  0  0  0  0
   11.1080    1.2900  -56.7800 O   0  0  0  0  0  0  0  0  0  0  0  0
    8.8790    1.8760  -56.8800 N   0  0  0  0  0  0  0  0  0  0  0  0
    8.9480    2.9290  -57.8900 C   0  0  2  0  0  0  0  0  0  0  0  0
    7.5010    3.3570  -58.2530 C   0  0  0  0  0  0  0  0  0  0  0  0
    7.5040    4.4690  -59.3150 C   0  0  1  0  0  0  0  0  0  0  0  0
    8.2650    5.6860  -58.7680 C   0  0  0  0  0  0  0  0  0  0  0  0
    9.7110    5.2910  -58.4270 C   0  0  2  0  0  0  0  0  0  0  0  0
   10.4080    4.7680  -59.6940 C   0  0  0  0  0  0  0  0  0  0  0  0
    9.6530    3.5480  -60.2490 C   0  0  2  0  0  0  0  0  0  0  0  0
    8.2080    3.9540  -60.5810 C   0  0  0  0  0  0  0  0  0  0  0  0
    9.6380    2.4360  -59.1860 C   0  0  0  0  0  0  0  0  0  0  0  0
    9.6960    4.1790  -57.3620 C   0  0  0  0  0  0  0  0  0  0  0  0
   10.3980   -0.9210  -55.1520 N   0  0  0  0  0  0  0  0  0  0  0  0
   10.0310   -1.8150  -54.2100 C   0  0  0  0  0  0  0  0  0  0  0  0
   10.9980   -2.9540  -54.0430 C   0  0  0  0  0  0  0  0  0  0  0  0
    8.8540   -1.6960  -53.4500 C   0  0  0  0  0  0  0  0  0  0  0  0
    8.4960   -2.7460  -52.4070 C   0  0  0  0  0  0  0  0  0  0  0  0
    7.4220   -3.7290  -52.9170 C   0  0  0  0  0  0  0  0  0  0  0  0
    6.6370   -4.4040  -51.7880 C   0  0  0  0  0  0  0  0  0  0  0  0
    7.5080   -4.6490  -50.5610 C   0  0  0  0  0  0  0  0  0  0  0  0
    8.0780   -3.3510  -49.9830 C   0  0  0  0  0  0  0  0  0  0  0  0
    8.1620   -2.2110  -51.0060 C   0  0  0  0  0  0  0  0  0  0  0  0
    6.8859   -0.2995  -52.0054 H   0  0  0  0  0  0  0  0  0  0  0  0
    6.4252    0.7390  -53.3968 H   0  0  0  0  0  0  0  0  0  0  0  0
    5.9956   -1.0052  -53.3968 H   0  0  0  0  0  0  0  0  0  0  0  0
    7.9790    1.6350  -56.4710 H   0  0  0  0  0  0  0  0  0  0  0  0
    6.9564    2.4859  -58.6461 H   0  0  0  0  0  0  0  0  0  0  0  0
    7.0116    3.7409  -57.3457 H   0  0  0  0  0  0  0  0  0  0  0  0
    6.4707    4.7578  -59.5575 H   0  0  0  0  0  0  0  0  0  0  0  0
    8.2740    6.4817  -59.5275 H   0  0  0  0  0  0  0  0  0  0  0  0
    7.7642    6.0459  -57.8571 H   0  0  0  0  0  0  0  0  0  0  0  0
   10.2521    6.1677  -58.0415 H   0  0  0  0  0  0  0  0  0  0  0  0
   10.4239    5.5626  -60.4545 H   0  0  0  0  0  0  0  0  0  0  0  0
   11.4363    4.4700  -59.4415 H   0  0  0  0  0  0  0  0  0  0  0  0
   10.1526    3.1840  -61.1589 H   0  0  0  0  0  0  0  0  0  0  0  0
    8.2182    4.7488  -61.3413 H   0  0  0  0  0  0  0  0  0  0  0  0
    7.6654    3.0778  -60.9655 H   0  0  0  0  0  0  0  0  0  0  0  0
    9.0896    1.5674  -59.5794 H   0  0  0  0  0  0  0  0  0  0  0  0
   10.6756    2.1567  -58.9507 H   0  0  0  0  0  0  0  0  0  0  0  0
   10.7312    3.9026  -57.1132 H   0  0  0  0  0  0  0  0  0  0  0  0
    9.1763    4.5518  -56.4670 H   0  0  0  0  0  0  0  0  0  0  0  0
   11.1593   -3.1440  -52.9716 H   0  0  0  0  0  0  0  0  0  0  0  0
   10.5864   -3.8570  -54.5176 H   0  0  0  0  0  0  0  0  0  0  0  0
   11.9558   -2.6944  -54.5176 H   0  0  0  0  0  0  0  0  0  0  0  0
    9.4351   -3.3005  -52.2634 H   0  0  0  0  0  0  0  0  0  0  0  0
    6.7148   -3.1754  -53.5521 H   0  0  0  0  0  0  0  0  0  0  0  0
    7.9428   -4.5226  -53.4729 H   0  0  0  0  0  0  0  0  0  0  0  0
    5.7947   -3.7563  -51.5032 H   0  0  0  0  0  0  0  0  0  0  0  0
    6.2804   -5.3780  -52.1543 H   0  0  0  0  0  0  0  0  0  0  0  0
    6.8999   -5.1428  -49.7887 H   0  0  0  0  0  0  0  0  0  0  0  0
    8.3547   -5.2793  -50.8705 H   0  0  0  0  0  0  0  0  0  0  0  0
    7.4334   -3.0270  -49.1526 H   0  0  0  0  0  0  0  0  0  0  0  0
    9.1052   -3.5669  -49.6538 H   0  0  0  0  0  0  0  0  0  0  0  0
    7.1943   -1.6893  -51.0423 H   0  0  0  0  0  0  0  0  0  0  0  0
    8.9620   -1.5226  -50.6959 H   0  0  0  0  0  0  0  0  0  0  0  0
  1  2  1  0
  2  3  1  0
  3  4  2  0
  4  5  1  0
  5  6  2  0
  5  7  1  0
  8  7  1  1
  8  9  1  0
  9 10  1  0
 10 11  1  0
 11 12  1  0
 12 13  1  0
 13 14  1  0
 14 15  1  0
 14 16  1  0
 12 17  1  0
  4 18  1  0
 18 19  2  0
 19 20  1  0
 19 21  1  0
 21 22  1  0
 22 23  1  0
 23 24  1  0
 24 25  1  0
 25 26  1  0
 26 27  1  0
 21  2  2  0
 27 22  1  0
 16  8  1  0
 17  8  1  0
 15 10  1  0
  1 28  1  0
  1 29  1  0
  1 30  1  0
  7 31  1  0
  9 32  1  0
  9 33  1  0
 10 34  1  6
 11 35  1  0
 11 36  1  0
 12 37  1  1
 13 38  1  0
 13 39  1  0
 14 40  1  6
 15 41  1  0
 15 42  1  0
 16 43  1  0
 16 44  1  0
 17 45  1  0
 17 46  1  0
 20 47  1  0
 20 48  1  0
 20 49  1  0
 22 50  1  0
 23 51  1  0
 23 52  1  0
 24 53  1  0
 24 54  1  0
 25 55  1  0
 25 56  1  0
 26 57  1  0
 26 58  1  0
 27 59  1  0
 27 60  1  0
M  END
>  <meeko>  (32) 
{"is_sidechain": false}

$$$$

     RDKit          3D

 47 50  0  0  0  0  0  0  0  0999 V2000
   10.9700   -2.9490  -54.0180 C   0  0  0  0  0  0  0  0  0  0  0  0
   10.0780   -1.7450  -54.1200 C   0  0  0  0  0  0  0  0  0  0  0  0
   10.3860   -0.9030  -55.1310 N   0  0  0  0  0  0  0  0  0  0  0  0
    9.6090    0.1820  -55.2820 C   0  0  0  0  0  0  0  0  0  0  0  0
    9.9320    1.1450  -56.4030 C   0  0  0  0  0  0  0  0  0  0  0  0
   11.0650    1.2600  -56.8570 O   0  0  0  0  0  0  0  0  0  0  0  0
    8.8390    1.8670  -56.8570 N   0  0  0  0  0  0  0  0  0  0  0  0
    8.8590    2.8630  -57.9290 C   0  0  2  0  0  0  0  0  0  0  0  0
    9.3680    2.2590  -59.2610 C   0  0  0  0  0  0  0  0  0  0  0  0
    9.3310    3.3130  -60.3820 C   0  0  1  0  0  0  0  0  0  0  0  0
    7.8860    3.7970  -60.5780 C   0  0  0  0  0  0  0  0  0  0  0  0
    7.3600    4.4200  -59.2750 C   0  0  2  0  0  0  0  0  0  0  0  0
    8.2510    5.6100  -58.8850 C   0  0  0  0  0  0  0  0  0  0  0  0
    9.6980    5.1380  -58.6790 C   0  0  2  0  0  0  0  0  0  0  0  0
   10.2160    4.5070  -59.9830 C   0  0  0  0  0  0  0  0  0  0  0  0
    9.7350    4.0850  -57.5580 C   0  0  0  0  0  0  0  0  0  0  0  0
    7.4080    3.3670  -58.1570 C   0  0  0  0  0  0  0  0  0  0  0  0
    8.5440    0.4900  -54.5110 N   0  0  0  0  0  0  0  0  0  0  0  0
    8.2570   -0.3690  -53.5070 C   0  0  0  0  0  0  0  0  0  0  0  0
    7.0540   -0.0010  -52.6840 C   0  0  0  0  0  0  0  0  0  0  0  0
    9.0200   -1.5080  -53.2450 C   0  0  0  0  0  0  0  0  0  0  0  0
    8.6620   -2.4430  -52.1290 C   0  0  0  0  0  0  0  0  0  0  0  0
    7.9430   -3.5110  -52.5700 F   0  0  0  0  0  0  0  0  0  0  0  0
    7.8980   -1.8560  -51.1650 F   0  0  0  0  0  0  0  0  0  0  0  0
    9.7240   -2.9640  -51.4590 F   0  0  0  0  0  0  0  0  0  0  0  0
   11.1458   -3.1863  -52.9584 H   0  0  0  0  0  0  0  0  0  0  0  0
   10.4871   -3.8059  -54.5104 H   0  0  0  0  0  0  0  0  0  0  0  0
   11.9304   -2.7366  -54.5104 H   0  0  0  0  0  0  0  0  0  0  0  0
    7.9610    1.6630  -56.3870 H   0  0  0  0  0  0  0  0  0  0  0  0
   10.4023    1.9091  -59.1276 H   0  0  0  0  0  0  0  0  0  0  0  0
    8.7158    1.4190  -59.5420 H   0  0  0  0  0  0  0  0  0  0  0  0
    9.7026    2.8709  -61.3182 H   0  0  0  0  0  0  0  0  0  0  0  0
    7.8595    4.5506  -61.3789 H   0  0  0  0  0  0  0  0  0  0  0  0
    7.2518    2.9407  -60.8510 H   0  0  0  0  0  0  0  0  0  0  0  0
    6.3251    4.7634  -59.4201 H   0  0  0  0  0  0  0  0  0  0  0  0
    8.2242    6.3631  -59.6863 H   0  0  0  0  0  0  0  0  0  0  0  0
    7.8776    6.0486  -57.9479 H   0  0  0  0  0  0  0  0  0  0  0  0
   10.3306    5.9947  -58.4036 H   0  0  0  0  0  0  0  0  0  0  0  0
   10.1943    5.2597  -60.7849 H   0  0  0  0  0  0  0  0  0  0  0  0
   11.2464    4.1547  -59.8274 H   0  0  0  0  0  0  0  0  0  0  0  0
   10.7730    3.7534  -57.4076 H   0  0  0  0  0  0  0  0  0  0  0  0
    9.3420    4.5359  -56.6348 H   0  0  0  0  0  0  0  0  0  0  0  0
    7.0320    3.8144  -57.2251 H   0  0  0  0  0  0  0  0  0  0  0  0
    6.7827    2.5121  -58.4538 H   0  0  0  0  0  0  0  0  0  0  0  0
    7.3035   -0.0773  -51.6154 H   0  0  0  0  0  0  0  0  0  0  0  0
    6.7518    1.0307  -52.9172 H   0  0  0  0  0  0  0  0  0  0  0  0
    6.2264   -0.6871  -52.9172 H   0  0  0  0  0  0  0  0  0  0  0  0
  1  2  1  0
  2  3  1  0
  3  4  2  0
  4  5  1  0
  5  6  2  0
  5  7  1  0
  8  7  1  1
  8  9  1  0
  9 10  1  0
 10 11  1  0
 11 12  1  0
 12 13  1  0
 13 14  1  0
 14 15  1  0
 14 16  1  0
 12 17  1  0
  4 18  1  0
 18 19  2  0
 19 20  1  0
 19 21  1  0
 21 22  1  0
 22 23  1  0
 22 24  1  0
 22 25  1  0
 21  2  2  0
 16  8  1  0
 17  8  1  0
 15 10  1  0
  1 26  1  0
  1 27  1  0
  1 28  1  0
  7 29  1  0
  9 30  1  0
  9 31  1  0
 10 32  1  6
 11 33  1  0
 11 34  1  0
 12 35  1  6
 13 36  1  0
 13 37  1  0
 14 38  1  1
 15 39  1  0
 15 40  1  0
 16 41  1  0
 16 42  1  0
 17 43  1  0
 17 44  1  0
 20 45  1  0
 20 46  1  0
 20 47  1  0
M  END
>  <meeko>  (33) 
{"is_sidechain": false}

$$$$

     RDKit          3D

 43 45  0  0  0  0  0  0  0  0999 V2000
    6.1930    2.8470  -58.3240 C   0  0  0  0  0  0  0  0  0  0  0  0
    7.1300    2.1210  -57.3970 C   0  0  0  0  0  0  0  0  0  0  0  0
    6.5340    1.3900  -56.4260 N   0  0  0  0  0  0  0  0  0  0  0  0
    7.3600    0.7280  -55.5850 C   0  0  0  0  0  0  0  0  0  0  0  0
    6.6960   -0.0880  -54.4980 C   0  0  0  0  0  0  0  0  0  0  0  0
    5.9730    0.4070  -53.6390 O   0  0  0  0  0  0  0  0  0  0  0  0
    6.9670   -1.4430  -54.5570 N   0  0  0  0  0  0  0  0  0  0  0  0
    6.3550   -2.3790  -53.6500 C   0  0  0  0  0  0  0  0  0  0  0  0
    7.2700   -2.6810  -52.4950 C   0  0  0  0  0  0  0  0  0  0  0  0
    8.6610   -2.6280  -52.6580 C   0  0  0  0  0  0  0  0  0  0  0  0
    9.5110   -2.9350  -51.5950 C   0  0  0  0  0  0  0  0  0  0  0  0
    8.9780   -3.3060  -50.3610 C   0  0  0  0  0  0  0  0  0  0  0  0
    7.5970   -3.3730  -50.1900 C   0  0  0  0  0  0  0  0  0  0  0  0
    6.7450   -3.0660  -51.2530 C   0  0  0  0  0  0  0  0  0  0  0  0
    8.7030    0.7410  -55.6310 N   0  0  0  0  0  0  0  0  0  0  0  0
    9.2670    1.4820  -56.6120 C   0  0  0  0  0  0  0  0  0  0  0  0
   10.7700    1.4760  -56.6400 C   0  0  0  0  0  0  0  0  0  0  0  0
    8.5180    2.2090  -57.5440 C   0  0  0  0  0  0  0  0  0  0  0  0
    9.1460    3.0070  -58.6040 C   0  0  0  0  0  0  0  0  0  0  0  0
    9.5170    4.3400  -58.3730 C   0  0  0  0  0  0  0  0  0  0  0  0
   10.1150    5.0980  -59.3820 C   0  0  0  0  0  0  0  0  0  0  0  0
   10.3490    4.5330  -60.6330 C   0  0  0  0  0  0  0  0  0  0  0  0
    9.9860    3.2100  -60.8780 C   0  0  0  0  0  0  0  0  0  0  0  0
    9.3880    2.4510  -59.8700 C   0  0  0  0  0  0  0  0  0  0  0  0
    5.4597    3.4152  -57.7329 H   0  0  0  0  0  0  0  0  0  0  0  0
    6.7673    3.5382  -58.9584 H   0  0  0  0  0  0  0  0  0  0  0  0
    5.6671    2.1183  -58.9584 H   0  0  0  0  0  0  0  0  0  0  0  0
    7.5250   -1.7770  -55.3380 H   0  0  0  0  0  0  0  0  0  0  0  0
    5.4188   -1.9485  -53.2652 H   0  0  0  0  0  0  0  0  0  0  0  0
    6.1523   -3.3141  -54.1926 H   0  0  0  0  0  0  0  0  0  0  0  0
    9.0859   -2.3422  -53.6315 H   0  0  0  0  0  0  0  0  0  0  0  0
   10.6015   -2.8844  -51.7304 H   0  0  0  0  0  0  0  0  0  0  0  0
    9.6482   -3.5458  -49.5223 H   0  0  0  0  0  0  0  0  0  0  0  0
    7.1774   -3.6680  -49.2169 H   0  0  0  0  0  0  0  0  0  0  0  0
    5.6553   -3.1266  -51.1152 H   0  0  0  0  0  0  0  0  0  0  0  0
   11.1559    1.4745  -55.6099 H   0  0  0  0  0  0  0  0  0  0  0  0
   11.1234    0.5764  -57.1653 H   0  0  0  0  0  0  0  0  0  0  0  0
   11.1305    2.3727  -57.1653 H   0  0  0  0  0  0  0  0  0  0  0  0
    9.3350    4.7928  -57.3872 H   0  0  0  0  0  0  0  0  0  0  0  0
   10.4014    6.1423  -59.1884 H   0  0  0  0  0  0  0  0  0  0  0  0
   10.8201    5.1306  -61.4274 H   0  0  0  0  0  0  0  0  0  0  0  0
   10.1707    2.7633  -61.8661 H   0  0  0  0  0  0  0  0  0  0  0  0
    9.1038    1.4073  -60.0699 H   0  0  0  0  0  0  0  0  0  0  0  0
  1  2  1  0
  2  3  1  0
  3  4  2  0
  4  5  1  0
  5  6  2  0
  5  7  1  0
  7  8  1  0
  8  9  1  0
  9 10  2  0
 10 11  1  0
 11 12  2  0
 12 13  1  0
 13 14  2  0
  4 15  1  0
 15 16  2  0
 16 17  1  0
 16 18  1  0
 18 19  1  0
 19 20  2  0
 20 21  1  0
 21 22  2  0
 22 23  1  0
 23 24  2  0
 18  2  2  0
 24 19  1  0
 14  9  1  0
  1 25  1  0
  1 26  1  0
  1 27  1  0
  7 28  1  0
  8 29  1  0
  8 30  1  0
 10 31  1  0
 11 32  1  0
 12 33  1  0
 13 34  1  0
 14 35  1  0
 17 36  1  0
 17 37  1  0
 17 38  1  0
 20 39  1  0
 21 40  1  0
 22 41  1  0
 23 42  1  0
 24 43  1  0
M  END
>  <meeko>  (34) 
{"is_sidechain": false}

$$$$

     RDKit          3D

 37 39  0  0  0  0  0  0  0  0999 V2000
    9.5930    3.0720  -61.5910 C   0  0  0  0  0  0  0  0  0  0  0  0
    8.8390    3.3670  -60.3230 C   0  0  0  0  0  0  0  0  0  0  0  0
    7.5670    2.9080  -60.2820 N   0  0  0  0  0  0  0  0  0  0  0  0
    6.8740    3.1640  -59.1490 C   0  0  0  0  0  0  0  0  0  0  0  0
    5.4540    2.6510  -59.1040 C   0  0  0  0  0  0  0  0  0  0  0  0
    4.8170    2.5510  -58.0600 O   0  0  0  0  0  0  0  0  0  0  0  0
    4.9440    2.3080  -60.3500 N   0  0  0  0  0  0  0  0  0  0  0  0
    3.6320    1.7900  -60.5380 C   0  0  0  0  0  0  0  0  0  0  0  0
    3.3440    0.8420  -61.6690 C   0  0  0  0  0  0  0  0  0  0  0  0
    2.7900    2.2360  -61.7020 C   0  0  0  0  0  0  0  0  0  0  0  0
    7.3410    3.8280  -58.0790 N   0  0  0  0  0  0  0  0  0  0  0  0
    8.6150    4.2750  -58.1510 C   0  0  0  0  0  0  0  0  0  0  0  0
    9.1070    5.0150  -56.9370 C   0  0  0  0  0  0  0  0  0  0  0  0
    9.4310    4.0720  -59.2680 C   0  0  0  0  0  0  0  0  0  0  0  0
   10.8120    4.5630  -59.3300 C   0  0  0  0  0  0  0  0  0  0  0  0
   11.8790    3.7600  -58.8970 C   0  0  0  0  0  0  0  0  0  0  0  0
   13.1930    4.2280  -58.9550 C   0  0  0  0  0  0  0  0  0  0  0  0
   13.4580    5.5050  -59.4470 C   0  0  0  0  0  0  0  0  0  0  0  0
   12.4100    6.3140  -59.8820 C   0  0  0  0  0  0  0  0  0  0  0  0
   11.0950    5.8470  -59.8240 C   0  0  0  0  0  0  0  0  0  0  0  0
   10.5908    2.6816  -61.3419 H   0  0  0  0  0  0  0  0  0  0  0  0
    9.0425    2.3229  -62.1791 H   0  0  0  0  0  0  0  0  0  0  0  0
    9.6970    3.9957  -62.1791 H   0  0  0  0  0  0  0  0  0  0  0  0
    5.5640    2.4400  -61.1440 H   0  0  0  0  0  0  0  0  0  0  0  0
    3.4983    1.7665  -59.4464 H   0  0  0  0  0  0  0  0  0  0  0  0
    4.1476    0.5533  -62.3624 H   0  0  0  0  0  0  0  0  0  0  0  0
    2.9138   -0.1674  -61.7467 H   0  0  0  0  0  0  0  0  0  0  0  0
    3.1877    2.9689  -62.4194 H   0  0  0  0  0  0  0  0  0  0  0  0
    1.7859    2.6712  -61.8137 H   0  0  0  0  0  0  0  0  0  0  0  0
    8.7636    4.4985  -56.0286 H   0  0  0  0  0  0  0  0  0  0  0  0
   10.2065    5.0465  -56.9474 H   0  0  0  0  0  0  0  0  0  0  0  0
    8.7107    6.0411  -56.9474 H   0  0  0  0  0  0  0  0  0  0  0  0
   11.6775    2.7511  -58.5078 H   0  0  0  0  0  0  0  0  0  0  0  0
   14.0198    3.5886  -58.6122 H   0  0  0  0  0  0  0  0  0  0  0  0
   14.4934    5.8738  -59.4918 H   0  0  0  0  0  0  0  0  0  0  0  0
   12.6187    7.3214  -60.2714 H   0  0  0  0  0  0  0  0  0  0  0  0
   10.2727    6.4912  -60.1687 H   0  0  0  0  0  0  0  0  0  0  0  0
  1  2  1  0
  2  3  1  0
  3  4  2  0
  4  5  1  0
  5  6  2  0
  5  7  1  0
  7  8  1  0
  8  9  1  0
  9 10  1  0
  4 11  1  0
 11 12  2  0
 12 13  1  0
 12 14  1  0
 14 15  1  0
 15 16  2  0
 16 17  1  0
 17 18  2  0
 18 19  1  0
 19 20  2  0
 14  2  2  0
 20 15  1  0
 10  8  1  0
  1 21  1  0
  1 22  1  0
  1 23  1  0
  7 24  1  0
  8 25  1  0
  9 26  1  0
  9 27  1  0
 10 28  1  0
 10 29  1  0
 13 30  1  0
 13 31  1  0
 13 32  1  0
 16 33  1  0
 17 34  1  0
 18 35  1  0
 19 36  1  0
 20 37  1  0
M  END
>  <meeko>  (35) 
{"is_sidechain": false}

$$$$

     RDKit          3D

 43 45  0  0  0  0  0  0  0  0999 V2000
    5.6100   -0.6910  -53.4530 C   0  0  0  0  0  0  0  0  0  0  0  0
    7.0370   -0.5480  -53.9090 C   0  0  0  0  0  0  0  0  0  0  0  0
    7.2550    0.4110  -54.8380 N   0  0  0  0  0  0  0  0  0  0  0  0
    8.5340    0.5560  -55.2570 C   0  0  0  0  0  0  0  0  0  0  0  0
    8.7780    1.6240  -56.3000 C   0  0  0  0  0  0  0  0  0  0  0  0
    7.8830    2.3310  -56.7510 O   0  0  0  0  0  0  0  0  0  0  0  0
   10.1050    1.7440  -56.6920 N   0  0  0  0  0  0  0  0  0  0  0  0
   10.5560    2.8160  -57.5470 C   0  0  0  0  0  0  0  0  0  0  0  0
   12.0630    3.0530  -57.4550 C   0  0  0  0  0  0  0  0  0  0  0  0
   12.4500    3.6980  -58.7860 C   0  0  0  0  0  0  0  0  0  0  0  0
   11.2470    3.5290  -59.7130 C   0  0  0  0  0  0  0  0  0  0  0  0
   10.3480    2.5150  -59.0250 C   0  0  0  0  0  0  0  0  0  0  0  0
    9.5840   -0.1660  -54.8360 N   0  0  0  0  0  0  0  0  0  0  0  0
    9.3310   -1.1170  -53.9090 C   0  0  0  0  0  0  0  0  0  0  0  0
   10.5270   -1.9090  -53.4570 C   0  0  0  0  0  0  0  0  0  0  0  0
    8.0530   -1.3600  -53.3950 C   0  0  0  0  0  0  0  0  0  0  0  0
    7.7970   -2.3960  -52.3870 C   0  0  0  0  0  0  0  0  0  0  0  0
    7.4250   -3.6940  -52.7720 C   0  0  0  0  0  0  0  0  0  0  0  0
    7.1810   -4.6790  -51.8130 C   0  0  0  0  0  0  0  0  0  0  0  0
    7.3030   -4.3780  -50.4570 C   0  0  0  0  0  0  0  0  0  0  0  0
    7.6710   -3.0950  -50.0600 C   0  0  0  0  0  0  0  0  0  0  0  0
    7.9160   -2.1100  -51.0180 C   0  0  0  0  0  0  0  0  0  0  0  0
    5.5750   -0.6945  -52.3536 H   0  0  0  0  0  0  0  0  0  0  0  0
    5.0164    0.1522  -53.8361 H   0  0  0  0  0  0  0  0  0  0  0  0
    5.1955   -1.6352  -53.8361 H   0  0  0  0  0  0  0  0  0  0  0  0
   10.7750    1.1950  -56.1600 H   0  0  0  0  0  0  0  0  0  0  0  0
    9.9671    3.6771  -57.1981 H   0  0  0  0  0  0  0  0  0  0  0  0
   12.2970    3.7267  -56.6175 H   0  0  0  0  0  0  0  0  0  0  0  0
   12.6156    2.1190  -57.2750 H   0  0  0  0  0  0  0  0  0  0  0  0
   12.6717    4.7656  -58.6412 H   0  0  0  0  0  0  0  0  0  0  0  0
   13.3496    3.2282  -59.2103 H   0  0  0  0  0  0  0  0  0  0  0  0
   10.7209    4.4867  -59.8395 H   0  0  0  0  0  0  0  0  0  0  0  0
   11.5475    3.1951  -60.7171 H   0  0  0  0  0  0  0  0  0  0  0  0
    9.2964    2.6598  -59.3133 H   0  0  0  0  0  0  0  0  0  0  0  0
   10.5859    1.4748  -59.2921 H   0  0  0  0  0  0  0  0  0  0  0  0
   10.5587   -1.9300  -52.3577 H   0  0  0  0  0  0  0  0  0  0  0  0
   10.4526   -2.9370  -53.8414 H   0  0  0  0  0  0  0  0  0  0  0  0
   11.4444   -1.4393  -53.8414 H   0  0  0  0  0  0  0  0  0  0  0  0
    7.3248   -3.9374  -53.8400 H   0  0  0  0  0  0  0  0  0  0  0  0
    6.8924   -5.6929  -52.1273 H   0  0  0  0  0  0  0  0  0  0  0  0
    7.1087   -5.1535  -49.7014 H   0  0  0  0  0  0  0  0  0  0  0  0
    7.7687   -2.8576  -48.9904 H   0  0  0  0  0  0  0  0  0  0  0  0
    8.2055   -1.0986  -50.6967 H   0  0  0  0  0  0  0  0  0  0  0  0
  1  2  1  0
  2  3  1  0
  3  4  2  0
  4  5  1  0
  5  6  2  0
  5  7  1  0
  7  8  1  0
  8  9  1  0
  9 10  1  0
 10 11  1  0
 11 12  1  0
  4 13  1  0
 13 14  2  0
 14 15  1  0
 14 16  1  0
 16 17  1  0
 17 18  2  0
 18 19  1  0
 19 20  2  0
 20 21  1  0
 21 22  2  0
 16  2  2  0
 22 17  1  0
 12  8  1  0
  1 23  1  0
  1 24  1  0
  1 25  1  0
  7 26  1  0
  8 27  1  0
  9 28  1  0
  9 29  1  0
 10 30  1  0
 10 31  1  0
 11 32  1  0
 11 33  1  0
 12 34  1  0
 12 35  1  0
 15 36  1  0
 15 37  1  0
 15 38  1  0
 18 39  1  0
 19 40  1  0
 20 41  1  0
 21 42  1  0
 22 43  1  0
M  END
>  <meeko>  (36) 
{"is_sidechain": false}

$$$$

     RDKit          3D

 49 51  0  0  0  0  0  0  0  0999 V2000
    6.2740    2.9450  -58.3420 C   0  0  0  0  0  0  0  0  0  0  0  0
    7.2390    2.2260  -57.4420 C   0  0  0  0  0  0  0  0  0  0  0  0
    6.6760    1.5100  -56.4440 N   0  0  0  0  0  0  0  0  0  0  0  0
    7.5170    0.8570  -55.6240 C   0  0  0  0  0  0  0  0  0  0  0  0
    6.9200    0.0410  -54.4970 C   0  0  0  0  0  0  0  0  0  0  0  0
    5.7860   -0.4230  -54.5440 O   0  0  0  0  0  0  0  0  0  0  0  0
    7.7690   -0.1370  -53.4140 N   0  0  0  0  0  0  0  0  0  0  0  0
    7.4200   -0.9190  -52.2490 C   0  0  0  0  0  0  0  0  0  0  0  0
    7.8670   -2.3860  -52.3830 C   0  0  0  0  0  0  0  0  0  0  0  0
    8.9320   -2.7360  -51.3210 C   0  0  0  0  0  0  0  0  0  0  0  0
    8.3320   -3.4410  -50.1090 C   0  0  0  0  0  0  0  0  0  0  0  0
    7.6560   -4.7580  -50.4950 C   0  0  0  0  0  0  0  0  0  0  0  0
    7.0750   -4.7500  -51.9100 C   0  0  0  0  0  0  0  0  0  0  0  0
    6.6620   -3.3490  -52.3390 C   0  0  0  0  0  0  0  0  0  0  0  0
    8.8660    0.8550  -55.7140 N   0  0  0  0  0  0  0  0  0  0  0  0
    9.3980    1.5820  -56.7230 C   0  0  0  0  0  0  0  0  0  0  0  0
   10.9000    1.5690  -56.8070 C   0  0  0  0  0  0  0  0  0  0  0  0
    8.6220    2.3030  -57.6380 C   0  0  0  0  0  0  0  0  0  0  0  0
    9.2180    3.0850  -58.7280 C   0  0  0  0  0  0  0  0  0  0  0  0
    9.6050    4.4190  -58.5240 C   0  0  0  0  0  0  0  0  0  0  0  0
   10.1730    5.1630  -59.5600 C   0  0  0  0  0  0  0  0  0  0  0  0
   10.3600    4.5830  -60.8130 C   0  0  0  0  0  0  0  0  0  0  0  0
    9.9800    3.2600  -61.0320 C   0  0  0  0  0  0  0  0  0  0  0  0
    9.4120    2.5150  -59.9960 C   0  0  0  0  0  0  0  0  0  0  0  0
    5.5405    3.4915  -57.7311 H   0  0  0  0  0  0  0  0  0  0  0  0
    6.8242    3.6551  -58.9769 H   0  0  0  0  0  0  0  0  0  0  0  0
    5.7510    2.2147  -58.9769 H   0  0  0  0  0  0  0  0  0  0  0  0
    8.6940    0.2770  -53.4930 H   0  0  0  0  0  0  0  0  0  0  0  0
    7.9075   -0.4785  -51.3668 H   0  0  0  0  0  0  0  0  0  0  0  0
    6.3248   -0.9059  -52.1471 H   0  0  0  0  0  0  0  0  0  0  0  0
    8.3359   -2.5116  -53.3701 H   0  0  0  0  0  0  0  0  0  0  0  0
    9.6835   -3.3965  -51.7781 H   0  0  0  0  0  0  0  0  0  0  0  0
    9.3823   -1.7945  -50.9735 H   0  0  0  0  0  0  0  0  0  0  0  0
    9.1340   -3.6509  -49.3860 H   0  0  0  0  0  0  0  0  0  0  0  0
    7.5689   -2.7801  -49.6720 H   0  0  0  0  0  0  0  0  0  0  0  0
    8.4006   -5.5649  -50.4282 H   0  0  0  0  0  0  0  0  0  0  0  0
    6.8168   -4.9085  -49.7999 H   0  0  0  0  0  0  0  0  0  0  0  0
    7.8348   -5.1281  -52.6099 H   0  0  0  0  0  0  0  0  0  0  0  0
    6.1802   -5.3897  -51.9178 H   0  0  0  0  0  0  0  0  0  0  0  0
    6.2111   -3.4016  -53.3410 H   0  0  0  0  0  0  0  0  0  0  0  0
    5.9422   -2.9634  -51.6020 H   0  0  0  0  0  0  0  0  0  0  0  0
   11.3240    1.5653  -55.7920 H   0  0  0  0  0  0  0  0  0  0  0  0
   11.2294    0.6680  -57.3452 H   0  0  0  0  0  0  0  0  0  0  0  0
   11.2449    2.4642  -57.3452 H   0  0  0  0  0  0  0  0  0  0  0  0
    9.4592    4.8830  -57.5374 H   0  0  0  0  0  0  0  0  0  0  0  0
   10.4729    6.2071  -59.3870 H   0  0  0  0  0  0  0  0  0  0  0  0
   10.8075    5.1691  -61.6292 H   0  0  0  0  0  0  0  0  0  0  0  0
   10.1275    2.8023  -62.0213 H   0  0  0  0  0  0  0  0  0  0  0  0
    9.1138    1.4715  -60.1755 H   0  0  0  0  0  0  0  0  0  0  0  0
  1  2  1  0
  2  3  1  0
  3  4  2  0
  4  5  1  0
  5  6  2  0
  5  7  1  0
  7  8  1  0
  8  9  1  0
  9 10  1  0
 10 11  1  0
 11 12  1  0
 12 13  1  0
 13 14  1  0
  4 15  1  0
 15 16  2  0
 16 17  1  0
 16 18  1  0
 18 19  1  0
 19 20  2  0
 20 21  1  0
 21 22  2  0
 22 23  1  0
 23 24  2  0
 18  2  2  0
 24 19  1  0
 14  9  1  0
  1 25  1  0
  1 26  1  0
  1 27  1  0
  7 28  1  0
  8 29  1  0
  8 30  1  0
  9 31  1  0
 10 32  1  0
 10 33  1  0
 11 34  1  0
 11 35  1  0
 12 36  1  0
 12 37  1  0
 13 38  1  0
 13 39  1  0
 14 40  1  0
 14 41  1  0
 17 42  1  0
 17 43  1  0
 17 44  1  0
 20 45  1  0
 21 46  1  0
 22 47  1  0
 23 48  1  0
 24 49  1  0
M  END
>  <meeko>  (37) 
{"is_sidechain": false}

$$$$

     RDKit          3D

 49 53  0  0  0  0  0  0  0  0999 V2000
    7.5810    1.9820  -56.1640 O   0  0  0  0  0  0  0  0  0  0  0  0
    8.6910    1.4620  -56.1900 C   0  0  0  0  0  0  0  0  0  0  0  0
    9.6940    1.8900  -57.0540 N   0  0  0  0  0  0  0  0  0  0  0  0
    9.5170    2.9470  -58.0600 C   0  0  2  0  0  0  0  0  0  0  0  0
    8.3900    2.6000  -59.0640 C   0  0  0  0  0  0  0  0  0  0  0  0
    8.2710    3.6920  -60.1420 C   0  0  1  0  0  0  0  0  0  0  0  0
    7.9680    5.0410  -59.4670 C   0  0  0  0  0  0  0  0  0  0  0  0
    9.1000    5.4150  -58.4960 C   0  0  2  0  0  0  0  0  0  0  0  0
   10.4230    5.5100  -59.2710 C   0  0  0  0  0  0  0  0  0  0  0  0
   10.7360    4.1630  -59.9390 C   0  0  2  0  0  0  0  0  0  0  0  0
    9.6000    3.7980  -60.9070 C   0  0  0  0  0  0  0  0  0  0  0  0
   10.8440    3.0780  -58.8560 C   0  0  0  0  0  0  0  0  0  0  0  0
    9.2210    4.3260  -57.4150 C   0  0  0  0  0  0  0  0  0  0  0  0
    9.0790    0.3520  -55.3430 C   0  0  0  0  0  0  0  0  0  0  0  0
    8.5280    0.0590  -54.1810 N   0  0  0  0  0  0  0  0  0  0  0  0
    9.1470   -1.0640  -53.6800 N   0  0  0  0  0  0  0  0  0  0  0  0
   10.0870   -1.4260  -54.5260 C   0  0  0  0  0  0  0  0  0  0  0  0
   11.0280   -2.5730  -54.3900 C   0  0  0  0  0  0  0  0  0  0  0  0
   11.2130   -3.3610  -55.6690 C   0  0  0  0  0  0  0  0  0  0  0  0
   11.6940   -2.7300  -56.8260 C   0  0  0  0  0  0  0  0  0  0  0  0
   11.9070   -3.4640  -57.9930 C   0  0  0  0  0  0  0  0  0  0  0  0
   11.6460   -4.8330  -58.0150 C   0  0  0  0  0  0  0  0  0  0  0  0
   11.1690   -5.4700  -56.8710 C   0  0  0  0  0  0  0  0  0  0  0  0
   10.9530   -4.7390  -55.7020 C   0  0  0  0  0  0  0  0  0  0  0  0
   10.0840   -0.5490  -55.5790 N   0  0  0  0  0  0  0  0  0  0  0  0
   10.4130    1.2110  -57.2610 H   0  0  0  0  0  0  0  0  0  0  0  0
    8.6192    1.6386  -59.5468 H   0  0  0  0  0  0  0  0  0  0  0  0
    7.4369    2.5339  -58.5189 H   0  0  0  0  0  0  0  0  0  0  0  0
    7.4605    3.4350  -60.8399 H   0  0  0  0  0  0  0  0  0  0  0  0
    7.8779    5.8208  -60.2376 H   0  0  0  0  0  0  0  0  0  0  0  0
    7.0260    4.9576  -58.9051 H   0  0  0  0  0  0  0  0  0  0  0  0
    8.8782    6.3833  -58.0236 H   0  0  0  0  0  0  0  0  0  0  0  0
   10.3382    6.2889  -60.0431 H   0  0  0  0  0  0  0  0  0  0  0  0
   11.2339    5.7648  -58.5728 H   0  0  0  0  0  0  0  0  0  0  0  0
   11.6839    4.2352  -60.4924 H   0  0  0  0  0  0  0  0  0  0  0  0
    9.5148    4.5770  -61.6789 H   0  0  0  0  0  0  0  0  0  0  0  0
    9.8239    2.8293  -61.3776 H   0  0  0  0  0  0  0  0  0  0  0  0
   11.0722    2.1143  -59.3347 H   0  0  0  0  0  0  0  0  0  0  0  0
   11.6440    3.3618  -58.1564 H   0  0  0  0  0  0  0  0  0  0  0  0
   10.0399    4.5873  -56.7287 H   0  0  0  0  0  0  0  0  0  0  0  0
    8.2697    4.2639  -56.8662 H   0  0  0  0  0  0  0  0  0  0  0  0
   12.0079   -2.1834  -54.0769 H   0  0  0  0  0  0  0  0  0  0  0  0
   10.5939   -3.2597  -53.6484 H   0  0  0  0  0  0  0  0  0  0  0  0
   11.9044   -1.6504  -56.8129 H   0  0  0  0  0  0  0  0  0  0  0  0
   12.2815   -2.9617  -58.8971 H   0  0  0  0  0  0  0  0  0  0  0  0
   11.8166   -5.4106  -58.9355 H   0  0  0  0  0  0  0  0  0  0  0  0
   10.9625   -6.5503  -56.8894 H   0  0  0  0  0  0  0  0  0  0  0  0
   10.5767   -5.2463  -54.8014 H   0  0  0  0  0  0  0  0  0  0  0  0
   10.7120   -0.5560  -56.3680 H   0  0  0  0  0  0  0  0  0  0  0  0
  1  2  2  0
  2  3  1  0
  4  3  1  1
  4  5  1  0
  5  6  1  0
  6  7  1  0
  7  8  1  0
  8  9  1  0
  9 10  1  0
 10 11  1  0
 10 12  1  0
  8 13  1  0
  2 14  1  0
 14 15  2  0
 15 16  1  0
 16 17  2  0
 17 18  1  0
 18 19  1  0
 19 20  2  0
 20 21  1  0
 21 22  2  0
 22 23  1  0
 23 24  2  0
 17 25  1  0
 12  4  1  0
 25 14  1  0
 13  4  1  0
 24 19  1  0
 11  6  1  0
  3 26  1  0
  5 27  1  0
  5 28  1  0
  6 29  1  6
  7 30  1  0
  7 31  1  0
  8 32  1  1
  9 33  1  0
  9 34  1  0
 10 35  1  6
 11 36  1  0
 11 37  1  0
 12 38  1  0
 12 39  1  0
 13 40  1  0
 13 41  1  0
 18 42  1  0
 18 43  1  0
 20 44  1  0
 21 45  1  0
 22 46  1  0
 23 47  1  0
 24 48  1  0
 25 49  1  0
M  END
>  <meeko>  (38) 
{"is_sidechain": false}

$$$$

     RDKit          3D

 49 53  0  0  0  0  0  0  0  0999 V2000
    6.9030    1.8580  -56.4980 O   0  0  0  0  0  0  0  0  0  0  0  0
    8.0020    1.4860  -56.1010 C   0  0  0  0  0  0  0  0  0  0  0  0
    9.1910    1.9370  -56.6650 N   0  0  0  0  0  0  0  0  0  0  0  0
    9.2570    2.8470  -57.8180 C   0  0  2  0  0  0  0  0  0  0  0  0
    8.7590    4.2740  -57.4680 C   0  0  0  0  0  0  0  0  0  0  0  0
    8.8990    5.2110  -58.6810 C   0  0  1  0  0  0  0  0  0  0  0  0
   10.3770    5.2950  -59.0900 C   0  0  0  0  0  0  0  0  0  0  0  0
   10.8990    3.8990  -59.4620 C   0  0  2  0  0  0  0  0  0  0  0  0
   10.0750    3.3430  -60.6340 C   0  0  0  0  0  0  0  0  0  0  0  0
    8.5930    3.2460  -60.2350 C   0  0  2  0  0  0  0  0  0  0  0  0
    8.0800    4.6460  -59.8540 C   0  0  0  0  0  0  0  0  0  0  0  0
    8.4520    2.3060  -59.0240 C   0  0  0  0  0  0  0  0  0  0  0  0
   10.7460    2.9660  -58.2500 C   0  0  0  0  0  0  0  0  0  0  0  0
    8.1830    0.5340  -55.0230 C   0  0  0  0  0  0  0  0  0  0  0  0
    9.1410   -0.3690  -54.9470 N   0  0  0  0  0  0  0  0  0  0  0  0
    8.8730   -1.0350  -53.7740 C   0  0  0  0  0  0  0  0  0  0  0  0
    9.7240   -2.1500  -53.2800 C   0  0  0  0  0  0  0  0  0  0  0  0
    8.8610   -2.9640  -52.3450 C   0  0  0  0  0  0  0  0  0  0  0  0
    9.1070   -2.9640  -50.9640 C   0  0  0  0  0  0  0  0  0  0  0  0
    8.3070   -3.7150  -50.1010 C   0  0  0  0  0  0  0  0  0  0  0  0
    7.2540   -4.4740  -50.6090 C   0  0  0  0  0  0  0  0  0  0  0  0
    7.0030   -4.4890  -51.9800 C   0  0  0  0  0  0  0  0  0  0  0  0
    7.8030   -3.7390  -52.8450 C   0  0  0  0  0  0  0  0  0  0  0  0
    7.8210   -0.5520  -53.0940 N   0  0  0  0  0  0  0  0  0  0  0  0
    7.3720    0.3910  -53.9360 N   0  0  0  0  0  0  0  0  0  0  0  0
    9.9860    1.3230  -56.5560 H   0  0  0  0  0  0  0  0  0  0  0  0
    7.7013    4.2245  -57.1700 H   0  0  0  0  0  0  0  0  0  0  0  0
    9.3695    4.6695  -56.6429 H   0  0  0  0  0  0  0  0  0  0  0  0
    8.5302    6.2137  -58.4190 H   0  0  0  0  0  0  0  0  0  0  0  0
   10.4776    5.9645  -59.9569 H   0  0  0  0  0  0  0  0  0  0  0  0
   10.9636    5.6869  -58.2460 H   0  0  0  0  0  0  0  0  0  0  0  0
   11.9578    3.9641  -59.7529 H   0  0  0  0  0  0  0  0  0  0  0  0
   10.1759    4.0130  -61.5006 H   0  0  0  0  0  0  0  0  0  0  0  0
   10.4459    2.3403  -60.8928 H   0  0  0  0  0  0  0  0  0  0  0  0
    8.0067    2.8518  -61.0781 H   0  0  0  0  0  0  0  0  0  0  0  0
    8.1763    5.3165  -60.7207 H   0  0  0  0  0  0  0  0  0  0  0  0
    7.0249    4.5717  -59.5520 H   0  0  0  0  0  0  0  0  0  0  0  0
    7.3904    2.2315  -58.7459 H   0  0  0  0  0  0  0  0  0  0  0  0
    8.8444    1.3152  -59.2966 H   0  0  0  0  0  0  0  0  0  0  0  0
   11.1237    1.9676  -58.5156 H   0  0  0  0  0  0  0  0  0  0  0  0
   11.3200    3.3867  -57.4112 H   0  0  0  0  0  0  0  0  0  0  0  0
   10.0634   -2.7712  -54.1219 H   0  0  0  0  0  0  0  0  0  0  0  0
   10.6197   -1.7704  -52.7666 H   0  0  0  0  0  0  0  0  0  0  0  0
    9.9371   -2.3674  -50.5578 H   0  0  0  0  0  0  0  0  0  0  0  0
    8.5077   -3.7078  -49.0195 H   0  0  0  0  0  0  0  0  0  0  0  0
    6.6209   -5.0613  -49.9277 H   0  0  0  0  0  0  0  0  0  0  0  0
    6.1747   -5.0917  -52.3808 H   0  0  0  0  0  0  0  0  0  0  0  0
    7.6023   -3.7558  -53.9264 H   0  0  0  0  0  0  0  0  0  0  0  0
    6.5160    0.8860  -53.7180 H   0  0  0  0  0  0  0  0  0  0  0  0
  1  2  2  0
  2  3  1  0
  4  3  1  1
  4  5  1  0
  5  6  1  0
  6  7  1  0
  7  8  1  0
  8  9  1  0
  9 10  1  0
 10 11  1  0
 10 12  1  0
  8 13  1  0
  2 14  1  0
 14 15  2  0
 15 16  1  0
 16 17  1  0
 17 18  1  0
 18 19  2  0
 19 20  1  0
 20 21  2  0
 21 22  1  0
 22 23  2  0
 16 24  2  0
 24 25  1  0
 12  4  1  0
 25 14  1  0
 13  4  1  0
 23 18  1  0
 11  6  1  0
  3 26  1  0
  5 27  1  0
  5 28  1  0
  6 29  1  1
  7 30  1  0
  7 31  1  0
  8 32  1  6
  9 33  1  0
  9 34  1  0
 10 35  1  6
 11 36  1  0
 11 37  1  0
 12 38  1  0
 12 39  1  0
 13 40  1  0
 13 41  1  0
 17 42  1  0
 17 43  1  0
 19 44  1  0
 20 45  1  0
 21 46  1  0
 22 47  1  0
 23 48  1  0
 25 49  1  0
M  END
>  <meeko>  (39) 
{"is_sidechain": false}

$$$$

     RDKit          3D

 49 53  0  0  0  0  0  0  0  0999 V2000
    6.2790    2.2210  -56.5350 O   0  0  0  0  0  0  0  0  0  0  0  0
    7.3210    1.6160  -56.3020 C   0  0  0  0  0  0  0  0  0  0  0  0
    8.5400    1.9340  -56.8740 N   0  0  0  0  0  0  0  0  0  0  0  0
    8.7880    3.0130  -57.8270 C   0  0  2  0  0  0  0  0  0  0  0  0
   10.1900    2.7990  -58.4570 C   0  0  0  0  0  0  0  0  0  0  0  0
   10.5120    3.9060  -59.4730 C   0  0  1  0  0  0  0  0  0  0  0  0
    9.4530    3.8910  -60.5880 C   0  0  0  0  0  0  0  0  0  0  0  0
    8.0580    4.1270  -59.9880 C   0  0  2  0  0  0  0  0  0  0  0  0
    8.0370    5.4870  -59.2690 C   0  0  0  0  0  0  0  0  0  0  0  0
    9.0940    5.5120  -58.1520 C   0  0  2  0  0  0  0  0  0  0  0  0
   10.4840    5.2680  -58.7620 C   0  0  0  0  0  0  0  0  0  0  0  0
    8.7820    4.3990  -57.1360 C   0  0  0  0  0  0  0  0  0  0  0  0
    7.7460    3.0130  -58.9730 C   0  0  0  0  0  0  0  0  0  0  0  0
    7.4070    0.4630  -55.3750 C   0  0  0  0  0  0  0  0  0  0  0  0
    6.3150   -0.2190  -54.9630 N   0  0  0  0  0  0  0  0  0  0  0  0
    6.8590   -1.1470  -54.1580 N   0  0  0  0  0  0  0  0  0  0  0  0
    8.2180   -1.0270  -54.0880 C   0  0  0  0  0  0  0  0  0  0  0  0
    9.1020   -1.9130  -53.2760 C   0  0  0  0  0  0  0  0  0  0  0  0
    8.3730   -2.7470  -52.2470 C   0  0  0  0  0  0  0  0  0  0  0  0
    7.8010   -3.9770  -52.6040 C   0  0  0  0  0  0  0  0  0  0  0  0
    7.0880   -4.7230  -51.6660 C   0  0  0  0  0  0  0  0  0  0  0  0
    6.9350   -4.2450  -50.3660 C   0  0  0  0  0  0  0  0  0  0  0  0
    7.4950   -3.0230  -50.0000 C   0  0  0  0  0  0  0  0  0  0  0  0
    8.2100   -2.2740  -50.9360 C   0  0  0  0  0  0  0  0  0  0  0  0
    8.5890   -0.0180  -54.8480 N   0  0  0  0  0  0  0  0  0  0  0  0
    9.3080    1.3360  -56.5770 H   0  0  0  0  0  0  0  0  0  0  0  0
   10.9481    2.8106  -57.6600 H   0  0  0  0  0  0  0  0  0  0  0  0
   10.1953    1.8312  -58.9798 H   0  0  0  0  0  0  0  0  0  0  0  0
   11.5085    3.7361  -59.9067 H   0  0  0  0  0  0  0  0  0  0  0  0
    9.6769    4.6862  -61.3143 H   0  0  0  0  0  0  0  0  0  0  0  0
    9.4702    2.9126  -61.0905 H   0  0  0  0  0  0  0  0  0  0  0  0
    7.3051    4.1198  -60.7899 H   0  0  0  0  0  0  0  0  0  0  0  0
    8.2552    6.2850  -59.9940 H   0  0  0  0  0  0  0  0  0  0  0  0
    7.0424    5.6444  -58.8264 H   0  0  0  0  0  0  0  0  0  0  0  0
    9.0786    6.4897  -57.6482 H   0  0  0  0  0  0  0  0  0  0  0  0
   10.7082    6.0631  -59.4883 H   0  0  0  0  0  0  0  0  0  0  0  0
   11.2371    5.2733  -57.9602 H   0  0  0  0  0  0  0  0  0  0  0  0
    9.5433    4.4104  -56.3421 H   0  0  0  0  0  0  0  0  0  0  0  0
    7.7842    4.5781  -56.7090 H   0  0  0  0  0  0  0  0  0  0  0  0
    6.7440    3.1789  -58.5506 H   0  0  0  0  0  0  0  0  0  0  0  0
    7.7854    2.0420  -59.4885 H   0  0  0  0  0  0  0  0  0  0  0  0
    6.2600   -1.8220  -53.6920 H   0  0  0  0  0  0  0  0  0  0  0  0
    9.6291   -2.5940  -53.9604 H   0  0  0  0  0  0  0  0  0  0  0  0
    9.7837   -1.2527  -52.7199 H   0  0  0  0  0  0  0  0  0  0  0  0
    7.9156   -4.3556  -53.6304 H   0  0  0  0  0  0  0  0  0  0  0  0
    6.6463   -5.6889  -51.9523 H   0  0  0  0  0  0  0  0  0  0  0  0
    6.3710   -4.8336  -49.6275 H   0  0  0  0  0  0  0  0  0  0  0  0
    7.3736   -2.6482  -48.9730 H   0  0  0  0  0  0  0  0  0  0  0  0
    8.6479   -1.3080  -50.6444 H   0  0  0  0  0  0  0  0  0  0  0  0
  1  2  2  0
  2  3  1  0
  4  3  1  1
  4  5  1  0
  5  6  1  0
  6  7  1  0
  7  8  1  0
  8  9  1  0
  9 10  1  0
 10 11  1  0
 10 12  1  0
  8 13  1  0
  2 14  1  0
 14 15  2  0
 15 16  1  0
 16 17  1  0
 17 18  1  0
 18 19  1  0
 19 20  2  0
 20 21  1  0
 21 22  2  0
 22 23  1  0
 23 24  2  0
 17 25  2  0
 12  4  1  0
 25 14  1  0
 13  4  1  0
 24 19  1  0
 11  6  1  0
  3 26  1  0
  5 27  1  0
  5 28  1  0
  6 29  1  6
  7 30  1  0
  7 31  1  0
  8 32  1  6
  9 33  1  0
  9 34  1  0
 10 35  1  1
 11 36  1  0
 11 37  1  0
 12 38  1  0
 12 39  1  0
 13 40  1  0
 13 41  1  0
 16 42  1  0
 18 43  1  0
 18 44  1  0
 20 45  1  0
 21 46  1  0
 22 47  1  0
 23 48  1  0
 24 49  1  0
M  END
>  <meeko>  (40) 
{"is_sidechain": false}

$$$$

     RDKit          3D

 39 42  0  0  0  0  0  0  0  0999 V2000
    2.8040    0.7640  -62.5900 C   0  0  0  0  0  0  0  0  0  0  0  0
    4.0670    1.4790  -62.3170 C   0  0  0  0  0  0  0  0  0  0  0  0
    4.8340    2.1190  -63.1750 N   0  0  0  0  0  0  0  0  0  0  0  0
    5.9090    2.6340  -62.4860 N   0  0  0  0  0  0  0  0  0  0  0  0
    5.7730    2.2970  -61.2180 C   0  0  0  0  0  0  0  0  0  0  0  0
    6.6870    2.6400  -60.1560 C   0  0  0  0  0  0  0  0  0  0  0  0
    6.4240    2.4320  -58.9750 O   0  0  0  0  0  0  0  0  0  0  0  0
    7.8580    3.2120  -60.6010 N   0  0  0  0  0  0  0  0  0  0  0  0
    8.9680    3.6610  -59.7640 C   0  0  2  0  0  0  0  0  0  0  0  0
   10.1080    4.1690  -60.6870 C   0  0  0  0  0  0  0  0  0  0  0  0
   11.3090    4.6580  -59.8640 C   0  0  1  0  0  0  0  0  0  0  0  0
   10.8580    5.8060  -58.9460 C   0  0  0  0  0  0  0  0  0  0  0  0
    9.7460    5.3180  -58.0040 C   0  0  2  0  0  0  0  0  0  0  0  0
   10.2780    4.1510  -57.1530 C   0  0  0  0  0  0  0  0  0  0  0  0
   10.7320    2.9960  -58.0640 C   0  0  2  0  0  0  0  0  0  0  0  0
   11.8380    3.4980  -59.0060 C   0  0  0  0  0  0  0  0  0  0  0  0
    9.5350    2.5080  -58.8980 C   0  0  0  0  0  0  0  0  0  0  0  0
    8.5490    4.8310  -58.8380 C   0  0  0  0  0  0  0  0  0  0  0  0
    4.6260    1.5690  -61.0720 N   0  0  0  0  0  0  0  0  0  0  0  0
    2.3236    0.4920  -61.6386 H   0  0  0  0  0  0  0  0  0  0  0  0
    2.1314    1.4153  -63.1674 H   0  0  0  0  0  0  0  0  0  0  0  0
    3.0163   -0.1479  -63.1674 H   0  0  0  0  0  0  0  0  0  0  0  0
    7.9280    3.3180  -61.6110 H   0  0  0  0  0  0  0  0  0  0  0  0
   10.4324    3.3476  -61.3428 H   0  0  0  0  0  0  0  0  0  0  0  0
    9.7263    5.0113  -61.2826 H   0  0  0  0  0  0  0  0  0  0  0  0
   12.1033    5.0128  -60.5371 H   0  0  0  0  0  0  0  0  0  0  0  0
   11.7144    6.1538  -58.3496 H   0  0  0  0  0  0  0  0  0  0  0  0
   10.4733    6.6320  -59.5622 H   0  0  0  0  0  0  0  0  0  0  0  0
    9.4293    6.1425  -57.3483 H   0  0  0  0  0  0  0  0  0  0  0  0
   11.1319    4.4981  -56.5527 H   0  0  0  0  0  0  0  0  0  0  0  0
    9.4758    3.7933  -56.4908 H   0  0  0  0  0  0  0  0  0  0  0  0
   11.1171    2.1683  -57.4503 H   0  0  0  0  0  0  0  0  0  0  0  0
   12.6942    3.8465  -58.4098 H   0  0  0  0  0  0  0  0  0  0  0  0
   12.1531    2.6753  -59.6647 H   0  0  0  0  0  0  0  0  0  0  0  0
    9.8623    1.6891  -59.5555 H   0  0  0  0  0  0  0  0  0  0  0  0
    8.7471    2.1561  -58.2158 H   0  0  0  0  0  0  0  0  0  0  0  0
    7.7524    4.4886  -58.1611 H   0  0  0  0  0  0  0  0  0  0  0  0
    8.1886    5.6635  -59.4601 H   0  0  0  0  0  0  0  0  0  0  0  0
    4.2800    1.1840  -60.2040 H   0  0  0  0  0  0  0  0  0  0  0  0
  1  2  1  0
  2  3  2  0
  3  4  1  0
  4  5  2  0
  5  6  1  0
  6  7  2  0
  6  8  1  0
  9  8  1  6
  9 10  1  0
 10 11  1  0
 11 12  1  0
 12 13  1  0
 13 14  1  0
 14 15  1  0
 15 16  1  0
 15 17  1  0
 13 18  1  0
  5 19  1  0
 19  2  1  0
 17  9  1  0
 18  9  1  0
 16 11  1  0
  1 20  1  0
  1 21  1  0
  1 22  1  0
  8 23  1  0
 10 24  1  0
 10 25  1  0
 11 26  1  6
 12 27  1  0
 12 28  1  0
 13 29  1  1
 14 30  1  0
 14 31  1  0
 15 32  1  1
 16 33  1  0
 16 34  1  0
 17 35  1  0
 17 36  1  0
 18 37  1  0
 18 38  1  0
 19 39  1  0
M  END
>  <meeko>  (41) 
{"is_sidechain": false}

$$$$

     RDKit          3D

 39 42  0  0  0  0  0  0  0  0999 V2000
    2.7810    0.7640  -62.6000 C   0  0  0  0  0  0  0  0  0  0  0  0
    4.0360    1.4450  -62.2210 C   0  0  0  0  0  0  0  0  0  0  0  0
    4.5770    1.5370  -61.0280 N   0  0  0  0  0  0  0  0  0  0  0  0
    5.7300    2.2700  -61.2360 C   0  0  0  0  0  0  0  0  0  0  0  0
    6.6850    2.6360  -60.1650 C   0  0  0  0  0  0  0  0  0  0  0  0
    6.4530    2.4870  -58.9690 O   0  0  0  0  0  0  0  0  0  0  0  0
    7.8650    3.1640  -60.6590 N   0  0  0  0  0  0  0  0  0  0  0  0
    9.0030    3.6200  -59.8640 C   0  0  2  0  0  0  0  0  0  0  0  0
    8.6180    4.7990  -58.9380 C   0  0  0  0  0  0  0  0  0  0  0  0
    9.8430    5.2910  -58.1500 C   0  0  1  0  0  0  0  0  0  0  0  0
   10.4010    4.1330  -57.3060 C   0  0  0  0  0  0  0  0  0  0  0  0
   10.8210    2.9680  -58.2180 C   0  0  2  0  0  0  0  0  0  0  0  0
   11.8960    3.4570  -59.2030 C   0  0  0  0  0  0  0  0  0  0  0  0
   11.3410    4.6100  -60.0540 C   0  0  2  0  0  0  0  0  0  0  0  0
   10.9230    5.7670  -59.1340 C   0  0  0  0  0  0  0  0  0  0  0  0
   10.1110    4.1140  -60.8320 C   0  0  0  0  0  0  0  0  0  0  0  0
    9.5960    2.4740  -59.0060 C   0  0  0  0  0  0  0  0  0  0  0  0
    5.9120    2.6310  -62.5270 N   0  0  0  0  0  0  0  0  0  0  0  0
    4.8300    2.0960  -63.1170 N   0  0  0  0  0  0  0  0  0  0  0  0
    2.2357    0.4681  -61.6917 H   0  0  0  0  0  0  0  0  0  0  0  0
    2.1581    1.4478  -63.1953 H   0  0  0  0  0  0  0  0  0  0  0  0
    3.0148   -0.1310  -63.1953 H   0  0  0  0  0  0  0  0  0  0  0  0
    7.9030    3.2220  -61.6740 H   0  0  0  0  0  0  0  0  0  0  0  0
    8.2256    5.6252  -59.5490 H   0  0  0  0  0  0  0  0  0  0  0  0
    7.8531    4.4554  -58.2260 H   0  0  0  0  0  0  0  0  0  0  0  0
    9.5501    6.1224  -57.4920 H   0  0  0  0  0  0  0  0  0  0  0  0
   11.2756    4.4847  -56.7391 H   0  0  0  0  0  0  0  0  0  0  0  0
    9.6210    3.7844  -56.6132 H   0  0  0  0  0  0  0  0  0  0  0  0
   11.2246    2.1463  -57.6081 H   0  0  0  0  0  0  0  0  0  0  0  0
   12.7733    3.8087  -58.6402 H   0  0  0  0  0  0  0  0  0  0  0  0
   12.1860    2.6267  -59.8637 H   0  0  0  0  0  0  0  0  0  0  0  0
   12.1131    4.9572  -60.7564 H   0  0  0  0  0  0  0  0  0  0  0  0
   11.7995    6.1195  -58.5706 H   0  0  0  0  0  0  0  0  0  0  0  0
   10.5186    6.5871  -59.7455 H   0  0  0  0  0  0  0  0  0  0  0  0
    9.7143    4.9391  -61.4418 H   0  0  0  0  0  0  0  0  0  0  0  0
   10.4169    3.2738  -61.4728 H   0  0  0  0  0  0  0  0  0  0  0  0
    9.8994    1.6478  -59.6658 H   0  0  0  0  0  0  0  0  0  0  0  0
    8.8308    2.1304  -58.2944 H   0  0  0  0  0  0  0  0  0  0  0  0
    4.7000    2.2110  -64.1170 H   0  0  0  0  0  0  0  0  0  0  0  0
  1  2  1  0
  2  3  2  0
  3  4  1  0
  4  5  1  0
  5  6  2  0
  5  7  1  0
  8  7  1  6
  8  9  1  0
  9 10  1  0
 10 11  1  0
 11 12  1  0
 12 13  1  0
 13 14  1  0
 14 15  1  0
 14 16  1  0
 12 17  1  0
  4 18  2  0
 18 19  1  0
 19  2  1  0
 16  8  1  0
 17  8  1  0
 15 10  1  0
  1 20  1  0
  1 21  1  0
  1 22  1  0
  7 23  1  0
  9 24  1  0
  9 25  1  0
 10 26  1  1
 11 27  1  0
 11 28  1  0
 12 29  1  1
 13 30  1  0
 13 31  1  0
 14 32  1  6
 15 33  1  0
 15 34  1  0
 16 35  1  0
 16 36  1  0
 17 37  1  0
 17 38  1  0
 19 39  1  0
M  END
>  <meeko>  (42) 
{"is_sidechain": false}

$$$$

     RDKit          3D

 39 42  0  0  0  0  0  0  0  0999 V2000
    2.8860    0.7620  -62.5330 C   0  0  0  0  0  0  0  0  0  0  0  0
    4.1430    1.4890  -62.2630 C   0  0  0  0  0  0  0  0  0  0  0  0
    4.8420    2.1070  -63.2230 N   0  0  0  0  0  0  0  0  0  0  0  0
    5.8550    2.6300  -62.5150 N   0  0  0  0  0  0  0  0  0  0  0  0
    5.7830    2.2900  -61.1950 C   0  0  0  0  0  0  0  0  0  0  0  0
    6.7260    2.6770  -60.1660 C   0  0  0  0  0  0  0  0  0  0  0  0
    6.5360    2.4910  -58.9690 O   0  0  0  0  0  0  0  0  0  0  0  0
    7.8830    3.2730  -60.6570 N   0  0  0  0  0  0  0  0  0  0  0  0
    9.0170    3.6800  -59.8130 C   0  0  2  0  0  0  0  0  0  0  0  0
   10.1580    4.1720  -60.7460 C   0  0  0  0  0  0  0  0  0  0  0  0
   11.3880    4.6080  -59.9350 C   0  0  1  0  0  0  0  0  0  0  0  0
   10.9880    5.7540  -58.9930 C   0  0  0  0  0  0  0  0  0  0  0  0
    9.8770    5.2860  -58.0420 C   0  0  2  0  0  0  0  0  0  0  0  0
   10.3820    4.0900  -57.2180 C   0  0  0  0  0  0  0  0  0  0  0  0
   10.7860    2.9360  -58.1520 C   0  0  2  0  0  0  0  0  0  0  0  0
   11.8920    3.4190  -59.1040 C   0  0  0  0  0  0  0  0  0  0  0  0
    9.5620    2.4970  -58.9750 C   0  0  0  0  0  0  0  0  0  0  0  0
    8.6510    4.8510  -58.8660 C   0  0  0  0  0  0  0  0  0  0  0  0
    4.6860    1.5800  -61.0100 N   0  0  0  0  0  0  0  0  0  0  0  0
    2.4098    0.4866  -61.5804 H   0  0  0  0  0  0  0  0  0  0  0  0
    2.2063    1.4065  -63.1098 H   0  0  0  0  0  0  0  0  0  0  0  0
    3.1057   -0.1485  -63.1098 H   0  0  0  0  0  0  0  0  0  0  0  0
    6.5390    3.2140  -62.9800 H   0  0  0  0  0  0  0  0  0  0  0  0
    8.1200    3.0420  -61.6130 H   0  0  0  0  0  0  0  0  0  0  0  0
   10.4458    3.3543  -61.4232 H   0  0  0  0  0  0  0  0  0  0  0  0
    9.7923    5.0377  -61.3178 H   0  0  0  0  0  0  0  0  0  0  0  0
   12.1834    4.9469  -60.6150 H   0  0  0  0  0  0  0  0  0  0  0  0
   11.8640    6.0654  -58.4051 H   0  0  0  0  0  0  0  0  0  0  0  0
   10.6201    6.6015  -59.5900 H   0  0  0  0  0  0  0  0  0  0  0  0
    9.5982    6.1093  -57.3679 H   0  0  0  0  0  0  0  0  0  0  0  0
   11.2547    4.3999  -56.6244 H   0  0  0  0  0  0  0  0  0  0  0  0
    9.5773    3.7476  -56.5507 H   0  0  0  0  0  0  0  0  0  0  0  0
   11.1545    2.0878  -57.5563 H   0  0  0  0  0  0  0  0  0  0  0  0
   12.7680    3.7307  -58.5162 H   0  0  0  0  0  0  0  0  0  0  0  0
   12.1697    2.5976  -59.7808 H   0  0  0  0  0  0  0  0  0  0  0  0
    9.8547    1.6797  -59.6506 H   0  0  0  0  0  0  0  0  0  0  0  0
    8.7744    2.1572  -58.2863 H   0  0  0  0  0  0  0  0  0  0  0  0
    7.8526    4.5268  -58.1823 H   0  0  0  0  0  0  0  0  0  0  0  0
    8.3106    5.7036  -59.4719 H   0  0  0  0  0  0  0  0  0  0  0  0
  1  2  1  0
  2  3  2  0
  3  4  1  0
  4  5  1  0
  5  6  1  0
  6  7  2  0
  6  8  1  0
  9  8  1  6
  9 10  1  0
 10 11  1  0
 11 12  1  0
 12 13  1  0
 13 14  1  0
 14 15  1  0
 15 16  1  0
 15 17  1  0
 13 18  1  0
  5 19  2  0
 19  2  1  0
 17  9  1  0
 18  9  1  0
 16 11  1  0
  1 20  1  0
  1 21  1  0
  1 22  1  0
  4 23  1  0
  8 24  1  0
 10 25  1  0
 10 26  1  0
 11 27  1  6
 12 28  1  0
 12 29  1  0
 13 30  1  1
 14 31  1  0
 14 32  1  0
 15 33  1  1
 16 34  1  0
 16 35  1  0
 17 36  1  0
 17 37  1  0
 18 38  1  0
 18 39  1  0
M  END
>  <meeko>  (43) 
{"is_sidechain": false}

$$$$

     RDKit          3D

 27 29  0  0  0  0  0  0  0  0999 V2000
   10.5940    2.0450  -57.1600 O   0  0  0  0  0  0  0  0  0  0  0  0
   10.2330    3.0100  -58.1370 C   0  0  2  0  0  0  0  0  0  0  0  0
    9.6790    4.2710  -57.4510 C   0  0  0  0  0  0  0  0  0  0  0  0
    9.2760    5.3110  -58.5090 C   0  0  1  0  0  0  0  0  0  0  0  0
   10.5100    5.6760  -59.3530 C   0  0  0  0  0  0  0  0  0  0  0  0
   11.0670    4.4220  -60.0500 C   0  0  2  0  0  0  0  0  0  0  0  0
    9.9790    3.8220  -60.9570 C   0  0  0  0  0  0  0  0  0  0  0  0
    8.7420    3.4440  -60.1210 C   0  0  2  0  0  0  0  0  0  0  0  0
    8.1980    4.7050  -59.4260 C   0  0  0  0  0  0  0  0  0  0  0  0
    9.1510    2.4160  -59.0540 C   0  0  0  0  0  0  0  0  0  0  0  0
   11.4630    3.3870  -58.9840 C   0  0  0  0  0  0  0  0  0  0  0  0
   10.6030    2.4850  -56.2920 H   0  0  0  0  0  0  0  0  0  0  0  0
    8.7975    4.0017  -56.8507 H   0  0  0  0  0  0  0  0  0  0  0  0
   10.4562    4.6995  -56.8011 H   0  0  0  0  0  0  0  0  0  0  0  0
    8.8825    6.2121  -58.0159 H   0  0  0  0  0  0  0  0  0  0  0  0
   10.2237    6.4175  -60.1135 H   0  0  0  0  0  0  0  0  0  0  0  0
   11.2849    6.0942  -58.6937 H   0  0  0  0  0  0  0  0  0  0  0  0
   11.9466    4.6911  -60.6532 H   0  0  0  0  0  0  0  0  0  0  0  0
    9.6913    4.5620  -61.7184 H   0  0  0  0  0  0  0  0  0  0  0  0
   10.3743    2.9183  -61.4438 H   0  0  0  0  0  0  0  0  0  0  0  0
    7.9671    3.0155  -60.7736 H   0  0  0  0  0  0  0  0  0  0  0  0
    7.9106    5.4448  -60.1877 H   0  0  0  0  0  0  0  0  0  0  0  0
    7.3218    4.4320  -58.8196 H   0  0  0  0  0  0  0  0  0  0  0  0
    8.2709    2.1468  -58.4516 H   0  0  0  0  0  0  0  0  0  0  0  0
    9.5517    1.5203  -59.5512 H   0  0  0  0  0  0  0  0  0  0  0  0
   11.8555    2.4861  -59.4784 H   0  0  0  0  0  0  0  0  0  0  0  0
   12.2349    3.8182  -58.3297 H   0  0  0  0  0  0  0  0  0  0  0  0
  2  1  1  1
  2  3  1  0
  3  4  1  0
  4  5  1  0
  5  6  1  0
  6  7  1  0
  7  8  1  0
  8  9  1  0
  8 10  1  0
  6 11  1  0
 10  2  1  0
 11  2  1  0
  9  4  1  0
  1 12  1  0
  3 13  1  0
  3 14  1  0
  4 15  1  1
  5 16  1  0
  5 17  1  0
  6 18  1  6
  7 19  1  0
  7 20  1  0
  8 21  1  6
  9 22  1  0
  9 23  1  0
 10 24  1  0
 10 25  1  0
 11 26  1  0
 11 27  1  0
M  END
>  <meeko>  (44) 
{"is_sidechain": false}

$$$$

     RDKit          3D

 46 50  0  0  0  0  0  0  0  0999 V2000
    9.7900    1.3510  -55.7640 O   0  0  0  0  0  0  0  0  0  0  0  0
    8.5720    1.2260  -55.8580 C   0  0  0  0  0  0  0  0  0  0  0  0
    7.7890    1.9460  -56.7430 N   0  0  0  0  0  0  0  0  0  0  0  0
    8.2680    2.9500  -57.6890 C   0  0  2  0  0  0  0  0  0  0  0  0
    9.4940    2.4440  -58.4890 C   0  0  0  0  0  0  0  0  0  0  0  0
    9.9460    3.5000  -59.5120 C   0  0  1  0  0  0  0  0  0  0  0  0
    8.7970    3.7820  -60.4940 C   0  0  0  0  0  0  0  0  0  0  0  0
    7.5710    4.3060  -59.7300 C   0  0  2  0  0  0  0  0  0  0  0  0
    7.9460    5.6020  -58.9930 C   0  0  0  0  0  0  0  0  0  0  0  0
    9.0910    5.3310  -58.0030 C   0  0  2  0  0  0  0  0  0  0  0  0
   10.3110    4.7980  -58.7730 C   0  0  0  0  0  0  0  0  0  0  0  0
    8.6380    4.2750  -56.9790 C   0  0  0  0  0  0  0  0  0  0  0  0
    7.1300    3.2520  -58.7010 C   0  0  0  0  0  0  0  0  0  0  0  0
    7.7730    0.2890  -55.0380 C   0  0  0  0  0  0  0  0  0  0  0  0
    6.4480    0.1030  -55.1610 N   0  0  0  0  0  0  0  0  0  0  0  0
    6.2070   -0.8190  -54.2190 N   0  0  0  0  0  0  0  0  0  0  0  0
    7.3400   -1.1860  -53.5450 C   0  0  0  0  0  0  0  0  0  0  0  0
    7.4010   -2.1700  -52.4620 C   0  0  0  0  0  0  0  0  0  0  0  0
    7.7730   -1.8320  -51.1520 C   0  0  0  0  0  0  0  0  0  0  0  0
    7.8170   -2.8060  -50.1470 C   0  0  0  0  0  0  0  0  0  0  0  0
    7.4890   -4.1280  -50.4380 C   0  0  0  0  0  0  0  0  0  0  0  0
    7.1170   -4.4800  -51.7320 C   0  0  0  0  0  0  0  0  0  0  0  0
    7.0730   -3.5080  -52.7350 C   0  0  0  0  0  0  0  0  0  0  0  0
    8.3490   -0.4960  -54.0460 N   0  0  0  0  0  0  0  0  0  0  0  0
    6.7960    1.7310  -56.7020 H   0  0  0  0  0  0  0  0  0  0  0  0
   10.3203    2.2383  -57.7926 H   0  0  0  0  0  0  0  0  0  0  0  0
    9.2126    1.5267  -59.0269 H   0  0  0  0  0  0  0  0  0  0  0  0
   10.8217    3.1284  -60.0644 H   0  0  0  0  0  0  0  0  0  0  0  0
    9.1202    4.5367  -61.2261 H   0  0  0  0  0  0  0  0  0  0  0  0
    8.5283    2.8503  -61.0134 H   0  0  0  0  0  0  0  0  0  0  0  0
    6.7519    4.5050  -60.4368 H   0  0  0  0  0  0  0  0  0  0  0  0
    8.2683    6.3572  -59.7250 H   0  0  0  0  0  0  0  0  0  0  0  0
    7.0693    5.9695  -58.4396 H   0  0  0  0  0  0  0  0  0  0  0  0
    9.3581    6.2622  -57.4820 H   0  0  0  0  0  0  0  0  0  0  0  0
   10.6378    5.5526  -59.5036 H   0  0  0  0  0  0  0  0  0  0  0  0
   11.1226    4.5896  -58.0603 H   0  0  0  0  0  0  0  0  0  0  0  0
    9.4556    4.0876  -56.2674 H   0  0  0  0  0  0  0  0  0  0  0  0
    7.7511    4.6528  -56.4492 H   0  0  0  0  0  0  0  0  0  0  0  0
    6.2531    3.6286  -58.1540 H   0  0  0  0  0  0  0  0  0  0  0  0
    6.8819    2.3233  -59.2358 H   0  0  0  0  0  0  0  0  0  0  0  0
    5.2580   -1.1490  -54.0930 H   0  0  0  0  0  0  0  0  0  0  0  0
    8.0329   -0.7905  -50.9119 H   0  0  0  0  0  0  0  0  0  0  0  0
    8.1115   -2.5263  -49.1247 H   0  0  0  0  0  0  0  0  0  0  0  0
    7.5239   -4.8918  -49.6472 H   0  0  0  0  0  0  0  0  0  0  0  0
    6.8576   -5.5232  -51.9652 H   0  0  0  0  0  0  0  0  0  0  0  0
    6.7767   -3.7954  -53.7546 H   0  0  0  0  0  0  0  0  0  0  0  0
  1  2  2  0
  2  3  1  0
  4  3  1  1
  4  5  1  0
  5  6  1  0
  6  7  1  0
  7  8  1  0
  8  9  1  0
  9 10  1  0
 10 11  1  0
 10 12  1  0
  8 13  1  0
  2 14  1  0
 14 15  2  0
 15 16  1  0
 16 17  1  0
 17 18  1  0
 18 19  2  0
 19 20  1  0
 20 21  2  0
 21 22  1  0
 22 23  2  0
 17 24  2  0
 12  4  1  0
 24 14  1  0
 13  4  1  0
 23 18  1  0
 11  6  1  0
  3 25  1  0
  5 26  1  0
  5 27  1  0
  6 28  1  6
  7 29  1  0
  7 30  1  0
  8 31  1  6
  9 32  1  0
  9 33  1  0
 10 34  1  1
 11 35  1  0
 11 36  1  0
 12 37  1  0
 12 38  1  0
 13 39  1  0
 13 40  1  0
 16 41  1  0
 19 42  1  0
 20 43  1  0
 21 44  1  0
 22 45  1  0
 23 46  1  0
M  END
>  <meeko>  (45) 
{"is_sidechain": false}

$$$$

     RDKit          3D

 46 50  0  0  0  0  0  0  0  0999 V2000
    9.7790    1.4210  -55.6790 O   0  0  0  0  0  0  0  0  0  0  0  0
    8.5730    1.2590  -55.8420 C   0  0  0  0  0  0  0  0  0  0  0  0
    7.8160    1.9420  -56.7650 N   0  0  0  0  0  0  0  0  0  0  0  0
    8.3060    2.9590  -57.6960 C   0  0  2  0  0  0  0  0  0  0  0  0
    9.5580    2.4720  -58.4670 C   0  0  0  0  0  0  0  0  0  0  0  0
   10.0230    3.5400  -59.4730 C   0  0  1  0  0  0  0  0  0  0  0  0
    8.8960    3.8150  -60.4810 C   0  0  0  0  0  0  0  0  0  0  0  0
    7.6460    4.3200  -59.7430 C   0  0  2  0  0  0  0  0  0  0  0  0
    7.9870    5.6150  -58.9900 C   0  0  0  0  0  0  0  0  0  0  0  0
    9.1100    5.3500  -57.9740 C   0  0  2  0  0  0  0  0  0  0  0  0
   10.3550    4.8370  -58.7160 C   0  0  0  0  0  0  0  0  0  0  0  0
    8.6430    4.2840  -56.9670 C   0  0  0  0  0  0  0  0  0  0  0  0
    7.1910    3.2550  -58.7340 C   0  0  0  0  0  0  0  0  0  0  0  0
    7.8140    0.3140  -55.0610 C   0  0  0  0  0  0  0  0  0  0  0  0
    6.5340    0.0430  -55.2130 N   0  0  0  0  0  0  0  0  0  0  0  0
    6.1980   -0.9080  -54.2770 N   0  0  0  0  0  0  0  0  0  0  0  0
    7.2740   -1.2070  -53.5650 C   0  0  0  0  0  0  0  0  0  0  0  0
    7.3590   -2.1700  -52.4660 C   0  0  0  0  0  0  0  0  0  0  0  0
    7.7610   -1.8070  -51.1720 C   0  0  0  0  0  0  0  0  0  0  0  0
    7.8270   -2.7600  -50.1500 C   0  0  0  0  0  0  0  0  0  0  0  0
    7.4930   -4.0880  -50.4070 C   0  0  0  0  0  0  0  0  0  0  0  0
    7.0920   -4.4650  -51.6860 C   0  0  0  0  0  0  0  0  0  0  0  0
    7.0250   -3.5120  -52.7060 C   0  0  0  0  0  0  0  0  0  0  0  0
    8.3110   -0.4470  -54.0400 N   0  0  0  0  0  0  0  0  0  0  0  0
    6.8300    1.6980  -56.7820 H   0  0  0  0  0  0  0  0  0  0  0  0
   10.3688    2.2723  -57.7509 H   0  0  0  0  0  0  0  0  0  0  0  0
    9.3017    1.5543  -59.0166 H   0  0  0  0  0  0  0  0  0  0  0  0
   10.9159    3.1823  -60.0067 H   0  0  0  0  0  0  0  0  0  0  0  0
    9.2281    4.5781  -61.2003 H   0  0  0  0  0  0  0  0  0  0  0  0
    8.6510    2.8841  -61.0133 H   0  0  0  0  0  0  0  0  0  0  0  0
    6.8422    4.5147  -60.4683 H   0  0  0  0  0  0  0  0  0  0  0  0
    8.3186    6.3784  -59.7092 H   0  0  0  0  0  0  0  0  0  0  0  0
    7.0927    5.9697  -58.4567 H   0  0  0  0  0  0  0  0  0  0  0  0
    9.3542    6.2807  -57.4409 H   0  0  0  0  0  0  0  0  0  0  0  0
   10.6915    5.6005  -59.4328 H   0  0  0  0  0  0  0  0  0  0  0  0
   11.1510    4.6330  -57.9847 H   0  0  0  0  0  0  0  0  0  0  0  0
    9.4442    4.1012  -56.2359 H   0  0  0  0  0  0  0  0  0  0  0  0
    7.7395    4.6487  -56.4565 H   0  0  0  0  0  0  0  0  0  0  0  0
    6.2963    3.6179  -58.2070 H   0  0  0  0  0  0  0  0  0  0  0  0
    6.9667    2.3274  -59.2811 H   0  0  0  0  0  0  0  0  0  0  0  0
    8.0273   -0.7613  -50.9585 H   0  0  0  0  0  0  0  0  0  0  0  0
    8.1436   -2.4599  -49.1402 H   0  0  0  0  0  0  0  0  0  0  0  0
    7.5459   -4.8361  -49.6023 H   0  0  0  0  0  0  0  0  0  0  0  0
    6.8281   -5.5125  -51.8935 H   0  0  0  0  0  0  0  0  0  0  0  0
    6.7054   -3.8185  -53.7129 H   0  0  0  0  0  0  0  0  0  0  0  0
    9.2670   -0.4310  -53.7190 H   0  0  0  0  0  0  0  0  0  0  0  0
  1  2  2  0
  2  3  1  0
  4  3  1  1
  4  5  1  0
  5  6  1  0
  6  7  1  0
  7  8  1  0
  8  9  1  0
  9 10  1  0
 10 11  1  0
 10 12  1  0
  8 13  1  0
  2 14  1  0
 14 15  2  0
 15 16  1  0
 16 17  2  0
 17 18  1  0
 18 19  2  0
 19 20  1  0
 20 21  2  0
 21 22  1  0
 22 23  2  0
 17 24  1  0
 12  4  1  0
 24 14  1  0
 13  4  1  0
 23 18  1  0
 11  6  1  0
  3 25  1  0
  5 26  1  0
  5 27  1  0
  6 28  1  6
  7 29  1  0
  7 30  1  0
  8 31  1  6
  9 32  1  0
  9 33  1  0
 10 34  1  1
 11 35  1  0
 11 36  1  0
 12 37  1  0
 12 38  1  0
 13 39  1  0
 13 40  1  0
 19 41  1  0
 20 42  1  0
 21 43  1  0
 22 44  1  0
 23 45  1  0
 24 46  1  0
M  END
>  <meeko>  (46) 
{"is_sidechain": false}

$$$$

     RDKit          3D

 46 50  0  0  0  0  0  0  0  0999 V2000
    9.9280    1.1760  -55.8140 O   0  0  0  0  0  0  0  0  0  0  0  0
    8.7020    1.1400  -55.8280 C   0  0  0  0  0  0  0  0  0  0  0  0
    7.9110    1.9170  -56.6430 N   0  0  0  0  0  0  0  0  0  0  0  0
    8.3800    2.9030  -57.6160 C   0  0  2  0  0  0  0  0  0  0  0  0
    8.8720    4.1980  -56.9240 C   0  0  0  0  0  0  0  0  0  0  0  0
    9.3160    5.2360  -57.9700 C   0  0  1  0  0  0  0  0  0  0  0  0
   10.4510    4.6430  -58.8210 C   0  0  0  0  0  0  0  0  0  0  0  0
    9.9650    3.3750  -59.5420 C   0  0  2  0  0  0  0  0  0  0  0  0
    8.7730    3.7290  -60.4430 C   0  0  0  0  0  0  0  0  0  0  0  0
    7.6320    4.3140  -59.5970 C   0  0  2  0  0  0  0  0  0  0  0  0
    8.1260    5.5800  -58.8800 C   0  0  0  0  0  0  0  0  0  0  0  0
    7.1980    3.2780  -58.5490 C   0  0  0  0  0  0  0  0  0  0  0  0
    9.5220    2.3350  -58.4970 C   0  0  0  0  0  0  0  0  0  0  0  0
    7.9440    0.2610  -54.9760 C   0  0  0  0  0  0  0  0  0  0  0  0
    8.4330   -0.5430  -54.0490 N   0  0  0  0  0  0  0  0  0  0  0  0
    7.3100   -1.1570  -53.5280 C   0  0  0  0  0  0  0  0  0  0  0  0
    7.3900   -2.1440  -52.4550 C   0  0  0  0  0  0  0  0  0  0  0  0
    7.8450   -1.7860  -51.1760 C   0  0  0  0  0  0  0  0  0  0  0  0
    7.9190   -2.7360  -50.1540 C   0  0  0  0  0  0  0  0  0  0  0  0
    7.5390   -4.0540  -50.3980 C   0  0  0  0  0  0  0  0  0  0  0  0
    7.0850   -4.4250  -51.6620 C   0  0  0  0  0  0  0  0  0  0  0  0
    7.0110   -3.4750  -52.6850 C   0  0  0  0  0  0  0  0  0  0  0  0
    6.1600   -0.7590  -54.1010 N   0  0  0  0  0  0  0  0  0  0  0  0
    6.5910    0.1320  -55.0070 N   0  0  0  0  0  0  0  0  0  0  0  0
    6.9110    1.7690  -56.5340 H   0  0  0  0  0  0  0  0  0  0  0  0
    8.0537    4.6192  -56.3215 H   0  0  0  0  0  0  0  0  0  0  0  0
    9.7304    3.9526  -56.2814 H   0  0  0  0  0  0  0  0  0  0  0  0
    9.6691    6.1461  -57.4630 H   0  0  0  0  0  0  0  0  0  0  0  0
   10.7720    5.3850  -59.5669 H   0  0  0  0  0  0  0  0  0  0  0  0
   11.2943    4.3825  -58.1645 H   0  0  0  0  0  0  0  0  0  0  0  0
   10.7803    2.9611  -60.1535 H   0  0  0  0  0  0  0  0  0  0  0  0
    9.0893    4.4707  -61.1912 H   0  0  0  0  0  0  0  0  0  0  0  0
    8.4185    2.8184  -60.9480 H   0  0  0  0  0  0  0  0  0  0  0  0
    6.7815    4.5656  -60.2477 H   0  0  0  0  0  0  0  0  0  0  0  0
    8.4414    6.3228  -59.6275 H   0  0  0  0  0  0  0  0  0  0  0  0
    7.3096    5.9912  -58.2682 H   0  0  0  0  0  0  0  0  0  0  0  0
    6.3814    3.6987  -57.9439 H   0  0  0  0  0  0  0  0  0  0  0  0
    6.8619    2.3702  -59.0715 H   0  0  0  0  0  0  0  0  0  0  0  0
    9.1654    1.4318  -59.0138 H   0  0  0  0  0  0  0  0  0  0  0  0
   10.3796    2.0900  -57.8532 H   0  0  0  0  0  0  0  0  0  0  0  0
    8.1463   -0.7471  -50.9764 H   0  0  0  0  0  0  0  0  0  0  0  0
    8.2775   -2.4431  -49.1562 H   0  0  0  0  0  0  0  0  0  0  0  0
    7.5974   -4.8014  -49.5931 H   0  0  0  0  0  0  0  0  0  0  0  0
    6.7848   -5.4655  -51.8550 H   0  0  0  0  0  0  0  0  0  0  0  0
    6.6518   -3.7743  -53.6807 H   0  0  0  0  0  0  0  0  0  0  0  0
    5.9310    0.6130  -55.6080 H   0  0  0  0  0  0  0  0  0  0  0  0
  1  2  2  0
  2  3  1  0
  4  3  1  1
  4  5  1  0
  5  6  1  0
  6  7  1  0
  7  8  1  0
  8  9  1  0
  9 10  1  0
 10 11  1  0
 10 12  1  0
  8 13  1  0
  2 14  1  0
 14 15  2  0
 15 16  1  0
 16 17  1  0
 17 18  2  0
 18 19  1  0
 19 20  2  0
 20 21  1  0
 21 22  2  0
 16 23  2  0
 23 24  1  0
 12  4  1  0
 24 14  1  0
 13  4  1  0
 22 17  1  0
 11  6  1  0
  3 25  1  0
  5 26  1  0
  5 27  1  0
  6 28  1  1
  7 29  1  0
  7 30  1  0
  8 31  1  6
  9 32  1  0
  9 33  1  0
 10 34  1  6
 11 35  1  0
 11 36  1  0
 12 37  1  0
 12 38  1  0
 13 39  1  0
 13 40  1  0
 18 41  1  0
 19 42  1  0
 20 43  1  0
 21 44  1  0
 22 45  1  0
 24 46  1  0
M  END
>  <meeko>  (47) 
{"is_sidechain": false}

$$$$

     RDKit          3D

 48 51  0  0  0  0  0  0  0  0999 V2000
   11.1680   -2.2010  -53.1040 C   0  0  0  0  0  0  0  0  0  0  0  0
    9.6660   -2.5190  -53.2230 C   0  0  0  0  0  0  0  0  0  0  0  0
    9.1480   -2.9540  -51.8410 C   0  0  0  0  0  0  0  0  0  0  0  0
    9.4860   -3.6710  -54.2250 C   0  0  0  0  0  0  0  0  0  0  0  0
    8.9130   -1.3010  -53.6960 C   0  0  0  0  0  0  0  0  0  0  0  0
    7.9030   -0.6970  -53.1060 N   0  0  0  0  0  0  0  0  0  0  0  0
    7.5440    0.3910  -53.8680 N   0  0  0  0  0  0  0  0  0  0  0  0
    8.3180    0.4220  -54.9340 C   0  0  0  0  0  0  0  0  0  0  0  0
    8.2490    1.4200  -55.9810 C   0  0  0  0  0  0  0  0  0  0  0  0
    7.2010    1.8090  -56.4840 O   0  0  0  0  0  0  0  0  0  0  0  0
    9.4920    1.9030  -56.3770 N   0  0  0  0  0  0  0  0  0  0  0  0
    9.6870    2.8620  -57.4760 C   0  0  2  0  0  0  0  0  0  0  0  0
    9.2350    4.2940  -57.0900 C   0  0  0  0  0  0  0  0  0  0  0  0
    9.5090    5.2770  -58.2420 C   0  0  1  0  0  0  0  0  0  0  0  0
   11.0160    5.3040  -58.5410 C   0  0  0  0  0  0  0  0  0  0  0  0
   11.4920    3.9000  -58.9450 C   0  0  2  0  0  0  0  0  0  0  0  0
   10.7300    3.4440  -60.1980 C   0  0  0  0  0  0  0  0  0  0  0  0
    9.2200    3.4080  -59.9100 C   0  0  2  0  0  0  0  0  0  0  0  0
    8.7490    4.8120  -59.4960 C   0  0  0  0  0  0  0  0  0  0  0  0
    8.9450    2.4210  -58.7620 C   0  0  0  0  0  0  0  0  0  0  0  0
   11.2060    2.9210  -57.7950 C   0  0  0  0  0  0  0  0  0  0  0  0
    9.2020   -0.6220  -54.8520 N   0  0  0  0  0  0  0  0  0  0  0  0
   11.4472   -2.1419  -52.0417 H   0  0  0  0  0  0  0  0  0  0  0  0
   11.7509   -2.9956  -53.5927 H   0  0  0  0  0  0  0  0  0  0  0  0
   11.3788   -1.2383  -53.5927 H   0  0  0  0  0  0  0  0  0  0  0  0
    9.7379   -2.4586  -51.0557 H   0  0  0  0  0  0  0  0  0  0  0  0
    8.0903   -2.6694  -51.7396 H   0  0  0  0  0  0  0  0  0  0  0  0
    9.2455   -4.0450  -51.7396 H   0  0  0  0  0  0  0  0  0  0  0  0
    9.3387   -4.6136  -53.6774 H   0  0  0  0  0  0  0  0  0  0  0  0
    8.6079   -3.4732  -54.8573 H   0  0  0  0  0  0  0  0  0  0  0  0
   10.3826   -3.7505  -54.8573 H   0  0  0  0  0  0  0  0  0  0  0  0
   10.2710    1.2830  -56.2030 H   0  0  0  0  0  0  0  0  0  0  0  0
    8.1572    4.2860  -56.8701 H   0  0  0  0  0  0  0  0  0  0  0  0
    9.8014    4.6183  -56.2046 H   0  0  0  0  0  0  0  0  0  0  0  0
    9.1722    6.2846  -57.9570 H   0  0  0  0  0  0  0  0  0  0  0  0
   11.2124    6.0070  -59.3639 H   0  0  0  0  0  0  0  0  0  0  0  0
   11.5591    5.6263  -57.6404 H   0  0  0  0  0  0  0  0  0  0  0  0
   12.5711    3.9219  -59.1573 H   0  0  0  0  0  0  0  0  0  0  0  0
   10.9275    4.1471  -61.0206 H   0  0  0  0  0  0  0  0  0  0  0  0
   11.0683    2.4360  -60.4800 H   0  0  0  0  0  0  0  0  0  0  0  0
    8.6786    3.0866  -60.8120 H   0  0  0  0  0  0  0  0  0  0  0  0
    8.9393    5.5168  -60.3188 H   0  0  0  0  0  0  0  0  0  0  0  0
    7.6725    4.7789  -59.2725 H   0  0  0  0  0  0  0  0  0  0  0  0
    7.8636    2.3898  -58.5630 H   0  0  0  0  0  0  0  0  0  0  0  0
    9.3060    1.4245  -59.0563 H   0  0  0  0  0  0  0  0  0  0  0  0
   11.5519    1.9173  -58.0831 H   0  0  0  0  0  0  0  0  0  0  0  0
   11.7382    3.2705  -56.8980 H   0  0  0  0  0  0  0  0  0  0  0  0
    9.9530   -0.8160  -55.4970 H   0  0  0  0  0  0  0  0  0  0  0  0
  1  2  1  0
  2  3  1  0
  2  4  1  0
  2  5  1  0
  5  6  2  0
  6  7  1  0
  7  8  2  0
  8  9  1  0
  9 10  2  0
  9 11  1  0
 12 11  1  1
 12 13  1  0
 13 14  1  0
 14 15  1  0
 15 16  1  0
 16 17  1  0
 17 18  1  0
 18 19  1  0
 18 20  1  0
 16 21  1  0
  8 22  1  0
 22  5  1  0
 20 12  1  0
 21 12  1  0
 19 14  1  0
  1 23  1  0
  1 24  1  0
  1 25  1  0
  3 26  1  0
  3 27  1  0
  3 28  1  0
  4 29  1  0
  4 30  1  0
  4 31  1  0
 11 32  1  0
 13 33  1  0
 13 34  1  0
 14 35  1  1
 15 36  1  0
 15 37  1  0
 16 38  1  6
 17 39  1  0
 17 40  1  0
 18 41  1  6
 19 42  1  0
 19 43  1  0
 20 44  1  0
 20 45  1  0
 21 46  1  0
 21 47  1  0
 22 48  1  0
M  END
>  <meeko>  (48) 
{"is_sidechain": false}

$$$$

     RDKit          3D

 48 51  0  0  0  0  0  0  0  0999 V2000
    8.5740   -2.4460  -52.0230 C   0  0  0  0  0  0  0  0  0  0  0  0
    9.0430   -2.2510  -53.4750 C   0  0  0  0  0  0  0  0  0  0  0  0
   10.5000   -1.7470  -53.4550 C   0  0  0  0  0  0  0  0  0  0  0  0
    9.0010   -3.5980  -54.2160 C   0  0  0  0  0  0  0  0  0  0  0  0
    8.1580   -1.2480  -54.1750 C   0  0  0  0  0  0  0  0  0  0  0  0
    8.5210   -0.2500  -54.9500 N   0  0  0  0  0  0  0  0  0  0  0  0
    7.3340    0.3470  -55.3240 C   0  0  0  0  0  0  0  0  0  0  0  0
    7.2420    1.5300  -56.2100 C   0  0  0  0  0  0  0  0  0  0  0  0
    6.1980    2.1380  -56.4230 O   0  0  0  0  0  0  0  0  0  0  0  0
    8.4600    1.8720  -56.7730 N   0  0  0  0  0  0  0  0  0  0  0  0
    8.7030    2.9840  -57.6870 C   0  0  2  0  0  0  0  0  0  0  0  0
   10.1240    2.8230  -58.2910 C   0  0  0  0  0  0  0  0  0  0  0  0
   10.4410    3.9660  -59.2670 C   0  0  1  0  0  0  0  0  0  0  0  0
    9.4080    3.9590  -60.4050 C   0  0  0  0  0  0  0  0  0  0  0  0
    7.9950    4.1440  -59.8320 C   0  0  2  0  0  0  0  0  0  0  0  0
    7.9250    5.4820  -59.0750 C   0  0  0  0  0  0  0  0  0  0  0  0
    8.9550    5.4970  -57.9320 C   0  0  2  0  0  0  0  0  0  0  0  0
   10.3630    5.3050  -58.5170 C   0  0  0  0  0  0  0  0  0  0  0  0
    8.6470    4.3480  -56.9560 C   0  0  0  0  0  0  0  0  0  0  0  0
    7.6870    2.9940  -58.8570 C   0  0  0  0  0  0  0  0  0  0  0  0
    6.2420   -0.2560  -54.8000 N   0  0  0  0  0  0  0  0  0  0  0  0
    6.7940   -1.2500  -54.0860 N   0  0  0  0  0  0  0  0  0  0  0  0
    9.3661   -2.1167  -51.3345 H   0  0  0  0  0  0  0  0  0  0  0  0
    7.6654   -1.8511  -51.8481 H   0  0  0  0  0  0  0  0  0  0  0  0
    8.3551   -3.5097  -51.8481 H   0  0  0  0  0  0  0  0  0  0  0  0
   10.8338   -1.6315  -52.4132 H   0  0  0  0  0  0  0  0  0  0  0  0
   11.1465   -2.4737  -53.9687 H   0  0  0  0  0  0  0  0  0  0  0  0
   10.5592   -0.7761  -53.9687 H   0  0  0  0  0  0  0  0  0  0  0  0
    8.9754   -4.4186  -53.4839 H   0  0  0  0  0  0  0  0  0  0  0  0
    8.1011   -3.6414  -54.8471 H   0  0  0  0  0  0  0  0  0  0  0  0
    9.8965   -3.6974  -54.8471 H   0  0  0  0  0  0  0  0  0  0  0  0
    9.2300    1.2670  -56.4970 H   0  0  0  0  0  0  0  0  0  0  0  0
   10.8636    2.8299  -57.4768 H   0  0  0  0  0  0  0  0  0  0  0  0
   10.1647    1.8714  -58.8412 H   0  0  0  0  0  0  0  0  0  0  0  0
   11.4505    3.8327  -59.6831 H   0  0  0  0  0  0  0  0  0  0  0  0
    9.6288    4.7804  -61.1026 H   0  0  0  0  0  0  0  0  0  0  0  0
    9.4601    2.9962  -60.9344 H   0  0  0  0  0  0  0  0  0  0  0  0
    7.2609    4.1422  -60.6512 H   0  0  0  0  0  0  0  0  0  0  0  0
    8.1419    6.3057  -59.7711 H   0  0  0  0  0  0  0  0  0  0  0  0
    6.9167    5.6046  -58.6528 H   0  0  0  0  0  0  0  0  0  0  0  0
    8.9041    6.4578  -57.3987 H   0  0  0  0  0  0  0  0  0  0  0  0
   10.5832    6.1267  -59.2143 H   0  0  0  0  0  0  0  0  0  0  0  0
   11.0977    5.3043  -57.6984 H   0  0  0  0  0  0  0  0  0  0  0  0
    9.3893    4.3541  -56.1442 H   0  0  0  0  0  0  0  0  0  0  0  0
    7.6358    4.4906  -56.5472 H   0  0  0  0  0  0  0  0  0  0  0  0
    6.6721    3.1243  -58.4533 H   0  0  0  0  0  0  0  0  0  0  0  0
    7.7612    2.0398  -59.3993 H   0  0  0  0  0  0  0  0  0  0  0  0
    6.1930   -1.8830  -53.5700 H   0  0  0  0  0  0  0  0  0  0  0  0
  1  2  1  0
  2  3  1  0
  2  4  1  0
  2  5  1  0
  5  6  2  0
  6  7  1  0
  7  8  1  0
  8  9  2  0
  8 10  1  0
 11 10  1  1
 11 12  1  0
 12 13  1  0
 13 14  1  0
 14 15  1  0
 15 16  1  0
 16 17  1  0
 17 18  1  0
 17 19  1  0
 15 20  1  0
  7 21  2  0
 21 22  1  0
 22  5  1  0
 19 11  1  0
 20 11  1  0
 18 13  1  0
  1 23  1  0
  1 24  1  0
  1 25  1  0
  3 26  1  0
  3 27  1  0
  3 28  1  0
  4 29  1  0
  4 30  1  0
  4 31  1  0
 10 32  1  0
 12 33  1  0
 12 34  1  0
 13 35  1  6
 14 36  1  0
 14 37  1  0
 15 38  1  6
 16 39  1  0
 16 40  1  0
 17 41  1  1
 18 42  1  0
 18 43  1  0
 19 44  1  0
 19 45  1  0
 20 46  1  0
 20 47  1  0
 22 48  1  0
M  END
>  <meeko>  (49) 
{"is_sidechain": false}

$$$$

     RDKit          3D

 48 51  0  0  0  0  0  0  0  0999 V2000
    9.0830   -2.9680  -51.9290 C   0  0  0  0  0  0  0  0  0  0  0  0
    9.6660   -2.4950  -53.2740 C   0  0  0  0  0  0  0  0  0  0  0  0
    9.5200   -3.6250  -54.3110 C   0  0  0  0  0  0  0  0  0  0  0  0
   11.1690   -2.2160  -53.0750 C   0  0  0  0  0  0  0  0  0  0  0  0
    8.9420   -1.2570  -53.7480 C   0  0  0  0  0  0  0  0  0  0  0  0
    7.9570   -0.6780  -53.0440 N   0  0  0  0  0  0  0  0  0  0  0  0
    7.6260    0.3570  -53.8330 N   0  0  0  0  0  0  0  0  0  0  0  0
    8.3870    0.3840  -54.9600 C   0  0  0  0  0  0  0  0  0  0  0  0
    8.2700    1.3740  -56.0030 C   0  0  0  0  0  0  0  0  0  0  0  0
    7.1880    1.7460  -56.4410 O   0  0  0  0  0  0  0  0  0  0  0  0
    9.4890    1.8400  -56.4400 N   0  0  0  0  0  0  0  0  0  0  0  0
    9.7060    2.8420  -57.4820 C   0  0  2  0  0  0  0  0  0  0  0  0
   11.2230    2.8970  -57.8050 C   0  0  0  0  0  0  0  0  0  0  0  0
   11.5160    3.9370  -58.8980 C   0  0  1  0  0  0  0  0  0  0  0  0
   10.7440    3.5600  -60.1730 C   0  0  0  0  0  0  0  0  0  0  0  0
    9.2350    3.5250  -59.8810 C   0  0  2  0  0  0  0  0  0  0  0  0
    8.7820    4.9100  -59.3890 C   0  0  0  0  0  0  0  0  0  0  0  0
    9.5490    5.2960  -58.1130 C   0  0  2  0  0  0  0  0  0  0  0  0
   11.0560    5.3200  -58.4140 C   0  0  0  0  0  0  0  0  0  0  0  0
    9.2670    4.2520  -57.0170 C   0  0  0  0  0  0  0  0  0  0  0  0
    8.9530    2.4810  -58.7870 C   0  0  0  0  0  0  0  0  0  0  0  0
    9.2340   -0.6290  -54.9370 N   0  0  0  0  0  0  0  0  0  0  0  0
    9.6475   -2.5100  -51.1034 H   0  0  0  0  0  0  0  0  0  0  0  0
    8.0267   -2.6684  -51.8616 H   0  0  0  0  0  0  0  0  0  0  0  0
    9.1585   -4.0633  -51.8616 H   0  0  0  0  0  0  0  0  0  0  0  0
    9.3958   -4.5862  -53.7908 H   0  0  0  0  0  0  0  0  0  0  0  0
    8.6392   -3.4327  -54.9413 H   0  0  0  0  0  0  0  0  0  0  0  0
   10.4207   -3.6629  -54.9413 H   0  0  0  0  0  0  0  0  0  0  0  0
   11.3949   -2.1741  -51.9993 H   0  0  0  0  0  0  0  0  0  0  0  0
   11.7562   -3.0205  -53.5419 H   0  0  0  0  0  0  0  0  0  0  0  0
   11.4284   -1.2544  -53.5419 H   0  0  0  0  0  0  0  0  0  0  0  0
    6.8880    0.9970  -53.5590 H   0  0  0  0  0  0  0  0  0  0  0  0
   10.2940    1.4290  -55.9730 H   0  0  0  0  0  0  0  0  0  0  0  0
   11.7753    3.1681  -56.8932 H   0  0  0  0  0  0  0  0  0  0  0  0
   11.5401    1.9082  -58.1680 H   0  0  0  0  0  0  0  0  0  0  0  0
   12.5947    3.9602  -59.1122 H   0  0  0  0  0  0  0  0  0  0  0  0
   10.9467    4.3057  -60.9558 H   0  0  0  0  0  0  0  0  0  0  0  0
   11.0699    2.5658  -60.5126 H   0  0  0  0  0  0  0  0  0  0  0  0
    8.6867    3.2587  -60.7967 H   0  0  0  0  0  0  0  0  0  0  0  0
    8.9800    5.6567  -60.1721 H   0  0  0  0  0  0  0  0  0  0  0  0
    7.7055    4.8776  -59.1654 H   0  0  0  0  0  0  0  0  0  0  0  0
    9.2240    6.2899  -57.7717 H   0  0  0  0  0  0  0  0  0  0  0  0
   11.2596    6.0662  -59.1962 H   0  0  0  0  0  0  0  0  0  0  0  0
   11.6037    5.5827  -57.4969 H   0  0  0  0  0  0  0  0  0  0  0  0
    9.8241    4.5226  -56.1079 H   0  0  0  0  0  0  0  0  0  0  0  0
    8.1866    4.2371  -56.8108 H   0  0  0  0  0  0  0  0  0  0  0  0
    7.8722    2.4523  -58.5846 H   0  0  0  0  0  0  0  0  0  0  0  0
    9.3008    1.4978  -59.1368 H   0  0  0  0  0  0  0  0  0  0  0  0
  1  2  1  0
  2  3  1  0
  2  4  1  0
  2  5  1  0
  5  6  2  0
  6  7  1  0
  7  8  1  0
  8  9  1  0
  9 10  2  0
  9 11  1  0
 12 11  1  1
 12 13  1  0
 13 14  1  0
 14 15  1  0
 15 16  1  0
 16 17  1  0
 17 18  1  0
 18 19  1  0
 18 20  1  0
 16 21  1  0
  8 22  2  0
 22  5  1  0
 20 12  1  0
 21 12  1  0
 19 14  1  0
  1 23  1  0
  1 24  1  0
  1 25  1  0
  3 26  1  0
  3 27  1  0
  3 28  1  0
  4 29  1  0
  4 30  1  0
  4 31  1  0
  7 32  1  0
 11 33  1  0
 13 34  1  0
 13 35  1  0
 14 36  1  6
 15 37  1  0
 15 38  1  0
 16 39  1  6
 17 40  1  0
 17 41  1  0
 18 42  1  1
 19 43  1  0
 19 44  1  0
 20 45  1  0
 20 46  1  0
 21 47  1  0
 21 48  1  0
M  END
>  <meeko>  (50) 
{"is_sidechain": false}

$$$$

     RDKit          3D

 45 49  0  0  0  0  0  0  0  0999 V2000
    9.8100    1.4390  -55.6960 O   0  0  0  0  0  0  0  0  0  0  0  0
    8.6070    1.2690  -55.8650 C   0  0  0  0  0  0  0  0  0  0  0  0
    7.8500    1.9500  -56.7910 N   0  0  0  0  0  0  0  0  0  0  0  0
    8.3370    2.9720  -57.7160 C   0  0  2  0  0  0  0  0  0  0  0  0
    7.2270    3.2600  -58.7610 C   0  0  0  0  0  0  0  0  0  0  0  0
    7.6790    4.3310  -59.7670 C   0  0  1  0  0  0  0  0  0  0  0  0
    8.0030    5.6290  -59.0080 C   0  0  0  0  0  0  0  0  0  0  0  0
    9.1210    5.3720  -57.9850 C   0  0  2  0  0  0  0  0  0  0  0  0
   10.3760    4.8710  -58.7180 C   0  0  0  0  0  0  0  0  0  0  0  0
   10.0620    3.5720  -59.4790 C   0  0  2  0  0  0  0  0  0  0  0  0
    8.9390    3.8390  -60.4940 C   0  0  0  0  0  0  0  0  0  0  0  0
    9.5980    2.4980  -58.4790 C   0  0  0  0  0  0  0  0  0  0  0  0
    8.6560    4.2990  -56.9830 C   0  0  0  0  0  0  0  0  0  0  0  0
    7.8510    0.3170  -55.0900 C   0  0  0  0  0  0  0  0  0  0  0  0
    6.5630    0.0750  -55.2110 N   0  0  0  0  0  0  0  0  0  0  0  0
    6.2360   -0.8970  -54.2920 N   0  0  0  0  0  0  0  0  0  0  0  0
    7.3250   -1.2360  -53.6230 C   0  0  0  0  0  0  0  0  0  0  0  0
    7.4180   -2.2330  -52.5550 C   0  0  0  0  0  0  0  0  0  0  0  0
    7.8240   -1.9130  -51.2560 C   0  0  0  0  0  0  0  0  0  0  0  0
    7.8820   -2.9260  -50.3100 C   0  0  0  0  0  0  0  0  0  0  0  0
    7.5690   -4.2130  -50.5660 N   0  0  0  0  0  0  0  0  0  0  0  0
    7.1790   -4.5030  -51.8230 C   0  0  0  0  0  0  0  0  0  0  0  0
    7.0890   -3.5630  -52.8350 C   0  0  0  0  0  0  0  0  0  0  0  0
    8.3640   -0.4820  -54.1070 N   0  0  0  0  0  0  0  0  0  0  0  0
    6.8640    1.6990  -56.8140 H   0  0  0  0  0  0  0  0  0  0  0  0
    6.9952    2.3319  -59.3041 H   0  0  0  0  0  0  0  0  0  0  0  0
    6.3367    3.6308  -58.2321 H   0  0  0  0  0  0  0  0  0  0  0  0
    6.8793    4.5189  -60.4986 H   0  0  0  0  0  0  0  0  0  0  0  0
    8.3326    6.3971  -59.7232 H   0  0  0  0  0  0  0  0  0  0  0  0
    7.1018    5.9744  -58.4803 H   0  0  0  0  0  0  0  0  0  0  0  0
    9.3531    6.3042  -57.4492 H   0  0  0  0  0  0  0  0  0  0  0  0
   10.7110    5.6384  -59.4314 H   0  0  0  0  0  0  0  0  0  0  0  0
   11.1680    4.6732  -57.9807 H   0  0  0  0  0  0  0  0  0  0  0  0
   10.9626    3.2233  -60.0057 H   0  0  0  0  0  0  0  0  0  0  0  0
    9.2697    4.6064  -61.2094 H   0  0  0  0  0  0  0  0  0  0  0  0
    8.7062    2.9060  -61.0282 H   0  0  0  0  0  0  0  0  0  0  0  0
    9.3633    1.5726  -59.0254 H   0  0  0  0  0  0  0  0  0  0  0  0
   10.4045    2.3173  -57.7532 H   0  0  0  0  0  0  0  0  0  0  0  0
    9.4533    4.1225  -56.2460 H   0  0  0  0  0  0  0  0  0  0  0  0
    7.7450    4.6544  -56.4793 H   0  0  0  0  0  0  0  0  0  0  0  0
    8.0918   -0.8799  -50.9897 H   0  0  0  0  0  0  0  0  0  0  0  0
    8.2022   -2.6643  -49.2907 H   0  0  0  0  0  0  0  0  0  0  0  0
    6.9175   -5.5453  -52.0579 H   0  0  0  0  0  0  0  0  0  0  0  0
    6.7638   -3.8575  -53.8437 H   0  0  0  0  0  0  0  0  0  0  0  0
    9.3290   -0.4930  -53.8160 H   0  0  0  0  0  0  0  0  0  0  0  0
  1  2  2  0
  2  3  1  0
  4  3  1  1
  4  5  1  0
  5  6  1  0
  6  7  1  0
  7  8  1  0
  8  9  1  0
  9 10  1  0
 10 11  1  0
 10 12  1  0
  8 13  1  0
  2 14  1  0
 14 15  2  0
 15 16  1  0
 16 17  2  0
 17 18  1  0
 18 19  2  0
 19 20  1  0
 20 21  2  0
 21 22  1  0
 22 23  2  0
 17 24  1  0
 12  4  1  0
 24 14  1  0
 13  4  1  0
 23 18  1  0
 11  6  1  0
  3 25  1  0
  5 26  1  0
  5 27  1  0
  6 28  1  6
  7 29  1  0
  7 30  1  0
  8 31  1  1
  9 32  1  0
  9 33  1  0
 10 34  1  6
 11 35  1  0
 11 36  1  0
 12 37  1  0
 12 38  1  0
 13 39  1  0
 13 40  1  0
 19 41  1  0
 20 42  1  0
 22 43  1  0
 23 44  1  0
 24 45  1  0
M  END
>  <meeko>  (51) 
{"is_sidechain": false}

$$$$

     RDKit          3D

 45 49  0  0  0  0  0  0  0  0999 V2000
    9.7640    1.3030  -55.7800 O   0  0  0  0  0  0  0  0  0  0  0  0
    8.5450    1.1890  -55.8280 C   0  0  0  0  0  0  0  0  0  0  0  0
    7.7580    1.9270  -56.7050 N   0  0  0  0  0  0  0  0  0  0  0  0
    8.2890    2.9540  -57.6160 C   0  0  2  0  0  0  0  0  0  0  0  0
    8.6550    4.2550  -56.8610 C   0  0  0  0  0  0  0  0  0  0  0  0
    9.1450    5.3320  -57.8470 C   0  0  1  0  0  0  0  0  0  0  0  0
   10.3780    4.8050  -58.6010 C   0  0  0  0  0  0  0  0  0  0  0  0
   10.0160    3.5330  -59.3860 C   0  0  2  0  0  0  0  0  0  0  0  0
    8.8960    3.8570  -60.3870 C   0  0  0  0  0  0  0  0  0  0  0  0
    7.6580    4.3730  -59.6370 C   0  0  2  0  0  0  0  0  0  0  0  0
    8.0300    5.6430  -58.8550 C   0  0  0  0  0  0  0  0  0  0  0  0
    7.1810    3.2960  -58.6510 C   0  0  0  0  0  0  0  0  0  0  0  0
    9.5260    2.4530  -58.4040 C   0  0  0  0  0  0  0  0  0  0  0  0
    7.7940    0.2920  -54.9750 C   0  0  0  0  0  0  0  0  0  0  0  0
    8.3090   -0.5400  -54.0900 N   0  0  0  0  0  0  0  0  0  0  0  0
    7.2160   -1.1750  -53.5430 C   0  0  0  0  0  0  0  0  0  0  0  0
    7.3460   -2.1850  -52.5000 C   0  0  0  0  0  0  0  0  0  0  0  0
    7.8350   -1.8350  -51.2390 C   0  0  0  0  0  0  0  0  0  0  0  0
    7.9420   -2.8220  -50.2750 C   0  0  0  0  0  0  0  0  0  0  0  0
    7.5980   -4.1120  -50.4790 N   0  0  0  0  0  0  0  0  0  0  0  0
    7.1310   -4.4280  -51.7050 C   0  0  0  0  0  0  0  0  0  0  0  0
    6.9870   -3.5140  -52.7350 C   0  0  0  0  0  0  0  0  0  0  0  0
    6.0440   -0.7680  -54.0600 N   0  0  0  0  0  0  0  0  0  0  0  0
    6.4420    0.1250  -54.9760 N   0  0  0  0  0  0  0  0  0  0  0  0
    6.7960    2.0600  -56.4250 H   0  0  0  0  0  0  0  0  0  0  0  0
    7.7664    4.6276  -56.3303 H   0  0  0  0  0  0  0  0  0  0  0  0
    9.4606    4.0357  -56.1448 H   0  0  0  0  0  0  0  0  0  0  0  0
    9.4097    6.2460  -57.2952 H   0  0  0  0  0  0  0  0  0  0  0  0
   10.7327    5.5757  -59.3012 H   0  0  0  0  0  0  0  0  0  0  0  0
   11.1684    4.5659  -57.8743 H   0  0  0  0  0  0  0  0  0  0  0  0
   10.9006    3.1663  -59.9274 H   0  0  0  0  0  0  0  0  0  0  0  0
    9.2456    4.6289  -61.0884 H   0  0  0  0  0  0  0  0  0  0  0  0
    8.6299    2.9446  -60.9409 H   0  0  0  0  0  0  0  0  0  0  0  0
    6.8578    4.6017  -60.3563 H   0  0  0  0  0  0  0  0  0  0  0  0
    8.3789    6.4141  -59.5576 H   0  0  0  0  0  0  0  0  0  0  0  0
    7.1442    6.0052  -58.3127 H   0  0  0  0  0  0  0  0  0  0  0  0
    6.2929    3.6655  -58.1175 H   0  0  0  0  0  0  0  0  0  0  0  0
    6.9402    2.3850  -59.2186 H   0  0  0  0  0  0  0  0  0  0  0  0
    9.2537    1.5485  -58.9676 H   0  0  0  0  0  0  0  0  0  0  0  0
   10.3335    2.2284  -57.6916 H   0  0  0  0  0  0  0  0  0  0  0  0
    8.1283   -0.7983  -51.0174 H   0  0  0  0  0  0  0  0  0  0  0  0
    8.3297   -2.5395  -49.2851 H   0  0  0  0  0  0  0  0  0  0  0  0
    6.8480   -5.4734  -51.8974 H   0  0  0  0  0  0  0  0  0  0  0  0
    6.5989   -3.8273  -53.7154 H   0  0  0  0  0  0  0  0  0  0  0  0
    5.7530    0.5680  -55.5730 H   0  0  0  0  0  0  0  0  0  0  0  0
  1  2  2  0
  2  3  1  0
  4  3  1  1
  4  5  1  0
  5  6  1  0
  6  7  1  0
  7  8  1  0
  8  9  1  0
  9 10  1  0
 10 11  1  0
 10 12  1  0
  8 13  1  0
  2 14  1  0
 14 15  2  0
 15 16  1  0
 16 17  1  0
 17 18  2  0
 18 19  1  0
 19 20  2  0
 20 21  1  0
 21 22  2  0
 16 23  2  0
 23 24  1  0
 12  4  1  0
 24 14  1  0
 13  4  1  0
 22 17  1  0
 11  6  1  0
  3 25  1  0
  5 26  1  0
  5 27  1  0
  6 28  1  1
  7 29  1  0
  7 30  1  0
  8 31  1  6
  9 32  1  0
  9 33  1  0
 10 34  1  6
 11 35  1  0
 11 36  1  0
 12 37  1  0
 12 38  1  0
 13 39  1  0
 13 40  1  0
 18 41  1  0
 19 42  1  0
 21 43  1  0
 22 44  1  0
 24 45  1  0
M  END
>  <meeko>  (52) 
{"is_sidechain": false}

$$$$

     RDKit          3D

 45 49  0  0  0  0  0  0  0  0999 V2000
    9.8060    1.4410  -55.7090 O   0  0  0  0  0  0  0  0  0  0  0  0
    8.5990    1.2760  -55.8500 C   0  0  0  0  0  0  0  0  0  0  0  0
    7.8300    1.9540  -56.7790 N   0  0  0  0  0  0  0  0  0  0  0  0
    8.3170    2.9570  -57.7240 C   0  0  2  0  0  0  0  0  0  0  0  0
    9.5560    2.4520  -58.5050 C   0  0  0  0  0  0  0  0  0  0  0  0
   10.0170    3.5060  -59.5270 C   0  0  1  0  0  0  0  0  0  0  0  0
    8.8810    3.7790  -60.5250 C   0  0  0  0  0  0  0  0  0  0  0  0
    7.6420    4.3010  -59.7800 C   0  0  2  0  0  0  0  0  0  0  0  0
    8.0010    5.6010  -59.0440 C   0  0  0  0  0  0  0  0  0  0  0  0
    9.1330    5.3400  -58.0370 C   0  0  2  0  0  0  0  0  0  0  0  0
   10.3670    4.8090  -58.7890 C   0  0  0  0  0  0  0  0  0  0  0  0
    8.6710    4.2870  -57.0150 C   0  0  0  0  0  0  0  0  0  0  0  0
    7.1920    3.2500  -58.7530 C   0  0  0  0  0  0  0  0  0  0  0  0
    7.7960    0.3260  -55.0460 C   0  0  0  0  0  0  0  0  0  0  0  0
    6.4750    0.1350  -55.1850 N   0  0  0  0  0  0  0  0  0  0  0  0
    6.2270   -0.7970  -54.2560 N   0  0  0  0  0  0  0  0  0  0  0  0
    7.3540   -1.1650  -53.5730 C   0  0  0  0  0  0  0  0  0  0  0  0
    7.4110   -2.1590  -52.5000 C   0  0  0  0  0  0  0  0  0  0  0  0
    7.0980   -3.4920  -52.7890 C   0  0  0  0  0  0  0  0  0  0  0  0
    7.1520   -4.4300  -51.7720 C   0  0  0  0  0  0  0  0  0  0  0  0
    7.4930   -4.1350  -50.5020 N   0  0  0  0  0  0  0  0  0  0  0  0
    7.7920   -2.8480  -50.2370 C   0  0  0  0  0  0  0  0  0  0  0  0
    7.7670   -1.8360  -51.1870 C   0  0  0  0  0  0  0  0  0  0  0  0
    8.3650   -0.4660  -54.0550 N   0  0  0  0  0  0  0  0  0  0  0  0
    6.8430    1.7090  -56.7770 H   0  0  0  0  0  0  0  0  0  0  0  0
   10.3737    2.2530  -57.7967 H   0  0  0  0  0  0  0  0  0  0  0  0
    9.2861    1.5308  -59.0421 H   0  0  0  0  0  0  0  0  0  0  0  0
   10.9013    3.1354  -60.0661 H   0  0  0  0  0  0  0  0  0  0  0  0
    9.2110    4.5321  -61.2557 H   0  0  0  0  0  0  0  0  0  0  0  0
    8.6234    2.8440  -61.0440 H   0  0  0  0  0  0  0  0  0  0  0  0
    6.8318    4.4934  -60.4987 H   0  0  0  0  0  0  0  0  0  0  0  0
    8.3302    6.3543  -59.7748 H   0  0  0  0  0  0  0  0  0  0  0  0
    7.1150    5.9668  -58.5043 H   0  0  0  0  0  0  0  0  0  0  0  0
    9.3886    6.2745  -57.5161 H   0  0  0  0  0  0  0  0  0  0  0  0
   10.7001    5.5619  -59.5185 H   0  0  0  0  0  0  0  0  0  0  0  0
   11.1703    4.6076  -58.0650 H   0  0  0  0  0  0  0  0  0  0  0  0
    9.4796    4.1067  -56.2913 H   0  0  0  0  0  0  0  0  0  0  0  0
    7.7751    4.6630  -56.4993 H   0  0  0  0  0  0  0  0  0  0  0  0
    6.3060    3.6250  -58.2197 H   0  0  0  0  0  0  0  0  0  0  0  0
    6.9557    2.3180  -59.2873 H   0  0  0  0  0  0  0  0  0  0  0  0
    5.2770   -1.1310  -54.1450 H   0  0  0  0  0  0  0  0  0  0  0  0
    6.8133   -3.7901  -53.8089 H   0  0  0  0  0  0  0  0  0  0  0  0
    6.9028   -5.4737  -52.0140 H   0  0  0  0  0  0  0  0  0  0  0  0
    8.0725   -2.5836  -49.2068 H   0  0  0  0  0  0  0  0  0  0  0  0
    8.0219   -0.8017  -50.9126 H   0  0  0  0  0  0  0  0  0  0  0  0
  1  2  2  0
  2  3  1  0
  4  3  1  1
  4  5  1  0
  5  6  1  0
  6  7  1  0
  7  8  1  0
  8  9  1  0
  9 10  1  0
 10 11  1  0
 10 12  1  0
  8 13  1  0
  2 14  1  0
 14 15  2  0
 15 16  1  0
 16 17  1  0
 17 18  1  0
 18 19  2  0
 19 20  1  0
 20 21  2  0
 21 22  1  0
 22 23  2  0
 17 24  2  0
 12  4  1  0
 24 14  1  0
 13  4  1  0
 23 18  1  0
 11  6  1  0
  3 25  1  0
  5 26  1  0
  5 27  1  0
  6 28  1  6
  7 29  1  0
  7 30  1  0
  8 31  1  6
  9 32  1  0
  9 33  1  0
 10 34  1  1
 11 35  1  0
 11 36  1  0
 12 37  1  0
 12 38  1  0
 13 39  1  0
 13 40  1  0
 16 41  1  0
 19 42  1  0
 20 43  1  0
 22 44  1  0
 23 45  1  0
M  END
>  <meeko>  (53) 
{"is_sidechain": false}

$$$$

     RDKit          3D

 38 40  0  0  0  0  0  0  0  0999 V2000
    9.7760   -1.0920  -54.4840 O   0  0  0  0  0  0  0  0  0  0  0  0
    8.5800   -0.8330  -54.3720 C   0  0  0  0  0  0  0  0  0  0  0  0
    7.7500   -1.4480  -53.4600 N   0  0  0  0  0  0  0  0  0  0  0  0
    8.2400   -2.3530  -52.4320 C   0  0  0  0  0  0  0  0  0  0  0  0
    7.8000   -3.7960  -52.7300 C   0  0  0  0  0  0  0  0  0  0  0  0
    6.4910   -4.1460  -52.0300 C   0  0  0  0  0  0  0  0  0  0  0  0
    6.6120   -4.0330  -50.5090 C   0  0  0  0  0  0  0  0  0  0  0  0
    7.6570   -3.0140  -50.0520 C   0  0  0  0  0  0  0  0  0  0  0  0
    7.7920   -1.8650  -51.0430 C   0  0  0  0  0  0  0  0  0  0  0  0
    7.9210    0.1580  -55.1850 C   0  0  0  0  0  0  0  0  0  0  0  0
    6.6320    0.2040  -55.4460 N   0  0  0  0  0  0  0  0  0  0  0  0
    6.4110    1.3010  -56.2460 N   0  0  0  0  0  0  0  0  0  0  0  0
    7.5640    1.9110  -56.4650 C   0  0  0  0  0  0  0  0  0  0  0  0
    7.7820    3.1180  -57.2630 C   0  0  0  0  0  0  0  0  0  0  0  0
    7.1440    3.3360  -58.4940 C   0  0  0  0  0  0  0  0  0  0  0  0
    7.3800    4.5050  -59.2250 C   0  0  0  0  0  0  0  0  0  0  0  0
    8.2570    5.4720  -58.7360 C   0  0  0  0  0  0  0  0  0  0  0  0
    8.8980    5.2720  -57.5180 C   0  0  0  0  0  0  0  0  0  0  0  0
    8.6620    4.1040  -56.7880 C   0  0  0  0  0  0  0  0  0  0  0  0
    8.5380    1.2080  -55.8030 N   0  0  0  0  0  0  0  0  0  0  0  0
    6.8120   -1.0630  -53.3830 H   0  0  0  0  0  0  0  0  0  0  0  0
    9.3400   -2.3541  -52.4345 H   0  0  0  0  0  0  0  0  0  0  0  0
    7.6645   -3.9097  -53.8157 H   0  0  0  0  0  0  0  0  0  0  0  0
    8.5799   -4.4751  -52.3552 H   0  0  0  0  0  0  0  0  0  0  0  0
    5.7065   -3.4573  -52.3769 H   0  0  0  0  0  0  0  0  0  0  0  0
    6.2396   -5.1881  -52.2764 H   0  0  0  0  0  0  0  0  0  0  0  0
    5.6341   -3.7340  -50.1036 H   0  0  0  0  0  0  0  0  0  0  0  0
    6.9360   -5.0163  -50.1372 H   0  0  0  0  0  0  0  0  0  0  0  0
    7.3565   -2.6087  -49.0745 H   0  0  0  0  0  0  0  0  0  0  0  0
    8.6287   -3.5251  -49.9840 H   0  0  0  0  0  0  0  0  0  0  0  0
    6.8181   -1.3629  -51.1398 H   0  0  0  0  0  0  0  0  0  0  0  0
    8.5586   -1.1747  -50.6613 H   0  0  0  0  0  0  0  0  0  0  0  0
    6.4504    2.5788  -58.8885 H   0  0  0  0  0  0  0  0  0  0  0  0
    6.8723    4.6617  -60.1882 H   0  0  0  0  0  0  0  0  0  0  0  0
    8.4416    6.3908  -59.3119 H   0  0  0  0  0  0  0  0  0  0  0  0
    9.5906    6.0331  -57.1294 H   0  0  0  0  0  0  0  0  0  0  0  0
    9.1737    3.9545  -55.8258 H   0  0  0  0  0  0  0  0  0  0  0  0
    9.5260    1.4050  -55.7620 H   0  0  0  0  0  0  0  0  0  0  0  0
  1  2  2  0
  2  3  1  0
  3  4  1  0
  4  5  1  0
  5  6  1  0
  6  7  1  0
  7  8  1  0
  8  9  1  0
  2 10  1  0
 10 11  2  0
 11 12  1  0
 12 13  2  0
 13 14  1  0
 14 15  2  0
 15 16  1  0
 16 17  2  0
 17 18  1  0
 18 19  2  0
 13 20  1  0
  9  4  1  0
 20 10  1  0
 19 14  1  0
  3 21  1  0
  4 22  1  0
  5 23  1  0
  5 24  1  0
  6 25  1  0
  6 26  1  0
  7 27  1  0
  7 28  1  0
  8 29  1  0
  8 30  1  0
  9 31  1  0
  9 32  1  0
 15 33  1  0
 16 34  1  0
 17 35  1  0
 18 36  1  0
 19 37  1  0
 20 38  1  0
M  END
>  <meeko>  (54) 
{"is_sidechain": false}

$$$$

     RDKit          3D

 38 40  0  0  0  0  0  0  0  0999 V2000
    7.0140    3.1000  -57.1610 O   0  0  0  0  0  0  0  0  0  0  0  0
    7.7980    2.2050  -56.8570 C   0  0  0  0  0  0  0  0  0  0  0  0
    9.0690    2.1270  -57.4210 N   0  0  0  0  0  0  0  0  0  0  0  0
    9.4700    3.0500  -58.4780 C   0  0  0  0  0  0  0  0  0  0  0  0
    9.2570    2.4380  -59.8650 C   0  0  0  0  0  0  0  0  0  0  0  0
    9.5850    3.4310  -60.9830 C   0  0  0  0  0  0  0  0  0  0  0  0
   10.6400    4.4670  -60.5920 C   0  0  0  0  0  0  0  0  0  0  0  0
   11.6270    3.9130  -59.5750 C   0  0  0  0  0  0  0  0  0  0  0  0
   10.9340    3.4760  -58.2810 C   0  0  0  0  0  0  0  0  0  0  0  0
    7.4980    1.1530  -55.9110 C   0  0  0  0  0  0  0  0  0  0  0  0
    8.3700    0.5480  -55.1290 N   0  0  0  0  0  0  0  0  0  0  0  0
    7.6190   -0.3680  -54.4240 C   0  0  0  0  0  0  0  0  0  0  0  0
    8.2080   -1.2520  -53.4220 C   0  0  0  0  0  0  0  0  0  0  0  0
    9.4980   -1.7780  -53.5910 C   0  0  0  0  0  0  0  0  0  0  0  0
   10.0540   -2.6230  -52.6270 C   0  0  0  0  0  0  0  0  0  0  0  0
    9.3270   -2.9510  -51.4840 C   0  0  0  0  0  0  0  0  0  0  0  0
    8.0450   -2.4340  -51.3020 C   0  0  0  0  0  0  0  0  0  0  0  0
    7.4890   -1.5890  -52.2650 C   0  0  0  0  0  0  0  0  0  0  0  0
    6.3150   -0.3540  -54.7480 N   0  0  0  0  0  0  0  0  0  0  0  0
    6.2770    0.5850  -55.7020 N   0  0  0  0  0  0  0  0  0  0  0  0
    9.5100    1.2180  -57.4340 H   0  0  0  0  0  0  0  0  0  0  0  0
    8.8325    3.9442  -58.4145 H   0  0  0  0  0  0  0  0  0  0  0  0
    9.9080    1.5574  -59.9691 H   0  0  0  0  0  0  0  0  0  0  0  0
    8.1966    2.1599  -59.9560 H   0  0  0  0  0  0  0  0  0  0  0  0
    9.9566    2.8669  -61.8511 H   0  0  0  0  0  0  0  0  0  0  0  0
    8.6595    3.9818  -61.2068 H   0  0  0  0  0  0  0  0  0  0  0  0
   11.1914    4.7714  -61.4939 H   0  0  0  0  0  0  0  0  0  0  0  0
   10.1241    5.3245  -60.1354 H   0  0  0  0  0  0  0  0  0  0  0  0
   12.1393    3.0443  -60.0142 H   0  0  0  0  0  0  0  0  0  0  0  0
   12.3408    4.7117  -59.3248 H   0  0  0  0  0  0  0  0  0  0  0  0
   11.4896    2.6253  -57.8596 H   0  0  0  0  0  0  0  0  0  0  0  0
   10.9279    4.3471  -57.6093 H   0  0  0  0  0  0  0  0  0  0  0  0
   10.0769   -1.5227  -54.4908 H   0  0  0  0  0  0  0  0  0  0  0  0
   11.0660   -3.0296  -52.7703 H   0  0  0  0  0  0  0  0  0  0  0  0
    9.7644   -3.6174  -50.7260 H   0  0  0  0  0  0  0  0  0  0  0  0
    7.4713   -2.6918  -50.3996 H   0  0  0  0  0  0  0  0  0  0  0  0
    6.4775   -1.1836  -52.1150 H   0  0  0  0  0  0  0  0  0  0  0  0
    5.4030    0.7760  -56.1780 H   0  0  0  0  0  0  0  0  0  0  0  0
  1  2  2  0
  2  3  1  0
  3  4  1  0
  4  5  1  0
  5  6  1  0
  6  7  1  0
  7  8  1  0
  8  9  1  0
  2 10  1  0
 10 11  2  0
 11 12  1  0
 12 13  1  0
 13 14  2  0
 14 15  1  0
 15 16  2  0
 16 17  1  0
 17 18  2  0
 12 19  2  0
 19 20  1  0
  9  4  1  0
 20 10  1  0
 18 13  1  0
  3 21  1  0
  4 22  1  0
  5 23  1  0
  5 24  1  0
  6 25  1  0
  6 26  1  0
  7 27  1  0
  7 28  1  0
  8 29  1  0
  8 30  1  0
  9 31  1  0
  9 32  1  0
 14 33  1  0
 15 34  1  0
 16 35  1  0
 17 36  1  0
 18 37  1  0
 20 38  1  0
M  END
>  <meeko>  (55) 
{"is_sidechain": false}

$$$$

     RDKit          3D

 38 40  0  0  0  0  0  0  0  0999 V2000
    8.5420    4.3390  -56.7600 O   0  0  0  0  0  0  0  0  0  0  0  0
    8.3870    3.9390  -57.9110 C   0  0  0  0  0  0  0  0  0  0  0  0
    9.3160    4.1500  -58.9160 N   0  0  0  0  0  0  0  0  0  0  0  0
   10.6290    4.7120  -58.6640 C   0  0  0  0  0  0  0  0  0  0  0  0
   11.6210    3.6140  -58.2580 C   0  0  0  0  0  0  0  0  0  0  0  0
   13.0280    4.1710  -58.0560 C   0  0  0  0  0  0  0  0  0  0  0  0
   13.5140    4.9330  -59.2850 C   0  0  0  0  0  0  0  0  0  0  0  0
   12.5320    6.0270  -59.6920 C   0  0  0  0  0  0  0  0  0  0  0  0
   11.1260    5.4720  -59.8980 C   0  0  0  0  0  0  0  0  0  0  0  0
    7.2050    3.1710  -58.3640 C   0  0  0  0  0  0  0  0  0  0  0  0
    6.3990    2.5040  -57.5090 N   0  0  0  0  0  0  0  0  0  0  0  0
    5.4920    1.9770  -58.3500 N   0  0  0  0  0  0  0  0  0  0  0  0
    5.7290    2.3160  -59.6530 C   0  0  0  0  0  0  0  0  0  0  0  0
    4.9180    1.9020  -60.8010 C   0  0  0  0  0  0  0  0  0  0  0  0
    3.7410    1.1500  -60.6660 C   0  0  0  0  0  0  0  0  0  0  0  0
    2.9990    0.7770  -61.7930 C   0  0  0  0  0  0  0  0  0  0  0  0
    3.4230    1.1520  -63.0670 C   0  0  0  0  0  0  0  0  0  0  0  0
    4.5880    1.8980  -63.2170 C   0  0  0  0  0  0  0  0  0  0  0  0
    5.3290    2.2690  -62.0920 C   0  0  0  0  0  0  0  0  0  0  0  0
    6.8080    3.0730  -59.6810 N   0  0  0  0  0  0  0  0  0  0  0  0
    9.1250    3.6570  -59.7840 H   0  0  0  0  0  0  0  0  0  0  0  0
   10.5523    5.4224  -57.8277 H   0  0  0  0  0  0  0  0  0  0  0  0
   11.2805    3.1559  -57.3177 H   0  0  0  0  0  0  0  0  0  0  0  0
   11.6595    2.8702  -59.0675 H   0  0  0  0  0  0  0  0  0  0  0  0
   13.0211    4.8532  -57.1931 H   0  0  0  0  0  0  0  0  0  0  0  0
   13.7105    3.3256  -57.8841 H   0  0  0  0  0  0  0  0  0  0  0  0
   14.4870    5.3931  -59.0581 H   0  0  0  0  0  0  0  0  0  0  0  0
   13.6010    4.2211  -60.1190 H   0  0  0  0  0  0  0  0  0  0  0  0
   12.5017    6.7914  -58.9016 H   0  0  0  0  0  0  0  0  0  0  0  0
   12.8739    6.4592  -60.6440 H   0  0  0  0  0  0  0  0  0  0  0  0
   10.4398    6.3071  -60.1024 H   0  0  0  0  0  0  0  0  0  0  0  0
   11.1558    4.7694  -60.7438 H   0  0  0  0  0  0  0  0  0  0  0  0
    4.7470    1.4070  -57.9720 H   0  0  0  0  0  0  0  0  0  0  0  0
    3.3980    0.8506  -59.6647 H   0  0  0  0  0  0  0  0  0  0  0  0
    2.0788    0.1864  -61.6730 H   0  0  0  0  0  0  0  0  0  0  0  0
    2.8381    0.8589  -63.9513 H   0  0  0  0  0  0  0  0  0  0  0  0
    4.9255    2.1955  -64.2208 H   0  0  0  0  0  0  0  0  0  0  0  0
    6.2491    2.8581  -62.2201 H   0  0  0  0  0  0  0  0  0  0  0  0
  1  2  2  0
  2  3  1  0
  3  4  1  0
  4  5  1  0
  5  6  1  0
  6  7  1  0
  7  8  1  0
  8  9  1  0
  2 10  1  0
 10 11  2  0
 11 12  1  0
 12 13  1  0
 13 14  1  0
 14 15  2  0
 15 16  1  0
 16 17  2  0
 17 18  1  0
 18 19  2  0
 13 20  2  0
  9  4  1  0
 20 10  1  0
 19 14  1  0
  3 21  1  0
  4 22  1  0
  5 23  1  0
  5 24  1  0
  6 25  1  0
  6 26  1  0
  7 27  1  0
  7 28  1  0
  8 29  1  0
  8 30  1  0
  9 31  1  0
  9 32  1  0
 12 33  1  0
 15 34  1  0
 16 35  1  0
 17 36  1  0
 18 37  1  0
 19 38  1  0
M  END
>  <meeko>  (56) 
{"is_sidechain": false}

$$$$

     RDKit          3D

 35 37  0  0  0  0  0  0  0  0999 V2000
    9.0500   -0.7930  -54.5170 O   0  0  0  0  0  0  0  0  0  0  0  0
    9.8500   -0.4460  -55.3830 C   0  0  0  0  0  0  0  0  0  0  0  0
   10.8880   -1.2760  -55.7860 N   0  0  0  0  0  0  0  0  0  0  0  0
   11.1490   -2.5200  -55.0880 C   0  0  0  0  0  0  0  0  0  0  0  0
   11.5310   -3.6030  -56.0630 C   0  0  0  0  0  0  0  0  0  0  0  0
   11.9030   -4.8720  -55.5960 C   0  0  0  0  0  0  0  0  0  0  0  0
   12.2850   -5.8720  -56.4910 C   0  0  0  0  0  0  0  0  0  0  0  0
   12.3020   -5.6140  -57.8600 C   0  0  0  0  0  0  0  0  0  0  0  0
   11.9390   -4.3540  -58.3360 C   0  0  0  0  0  0  0  0  0  0  0  0
   11.5580   -3.3520  -57.4420 C   0  0  0  0  0  0  0  0  0  0  0  0
    9.8040    0.8330  -56.0620 C   0  0  0  0  0  0  0  0  0  0  0  0
    8.7510    1.6230  -56.0980 N   0  0  0  0  0  0  0  0  0  0  0  0
    9.0800    2.7400  -56.8300 N   0  0  0  0  0  0  0  0  0  0  0  0
   10.3200    2.6150  -57.2630 C   0  0  0  0  0  0  0  0  0  0  0  0
   11.0610    3.5670  -58.0920 C   0  0  0  0  0  0  0  0  0  0  0  0
   12.4500    3.7400  -57.9930 C   0  0  0  0  0  0  0  0  0  0  0  0
   13.1150    4.6640  -58.8060 C   0  0  0  0  0  0  0  0  0  0  0  0
   12.4020    5.4280  -59.7270 C   0  0  0  0  0  0  0  0  0  0  0  0
   11.0240    5.2690  -59.8390 C   0  0  0  0  0  0  0  0  0  0  0  0
   10.3610    4.3450  -59.0280 C   0  0  0  0  0  0  0  0  0  0  0  0
   10.8030    1.4190  -56.7950 N   0  0  0  0  0  0  0  0  0  0  0  0
   11.6910   -0.8510  -56.2230 H   0  0  0  0  0  0  0  0  0  0  0  0
   11.9724   -2.3687  -54.3745 H   0  0  0  0  0  0  0  0  0  0  0  0
   10.2367   -2.8269  -54.5555 H   0  0  0  0  0  0  0  0  0  0  0  0
   11.8936   -5.0806  -54.5160 H   0  0  0  0  0  0  0  0  0  0  0  0
   12.5730   -6.8649  -56.1153 H   0  0  0  0  0  0  0  0  0  0  0  0
   12.6015   -6.4034  -58.5651 H   0  0  0  0  0  0  0  0  0  0  0  0
   11.9530   -4.1499  -59.4168 H   0  0  0  0  0  0  0  0  0  0  0  0
   11.2770   -2.3587  -57.8221 H   0  0  0  0  0  0  0  0  0  0  0  0
   13.0223    3.1425  -57.2681 H   0  0  0  0  0  0  0  0  0  0  0  0
   14.2045    4.7876  -58.7177 H   0  0  0  0  0  0  0  0  0  0  0  0
   12.9268    6.1551  -60.3641 H   0  0  0  0  0  0  0  0  0  0  0  0
   10.4576    5.8703  -60.5654 H   0  0  0  0  0  0  0  0  0  0  0  0
    9.2718    4.2248  -59.1243 H   0  0  0  0  0  0  0  0  0  0  0  0
   11.7050    1.0190  -56.9870 H   0  0  0  0  0  0  0  0  0  0  0  0
  1  2  2  0
  2  3  1  0
  3  4  1  0
  4  5  1  0
  5  6  2  0
  6  7  1  0
  7  8  2  0
  8  9  1  0
  9 10  2  0
  2 11  1  0
 11 12  2  0
 12 13  1  0
 13 14  2  0
 14 15  1  0
 15 16  2  0
 16 17  1  0
 17 18  2  0
 18 19  1  0
 19 20  2  0
 14 21  1  0
 10  5  1  0
 21 11  1  0
 20 15  1  0
  3 22  1  0
  4 23  1  0
  4 24  1  0
  6 25  1  0
  7 26  1  0
  8 27  1  0
  9 28  1  0
 10 29  1  0
 16 30  1  0
 17 31  1  0
 18 32  1  0
 19 33  1  0
 20 34  1  0
 21 35  1  0
M  END
>  <meeko>  (57) 
{"is_sidechain": false}

$$$$

     RDKit          3D

 35 37  0  0  0  0  0  0  0  0999 V2000
    9.0590   -0.8030  -54.4710 O   0  0  0  0  0  0  0  0  0  0  0  0
    9.8380   -0.4690  -55.3600 C   0  0  0  0  0  0  0  0  0  0  0  0
   10.8640   -1.3050  -55.7770 N   0  0  0  0  0  0  0  0  0  0  0  0
   11.1360   -2.5440  -55.0770 C   0  0  0  0  0  0  0  0  0  0  0  0
   11.5180   -3.6290  -56.0510 C   0  0  0  0  0  0  0  0  0  0  0  0
   11.8860   -4.9000  -55.5850 C   0  0  0  0  0  0  0  0  0  0  0  0
   12.2680   -5.8990  -56.4800 C   0  0  0  0  0  0  0  0  0  0  0  0
   12.2910   -5.6390  -57.8480 C   0  0  0  0  0  0  0  0  0  0  0  0
   11.9330   -4.3780  -58.3240 C   0  0  0  0  0  0  0  0  0  0  0  0
   11.5510   -3.3760  -57.4310 C   0  0  0  0  0  0  0  0  0  0  0  0
    9.7750    0.8050  -56.0470 C   0  0  0  0  0  0  0  0  0  0  0  0
   10.7730    1.3750  -56.6920 N   0  0  0  0  0  0  0  0  0  0  0  0
   10.2460    2.5580  -57.1640 C   0  0  0  0  0  0  0  0  0  0  0  0
   11.0310    3.5000  -57.9560 C   0  0  0  0  0  0  0  0  0  0  0  0
   10.4550    4.2010  -59.0280 C   0  0  0  0  0  0  0  0  0  0  0  0
   11.2150    5.1000  -59.7810 C   0  0  0  0  0  0  0  0  0  0  0  0
   12.5570    5.3090  -59.4720 C   0  0  0  0  0  0  0  0  0  0  0  0
   13.1420    4.6210  -58.4100 C   0  0  0  0  0  0  0  0  0  0  0  0
   12.3830    3.7220  -57.6560 C   0  0  0  0  0  0  0  0  0  0  0  0
    8.9590    2.7430  -56.8230 N   0  0  0  0  0  0  0  0  0  0  0  0
    8.7020    1.6430  -56.1040 N   0  0  0  0  0  0  0  0  0  0  0  0
   11.6610   -0.8910  -56.2380 H   0  0  0  0  0  0  0  0  0  0  0  0
   11.9630   -2.3856  -54.3692 H   0  0  0  0  0  0  0  0  0  0  0  0
   10.2287   -2.8540  -54.5378 H   0  0  0  0  0  0  0  0  0  0  0  0
   11.8732   -5.1103  -54.5054 H   0  0  0  0  0  0  0  0  0  0  0  0
   12.5515   -6.8935  -56.1050 H   0  0  0  0  0  0  0  0  0  0  0  0
   12.5915   -6.4281  -58.5529 H   0  0  0  0  0  0  0  0  0  0  0  0
   11.9518   -4.1730  -59.4046 H   0  0  0  0  0  0  0  0  0  0  0  0
   11.2740   -2.3816  -57.8111 H   0  0  0  0  0  0  0  0  0  0  0  0
    9.3956    4.0409  -59.2773 H   0  0  0  0  0  0  0  0  0  0  0  0
   10.7530    5.6431  -60.6186 H   0  0  0  0  0  0  0  0  0  0  0  0
   13.1548    6.0164  -60.0655 H   0  0  0  0  0  0  0  0  0  0  0  0
   14.2017    4.7859  -58.1654 H   0  0  0  0  0  0  0  0  0  0  0  0
   12.8506    3.1830  -56.8188 H   0  0  0  0  0  0  0  0  0  0  0  0
    7.7940    1.5370  -55.6700 H   0  0  0  0  0  0  0  0  0  0  0  0
  1  2  2  0
  2  3  1  0
  3  4  1  0
  4  5  1  0
  5  6  2  0
  6  7  1  0
  7  8  2  0
  8  9  1  0
  9 10  2  0
  2 11  1  0
 11 12  2  0
 12 13  1  0
 13 14  1  0
 14 15  2  0
 15 16  1  0
 16 17  2  0
 17 18  1  0
 18 19  2  0
 13 20  2  0
 20 21  1  0
 10  5  1  0
 21 11  1  0
 19 14  1  0
  3 22  1  0
  4 23  1  0
  4 24  1  0
  6 25  1  0
  7 26  1  0
  8 27  1  0
  9 28  1  0
 10 29  1  0
 15 30  1  0
 16 31  1  0
 17 32  1  0
 18 33  1  0
 19 34  1  0
 21 35  1  0
M  END
>  <meeko>  (58) 
{"is_sidechain": false}

$$$$

     RDKit          3D

 35 37  0  0  0  0  0  0  0  0999 V2000
    8.9710   -0.8360  -54.4430 O   0  0  0  0  0  0  0  0  0  0  0  0
    9.7680   -0.5040  -55.3160 C   0  0  0  0  0  0  0  0  0  0  0  0
   10.8060   -1.3140  -55.7380 N   0  0  0  0  0  0  0  0  0  0  0  0
   11.1570   -2.5370  -55.0660 C   0  0  0  0  0  0  0  0  0  0  0  0
   11.5350   -3.6050  -56.0580 C   0  0  0  0  0  0  0  0  0  0  0  0
   11.9150   -4.8800  -55.6130 C   0  0  0  0  0  0  0  0  0  0  0  0
   12.2870   -5.8680  -56.5250 C   0  0  0  0  0  0  0  0  0  0  0  0
   12.2900   -5.5900  -57.8900 C   0  0  0  0  0  0  0  0  0  0  0  0
   11.9240   -4.3240  -58.3440 C   0  0  0  0  0  0  0  0  0  0  0  0
   11.5520   -3.3340  -57.4320 C   0  0  0  0  0  0  0  0  0  0  0  0
    9.7280    0.7990  -56.0150 C   0  0  0  0  0  0  0  0  0  0  0  0
    8.6230    1.5740  -56.0490 N   0  0  0  0  0  0  0  0  0  0  0  0
    9.0480    2.6180  -56.7820 N   0  0  0  0  0  0  0  0  0  0  0  0
   10.3510    2.4840  -57.1750 C   0  0  0  0  0  0  0  0  0  0  0  0
   11.1000    3.4520  -57.9810 C   0  0  0  0  0  0  0  0  0  0  0  0
   10.5320    4.1360  -59.0670 C   0  0  0  0  0  0  0  0  0  0  0  0
   11.2880    5.0510  -59.8080 C   0  0  0  0  0  0  0  0  0  0  0  0
   12.6190    5.2940  -59.4750 C   0  0  0  0  0  0  0  0  0  0  0  0
   13.1960    4.6240  -58.4010 C   0  0  0  0  0  0  0  0  0  0  0  0
   12.4420    3.7100  -57.6610 C   0  0  0  0  0  0  0  0  0  0  0  0
   10.7990    1.3390  -56.6990 N   0  0  0  0  0  0  0  0  0  0  0  0
   11.4700   -0.8780  -56.3700 H   0  0  0  0  0  0  0  0  0  0  0  0
   12.0096   -2.3486  -54.3970 H   0  0  0  0  0  0  0  0  0  0  0  0
   10.2866   -2.8842  -54.4900 H   0  0  0  0  0  0  0  0  0  0  0  0
   11.9197   -5.1026  -54.5358 H   0  0  0  0  0  0  0  0  0  0  0  0
   12.5779   -6.8664  -56.1663 H   0  0  0  0  0  0  0  0  0  0  0  0
   12.5812   -6.3695  -58.6095 H   0  0  0  0  0  0  0  0  0  0  0  0
   11.9282   -4.1045  -59.4219 H   0  0  0  0  0  0  0  0  0  0  0  0
   11.2704   -2.3346  -57.7952 H   0  0  0  0  0  0  0  0  0  0  0  0
    8.4060    3.3760  -56.9750 H   0  0  0  0  0  0  0  0  0  0  0  0
    9.4822    3.9509  -59.3383 H   0  0  0  0  0  0  0  0  0  0  0  0
   10.8299    5.5804  -60.6565 H   0  0  0  0  0  0  0  0  0  0  0  0
   13.2116    6.0133  -60.0594 H   0  0  0  0  0  0  0  0  0  0  0  0
   14.2462    4.8140  -58.1344 H   0  0  0  0  0  0  0  0  0  0  0  0
   12.9074    3.1842  -56.8142 H   0  0  0  0  0  0  0  0  0  0  0  0
  1  2  2  0
  2  3  1  0
  3  4  1  0
  4  5  1  0
  5  6  2  0
  6  7  1  0
  7  8  2  0
  8  9  1  0
  9 10  2  0
  2 11  1  0
 11 12  2  0
 12 13  1  0
 13 14  1  0
 14 15  1  0
 15 16  2  0
 16 17  1  0
 17 18  2  0
 18 19  1  0
 19 20  2  0
 14 21  2  0
 10  5  1  0
 21 11  1  0
 20 15  1  0
  3 22  1  0
  4 23  1  0
  4 24  1  0
  6 25  1  0
  7 26  1  0
  8 27  1  0
  9 28  1  0
 10 29  1  0
 13 30  1  0
 16 31  1  0
 17 32  1  0
 18 33  1  0
 19 34  1  0
 20 35  1  0
M  END
>  <meeko>  (59) 
{"is_sidechain": false}

$$$$

     RDKit          3D

 41 43  0  0  0  0  0  0  0  0999 V2000
    7.1810    2.0390  -57.1050 O   0  0  0  0  0  0  0  0  0  0  0  0
    7.9560    1.5650  -56.2790 C   0  0  0  0  0  0  0  0  0  0  0  0
    9.2700    1.9590  -56.1540 N   0  0  0  0  0  0  0  0  0  0  0  0
    9.9230    2.8700  -57.0860 C   0  0  0  0  0  0  0  0  0  0  0  0
    9.6040    4.3140  -56.6790 C   0  0  0  0  0  0  0  0  0  0  0  0
    9.4250    5.2930  -57.8360 C   0  0  0  0  0  0  0  0  0  0  0  0
   10.6840    5.4090  -58.7180 C   0  0  0  0  0  0  0  0  0  0  0  0
   11.2710    4.0930  -59.2180 C   0  0  0  0  0  0  0  0  0  0  0  0
   12.1860    3.3680  -58.2320 C   0  0  0  0  0  0  0  0  0  0  0  0
   11.4120    2.5210  -57.2230 C   0  0  0  0  0  0  0  0  0  0  0  0
    7.5670    0.5290  -55.3550 C   0  0  0  0  0  0  0  0  0  0  0  0
    6.3900   -0.0580  -55.3090 N   0  0  0  0  0  0  0  0  0  0  0  0
    6.4270   -0.9780  -54.2860 N   0  0  0  0  0  0  0  0  0  0  0  0
    7.6220   -0.9420  -53.7200 C   0  0  0  0  0  0  0  0  0  0  0  0
    8.0850   -1.7570  -52.5940 C   0  0  0  0  0  0  0  0  0  0  0  0
    9.3570   -2.3450  -52.6530 C   0  0  0  0  0  0  0  0  0  0  0  0
    9.8390   -3.1300  -51.6020 C   0  0  0  0  0  0  0  0  0  0  0  0
    9.0510   -3.3370  -50.4730 C   0  0  0  0  0  0  0  0  0  0  0  0
    7.7850   -2.7610  -50.3960 C   0  0  0  0  0  0  0  0  0  0  0  0
    7.3030   -1.9750  -51.4490 C   0  0  0  0  0  0  0  0  0  0  0  0
    8.3650    0.0040  -54.3770 N   0  0  0  0  0  0  0  0  0  0  0  0
    9.8360    1.4080  -55.5130 H   0  0  0  0  0  0  0  0  0  0  0  0
    9.5300    2.7583  -58.1073 H   0  0  0  0  0  0  0  0  0  0  0  0
    8.6721    4.3044  -56.0946 H   0  0  0  0  0  0  0  0  0  0  0  0
   10.4764    4.6700  -56.1114 H   0  0  0  0  0  0  0  0  0  0  0  0
    8.5878    4.9494  -58.4613 H   0  0  0  0  0  0  0  0  0  0  0  0
    9.2297    6.2855  -57.4039 H   0  0  0  0  0  0  0  0  0  0  0  0
   10.4249    6.0179  -59.5967 H   0  0  0  0  0  0  0  0  0  0  0  0
   11.4575    5.8547  -58.0753 H   0  0  0  0  0  0  0  0  0  0  0  0
   10.4360    3.4204  -59.4639 H   0  0  0  0  0  0  0  0  0  0  0  0
   11.9001    4.3504  -60.0829 H   0  0  0  0  0  0  0  0  0  0  0  0
   12.8626    2.7106  -58.7978 H   0  0  0  0  0  0  0  0  0  0  0  0
   12.7397    4.1332  -57.6682 H   0  0  0  0  0  0  0  0  0  0  0  0
   11.4882    1.4681  -57.5323 H   0  0  0  0  0  0  0  0  0  0  0  0
   11.8656    2.7231  -56.2415 H   0  0  0  0  0  0  0  0  0  0  0  0
    9.9858   -2.1856  -53.5414 H   0  0  0  0  0  0  0  0  0  0  0  0
   10.8391   -3.5835  -51.6666 H   0  0  0  0  0  0  0  0  0  0  0  0
    9.4273   -3.9540  -49.6437 H   0  0  0  0  0  0  0  0  0  0  0  0
    7.1619   -2.9245  -49.5044 H   0  0  0  0  0  0  0  0  0  0  0  0
    6.3022   -1.5240  -51.3786 H   0  0  0  0  0  0  0  0  0  0  0  0
    9.3170    0.2820  -54.1960 H   0  0  0  0  0  0  0  0  0  0  0  0
  1  2  2  0
  2  3  1  0
  3  4  1  0
  4  5  1  0
  5  6  1  0
  6  7  1  0
  7  8  1  0
  8  9  1  0
  9 10  1  0
  2 11  1  0
 11 12  2  0
 12 13  1  0
 13 14  2  0
 14 15  1  0
 15 16  2  0
 16 17  1  0
 17 18  2  0
 18 19  1  0
 19 20  2  0
 14 21  1  0
 10  4  1  0
 21 11  1  0
 20 15  1  0
  3 22  1  0
  4 23  1  0
  5 24  1  0
  5 25  1  0
  6 26  1  0
  6 27  1  0
  7 28  1  0
  7 29  1  0
  8 30  1  0
  8 31  1  0
  9 32  1  0
  9 33  1  0
 10 34  1  0
 10 35  1  0
 16 36  1  0
 17 37  1  0
 18 38  1  0
 19 39  1  0
 20 40  1  0
 21 41  1  0
M  END
>  <meeko>  (60) 
{"is_sidechain": false}

$$$$

     RDKit          3D

 41 43  0  0  0  0  0  0  0  0999 V2000
    7.0730    1.8630  -56.7830 O   0  0  0  0  0  0  0  0  0  0  0  0
    7.8700    1.3520  -56.0000 C   0  0  0  0  0  0  0  0  0  0  0  0
    9.2140    1.7000  -56.0110 N   0  0  0  0  0  0  0  0  0  0  0  0
    9.7580    2.6430  -56.9880 C   0  0  0  0  0  0  0  0  0  0  0  0
    9.4990    4.0920  -56.5300 C   0  0  0  0  0  0  0  0  0  0  0  0
    9.2560    5.0870  -57.6620 C   0  0  0  0  0  0  0  0  0  0  0  0
   10.4820    5.3990  -58.5400 C   0  0  0  0  0  0  0  0  0  0  0  0
   11.2880    4.2150  -59.0710 C   0  0  0  0  0  0  0  0  0  0  0  0
   12.0220    3.4010  -58.0100 C   0  0  0  0  0  0  0  0  0  0  0  0
   11.2190    2.3010  -57.3190 C   0  0  0  0  0  0  0  0  0  0  0  0
    7.5000    0.3640  -55.0090 C   0  0  0  0  0  0  0  0  0  0  0  0
    8.3060   -0.1400  -54.0940 N   0  0  0  0  0  0  0  0  0  0  0  0
    7.5160   -1.0190  -53.3860 C   0  0  0  0  0  0  0  0  0  0  0  0
    8.0340   -1.8090  -52.2730 C   0  0  0  0  0  0  0  0  0  0  0  0
    7.3530   -1.8330  -51.0460 C   0  0  0  0  0  0  0  0  0  0  0  0
    7.8420   -2.5850  -49.9740 C   0  0  0  0  0  0  0  0  0  0  0  0
    9.0170   -3.3210  -50.1180 C   0  0  0  0  0  0  0  0  0  0  0  0
    9.7040   -3.3080  -51.3310 C   0  0  0  0  0  0  0  0  0  0  0  0
    9.2150   -2.5550  -52.4030 C   0  0  0  0  0  0  0  0  0  0  0  0
    6.2470   -1.0700  -53.8250 N   0  0  0  0  0  0  0  0  0  0  0  0
    6.2630   -0.1730  -54.8210 N   0  0  0  0  0  0  0  0  0  0  0  0
    9.8290    1.3750  -55.2790 H   0  0  0  0  0  0  0  0  0  0  0  0
    9.2311    2.5498  -57.9491 H   0  0  0  0  0  0  0  0  0  0  0  0
    8.6128    4.0918  -55.8784 H   0  0  0  0  0  0  0  0  0  0  0  0
   10.4142    4.4232  -56.0175 H   0  0  0  0  0  0  0  0  0  0  0  0
    8.4687    4.6768  -58.3115 H   0  0  0  0  0  0  0  0  0  0  0  0
    8.9796    6.0355  -57.1784 H   0  0  0  0  0  0  0  0  0  0  0  0
   10.1276    5.9728  -59.4090 H   0  0  0  0  0  0  0  0  0  0  0  0
   11.1750    5.9341  -57.8742 H   0  0  0  0  0  0  0  0  0  0  0  0
   10.5963    3.5416  -59.5984 H   0  0  0  0  0  0  0  0  0  0  0  0
   12.0662    4.6422  -59.7206 H   0  0  0  0  0  0  0  0  0  0  0  0
   12.8900    2.9282  -58.4927 H   0  0  0  0  0  0  0  0  0  0  0  0
   12.2757    4.1189  -57.2161 H   0  0  0  0  0  0  0  0  0  0  0  0
   11.2179    1.4202  -57.9779 H   0  0  0  0  0  0  0  0  0  0  0  0
   11.7128    2.1363  -56.3500 H   0  0  0  0  0  0  0  0  0  0  0  0
    6.4252   -1.2542  -50.9268 H   0  0  0  0  0  0  0  0  0  0  0  0
    7.2997   -2.5960  -49.0170 H   0  0  0  0  0  0  0  0  0  0  0  0
    9.4023   -3.9123  -49.2742 H   0  0  0  0  0  0  0  0  0  0  0  0
   10.6305   -3.8899  -51.4448 H   0  0  0  0  0  0  0  0  0  0  0  0
    9.7616   -2.5475  -53.3575 H   0  0  0  0  0  0  0  0  0  0  0  0
    5.4000    0.0360  -55.3070 H   0  0  0  0  0  0  0  0  0  0  0  0
  1  2  2  0
  2  3  1  0
  3  4  1  0
  4  5  1  0
  5  6  1  0
  6  7  1  0
  7  8  1  0
  8  9  1  0
  9 10  1  0
  2 11  1  0
 11 12  2  0
 12 13  1  0
 13 14  1  0
 14 15  2  0
 15 16  1  0
 16 17  2  0
 17 18  1  0
 18 19  2  0
 13 20  2  0
 20 21  1  0
 10  4  1  0
 21 11  1  0
 19 14  1  0
  3 22  1  0
  4 23  1  0
  5 24  1  0
  5 25  1  0
  6 26  1  0
  6 27  1  0
  7 28  1  0
  7 29  1  0
  8 30  1  0
  8 31  1  0
  9 32  1  0
  9 33  1  0
 10 34  1  0
 10 35  1  0
 15 36  1  0
 16 37  1  0
 17 38  1  0
 18 39  1  0
 19 40  1  0
 21 41  1  0
M  END
>  <meeko>  (61) 
{"is_sidechain": false}

$$$$

     RDKit          3D

 41 43  0  0  0  0  0  0  0  0999 V2000
    7.6850    3.4760  -57.2630 O   0  0  0  0  0  0  0  0  0  0  0  0
    8.3640    2.5090  -56.9270 C   0  0  0  0  0  0  0  0  0  0  0  0
    9.6860    2.3450  -57.3080 N   0  0  0  0  0  0  0  0  0  0  0  0
   10.4440    3.3780  -58.0020 C   0  0  0  0  0  0  0  0  0  0  0  0
   11.9340    3.2370  -57.6660 C   0  0  0  0  0  0  0  0  0  0  0  0
   12.7910    4.4910  -57.8160 C   0  0  0  0  0  0  0  0  0  0  0  0
   12.6790    5.1990  -59.1770 C   0  0  0  0  0  0  0  0  0  0  0  0
   11.2710    5.6280  -59.6110 C   0  0  0  0  0  0  0  0  0  0  0  0
   10.4500    4.5620  -60.3320 C   0  0  0  0  0  0  0  0  0  0  0  0
   10.1240    3.3150  -59.5010 C   0  0  0  0  0  0  0  0  0  0  0  0
    7.8800    1.4070  -56.0680 C   0  0  0  0  0  0  0  0  0  0  0  0
    6.6340    0.9060  -56.0980 N   0  0  0  0  0  0  0  0  0  0  0  0
    6.6930   -0.0450  -55.1570 N   0  0  0  0  0  0  0  0  0  0  0  0
    7.9250   -0.1200  -54.5660 C   0  0  0  0  0  0  0  0  0  0  0  0
    8.3000   -1.0570  -53.5040 C   0  0  0  0  0  0  0  0  0  0  0  0
    7.4230   -1.2520  -52.4250 C   0  0  0  0  0  0  0  0  0  0  0  0
    7.7400   -2.1360  -51.3900 C   0  0  0  0  0  0  0  0  0  0  0  0
    8.9410   -2.8390  -51.4200 C   0  0  0  0  0  0  0  0  0  0  0  0
    9.8230   -2.6600  -52.4830 C   0  0  0  0  0  0  0  0  0  0  0  0
    9.5050   -1.7750  -53.5190 C   0  0  0  0  0  0  0  0  0  0  0  0
    8.6980    0.7920  -55.1280 N   0  0  0  0  0  0  0  0  0  0  0  0
   10.1720    1.5710  -56.8610 H   0  0  0  0  0  0  0  0  0  0  0  0
   10.1541    4.3842  -57.6652 H   0  0  0  0  0  0  0  0  0  0  0  0
   12.0101    2.9042  -56.6203 H   0  0  0  0  0  0  0  0  0  0  0  0
   12.3312    2.5248  -58.4042 H   0  0  0  0  0  0  0  0  0  0  0  0
   12.4903    5.2047  -57.0349 H   0  0  0  0  0  0  0  0  0  0  0  0
   13.8363    4.1599  -57.7280 H   0  0  0  0  0  0  0  0  0  0  0  0
   13.3061    6.1019  -59.1368 H   0  0  0  0  0  0  0  0  0  0  0  0
   12.9987    4.4539  -59.9203 H   0  0  0  0  0  0  0  0  0  0  0  0
   10.7166    5.9305  -58.7104 H   0  0  0  0  0  0  0  0  0  0  0  0
   11.4147    6.4405  -60.3384 H   0  0  0  0  0  0  0  0  0  0  0  0
    9.5002    5.0191  -60.6465 H   0  0  0  0  0  0  0  0  0  0  0  0
   11.0704    4.2153  -61.1716 H   0  0  0  0  0  0  0  0  0  0  0  0
    9.0463    3.1198  -59.6030 H   0  0  0  0  0  0  0  0  0  0  0  0
   10.7763    2.5247  -59.9010 H   0  0  0  0  0  0  0  0  0  0  0  0
    5.8660   -0.6000  -54.9740 H   0  0  0  0  0  0  0  0  0  0  0  0
    6.4718   -0.7005  -52.3938 H   0  0  0  0  0  0  0  0  0  0  0  0
    7.0410   -2.2761  -50.5523 H   0  0  0  0  0  0  0  0  0  0  0  0
    9.1930   -3.5345  -50.6059 H   0  0  0  0  0  0  0  0  0  0  0  0
   10.7719   -3.2158  -52.5081 H   0  0  0  0  0  0  0  0  0  0  0  0
   10.2077   -1.6408  -54.3546 H   0  0  0  0  0  0  0  0  0  0  0  0
  1  2  2  0
  2  3  1  0
  3  4  1  0
  4  5  1  0
  5  6  1  0
  6  7  1  0
  7  8  1  0
  8  9  1  0
  9 10  1  0
  2 11  1  0
 11 12  2  0
 12 13  1  0
 13 14  1  0
 14 15  1  0
 15 16  2  0
 16 17  1  0
 17 18  2  0
 18 19  1  0
 19 20  2  0
 14 21  2  0
 10  4  1  0
 21 11  1  0
 20 15  1  0
  3 22  1  0
  4 23  1  0
  5 24  1  0
  5 25  1  0
  6 26  1  0
  6 27  1  0
  7 28  1  0
  7 29  1  0
  8 30  1  0
  8 31  1  0
  9 32  1  0
  9 33  1  0
 10 34  1  0
 10 35  1  0
 13 36  1  0
 16 37  1  0
 17 38  1  0
 18 39  1  0
 19 40  1  0
 20 41  1  0
M  END
>  <meeko>  (62) 
{"is_sidechain": false}

$$$$

     RDKit          3D

 32 34  0  0  0  0  0  0  0  0999 V2000
    9.2390   -1.2900  -54.5380 O   0  0  0  0  0  0  0  0  0  0  0  0
    8.1230   -0.8140  -54.3540 C   0  0  0  0  0  0  0  0  0  0  0  0
    7.2280   -1.1790  -53.3680 N   0  0  0  0  0  0  0  0  0  0  0  0
    7.3760   -2.1550  -52.3670 C   0  0  0  0  0  0  0  0  0  0  0  0
    7.0300   -3.4710  -52.7040 C   0  0  0  0  0  0  0  0  0  0  0  0
    7.1480   -4.5010  -51.7670 C   0  0  0  0  0  0  0  0  0  0  0  0
    7.6140   -4.2260  -50.4850 C   0  0  0  0  0  0  0  0  0  0  0  0
    7.9630   -2.9220  -50.1420 C   0  0  0  0  0  0  0  0  0  0  0  0
    7.8440   -1.8900  -51.0790 C   0  0  0  0  0  0  0  0  0  0  0  0
    7.6110    0.2350  -55.2030 C   0  0  0  0  0  0  0  0  0  0  0  0
    6.3570    0.3660  -55.5870 N   0  0  0  0  0  0  0  0  0  0  0  0
    6.2840    1.4860  -56.3820 N   0  0  0  0  0  0  0  0  0  0  0  0
    7.4870    2.0260  -56.4760 C   0  0  0  0  0  0  0  0  0  0  0  0
    7.8550    3.2280  -57.2260 C   0  0  0  0  0  0  0  0  0  0  0  0
    8.8230    4.0960  -56.6960 C   0  0  0  0  0  0  0  0  0  0  0  0
    9.2050    5.2540  -57.3780 C   0  0  0  0  0  0  0  0  0  0  0  0
    8.6220    5.5620  -58.6050 C   0  0  0  0  0  0  0  0  0  0  0  0
    7.6600    4.7130  -59.1470 C   0  0  0  0  0  0  0  0  0  0  0  0
    7.2790    3.5530  -58.4640 C   0  0  0  0  0  0  0  0  0  0  0  0
    8.3480    1.2530  -55.7390 N   0  0  0  0  0  0  0  0  0  0  0  0
    6.3520   -0.6630  -53.3850 H   0  0  0  0  0  0  0  0  0  0  0  0
    6.6619   -3.6951  -53.7161 H   0  0  0  0  0  0  0  0  0  0  0  0
    6.8724   -5.5295  -52.0430 H   0  0  0  0  0  0  0  0  0  0  0  0
    7.7064   -5.0351  -49.7455 H   0  0  0  0  0  0  0  0  0  0  0  0
    8.3338   -2.7026  -49.1299 H   0  0  0  0  0  0  0  0  0  0  0  0
    8.1211   -0.8630  -50.7989 H   0  0  0  0  0  0  0  0  0  0  0  0
    9.2884    3.8604  -55.7276 H   0  0  0  0  0  0  0  0  0  0  0  0
    9.9653    5.9217  -56.9465 H   0  0  0  0  0  0  0  0  0  0  0  0
    8.9205    6.4731  -59.1443 H   0  0  0  0  0  0  0  0  0  0  0  0
    7.1982    4.9554  -60.1155 H   0  0  0  0  0  0  0  0  0  0  0  0
    6.5197    2.8884  -58.9020 H   0  0  0  0  0  0  0  0  0  0  0  0
    9.3380    1.3860  -55.6000 H   0  0  0  0  0  0  0  0  0  0  0  0
  1  2  2  0
  2  3  1  0
  3  4  1  0
  4  5  2  0
  5  6  1  0
  6  7  2  0
  7  8  1  0
  8  9  2  0
  2 10  1  0
 10 11  2  0
 11 12  1  0
 12 13  2  0
 13 14  1  0
 14 15  2  0
 15 16  1  0
 16 17  2  0
 17 18  1  0
 18 19  2  0
 13 20  1  0
  9  4  1  0
 20 10  1  0
 19 14  1  0
  3 21  1  0
  5 22  1  0
  6 23  1  0
  7 24  1  0
  8 25  1  0
  9 26  1  0
 15 27  1  0
 16 28  1  0
 17 29  1  0
 18 30  1  0
 19 31  1  0
 20 32  1  0
M  END
>  <meeko>  (63) 
{"is_sidechain": false}

$$$$

     RDKit          3D

 32 34  0  0  0  0  0  0  0  0999 V2000
    9.3340   -1.1300  -54.4190 O   0  0  0  0  0  0  0  0  0  0  0  0
    8.1760   -0.7340  -54.3550 C   0  0  0  0  0  0  0  0  0  0  0  0
    7.2130   -1.2280  -53.4820 N   0  0  0  0  0  0  0  0  0  0  0  0
    7.3950   -2.1750  -52.4510 C   0  0  0  0  0  0  0  0  0  0  0  0
    7.8750   -1.8640  -51.1780 C   0  0  0  0  0  0  0  0  0  0  0  0
    8.0120   -2.8620  -50.2080 C   0  0  0  0  0  0  0  0  0  0  0  0
    7.6660   -4.1790  -50.5010 C   0  0  0  0  0  0  0  0  0  0  0  0
    7.1820   -4.4990  -51.7660 C   0  0  0  0  0  0  0  0  0  0  0  0
    7.0450   -3.5020  -52.7350 C   0  0  0  0  0  0  0  0  0  0  0  0
    7.6660    0.3160  -55.2140 C   0  0  0  0  0  0  0  0  0  0  0  0
    8.3700    1.3090  -55.7220 N   0  0  0  0  0  0  0  0  0  0  0  0
    7.4550    2.0310  -56.4580 C   0  0  0  0  0  0  0  0  0  0  0  0
    7.8270    3.2280  -57.2070 C   0  0  0  0  0  0  0  0  0  0  0  0
    7.2670    3.4750  -58.4690 C   0  0  0  0  0  0  0  0  0  0  0  0
    7.6170    4.6180  -59.1920 C   0  0  0  0  0  0  0  0  0  0  0  0
    8.5310    5.5270  -58.6620 C   0  0  0  0  0  0  0  0  0  0  0  0
    9.0960    5.2940  -57.4100 C   0  0  0  0  0  0  0  0  0  0  0  0
    8.7470    4.1500  -56.6860 C   0  0  0  0  0  0  0  0  0  0  0  0
    6.2120    1.5190  -56.4200 N   0  0  0  0  0  0  0  0  0  0  0  0
    6.3690    0.4710  -55.6000 N   0  0  0  0  0  0  0  0  0  0  0  0
    6.2520   -0.9850  -53.6810 H   0  0  0  0  0  0  0  0  0  0  0  0
    8.1476   -0.8262  -50.9358 H   0  0  0  0  0  0  0  0  0  0  0  0
    8.3948   -2.6058  -49.2091 H   0  0  0  0  0  0  0  0  0  0  0  0
    7.7748   -4.9623  -49.7364 H   0  0  0  0  0  0  0  0  0  0  0  0
    6.9072   -5.5374  -52.0030 H   0  0  0  0  0  0  0  0  0  0  0  0
    6.6583   -3.7613  -53.7316 H   0  0  0  0  0  0  0  0  0  0  0  0
    6.5452    2.7618  -58.8936 H   0  0  0  0  0  0  0  0  0  0  0  0
    7.1707    4.8008  -60.1807 H   0  0  0  0  0  0  0  0  0  0  0  0
    8.8059    6.4271  -59.2314 H   0  0  0  0  0  0  0  0  0  0  0  0
    9.8174    6.0108  -56.9907 H   0  0  0  0  0  0  0  0  0  0  0  0
    9.1980    3.9712  -55.6987 H   0  0  0  0  0  0  0  0  0  0  0  0
    5.5600   -0.0810  -55.3390 H   0  0  0  0  0  0  0  0  0  0  0  0
  1  2  2  0
  2  3  1  0
  3  4  1  0
  4  5  2  0
  5  6  1  0
  6  7  2  0
  7  8  1  0
  8  9  2  0
  2 10  1  0
 10 11  2  0
 11 12  1  0
 12 13  1  0
 13 14  2  0
 14 15  1  0
 15 16  2  0
 16 17  1  0
 17 18  2  0
 12 19  2  0
 19 20  1  0
  9  4  1  0
 20 10  1  0
 18 13  1  0
  3 21  1  0
  5 22  1  0
  6 23  1  0
  7 24  1  0
  8 25  1  0
  9 26  1  0
 14 27  1  0
 15 28  1  0
 16 29  1  0
 17 30  1  0
 18 31  1  0
 20 32  1  0
M  END
>  <meeko>  (64) 
{"is_sidechain": false}

$$$$

     RDKit          3D

 32 34  0  0  0  0  0  0  0  0999 V2000
    9.2600   -1.2360  -54.4900 O   0  0  0  0  0  0  0  0  0  0  0  0
    8.1320   -0.7760  -54.3430 C   0  0  0  0  0  0  0  0  0  0  0  0
    7.2110   -1.1590  -53.3790 N   0  0  0  0  0  0  0  0  0  0  0  0
    7.3470   -2.1340  -52.3760 C   0  0  0  0  0  0  0  0  0  0  0  0
    7.8270   -1.8720  -51.0910 C   0  0  0  0  0  0  0  0  0  0  0  0
    7.9300   -2.9020  -50.1510 C   0  0  0  0  0  0  0  0  0  0  0  0
    7.5550   -4.2000  -50.4860 C   0  0  0  0  0  0  0  0  0  0  0  0
    7.0740   -4.4720  -51.7640 C   0  0  0  0  0  0  0  0  0  0  0  0
    6.9710   -3.4430  -52.7040 C   0  0  0  0  0  0  0  0  0  0  0  0
    7.5790    0.2930  -55.2060 C   0  0  0  0  0  0  0  0  0  0  0  0
    6.2830    0.4160  -55.5380 N   0  0  0  0  0  0  0  0  0  0  0  0
    6.2950    1.5100  -56.3120 N   0  0  0  0  0  0  0  0  0  0  0  0
    7.5500    2.0380  -56.4500 C   0  0  0  0  0  0  0  0  0  0  0  0
    7.8870    3.2300  -57.2320 C   0  0  0  0  0  0  0  0  0  0  0  0
    7.3100    3.5030  -58.4820 C   0  0  0  0  0  0  0  0  0  0  0  0
    7.6610    4.6540  -59.1950 C   0  0  0  0  0  0  0  0  0  0  0  0
    8.5920    5.5470  -58.6710 C   0  0  0  0  0  0  0  0  0  0  0  0
    9.1730    5.2920  -57.4320 C   0  0  0  0  0  0  0  0  0  0  0  0
    8.8230    4.1420  -56.7200 C   0  0  0  0  0  0  0  0  0  0  0  0
    8.3840    1.2830  -55.7560 N   0  0  0  0  0  0  0  0  0  0  0  0
    6.3310   -0.6520  -53.4260 H   0  0  0  0  0  0  0  0  0  0  0  0
    8.1258   -0.8495  -50.8168 H   0  0  0  0  0  0  0  0  0  0  0  0
    8.3094   -2.6854  -49.1415 H   0  0  0  0  0  0  0  0  0  0  0  0
    7.6383   -5.0077  -49.7439 H   0  0  0  0  0  0  0  0  0  0  0  0
    6.7754   -5.4958  -52.0335 H   0  0  0  0  0  0  0  0  0  0  0  0
    6.5906   -3.6633  -53.7123 H   0  0  0  0  0  0  0  0  0  0  0  0
    5.4210    1.8350  -56.7080 H   0  0  0  0  0  0  0  0  0  0  0  0
    6.5737    2.8041  -58.9056 H   0  0  0  0  0  0  0  0  0  0  0  0
    7.1998    4.8545  -60.1733 H   0  0  0  0  0  0  0  0  0  0  0  0
    8.8674    6.4509  -59.2342 H   0  0  0  0  0  0  0  0  0  0  0  0
    9.9076    5.9958  -57.0136 H   0  0  0  0  0  0  0  0  0  0  0  0
    9.2885    3.9482  -55.7424 H   0  0  0  0  0  0  0  0  0  0  0  0
  1  2  2  0
  2  3  1  0
  3  4  1  0
  4  5  2  0
  5  6  1  0
  6  7  2  0
  7  8  1  0
  8  9  2  0
  2 10  1  0
 10 11  2  0
 11 12  1  0
 12 13  1  0
 13 14  1  0
 14 15  2  0
 15 16  1  0
 16 17  2  0
 17 18  1  0
 18 19  2  0
 13 20  2  0
  9  4  1  0
 20 10  1  0
 19 14  1  0
  3 21  1  0
  5 22  1  0
  6 23  1  0
  7 24  1  0
  8 25  1  0
  9 26  1  0
 12 27  1  0
 15 28  1  0
 16 29  1  0
 17 30  1  0
 18 31  1  0
 19 32  1  0
M  END
>  <meeko>  (65) 
{"is_sidechain": false}

$$$$

     RDKit          3D

 34 35  0  0  0  0  0  0  0  0999 V2000
   12.2380   -6.7060  -57.2050 C   0  0  0  0  0  0  0  0  0  0  0  0
   12.3100   -5.1830  -57.4200 C   0  0  0  0  0  0  0  0  0  0  0  0
   13.7860   -4.7840  -57.5760 C   0  0  0  0  0  0  0  0  0  0  0  0
   11.5320   -4.8360  -58.6990 C   0  0  0  0  0  0  0  0  0  0  0  0
   11.7140   -4.5290  -56.2510 N   0  0  0  0  0  0  0  0  0  0  0  0
   11.4240   -3.1880  -56.1320 C   0  0  0  0  0  0  0  0  0  0  0  0
   11.6330   -2.3560  -57.0080 O   0  0  0  0  0  0  0  0  0  0  0  0
   10.8390   -2.8350  -54.8620 C   0  0  0  0  0  0  0  0  0  0  0  0
   11.2440   -1.8620  -54.0730 N   0  0  0  0  0  0  0  0  0  0  0  0
   10.4250   -1.8590  -52.9670 N   0  0  0  0  0  0  0  0  0  0  0  0
    9.5320   -2.8270  -53.0930 C   0  0  0  0  0  0  0  0  0  0  0  0
    8.4720   -3.1720  -52.1420 C   0  0  0  0  0  0  0  0  0  0  0  0
    7.4630   -4.0630  -52.5370 C   0  0  0  0  0  0  0  0  0  0  0  0
    6.4330   -4.4200  -51.6620 C   0  0  0  0  0  0  0  0  0  0  0  0
    6.3990   -3.8880  -50.3750 C   0  0  0  0  0  0  0  0  0  0  0  0
    7.3930   -3.0020  -49.9660 C   0  0  0  0  0  0  0  0  0  0  0  0
    8.4240   -2.6460  -50.8420 C   0  0  0  0  0  0  0  0  0  0  0  0
    9.7710   -3.4610  -54.2850 N   0  0  0  0  0  0  0  0  0  0  0  0
   12.2277   -6.9240  -56.1269 H   0  0  0  0  0  0  0  0  0  0  0  0
   11.3203   -7.0986  -57.6673 H   0  0  0  0  0  0  0  0  0  0  0  0
   13.1146   -7.1834  -57.6673 H   0  0  0  0  0  0  0  0  0  0  0  0
   14.2398   -4.6613  -56.5815 H   0  0  0  0  0  0  0  0  0  0  0  0
   14.3217   -5.5696  -58.1291 H   0  0  0  0  0  0  0  0  0  0  0  0
   13.8529   -3.8355  -58.1291 H   0  0  0  0  0  0  0  0  0  0  0  0
   10.5581   -4.4016  -58.4293 H   0  0  0  0  0  0  0  0  0  0  0  0
   12.1064   -4.1087  -59.2916 H   0  0  0  0  0  0  0  0  0  0  0  0
   11.3747   -5.7493  -59.2916 H   0  0  0  0  0  0  0  0  0  0  0  0
   11.4830   -5.0940  -55.4380 H   0  0  0  0  0  0  0  0  0  0  0  0
    7.4827   -4.4875  -53.5516 H   0  0  0  0  0  0  0  0  0  0  0  0
    5.6503   -5.1202  -51.9893 H   0  0  0  0  0  0  0  0  0  0  0  0
    5.5898   -4.1667  -49.6839 H   0  0  0  0  0  0  0  0  0  0  0  0
    7.3672   -2.5806  -48.9502 H   0  0  0  0  0  0  0  0  0  0  0  0
    9.2049   -1.9467  -50.5084 H   0  0  0  0  0  0  0  0  0  0  0  0
    9.2720   -4.2410  -54.6830 H   0  0  0  0  0  0  0  0  0  0  0  0
  1  2  1  0
  2  3  1  0
  2  4  1  0
  2  5  1  0
  5  6  1  0
  6  7  2  0
  6  8  1  0
  8  9  2  0
  9 10  1  0
 10 11  2  0
 11 12  1  0
 12 13  2  0
 13 14  1  0
 14 15  2  0
 15 16  1  0
 16 17  2  0
 11 18  1  0
 18  8  1  0
 17 12  1  0
  1 19  1  0
  1 20  1  0
  1 21  1  0
  3 22  1  0
  3 23  1  0
  3 24  1  0
  4 25  1  0
  4 26  1  0
  4 27  1  0
  5 28  1  0
 13 29  1  0
 14 30  1  0
 15 31  1  0
 16 32  1  0
 17 33  1  0
 18 34  1  0
M  END
>  <meeko>  (66) 
{"is_sidechain": false}

$$$$

     RDKit          3D

 34 35  0  0  0  0  0  0  0  0999 V2000
   12.1840   -6.6430  -57.0880 C   0  0  0  0  0  0  0  0  0  0  0  0
   12.2970   -5.1240  -57.3300 C   0  0  0  0  0  0  0  0  0  0  0  0
   11.7310   -4.8090  -58.7220 C   0  0  0  0  0  0  0  0  0  0  0  0
   13.7870   -4.7460  -57.2620 C   0  0  0  0  0  0  0  0  0  0  0  0
   11.5180   -4.4460  -56.2770 N   0  0  0  0  0  0  0  0  0  0  0  0
   11.2970   -3.0730  -56.2420 C   0  0  0  0  0  0  0  0  0  0  0  0
   11.7860   -2.3050  -57.0630 O   0  0  0  0  0  0  0  0  0  0  0  0
   10.4340   -2.6430  -55.1610 C   0  0  0  0  0  0  0  0  0  0  0  0
    9.8000   -3.4350  -54.3200 N   0  0  0  0  0  0  0  0  0  0  0  0
    9.1130   -2.5720  -53.4910 C   0  0  0  0  0  0  0  0  0  0  0  0
    8.2780   -3.0470  -52.3920 C   0  0  0  0  0  0  0  0  0  0  0  0
    7.2130   -3.9310  -52.6230 C   0  0  0  0  0  0  0  0  0  0  0  0
    6.4170   -4.3800  -51.5650 C   0  0  0  0  0  0  0  0  0  0  0  0
    6.6780   -3.9490  -50.2660 C   0  0  0  0  0  0  0  0  0  0  0  0
    7.7320   -3.0720  -50.0210 C   0  0  0  0  0  0  0  0  0  0  0  0
    8.5280   -2.6230  -51.0790 C   0  0  0  0  0  0  0  0  0  0  0  0
    9.2990   -1.2760  -53.7960 N   0  0  0  0  0  0  0  0  0  0  0  0
   10.1030   -1.3550  -54.8650 N   0  0  0  0  0  0  0  0  0  0  0  0
   12.1692   -6.8418  -56.0062 H   0  0  0  0  0  0  0  0  0  0  0  0
   11.2554   -7.0186  -57.5426 H   0  0  0  0  0  0  0  0  0  0  0  0
   13.0468   -7.1519  -57.5426 H   0  0  0  0  0  0  0  0  0  0  0  0
   10.7742   -4.2765  -58.6169 H   0  0  0  0  0  0  0  0  0  0  0  0
   12.4434   -4.1776  -59.2732 H   0  0  0  0  0  0  0  0  0  0  0  0
   11.5699   -5.7472  -59.2732 H   0  0  0  0  0  0  0  0  0  0  0  0
   14.0976   -4.6672  -56.2097 H   0  0  0  0  0  0  0  0  0  0  0  0
   14.3851   -5.5209  -57.7638 H   0  0  0  0  0  0  0  0  0  0  0  0
   13.9434   -3.7797  -57.7638 H   0  0  0  0  0  0  0  0  0  0  0  0
   10.8060   -5.0130  -55.8380 H   0  0  0  0  0  0  0  0  0  0  0  0
    7.0023   -4.2741  -53.6467 H   0  0  0  0  0  0  0  0  0  0  0  0
    5.5850   -5.0732  -51.7580 H   0  0  0  0  0  0  0  0  0  0  0  0
    6.0513   -4.3015  -49.4335 H   0  0  0  0  0  0  0  0  0  0  0  0
    7.9381   -2.7327  -48.9951 H   0  0  0  0  0  0  0  0  0  0  0  0
    9.3587   -1.9302  -50.8794 H   0  0  0  0  0  0  0  0  0  0  0  0
   10.3710   -0.5080  -55.3500 H   0  0  0  0  0  0  0  0  0  0  0  0
  1  2  1  0
  2  3  1  0
  2  4  1  0
  2  5  1  0
  5  6  1  0
  6  7  2  0
  6  8  1  0
  8  9  2  0
  9 10  1  0
 10 11  1  0
 11 12  2  0
 12 13  1  0
 13 14  2  0
 14 15  1  0
 15 16  2  0
 10 17  2  0
 17 18  1  0
 18  8  1  0
 16 11  1  0
  1 19  1  0
  1 20  1  0
  1 21  1  0
  3 22  1  0
  3 23  1  0
  3 24  1  0
  4 25  1  0
  4 26  1  0
  4 27  1  0
  5 28  1  0
 12 29  1  0
 13 30  1  0
 14 31  1  0
 15 32  1  0
 16 33  1  0
 18 34  1  0
M  END
>  <meeko>  (67) 
{"is_sidechain": false}

$$$$

     RDKit          3D

 34 35  0  0  0  0  0  0  0  0999 V2000
    5.9750   -3.5490  -51.2390 C   0  0  0  0  0  0  0  0  0  0  0  0
    7.4660   -3.5960  -50.8720 C   0  0  0  0  0  0  0  0  0  0  0  0
    7.7910   -5.0040  -50.3430 C   0  0  0  0  0  0  0  0  0  0  0  0
    7.7690   -2.5780  -49.7620 C   0  0  0  0  0  0  0  0  0  0  0  0
    8.3020   -3.3500  -52.0480 N   0  0  0  0  0  0  0  0  0  0  0  0
    8.3990   -2.1540  -52.7410 C   0  0  0  0  0  0  0  0  0  0  0  0
    7.7810   -1.1380  -52.4400 O   0  0  0  0  0  0  0  0  0  0  0  0
    9.3350   -2.2450  -53.8850 C   0  0  0  0  0  0  0  0  0  0  0  0
    9.9230   -1.1920  -54.4750 N   0  0  0  0  0  0  0  0  0  0  0  0
   10.6540   -1.7800  -55.4300 N   0  0  0  0  0  0  0  0  0  0  0  0
   10.5190   -3.1430  -55.4270 C   0  0  0  0  0  0  0  0  0  0  0  0
   11.1900   -4.0640  -56.3480 C   0  0  0  0  0  0  0  0  0  0  0  0
   11.5610   -5.3670  -55.9800 C   0  0  0  0  0  0  0  0  0  0  0  0
   12.2000   -6.2120  -56.8930 C   0  0  0  0  0  0  0  0  0  0  0  0
   12.4790   -5.7680  -58.1830 C   0  0  0  0  0  0  0  0  0  0  0  0
   12.1190   -4.4780  -58.5650 C   0  0  0  0  0  0  0  0  0  0  0  0
   11.4800   -3.6350  -57.6520 C   0  0  0  0  0  0  0  0  0  0  0  0
    9.6860   -3.4630  -54.4540 N   0  0  0  0  0  0  0  0  0  0  0  0
    5.3715   -3.5300  -50.3195 H   0  0  0  0  0  0  0  0  0  0  0  0
    5.7712   -2.6440  -51.8301 H   0  0  0  0  0  0  0  0  0  0  0  0
    5.7146   -4.4394  -51.8301 H   0  0  0  0  0  0  0  0  0  0  0  0
    7.7883   -4.9921  -49.2431 H   0  0  0  0  0  0  0  0  0  0  0  0
    7.0334   -5.7152  -50.7039 H   0  0  0  0  0  0  0  0  0  0  0  0
    8.7837   -5.3112  -50.7039 H   0  0  0  0  0  0  0  0  0  0  0  0
    7.6276   -3.0532  -48.7801 H   0  0  0  0  0  0  0  0  0  0  0  0
    8.8090   -2.2322  -49.8556 H   0  0  0  0  0  0  0  0  0  0  0  0
    7.0874   -1.7197  -49.8556 H   0  0  0  0  0  0  0  0  0  0  0  0
    8.8760   -4.1030  -52.4210 H   0  0  0  0  0  0  0  0  0  0  0  0
   11.2160   -1.2000  -56.0410 H   0  0  0  0  0  0  0  0  0  0  0  0
   11.3469   -5.7271  -54.9629 H   0  0  0  0  0  0  0  0  0  0  0  0
   12.4832   -7.2311  -56.5910 H   0  0  0  0  0  0  0  0  0  0  0  0
   12.9825   -6.4346  -58.8986 H   0  0  0  0  0  0  0  0  0  0  0  0
   12.3372   -4.1235  -59.5832 H   0  0  0  0  0  0  0  0  0  0  0  0
   11.1994   -2.6173  -57.9610 H   0  0  0  0  0  0  0  0  0  0  0  0
  1  2  1  0
  2  3  1  0
  2  4  1  0
  2  5  1  0
  5  6  1  0
  6  7  2  0
  6  8  1  0
  8  9  2  0
  9 10  1  0
 10 11  1  0
 11 12  1  0
 12 13  2  0
 13 14  1  0
 14 15  2  0
 15 16  1  0
 16 17  2  0
 11 18  2  0
 18  8  1  0
 17 12  1  0
  1 19  1  0
  1 20  1  0
  1 21  1  0
  3 22  1  0
  3 23  1  0
  3 24  1  0
  4 25  1  0
  4 26  1  0
  4 27  1  0
  5 28  1  0
 10 29  1  0
 13 30  1  0
 14 31  1  0
 15 32  1  0
 16 33  1  0
 17 34  1  0
M  END
>  <meeko>  (68) 
{"is_sidechain": false}

$$$$

     RDKit          3D

 35 37  0  0  0  0  0  0  0  0999 V2000
   11.3120   -1.4700  -56.3070 O   0  0  0  0  0  0  0  0  0  0  0  0
   11.2820   -2.5640  -55.7340 C   0  0  0  0  0  0  0  0  0  0  0  0
   10.8390   -2.6120  -54.3530 C   0  0  0  0  0  0  0  0  0  0  0  0
   11.5340   -2.4060  -53.2530 N   0  0  0  0  0  0  0  0  0  0  0  0
   10.6990   -2.5990  -52.1770 N   0  0  0  0  0  0  0  0  0  0  0  0
    9.5050   -2.9480  -52.6230 C   0  0  0  0  0  0  0  0  0  0  0  0
    8.3220   -3.2570  -51.8170 C   0  0  0  0  0  0  0  0  0  0  0  0
    8.1080   -2.7060  -50.5450 C   0  0  0  0  0  0  0  0  0  0  0  0
    6.9630   -3.0280  -49.8090 C   0  0  0  0  0  0  0  0  0  0  0  0
    6.0170   -3.9050  -50.3350 C   0  0  0  0  0  0  0  0  0  0  0  0
    6.2130   -4.4610  -51.5960 C   0  0  0  0  0  0  0  0  0  0  0  0
    7.3570   -4.1380  -52.3310 C   0  0  0  0  0  0  0  0  0  0  0  0
    9.5670   -2.9730  -53.9900 N   0  0  0  0  0  0  0  0  0  0  0  0
   11.6680   -3.7350  -56.4180 N   0  0  0  0  0  0  0  0  0  0  0  0
   11.6360   -3.6640  -57.8790 C   0  0  0  0  0  0  0  0  0  0  0  0
   12.5630   -4.6670  -58.5540 C   0  0  0  0  0  0  0  0  0  0  0  0
   12.3180   -6.0750  -58.0310 C   0  0  0  0  0  0  0  0  0  0  0  0
   12.4950   -6.0940  -56.5210 C   0  0  0  0  0  0  0  0  0  0  0  0
   11.5950   -5.0740  -55.8250 C   0  0  0  0  0  0  0  0  0  0  0  0
    8.8493   -2.0125  -50.1213 H   0  0  0  0  0  0  0  0  0  0  0  0
    6.8092   -2.5878  -48.8127 H   0  0  0  0  0  0  0  0  0  0  0  0
    5.1171   -4.1576  -49.7551 H   0  0  0  0  0  0  0  0  0  0  0  0
    5.4680   -5.1541  -52.0137 H   0  0  0  0  0  0  0  0  0  0  0  0
    7.5036   -4.5807  -53.3273 H   0  0  0  0  0  0  0  0  0  0  0  0
    8.8360   -3.2180  -54.6400 H   0  0  0  0  0  0  0  0  0  0  0  0
   10.6070   -3.8593  -58.2151 H   0  0  0  0  0  0  0  0  0  0  0  0
   11.9826   -2.6594  -58.1629 H   0  0  0  0  0  0  0  0  0  0  0  0
   12.3824   -4.6499  -59.6389 H   0  0  0  0  0  0  0  0  0  0  0  0
   13.6033   -4.3870  -58.3316 H   0  0  0  0  0  0  0  0  0  0  0  0
   11.2939   -6.3868  -58.2839 H   0  0  0  0  0  0  0  0  0  0  0  0
   13.0373   -6.7674  -58.4927 H   0  0  0  0  0  0  0  0  0  0  0  0
   12.2479   -7.0986  -56.1473 H   0  0  0  0  0  0  0  0  0  0  0  0
   13.5399   -5.8319  -56.2986 H   0  0  0  0  0  0  0  0  0  0  0  0
   10.5549   -5.4268  -55.8867 H   0  0  0  0  0  0  0  0  0  0  0  0
   11.9432   -4.9888  -54.7851 H   0  0  0  0  0  0  0  0  0  0  0  0
  1  2  2  0
  2  3  1  0
  3  4  2  0
  4  5  1  0
  5  6  2  0
  6  7  1  0
  7  8  2  0
  8  9  1  0
  9 10  2  0
 10 11  1  0
 11 12  2  0
  6 13  1  0
  2 14  1  0
 14 15  1  0
 15 16  1  0
 16 17  1  0
 17 18  1  0
 18 19  1  0
 13  3  1  0
 19 14  1  0
 12  7  1  0
  8 20  1  0
  9 21  1  0
 10 22  1  0
 11 23  1  0
 12 24  1  0
 13 25  1  0
 15 26  1  0
 15 27  1  0
 16 28  1  0
 16 29  1  0
 17 30  1  0
 17 31  1  0
 18 32  1  0
 18 33  1  0
 19 34  1  0
 19 35  1  0
M  END
>  <meeko>  (69) 
{"is_sidechain": false}

$$$$

     RDKit          3D

 35 37  0  0  0  0  0  0  0  0999 V2000
   11.3690   -1.2410  -56.1540 O   0  0  0  0  0  0  0  0  0  0  0  0
   11.1560   -2.3800  -55.7310 C   0  0  0  0  0  0  0  0  0  0  0  0
   10.6110   -2.5550  -54.3990 C   0  0  0  0  0  0  0  0  0  0  0  0
    9.3850   -2.8720  -54.0320 N   0  0  0  0  0  0  0  0  0  0  0  0
    9.4450   -2.9190  -52.6530 C   0  0  0  0  0  0  0  0  0  0  0  0
    8.2790   -3.2370  -51.8330 C   0  0  0  0  0  0  0  0  0  0  0  0
    7.2830   -4.0960  -52.3200 C   0  0  0  0  0  0  0  0  0  0  0  0
    6.1640   -4.4040  -51.5420 C   0  0  0  0  0  0  0  0  0  0  0  0
    6.0290   -3.8550  -50.2680 C   0  0  0  0  0  0  0  0  0  0  0  0
    7.0110   -3.0000  -49.7710 C   0  0  0  0  0  0  0  0  0  0  0  0
    8.1300   -2.6920  -50.5490 C   0  0  0  0  0  0  0  0  0  0  0  0
   10.6640   -2.6490  -52.1590 N   0  0  0  0  0  0  0  0  0  0  0  0
   11.3750   -2.4350  -53.2760 N   0  0  0  0  0  0  0  0  0  0  0  0
   11.4450   -3.5020  -56.5210 N   0  0  0  0  0  0  0  0  0  0  0  0
   11.0670   -4.8730  -56.1700 C   0  0  0  0  0  0  0  0  0  0  0  0
   11.1340   -5.8250  -57.3610 C   0  0  0  0  0  0  0  0  0  0  0  0
   12.5030   -5.8070  -58.0360 C   0  0  0  0  0  0  0  0  0  0  0  0
   13.1480   -4.4210  -58.0430 C   0  0  0  0  0  0  0  0  0  0  0  0
   12.1390   -3.3050  -57.7920 C   0  0  0  0  0  0  0  0  0  0  0  0
    7.3838   -4.5318  -53.3249 H   0  0  0  0  0  0  0  0  0  0  0  0
    5.3898   -5.0795  -51.9348 H   0  0  0  0  0  0  0  0  0  0  0  0
    5.1480   -4.0964  -49.6552 H   0  0  0  0  0  0  0  0  0  0  0  0
    6.9050   -2.5672  -48.7653 H   0  0  0  0  0  0  0  0  0  0  0  0
    8.9011   -2.0160  -50.1510 H   0  0  0  0  0  0  0  0  0  0  0  0
   12.3640   -2.2150  -53.2210 H   0  0  0  0  0  0  0  0  0  0  0  0
   11.7505   -5.2376  -55.3890 H   0  0  0  0  0  0  0  0  0  0  0  0
   10.0244   -4.8512  -55.8199 H   0  0  0  0  0  0  0  0  0  0  0  0
   10.9251   -6.8465  -57.0104 H   0  0  0  0  0  0  0  0  0  0  0  0
   10.3885   -5.4955  -58.0996 H   0  0  0  0  0  0  0  0  0  0  0  0
   13.1675   -6.5000  -57.4992 H   0  0  0  0  0  0  0  0  0  0  0  0
   12.3567   -6.1069  -59.0842 H   0  0  0  0  0  0  0  0  0  0  0  0
   13.9160   -4.3855  -57.2563 H   0  0  0  0  0  0  0  0  0  0  0  0
   13.5826   -4.2600  -59.0406 H   0  0  0  0  0  0  0  0  0  0  0  0
   12.6679   -2.3408  -57.7673 H   0  0  0  0  0  0  0  0  0  0  0  0
   11.3954   -3.3162  -58.6025 H   0  0  0  0  0  0  0  0  0  0  0  0
  1  2  2  0
  2  3  1  0
  3  4  2  0
  4  5  1  0
  5  6  1  0
  6  7  2  0
  7  8  1  0
  8  9  2  0
  9 10  1  0
 10 11  2  0
  5 12  2  0
 12 13  1  0
  2 14  1  0
 14 15  1  0
 15 16  1  0
 16 17  1  0
 17 18  1  0
 18 19  1  0
 13  3  1  0
 19 14  1  0
 11  6  1  0
  7 20  1  0
  8 21  1  0
  9 22  1  0
 10 23  1  0
 11 24  1  0
 13 25  1  0
 15 26  1  0
 15 27  1  0
 16 28  1  0
 16 29  1  0
 17 30  1  0
 17 31  1  0
 18 32  1  0
 18 33  1  0
 19 34  1  0
 19 35  1  0
M  END
>  <meeko>  (70) 
{"is_sidechain": false}

$$$$

     RDKit          3D

 35 37  0  0  0  0  0  0  0  0999 V2000
    6.8800    2.6160  -62.9900 O   0  0  0  0  0  0  0  0  0  0  0  0
    6.5890    2.6450  -61.7910 C   0  0  0  0  0  0  0  0  0  0  0  0
    7.5090    3.2680  -60.8060 C   0  0  0  0  0  0  0  0  0  0  0  0
    7.1170    3.9010  -59.6820 N   0  0  0  0  0  0  0  0  0  0  0  0
    8.2840    4.3520  -59.1940 N   0  0  0  0  0  0  0  0  0  0  0  0
    9.3470    4.0070  -59.9800 C   0  0  0  0  0  0  0  0  0  0  0  0
   10.7460    4.3490  -59.7160 C   0  0  0  0  0  0  0  0  0  0  0  0
   11.7020    3.3940  -59.3390 C   0  0  0  0  0  0  0  0  0  0  0  0
   13.0290    3.7700  -59.0970 C   0  0  0  0  0  0  0  0  0  0  0  0
   13.4150    5.1010  -59.2300 C   0  0  0  0  0  0  0  0  0  0  0  0
   12.4790    6.0600  -59.6060 C   0  0  0  0  0  0  0  0  0  0  0  0
   11.1560    5.6850  -59.8480 C   0  0  0  0  0  0  0  0  0  0  0  0
    8.8780    3.3300  -61.0100 N   0  0  0  0  0  0  0  0  0  0  0  0
    5.3640    2.1130  -61.3510 N   0  0  0  0  0  0  0  0  0  0  0  0
    4.4120    1.6890  -62.3710 C   0  0  0  0  0  0  0  0  0  0  0  0
    3.0650    1.2560  -61.7910 C   0  0  0  0  0  0  0  0  0  0  0  0
    2.6400    2.1700  -60.6460 C   0  0  0  0  0  0  0  0  0  0  0  0
    3.7080    2.2660  -59.5480 C   0  0  0  0  0  0  0  0  0  0  0  0
    5.0610    1.7090  -59.9820 C   0  0  0  0  0  0  0  0  0  0  0  0
    8.2810    4.8920  -58.3380 H   0  0  0  0  0  0  0  0  0  0  0  0
   11.4064    2.3398  -59.2325 H   0  0  0  0  0  0  0  0  0  0  0  0
   13.7686    3.0115  -58.8009 H   0  0  0  0  0  0  0  0  0  0  0  0
   14.4577    5.3941  -59.0383 H   0  0  0  0  0  0  0  0  0  0  0  0
   12.7812    7.1123  -59.7124 H   0  0  0  0  0  0  0  0  0  0  0  0
   10.4231    6.4489  -60.1469 H   0  0  0  0  0  0  0  0  0  0  0  0
    4.2423    2.5279  -63.0619 H   0  0  0  0  0  0  0  0  0  0  0  0
    4.8452    0.8163  -62.8816 H   0  0  0  0  0  0  0  0  0  0  0  0
    2.3033    1.2954  -62.5837 H   0  0  0  0  0  0  0  0  0  0  0  0
    3.1655    0.2322  -61.4015 H   0  0  0  0  0  0  0  0  0  0  0  0
    2.4547    3.1771  -61.0478 H   0  0  0  0  0  0  0  0  0  0  0  0
    1.7321    1.7432  -60.1949 H   0  0  0  0  0  0  0  0  0  0  0  0
    3.8357    3.3238  -59.2747 H   0  0  0  0  0  0  0  0  0  0  0  0
    3.3607    1.6612  -58.6973 H   0  0  0  0  0  0  0  0  0  0  0  0
    5.8429    2.0923  -59.3099 H   0  0  0  0  0  0  0  0  0  0  0  0
    5.0256    0.6106  -59.9345 H   0  0  0  0  0  0  0  0  0  0  0  0
  1  2  2  0
  2  3  1  0
  3  4  2  0
  4  5  1  0
  5  6  1  0
  6  7  1  0
  7  8  2  0
  8  9  1  0
  9 10  2  0
 10 11  1  0
 11 12  2  0
  6 13  2  0
  2 14  1  0
 14 15  1  0
 15 16  1  0
 16 17  1  0
 17 18  1  0
 18 19  1  0
 13  3  1  0
 19 14  1  0
 12  7  1  0
  5 20  1  0
  8 21  1  0
  9 22  1  0
 10 23  1  0
 11 24  1  0
 12 25  1  0
 15 26  1  0
 15 27  1  0
 16 28  1  0
 16 29  1  0
 17 30  1  0
 17 31  1  0
 18 32  1  0
 18 33  1  0
 19 34  1  0
 19 35  1  0
M  END
>  <meeko>  (71) 
{"is_sidechain": false}

$$$$

     RDKit          3D

 38 40  0  0  0  0  0  0  0  0999 V2000
    5.5370   -0.3820  -53.1210 O   0  0  0  0  0  0  0  0  0  0  0  0
    6.6480   -0.5340  -53.6200 C   0  0  0  0  0  0  0  0  0  0  0  0
    7.5540   -1.4790  -53.1910 N   0  0  0  0  0  0  0  0  0  0  0  0
    7.3430   -2.2910  -52.0060 C   0  0  0  0  0  0  0  0  0  0  0  0
    6.5790   -3.5700  -52.3680 C   0  0  0  0  0  0  0  0  0  0  0  0
    6.3910   -4.4770  -51.1560 C   0  0  0  0  0  0  0  0  0  0  0  0
    7.7220   -4.8010  -50.4850 C   0  0  0  0  0  0  0  0  0  0  0  0
    8.4900   -3.5340  -50.1210 C   0  0  0  0  0  0  0  0  0  0  0  0
    8.6800   -2.6220  -51.3290 C   0  0  0  0  0  0  0  0  0  0  0  0
    7.1250    0.2780  -54.7110 C   0  0  0  0  0  0  0  0  0  0  0  0
    6.4420    0.5960  -55.7900 N   0  0  0  0  0  0  0  0  0  0  0  0
    7.2570    1.3730  -56.5820 N   0  0  0  0  0  0  0  0  0  0  0  0
    8.4250    1.5200  -55.9800 C   0  0  0  0  0  0  0  0  0  0  0  0
    9.5780    2.2730  -56.4780 C   0  0  0  0  0  0  0  0  0  0  0  0
   10.7870    1.6550  -56.8380 C   0  0  0  0  0  0  0  0  0  0  0  0
   11.8630    2.4150  -57.3110 C   0  0  0  0  0  0  0  0  0  0  0  0
   11.7430    3.7980  -57.4270 C   0  0  0  0  0  0  0  0  0  0  0  0
   13.0690    4.7260  -58.0080 Cl  0  0  0  0  0  0  0  0  0  0  0  0
   10.5540    4.4280  -57.0770 C   0  0  0  0  0  0  0  0  0  0  0  0
    9.4790    3.6680  -56.6050 C   0  0  0  0  0  0  0  0  0  0  0  0
    8.3710    0.8350  -54.7920 N   0  0  0  0  0  0  0  0  0  0  0  0
    8.4810   -1.4280  -53.6060 H   0  0  0  0  0  0  0  0  0  0  0  0
    6.7363   -1.7166  -51.2905 H   0  0  0  0  0  0  0  0  0  0  0  0
    5.5904   -3.2947  -52.7640 H   0  0  0  0  0  0  0  0  0  0  0  0
    7.1657   -4.1189  -53.1193 H   0  0  0  0  0  0  0  0  0  0  0  0
    5.7387   -3.9708  -50.4291 H   0  0  0  0  0  0  0  0  0  0  0  0
    5.9400   -5.4200  -51.4987 H   0  0  0  0  0  0  0  0  0  0  0  0
    7.5287   -5.3772  -49.5681 H   0  0  0  0  0  0  0  0  0  0  0  0
    8.3318   -5.3819  -51.1926 H   0  0  0  0  0  0  0  0  0  0  0  0
    7.9306   -2.9882  -49.3469 H   0  0  0  0  0  0  0  0  0  0  0  0
    9.4843   -3.8293  -49.7549 H   0  0  0  0  0  0  0  0  0  0  0  0
    9.1534   -1.6859  -50.9980 H   0  0  0  0  0  0  0  0  0  0  0  0
    9.3133   -3.1473  -52.0591 H   0  0  0  0  0  0  0  0  0  0  0  0
   10.8891    0.5635  -56.7473 H   0  0  0  0  0  0  0  0  0  0  0  0
   12.8043    1.9197  -57.5914 H   0  0  0  0  0  0  0  0  0  0  0  0
   10.4592    5.5199  -57.1710 H   0  0  0  0  0  0  0  0  0  0  0  0
    8.5407    4.1712  -56.3287 H   0  0  0  0  0  0  0  0  0  0  0  0
    9.0920    0.7420  -54.0950 H   0  0  0  0  0  0  0  0  0  0  0  0
  1  2  2  0
  2  3  1  0
  3  4  1  0
  4  5  1  0
  5  6  1  0
  6  7  1  0
  7  8  1  0
  8  9  1  0
  2 10  1  0
 10 11  2  0
 11 12  1  0
 12 13  2  0
 13 14  1  0
 14 15  1  0
 15 16  2  0
 16 17  1  0
 17 18  1  0
 17 19  2  0
 19 20  1  0
 13 21  1  0
  9  4  1  0
 21 10  1  0
 20 14  2  0
  3 22  1  0
  4 23  1  0
  5 24  1  0
  5 25  1  0
  6 26  1  0
  6 27  1  0
  7 28  1  0
  7 29  1  0
  8 30  1  0
  8 31  1  0
  9 32  1  0
  9 33  1  0
 15 34  1  0
 16 35  1  0
 19 36  1  0
 20 37  1  0
 21 38  1  0
M  END
>  <meeko>  (72) 
{"is_sidechain": false}

$$$$

     RDKit          3D

 38 40  0  0  0  0  0  0  0  0999 V2000
    5.5390   -0.0660  -53.1030 O   0  0  0  0  0  0  0  0  0  0  0  0
    6.5320   -0.3310  -53.7750 C   0  0  0  0  0  0  0  0  0  0  0  0
    7.3800   -1.3800  -53.4390 N   0  0  0  0  0  0  0  0  0  0  0  0
    7.1730   -2.1390  -52.2100 C   0  0  0  0  0  0  0  0  0  0  0  0
    8.4800   -2.2650  -51.4140 C   0  0  0  0  0  0  0  0  0  0  0  0
    8.3000   -3.1200  -50.1630 C   0  0  0  0  0  0  0  0  0  0  0  0
    7.7180   -4.4910  -50.4960 C   0  0  0  0  0  0  0  0  0  0  0  0
    6.4180   -4.3730  -51.2870 C   0  0  0  0  0  0  0  0  0  0  0  0
    6.5980   -3.5220  -52.5400 C   0  0  0  0  0  0  0  0  0  0  0  0
    6.9270    0.4060  -54.9560 C   0  0  0  0  0  0  0  0  0  0  0  0
    8.1610    0.7530  -55.2700 N   0  0  0  0  0  0  0  0  0  0  0  0
    8.0300    1.4340  -56.4610 C   0  0  0  0  0  0  0  0  0  0  0  0
    9.1800    1.9900  -57.1690 C   0  0  0  0  0  0  0  0  0  0  0  0
   10.4350    2.0860  -56.5480 C   0  0  0  0  0  0  0  0  0  0  0  0
   11.5300    2.6210  -57.2320 C   0  0  0  0  0  0  0  0  0  0  0  0
   11.3770    3.0620  -58.5450 C   0  0  0  0  0  0  0  0  0  0  0  0
   12.7250    3.7200  -59.3880 Cl  0  0  0  0  0  0  0  0  0  0  0  0
   10.1400    2.9730  -59.1790 C   0  0  0  0  0  0  0  0  0  0  0  0
    9.0460    2.4390  -58.4920 C   0  0  0  0  0  0  0  0  0  0  0  0
    6.7620    1.5230  -56.8920 N   0  0  0  0  0  0  0  0  0  0  0  0
    6.0910    0.8980  -55.9130 N   0  0  0  0  0  0  0  0  0  0  0  0
    8.3320   -1.3330  -53.7760 H   0  0  0  0  0  0  0  0  0  0  0  0
    6.4513   -1.5976  -51.5807 H   0  0  0  0  0  0  0  0  0  0  0  0
    9.2444   -2.7282  -52.0552 H   0  0  0  0  0  0  0  0  0  0  0  0
    8.7874   -1.2570  -51.0986 H   0  0  0  0  0  0  0  0  0  0  0  0
    9.2789   -3.2559  -49.6801 H   0  0  0  0  0  0  0  0  0  0  0  0
    7.5982   -2.6030  -49.4921 H   0  0  0  0  0  0  0  0  0  0  0  0
    8.4499   -5.0537  -51.0941 H   0  0  0  0  0  0  0  0  0  0  0  0
    7.4997   -5.0106  -49.5513 H   0  0  0  0  0  0  0  0  0  0  0  0
    6.0880   -5.3796  -51.5836 H   0  0  0  0  0  0  0  0  0  0  0  0
    5.6682   -3.8866  -50.6457 H   0  0  0  0  0  0  0  0  0  0  0  0
    7.2850   -4.0390  -53.2261 H   0  0  0  0  0  0  0  0  0  0  0  0
    5.6101   -3.3806  -53.0027 H   0  0  0  0  0  0  0  0  0  0  0  0
   10.5580    1.7365  -55.5123 H   0  0  0  0  0  0  0  0  0  0  0  0
   12.5090    2.6937  -56.7358 H   0  0  0  0  0  0  0  0  0  0  0  0
   10.0245    3.3215  -60.2159 H   0  0  0  0  0  0  0  0  0  0  0  0
    8.0695    2.3699  -58.9937 H   0  0  0  0  0  0  0  0  0  0  0  0
    5.0800    0.8600  -55.9480 H   0  0  0  0  0  0  0  0  0  0  0  0
  1  2  2  0
  2  3  1  0
  3  4  1  0
  4  5  1  0
  5  6  1  0
  6  7  1  0
  7  8  1  0
  8  9  1  0
  2 10  1  0
 10 11  2  0
 11 12  1  0
 12 13  1  0
 13 14  1  0
 14 15  2  0
 15 16  1  0
 16 17  1  0
 16 18  2  0
 18 19  1  0
 12 20  2  0
 20 21  1  0
  9  4  1  0
 21 10  1  0
 19 13  2  0
  3 22  1  0
  4 23  1  0
  5 24  1  0
  5 25  1  0
  6 26  1  0
  6 27  1  0
  7 28  1  0
  7 29  1  0
  8 30  1  0
  8 31  1  0
  9 32  1  0
  9 33  1  0
 14 34  1  0
 15 35  1  0
 18 36  1  0
 19 37  1  0
 21 38  1  0
M  END
>  <meeko>  (73) 
{"is_sidechain": false}

$$$$

     RDKit          3D

 38 40  0  0  0  0  0  0  0  0999 V2000
    8.5250    3.4260  -60.4660 O   0  0  0  0  0  0  0  0  0  0  0  0
    8.9540    3.2280  -59.3320 C   0  0  0  0  0  0  0  0  0  0  0  0
   10.2710    3.4570  -58.9710 N   0  0  0  0  0  0  0  0  0  0  0  0
   11.2220    4.1160  -59.8500 C   0  0  0  0  0  0  0  0  0  0  0  0
   12.6620    3.7590  -59.4490 C   0  0  0  0  0  0  0  0  0  0  0  0
   13.2540    4.7830  -58.4860 C   0  0  0  0  0  0  0  0  0  0  0  0
   13.3100    6.1810  -59.1060 C   0  0  0  0  0  0  0  0  0  0  0  0
   12.2300    6.4240  -60.1630 C   0  0  0  0  0  0  0  0  0  0  0  0
   10.9620    5.6340  -59.8640 C   0  0  0  0  0  0  0  0  0  0  0  0
    8.1190    2.7380  -58.2120 C   0  0  0  0  0  0  0  0  0  0  0  0
    6.8630    3.1830  -57.9910 N   0  0  0  0  0  0  0  0  0  0  0  0
    6.5130    2.4770  -56.9030 N   0  0  0  0  0  0  0  0  0  0  0  0
    7.5070    1.6350  -56.4850 C   0  0  0  0  0  0  0  0  0  0  0  0
    7.4340    0.7330  -55.3340 C   0  0  0  0  0  0  0  0  0  0  0  0
    8.6230    0.3750  -54.6750 C   0  0  0  0  0  0  0  0  0  0  0  0
    8.6080   -0.4830  -53.5710 C   0  0  0  0  0  0  0  0  0  0  0  0
    7.3990   -0.9940  -53.1130 C   0  0  0  0  0  0  0  0  0  0  0  0
    7.3710   -2.0500  -51.7560 Cl  0  0  0  0  0  0  0  0  0  0  0  0
    6.2080   -0.6540  -53.7510 C   0  0  0  0  0  0  0  0  0  0  0  0
    6.2250    0.2060  -54.8560 C   0  0  0  0  0  0  0  0  0  0  0  0
    8.5300    1.7850  -57.3030 N   0  0  0  0  0  0  0  0  0  0  0  0
   10.4600    3.3800  -57.9750 H   0  0  0  0  0  0  0  0  0  0  0  0
   11.0853    3.7555  -60.8802 H   0  0  0  0  0  0  0  0  0  0  0  0
   12.6617    2.7722  -58.9630 H   0  0  0  0  0  0  0  0  0  0  0  0
   13.2781    3.7516  -60.3603 H   0  0  0  0  0  0  0  0  0  0  0  0
   12.6320    4.8203  -57.5795 H   0  0  0  0  0  0  0  0  0  0  0  0
   14.2823    4.4734  -58.2478 H   0  0  0  0  0  0  0  0  0  0  0  0
   13.1850    6.9230  -58.3036 H   0  0  0  0  0  0  0  0  0  0  0  0
   14.2830    6.2722  -59.6108 H   0  0  0  0  0  0  0  0  0  0  0  0
   11.9856    7.4963  -60.1832 H   0  0  0  0  0  0  0  0  0  0  0  0
   12.6207    6.0907  -61.1358 H   0  0  0  0  0  0  0  0  0  0  0  0
   10.5772    5.9381  -58.8794 H   0  0  0  0  0  0  0  0  0  0  0  0
   10.2315    5.8478  -60.6581 H   0  0  0  0  0  0  0  0  0  0  0  0
    5.5930    2.6160  -56.5040 H   0  0  0  0  0  0  0  0  0  0  0  0
    9.5819    0.7769  -55.0341 H   0  0  0  0  0  0  0  0  0  0  0  0
    9.5482   -0.7523  -53.0674 H   0  0  0  0  0  0  0  0  0  0  0  0
    5.2535   -1.0615  -53.3864 H   0  0  0  0  0  0  0  0  0  0  0  0
    5.2808    0.4710  -55.3542 H   0  0  0  0  0  0  0  0  0  0  0  0
  1  2  2  0
  2  3  1  0
  3  4  1  0
  4  5  1  0
  5  6  1  0
  6  7  1  0
  7  8  1  0
  8  9  1  0
  2 10  1  0
 10 11  2  0
 11 12  1  0
 12 13  1  0
 13 14  1  0
 14 15  1  0
 15 16  2  0
 16 17  1  0
 17 18  1  0
 17 19  2  0
 19 20  1  0
 13 21  2  0
  9  4  1  0
 21 10  1  0
 20 14  2  0
  3 22  1  0
  4 23  1  0
  5 24  1  0
  5 25  1  0
  6 26  1  0
  6 27  1  0
  7 28  1  0
  7 29  1  0
  8 30  1  0
  8 31  1  0
  9 32  1  0
  9 33  1  0
 12 34  1  0
 15 35  1  0
 16 36  1  0
 19 37  1  0
 20 38  1  0
M  END
>  <meeko>  (74) 
{"is_sidechain": false}

$$$$

     RDKit          3D

 38 40  0  0  0  0  0  0  0  0999 V2000
    8.6760    5.2780  -56.4700 O   0  0  0  0  0  0  0  0  0  0  0  0
    8.7030    4.5200  -57.4350 C   0  0  0  0  0  0  0  0  0  0  0  0
    9.7830    4.4030  -58.2820 N   0  0  0  0  0  0  0  0  0  0  0  0
   10.9420    5.2790  -58.2080 C   0  0  0  0  0  0  0  0  0  0  0  0
   12.1240    4.5550  -57.5410 C   0  0  0  0  0  0  0  0  0  0  0  0
   13.0330    3.8890  -58.5670 C   0  0  0  0  0  0  0  0  0  0  0  0
   13.6380    4.9060  -59.5360 C   0  0  0  0  0  0  0  0  0  0  0  0
   12.7660    6.1450  -59.7450 C   0  0  0  0  0  0  0  0  0  0  0  0
   11.2850    5.8200  -59.6080 C   0  0  0  0  0  0  0  0  0  0  0  0
    7.5900    3.6760  -57.7900 C   0  0  0  0  0  0  0  0  0  0  0  0
    6.9610    2.8510  -56.9790 N   0  0  0  0  0  0  0  0  0  0  0  0
    5.9700    2.2310  -57.7070 N   0  0  0  0  0  0  0  0  0  0  0  0
    6.0050    2.6830  -58.9490 C   0  0  0  0  0  0  0  0  0  0  0  0
    5.1250    2.2850  -60.0490 C   0  0  0  0  0  0  0  0  0  0  0  0
    3.7680    2.0340  -59.7810 C   0  0  0  0  0  0  0  0  0  0  0  0
    2.8910    1.6520  -60.8010 C   0  0  0  0  0  0  0  0  0  0  0  0
    3.3690    1.5200  -62.0960 C   0  0  0  0  0  0  0  0  0  0  0  0
    2.5330    1.1550  -63.0770 F   0  0  0  0  0  0  0  0  0  0  0  0
    4.7040    1.7630  -62.3900 C   0  0  0  0  0  0  0  0  0  0  0  0
    5.5830    2.1450  -61.3700 C   0  0  0  0  0  0  0  0  0  0  0  0
    7.0220    3.6000  -59.0300 N   0  0  0  0  0  0  0  0  0  0  0  0
    9.6390    3.8340  -59.1120 H   0  0  0  0  0  0  0  0  0  0  0  0
   10.7080    6.1472  -57.5743 H   0  0  0  0  0  0  0  0  0  0  0  0
   12.7114    5.2868  -56.9670 H   0  0  0  0  0  0  0  0  0  0  0  0
   11.7179    3.7711  -56.8848 H   0  0  0  0  0  0  0  0  0  0  0  0
   13.8478    3.3726  -58.0385 H   0  0  0  0  0  0  0  0  0  0  0  0
   12.4275    3.1797  -59.1503 H   0  0  0  0  0  0  0  0  0  0  0  0
   14.6116    5.2288  -59.1386 H   0  0  0  0  0  0  0  0  0  0  0  0
   13.7297    4.4072  -60.5121 H   0  0  0  0  0  0  0  0  0  0  0  0
   13.0360    6.9019  -58.9939 H   0  0  0  0  0  0  0  0  0  0  0  0
   12.9421    6.5208  -60.7637 H   0  0  0  0  0  0  0  0  0  0  0  0
   10.7021    6.7353  -59.7880 H   0  0  0  0  0  0  0  0  0  0  0  0
   11.0379    5.0408  -60.3440 H   0  0  0  0  0  0  0  0  0  0  0  0
    3.3903    2.1397  -58.7533 H   0  0  0  0  0  0  0  0  0  0  0  0
    1.8314    1.4580  -60.5781 H   0  0  0  0  0  0  0  0  0  0  0  0
    5.0699    1.6556  -63.4218 H   0  0  0  0  0  0  0  0  0  0  0  0
    6.6405    2.3371  -61.6043 H   0  0  0  0  0  0  0  0  0  0  0  0
    7.3190    4.1290  -59.8360 H   0  0  0  0  0  0  0  0  0  0  0  0
  1  2  2  0
  2  3  1  0
  3  4  1  0
  4  5  1  0
  5  6  1  0
  6  7  1  0
  7  8  1  0
  8  9  1  0
  2 10  1  0
 10 11  2  0
 11 12  1  0
 12 13  2  0
 13 14  1  0
 14 15  1  0
 15 16  2  0
 16 17  1  0
 17 18  1  0
 17 19  2  0
 19 20  1  0
 13 21  1  0
  9  4  1  0
 21 10  1  0
 20 14  2  0
  3 22  1  0
  4 23  1  0
  5 24  1  0
  5 25  1  0
  6 26  1  0
  6 27  1  0
  7 28  1  0
  7 29  1  0
  8 30  1  0
  8 31  1  0
  9 32  1  0
  9 33  1  0
 15 34  1  0
 16 35  1  0
 19 36  1  0
 20 37  1  0
 21 38  1  0
M  END
>  <meeko>  (75) 
{"is_sidechain": false}

$$$$

     RDKit          3D

 38 40  0  0  0  0  0  0  0  0999 V2000
    5.5710   -0.0600  -53.0950 O   0  0  0  0  0  0  0  0  0  0  0  0
    6.5560   -0.3270  -53.7780 C   0  0  0  0  0  0  0  0  0  0  0  0
    7.4050   -1.3790  -53.4520 N   0  0  0  0  0  0  0  0  0  0  0  0
    7.2090   -2.1380  -52.2200 C   0  0  0  0  0  0  0  0  0  0  0  0
    6.6260   -3.5190  -52.5460 C   0  0  0  0  0  0  0  0  0  0  0  0
    6.4560   -4.3700  -51.2910 C   0  0  0  0  0  0  0  0  0  0  0  0
    7.7630   -4.4940  -50.5150 C   0  0  0  0  0  0  0  0  0  0  0  0
    8.3530   -3.1260  -50.1880 C   0  0  0  0  0  0  0  0  0  0  0  0
    8.5240   -2.2700  -51.4400 C   0  0  0  0  0  0  0  0  0  0  0  0
    6.9410    0.4090  -54.9620 C   0  0  0  0  0  0  0  0  0  0  0  0
    8.1730    0.7570  -55.2840 N   0  0  0  0  0  0  0  0  0  0  0  0
    8.0340    1.4380  -56.4740 C   0  0  0  0  0  0  0  0  0  0  0  0
    9.1790    1.9930  -57.1910 C   0  0  0  0  0  0  0  0  0  0  0  0
    9.0440    2.4040  -58.5270 C   0  0  0  0  0  0  0  0  0  0  0  0
   10.1340    2.9360  -59.2210 C   0  0  0  0  0  0  0  0  0  0  0  0
   11.3600    3.0590  -58.5800 C   0  0  0  0  0  0  0  0  0  0  0  0
   12.4050    3.5700  -59.2440 F   0  0  0  0  0  0  0  0  0  0  0  0
   11.5190    2.6590  -57.2580 C   0  0  0  0  0  0  0  0  0  0  0  0
   10.4300    2.1260  -56.5640 C   0  0  0  0  0  0  0  0  0  0  0  0
    6.7620    1.5260  -56.8970 N   0  0  0  0  0  0  0  0  0  0  0  0
    6.1000    0.9010  -55.9140 N   0  0  0  0  0  0  0  0  0  0  0  0
    8.3540   -1.3340  -53.7990 H   0  0  0  0  0  0  0  0  0  0  0  0
    6.4970   -1.5945  -51.5816 H   0  0  0  0  0  0  0  0  0  0  0  0
    5.6438   -3.3877  -53.0235 H   0  0  0  0  0  0  0  0  0  0  0  0
    7.3254   -4.0364  -53.2192 H   0  0  0  0  0  0  0  0  0  0  0  0
    5.6992   -3.9034  -50.6432 H   0  0  0  0  0  0  0  0  0  0  0  0
    6.1420   -5.3782  -51.5991 H   0  0  0  0  0  0  0  0  0  0  0  0
    7.5709   -5.0338  -49.5760 H   0  0  0  0  0  0  0  0  0  0  0  0
    8.4846   -5.0396  -51.1408 H   0  0  0  0  0  0  0  0  0  0  0  0
    7.6808   -2.6058  -49.4898 H   0  0  0  0  0  0  0  0  0  0  0  0
    9.3458   -3.2794  -49.7398 H   0  0  0  0  0  0  0  0  0  0  0  0
    8.8645   -1.2672  -51.1427 H   0  0  0  0  0  0  0  0  0  0  0  0
    9.2624   -2.7592  -52.0922 H   0  0  0  0  0  0  0  0  0  0  0  0
    8.0715    2.3063  -59.0317 H   0  0  0  0  0  0  0  0  0  0  0  0
   10.0218    3.2551  -60.2677 H   0  0  0  0  0  0  0  0  0  0  0  0
   12.4954    2.7615  -56.7620 H   0  0  0  0  0  0  0  0  0  0  0  0
   10.5525    1.8078  -55.5182 H   0  0  0  0  0  0  0  0  0  0  0  0
    5.0880    0.8620  -55.9420 H   0  0  0  0  0  0  0  0  0  0  0  0
  1  2  2  0
  2  3  1  0
  3  4  1  0
  4  5  1  0
  5  6  1  0
  6  7  1  0
  7  8  1  0
  8  9  1  0
  2 10  1  0
 10 11  2  0
 11 12  1  0
 12 13  1  0
 13 14  1  0
 14 15  2  0
 15 16  1  0
 16 17  1  0
 16 18  2  0
 18 19  1  0
 12 20  2  0
 20 21  1  0
  9  4  1  0
 21 10  1  0
 19 13  2  0
  3 22  1  0
  4 23  1  0
  5 24  1  0
  5 25  1  0
  6 26  1  0
  6 27  1  0
  7 28  1  0
  7 29  1  0
  8 30  1  0
  8 31  1  0
  9 32  1  0
  9 33  1  0
 14 34  1  0
 15 35  1  0
 18 36  1  0
 19 37  1  0
 21 38  1  0
M  END
>  <meeko>  (76) 
{"is_sidechain": false}

$$$$

     RDKit          3D

 38 40  0  0  0  0  0  0  0  0999 V2000
    7.0180    3.2190  -56.9900 O   0  0  0  0  0  0  0  0  0  0  0  0
    7.7920    2.2910  -56.7780 C   0  0  0  0  0  0  0  0  0  0  0  0
    9.0470    2.2030  -57.3610 N   0  0  0  0  0  0  0  0  0  0  0  0
    9.4880    3.1060  -58.4070 C   0  0  0  0  0  0  0  0  0  0  0  0
   10.9730    3.4550  -58.2220 C   0  0  0  0  0  0  0  0  0  0  0  0
   11.6740    3.8630  -59.5220 C   0  0  0  0  0  0  0  0  0  0  0  0
   10.7060    4.4750  -60.5250 C   0  0  0  0  0  0  0  0  0  0  0  0
    9.5950    3.4960  -60.9100 C   0  0  0  0  0  0  0  0  0  0  0  0
    9.2270    2.5150  -59.7940 C   0  0  0  0  0  0  0  0  0  0  0  0
    7.4830    1.1470  -55.8910 C   0  0  0  0  0  0  0  0  0  0  0  0
    6.2960    0.5010  -55.9200 N   0  0  0  0  0  0  0  0  0  0  0  0
    6.4720   -0.4320  -54.9690 N   0  0  0  0  0  0  0  0  0  0  0  0
    7.7050   -0.3540  -54.3830 C   0  0  0  0  0  0  0  0  0  0  0  0
    8.2000   -1.2260  -53.3150 C   0  0  0  0  0  0  0  0  0  0  0  0
    9.4220   -1.9140  -53.4020 C   0  0  0  0  0  0  0  0  0  0  0  0
    9.8500   -2.7360  -52.3530 C   0  0  0  0  0  0  0  0  0  0  0  0
    9.0630   -2.8730  -51.2170 C   0  0  0  0  0  0  0  0  0  0  0  0
    9.4790   -3.6610  -50.2170 F   0  0  0  0  0  0  0  0  0  0  0  0
    7.8530   -2.2030  -51.1060 C   0  0  0  0  0  0  0  0  0  0  0  0
    7.4240   -1.3840  -52.1520 C   0  0  0  0  0  0  0  0  0  0  0  0
    8.3580    0.6400  -54.9520 N   0  0  0  0  0  0  0  0  0  0  0  0
    9.5280    1.3210  -57.2050 H   0  0  0  0  0  0  0  0  0  0  0  0
    8.9037    4.0348  -58.3298 H   0  0  0  0  0  0  0  0  0  0  0  0
   11.0479    4.2899  -57.5097 H   0  0  0  0  0  0  0  0  0  0  0  0
   11.4746    2.5468  -57.8564 H   0  0  0  0  0  0  0  0  0  0  0  0
   12.4556    4.6006  -59.2875 H   0  0  0  0  0  0  0  0  0  0  0  0
   12.1040    2.9573  -59.9745 H   0  0  0  0  0  0  0  0  0  0  0  0
   10.2517    5.3725  -60.0798 H   0  0  0  0  0  0  0  0  0  0  0  0
   11.2700    4.7283  -61.4348 H   0  0  0  0  0  0  0  0  0  0  0  0
    8.6976    4.0750  -61.1737 H   0  0  0  0  0  0  0  0  0  0  0  0
    9.9707    2.8981  -61.7534 H   0  0  0  0  0  0  0  0  0  0  0  0
    8.1594    2.2640  -59.8786 H   0  0  0  0  0  0  0  0  0  0  0  0
    9.8547    1.6188  -59.9067 H   0  0  0  0  0  0  0  0  0  0  0  0
    5.7200   -1.0800  -54.7740 H   0  0  0  0  0  0  0  0  0  0  0  0
   10.0468   -1.8059  -54.3009 H   0  0  0  0  0  0  0  0  0  0  0  0
   10.8075   -3.2722  -52.4283 H   0  0  0  0  0  0  0  0  0  0  0  0
    7.2371   -2.3162  -50.2016 H   0  0  0  0  0  0  0  0  0  0  0  0
    6.4641   -0.8538  -52.0656 H   0  0  0  0  0  0  0  0  0  0  0  0
  1  2  2  0
  2  3  1  0
  3  4  1  0
  4  5  1  0
  5  6  1  0
  6  7  1  0
  7  8  1  0
  8  9  1  0
  2 10  1  0
 10 11  2  0
 11 12  1  0
 12 13  1  0
 13 14  1  0
 14 15  1  0
 15 16  2  0
 16 17  1  0
 17 18  1  0
 17 19  2  0
 19 20  1  0
 13 21  2  0
  9  4  1  0
 21 10  1  0
 20 14  2  0
  3 22  1  0
  4 23  1  0
  5 24  1  0
  5 25  1  0
  6 26  1  0
  6 27  1  0
  7 28  1  0
  7 29  1  0
  8 30  1  0
  8 31  1  0
  9 32  1  0
  9 33  1  0
 12 34  1  0
 15 35  1  0
 16 36  1  0
 19 37  1  0
 20 38  1  0
M  END
>  <meeko>  (77) 
{"is_sidechain": false}

$$$$

     RDKit          3D

 52 56  0  0  0  0  0  0  0  0999 V2000
    6.2070    2.2930  -56.5330 O   0  0  0  0  0  0  0  0  0  0  0  0
    7.1980    1.6160  -56.2820 C   0  0  0  0  0  0  0  0  0  0  0  0
    8.4520    1.9020  -56.8140 N   0  0  0  0  0  0  0  0  0  0  0  0
    8.7070    2.9820  -57.7770 C   0  0  2  0  0  0  0  0  0  0  0  0
   10.1480    2.8020  -58.3290 C   0  0  0  0  0  0  0  0  0  0  0  0
   10.4890    3.8950  -59.3550 C   0  0  1  0  0  0  0  0  0  0  0  0
    9.4900    3.8230  -60.5200 C   0  0  0  0  0  0  0  0  0  0  0  0
    8.0590    4.0280  -59.9980 C   0  0  2  0  0  0  0  0  0  0  0  0
    7.9620    5.4020  -59.3120 C   0  0  0  0  0  0  0  0  0  0  0  0
    8.9600    5.4830  -58.1440 C   0  0  2  0  0  0  0  0  0  0  0  0
   10.3850    5.2700  -58.6790 C   0  0  0  0  0  0  0  0  0  0  0  0
    8.6310    4.3840  -57.1200 C   0  0  0  0  0  0  0  0  0  0  0  0
    7.7270    2.9270  -58.9760 C   0  0  0  0  0  0  0  0  0  0  0  0
    7.1810    0.4530  -55.4190 C   0  0  0  0  0  0  0  0  0  0  0  0
    6.0910   -0.1240  -54.9510 N   0  0  0  0  0  0  0  0  0  0  0  0
    6.4700   -1.1940  -54.1740 N   0  0  0  0  0  0  0  0  0  0  0  0
    7.7840   -1.2370  -54.1490 C   0  0  0  0  0  0  0  0  0  0  0  0
    8.6570   -2.2060  -53.4160 C   0  0  0  0  0  0  0  0  0  0  0  0
   10.0610   -1.6050  -53.2130 C   0  0  0  0  0  0  0  0  0  0  0  0
   11.1130   -2.6900  -53.0190 C   0  0  0  0  0  0  0  0  0  0  0  0
   11.2200   -3.6000  -54.2440 C   0  0  0  0  0  0  0  0  0  0  0  0
    9.9110   -3.7310  -55.0250 C   0  0  0  0  0  0  0  0  0  0  0  0
    8.6910   -3.5760  -54.1230 C   0  0  0  0  0  0  0  0  0  0  0  0
    8.2690   -0.2170  -54.9230 N   0  0  0  0  0  0  0  0  0  0  0  0
    9.0840    1.1150  -56.8690 H   0  0  0  0  0  0  0  0  0  0  0  0
   10.8620    2.8579  -57.4941 H   0  0  0  0  0  0  0  0  0  0  0  0
   10.2112    1.8234  -58.8274 H   0  0  0  0  0  0  0  0  0  0  0  0
   11.5105    3.7455  -59.7346 H   0  0  0  0  0  0  0  0  0  0  0  0
    9.7269    4.6090  -61.2522 H   0  0  0  0  0  0  0  0  0  0  0  0
    9.5623    2.8347  -60.9975 H   0  0  0  0  0  0  0  0  0  0  0  0
    7.3490    3.9802  -60.8368 H   0  0  0  0  0  0  0  0  0  0  0  0
    8.1933    6.1906  -60.0432 H   0  0  0  0  0  0  0  0  0  0  0  0
    6.9420    5.5385  -58.9234 H   0  0  0  0  0  0  0  0  0  0  0  0
    8.8897    6.4699  -57.6632 H   0  0  0  0  0  0  0  0  0  0  0  0
   10.6207    6.0556  -59.4120 H   0  0  0  0  0  0  0  0  0  0  0  0
   11.0971    5.3170  -57.8419 H   0  0  0  0  0  0  0  0  0  0  0  0
    9.3532    4.4343  -56.2918 H   0  0  0  0  0  0  0  0  0  0  0  0
    7.6091    4.5441  -56.7456 H   0  0  0  0  0  0  0  0  0  0  0  0
    6.6997    3.0713  -58.6101 H   0  0  0  0  0  0  0  0  0  0  0  0
    7.8221    1.9472  -59.4669 H   0  0  0  0  0  0  0  0  0  0  0  0
    8.2298   -2.3883  -52.4189 H   0  0  0  0  0  0  0  0  0  0  0  0
   10.3244   -1.0065  -54.0975 H   0  0  0  0  0  0  0  0  0  0  0  0
   10.0402   -0.9803  -52.3079 H   0  0  0  0  0  0  0  0  0  0  0  0
   12.0885   -2.2132  -52.8428 H   0  0  0  0  0  0  0  0  0  0  0  0
   10.8146   -3.3070  -52.1586 H   0  0  0  0  0  0  0  0  0  0  0  0
   11.9869   -3.1888  -54.9169 H   0  0  0  0  0  0  0  0  0  0  0  0
   11.4797   -4.6044  -53.8784 H   0  0  0  0  0  0  0  0  0  0  0  0
    9.8806   -2.9518  -55.8009 H   0  0  0  0  0  0  0  0  0  0  0  0
    9.8795   -4.7364  -55.4702 H   0  0  0  0  0  0  0  0  0  0  0  0
    7.7829   -3.6811  -54.7348 H   0  0  0  0  0  0  0  0  0  0  0  0
    8.7446   -4.3541  -53.3473 H   0  0  0  0  0  0  0  0  0  0  0  0
    9.2360    0.0320  -55.0620 H   0  0  0  0  0  0  0  0  0  0  0  0
  1  2  2  0
  2  3  1  0
  4  3  1  1
  4  5  1  0
  5  6  1  0
  6  7  1  0
  7  8  1  0
  8  9  1  0
  9 10  1  0
 10 11  1  0
 10 12  1  0
  8 13  1  0
  2 14  1  0
 14 15  2  0
 15 16  1  0
 16 17  2  0
 17 18  1  0
 18 19  1  0
 19 20  1  0
 20 21  1  0
 21 22  1  0
 22 23  1  0
 17 24  1  0
 12  4  1  0
 24 14  1  0
 13  4  1  0
 23 18  1  0
 11  6  1  0
  3 25  1  0
  5 26  1  0
  5 27  1  0
  6 28  1  6
  7 29  1  0
  7 30  1  0
  8 31  1  6
  9 32  1  0
  9 33  1  0
 10 34  1  1
 11 35  1  0
 11 36  1  0
 12 37  1  0
 12 38  1  0
 13 39  1  0
 13 40  1  0
 18 41  1  0
 19 42  1  0
 19 43  1  0
 20 44  1  0
 20 45  1  0
 21 46  1  0
 21 47  1  0
 22 48  1  0
 22 49  1  0
 23 50  1  0
 23 51  1  0
 24 52  1  0
M  END
>  <meeko>  (78) 
{"is_sidechain": false}

$$$$

     RDKit          3D

 52 56  0  0  0  0  0  0  0  0999 V2000
    6.8000    1.6920  -56.1560 O   0  0  0  0  0  0  0  0  0  0  0  0
    7.9200    1.2440  -55.9380 C   0  0  0  0  0  0  0  0  0  0  0  0
    9.0580    1.7390  -56.5640 N   0  0  0  0  0  0  0  0  0  0  0  0
    9.0360    2.7910  -57.5900 C   0  0  2  0  0  0  0  0  0  0  0  0
    8.7930    4.1970  -56.9840 C   0  0  0  0  0  0  0  0  0  0  0  0
    8.8350    5.2770  -58.0800 C   0  0  1  0  0  0  0  0  0  0  0  0
   10.2170    5.2660  -58.7510 C   0  0  0  0  0  0  0  0  0  0  0  0
   10.4830    3.8900  -59.3800 C   0  0  2  0  0  0  0  0  0  0  0  0
    9.4020    3.5920  -60.4300 C   0  0  0  0  0  0  0  0  0  0  0  0
    8.0140    3.5930  -59.7710 C   0  0  2  0  0  0  0  0  0  0  0  0
    7.7560    4.9690  -59.1340 C   0  0  0  0  0  0  0  0  0  0  0  0
    7.9690    2.5110  -58.6770 C   0  0  0  0  0  0  0  0  0  0  0  0
   10.4280    2.8160  -58.2820 C   0  0  0  0  0  0  0  0  0  0  0  0
    8.1810    0.1530  -55.0210 C   0  0  0  0  0  0  0  0  0  0  0  0
    7.3010   -0.3980  -54.2060 N   0  0  0  0  0  0  0  0  0  0  0  0
    8.0220   -1.3660  -53.5540 C   0  0  0  0  0  0  0  0  0  0  0  0
    7.4170   -2.2650  -52.5260 C   0  0  0  0  0  0  0  0  0  0  0  0
    7.7940   -1.8200  -51.0980 C   0  0  0  0  0  0  0  0  0  0  0  0
    7.7650   -2.9570  -50.0730 C   0  0  0  0  0  0  0  0  0  0  0  0
    6.7480   -4.0270  -50.4380 C   0  0  0  0  0  0  0  0  0  0  0  0
    7.0580   -4.6690  -51.7910 C   0  0  0  0  0  0  0  0  0  0  0  0
    7.7890   -3.7340  -52.7590 C   0  0  0  0  0  0  0  0  0  0  0  0
    9.3070   -1.4450  -53.9210 N   0  0  0  0  0  0  0  0  0  0  0  0
    9.3870   -0.4540  -54.8230 N   0  0  0  0  0  0  0  0  0  0  0  0
    9.8360    1.0940  -56.6250 H   0  0  0  0  0  0  0  0  0  0  0  0
    7.8067    4.2148  -56.4973 H   0  0  0  0  0  0  0  0  0  0  0  0
    9.5849    4.4072  -56.2500 H   0  0  0  0  0  0  0  0  0  0  0  0
    8.6486    6.2654  -57.6348 H   0  0  0  0  0  0  0  0  0  0  0  0
   10.2479    6.0372  -59.5348 H   0  0  0  0  0  0  0  0  0  0  0  0
   10.9881    5.4730  -57.9944 H   0  0  0  0  0  0  0  0  0  0  0  0
   11.4737    3.8868  -59.8580 H   0  0  0  0  0  0  0  0  0  0  0  0
    9.4335    4.3630  -61.2140 H   0  0  0  0  0  0  0  0  0  0  0  0
    9.5910    2.6025  -60.8717 H   0  0  0  0  0  0  0  0  0  0  0  0
    7.2446    3.3849  -60.5291 H   0  0  0  0  0  0  0  0  0  0  0  0
    7.7808    5.7420  -59.9162 H   0  0  0  0  0  0  0  0  0  0  0  0
    6.7700    4.9599  -58.6465 H   0  0  0  0  0  0  0  0  0  0  0  0
    6.9719    2.5076  -58.2125 H   0  0  0  0  0  0  0  0  0  0  0  0
    8.1780    1.5334  -59.1359 H   0  0  0  0  0  0  0  0  0  0  0  0
   10.6225    1.8316  -58.7328 H   0  0  0  0  0  0  0  0  0  0  0  0
   11.1896    3.0527  -57.5245 H   0  0  0  0  0  0  0  0  0  0  0  0
    6.3251   -2.1821  -52.6307 H   0  0  0  0  0  0  0  0  0  0  0  0
    8.8101   -1.3994  -51.1219 H   0  0  0  0  0  0  0  0  0  0  0  0
    7.0424   -1.0817  -50.7816 H   0  0  0  0  0  0  0  0  0  0  0  0
    8.7629   -3.4172  -50.0247 H   0  0  0  0  0  0  0  0  0  0  0  0
    7.4760   -2.5309  -49.1009 H   0  0  0  0  0  0  0  0  0  0  0  0
    6.7590   -4.8075  -49.6629 H   0  0  0  0  0  0  0  0  0  0  0  0
    5.7593   -3.5495  -50.5052 H   0  0  0  0  0  0  0  0  0  0  0  0
    7.6880   -5.5543  -51.6199 H   0  0  0  0  0  0  0  0  0  0  0  0
    6.0943   -4.9254  -52.2553 H   0  0  0  0  0  0  0  0  0  0  0  0
    8.8734   -3.8529  -52.6176 H   0  0  0  0  0  0  0  0  0  0  0  0
    7.4907   -4.0028  -53.7831 H   0  0  0  0  0  0  0  0  0  0  0  0
   10.2810   -0.2350  -55.2460 H   0  0  0  0  0  0  0  0  0  0  0  0
  1  2  2  0
  2  3  1  0
  4  3  1  1
  4  5  1  0
  5  6  1  0
  6  7  1  0
  7  8  1  0
  8  9  1  0
  9 10  1  0
 10 11  1  0
 10 12  1  0
  8 13  1  0
  2 14  1  0
 14 15  2  0
 15 16  1  0
 16 17  1  0
 17 18  1  0
 18 19  1  0
 19 20  1  0
 20 21  1  0
 21 22  1  0
 16 23  2  0
 23 24  1  0
 12  4  1  0
 24 14  1  0
 13  4  1  0
 22 17  1  0
 11  6  1  0
  3 25  1  0
  5 26  1  0
  5 27  1  0
  6 28  1  1
  7 29  1  0
  7 30  1  0
  8 31  1  6
  9 32  1  0
  9 33  1  0
 10 34  1  6
 11 35  1  0
 11 36  1  0
 12 37  1  0
 12 38  1  0
 13 39  1  0
 13 40  1  0
 17 41  1  0
 18 42  1  0
 18 43  1  0
 19 44  1  0
 19 45  1  0
 20 46  1  0
 20 47  1  0
 21 48  1  0
 21 49  1  0
 22 50  1  0
 22 51  1  0
 24 52  1  0
M  END
>  <meeko>  (79) 
{"is_sidechain": false}

$$$$

     RDKit          3D

 52 56  0  0  0  0  0  0  0  0999 V2000
    6.6760    1.7430  -56.2190 O   0  0  0  0  0  0  0  0  0  0  0  0
    7.8040    1.3020  -56.0160 C   0  0  0  0  0  0  0  0  0  0  0  0
    8.9410    1.7790  -56.6460 N   0  0  0  0  0  0  0  0  0  0  0  0
    8.9900    2.8560  -57.6310 C   0  0  2  0  0  0  0  0  0  0  0  0
    7.9300    2.6610  -58.7430 C   0  0  0  0  0  0  0  0  0  0  0  0
    8.0360    3.7810  -59.7940 C   0  0  1  0  0  0  0  0  0  0  0  0
    7.8220    5.1410  -59.1090 C   0  0  0  0  0  0  0  0  0  0  0  0
    8.8910    5.3620  -58.0240 C   0  0  2  0  0  0  0  0  0  0  0  0
   10.2850    5.3210  -58.6720 C   0  0  0  0  0  0  0  0  0  0  0  0
   10.5080    3.9610  -59.3520 C   0  0  2  0  0  0  0  0  0  0  0  0
    9.4350    3.7490  -60.4300 C   0  0  0  0  0  0  0  0  0  0  0  0
   10.3910    2.8460  -58.2990 C   0  0  0  0  0  0  0  0  0  0  0  0
    8.7850    4.2430  -56.9740 C   0  0  0  0  0  0  0  0  0  0  0  0
    8.0940    0.2020  -55.0680 C   0  0  0  0  0  0  0  0  0  0  0  0
    9.3250   -0.3450  -54.9450 N   0  0  0  0  0  0  0  0  0  0  0  0
    9.1190   -1.2750  -53.9990 N   0  0  0  0  0  0  0  0  0  0  0  0
    7.8230   -1.2860  -53.5710 C   0  0  0  0  0  0  0  0  0  0  0  0
    7.2920   -2.2120  -52.5240 C   0  0  0  0  0  0  0  0  0  0  0  0
    7.6510   -3.6740  -52.8090 C   0  0  0  0  0  0  0  0  0  0  0  0
    6.9780   -4.6270  -51.8180 C   0  0  0  0  0  0  0  0  0  0  0  0
    6.7440   -4.0120  -50.4380 C   0  0  0  0  0  0  0  0  0  0  0  0
    7.7770   -2.9430  -50.1100 C   0  0  0  0  0  0  0  0  0  0  0  0
    7.7430   -1.7870  -51.1130 C   0  0  0  0  0  0  0  0  0  0  0  0
    7.1560   -0.3650  -54.2280 N   0  0  0  0  0  0  0  0  0  0  0  0
    9.7990    1.3090  -56.3690 H   0  0  0  0  0  0  0  0  0  0  0  0
    8.0935    1.6894  -59.2321 H   0  0  0  0  0  0  0  0  0  0  0  0
    6.9287    2.6942  -58.2887 H   0  0  0  0  0  0  0  0  0  0  0  0
    7.2720    3.6329  -60.5714 H   0  0  0  0  0  0  0  0  0  0  0  0
    7.8949    5.9417  -59.8597 H   0  0  0  0  0  0  0  0  0  0  0  0
    6.8265    5.1553  -58.6412 H   0  0  0  0  0  0  0  0  0  0  0  0
    8.7355    6.3382  -57.5415 H   0  0  0  0  0  0  0  0  0  0  0  0
   10.3613    6.1209  -59.4232 H   0  0  0  0  0  0  0  0  0  0  0  0
   11.0494    5.4658  -57.8943 H   0  0  0  0  0  0  0  0  0  0  0  0
   11.5063    3.9371  -59.8134 H   0  0  0  0  0  0  0  0  0  0  0  0
    9.5115    4.5482  -61.1820 H   0  0  0  0  0  0  0  0  0  0  0  0
    9.5918    2.7705  -60.9075 H   0  0  0  0  0  0  0  0  0  0  0  0
   10.5501    1.8728  -58.7865 H   0  0  0  0  0  0  0  0  0  0  0  0
   11.1507    3.0168  -57.5221 H   0  0  0  0  0  0  0  0  0  0  0  0
    9.5559    4.3956  -56.2043 H   0  0  0  0  0  0  0  0  0  0  0  0
    7.7829    4.2758  -56.5216 H   0  0  0  0  0  0  0  0  0  0  0  0
    9.8930   -1.8570  -53.6960 H   0  0  0  0  0  0  0  0  0  0  0  0
    6.1951   -2.1385  -52.5605 H   0  0  0  0  0  0  0  0  0  0  0  0
    7.3232   -3.9293  -53.8275 H   0  0  0  0  0  0  0  0  0  0  0  0
    8.7404   -3.7855  -52.7053 H   0  0  0  0  0  0  0  0  0  0  0  0
    6.0053   -4.9298  -52.2330 H   0  0  0  0  0  0  0  0  0  0  0  0
    7.6583   -5.4802  -51.6791 H   0  0  0  0  0  0  0  0  0  0  0  0
    5.7426   -3.5573  -50.4165 H   0  0  0  0  0  0  0  0  0  0  0  0
    6.8323   -4.8125  -49.6888 H   0  0  0  0  0  0  0  0  0  0  0  0
    7.5716   -2.5471  -49.1045 H   0  0  0  0  0  0  0  0  0  0  0  0
    8.7734   -3.4065  -50.1588 H   0  0  0  0  0  0  0  0  0  0  0  0
    7.0457   -1.0224  -50.7399 H   0  0  0  0  0  0  0  0  0  0  0  0
    8.7708   -1.4053  -51.2025 H   0  0  0  0  0  0  0  0  0  0  0  0
  1  2  2  0
  2  3  1  0
  4  3  1  1
  4  5  1  0
  5  6  1  0
  6  7  1  0
  7  8  1  0
  8  9  1  0
  9 10  1  0
 10 11  1  0
 10 12  1  0
  8 13  1  0
  2 14  1  0
 14 15  2  0
 15 16  1  0
 16 17  1  0
 17 18  1  0
 18 19  1  0
 19 20  1  0
 20 21  1  0
 21 22  1  0
 22 23  1  0
 17 24  2  0
 12  4  1  0
 24 14  1  0
 13  4  1  0
 23 18  1  0
 11  6  1  0
  3 25  1  0
  5 26  1  0
  5 27  1  0
  6 28  1  6
  7 29  1  0
  7 30  1  0
  8 31  1  1
  9 32  1  0
  9 33  1  0
 10 34  1  6
 11 35  1  0
 11 36  1  0
 12 37  1  0
 12 38  1  0
 13 39  1  0
 13 40  1  0
 16 41  1  0
 18 42  1  0
 19 43  1  0
 19 44  1  0
 20 45  1  0
 20 46  1  0
 21 47  1  0
 21 48  1  0
 22 49  1  0
 22 50  1  0
 23 51  1  0
 23 52  1  0
M  END
>  <meeko>  (80) 
{"is_sidechain": false}

$$$$

     RDKit          3D

 36 39  0  0  0  0  0  0  0  0999 V2000
    5.8400    2.4420  -59.1080 O   0  0  0  0  0  0  0  0  0  0  0  0
    6.0880    2.4280  -60.3080 C   0  0  0  0  0  0  0  0  0  0  0  0
    7.2840    2.9090  -60.8310 N   0  0  0  0  0  0  0  0  0  0  0  0
    8.3950    3.4100  -60.0070 C   0  0  2  0  0  0  0  0  0  0  0  0
    8.0320    4.7270  -59.2740 C   0  0  0  0  0  0  0  0  0  0  0  0
    9.2360    5.2500  -58.4710 C   0  0  1  0  0  0  0  0  0  0  0  0
    9.6630    4.1840  -57.4470 C   0  0  0  0  0  0  0  0  0  0  0  0
   10.0630    2.8850  -58.1690 C   0  0  2  0  0  0  0  0  0  0  0  0
   11.2250    3.1790  -59.1300 C   0  0  0  0  0  0  0  0  0  0  0  0
   10.8010    4.2370  -60.1600 C   0  0  2  0  0  0  0  0  0  0  0  0
   10.4050    5.5290  -59.4290 C   0  0  0  0  0  0  0  0  0  0  0  0
    9.5910    3.7140  -60.9510 C   0  0  0  0  0  0  0  0  0  0  0  0
    8.8600    2.3590  -58.9700 C   0  0  0  0  0  0  0  0  0  0  0  0
    5.1780    1.9120  -61.3110 C   0  0  0  0  0  0  0  0  0  0  0  0
    5.1710    2.2720  -62.5810 N   0  0  0  0  0  0  0  0  0  0  0  0
    4.1730    1.5710  -63.2230 N   0  0  0  0  0  0  0  0  0  0  0  0
    3.6160    0.7770  -62.3420 C   0  0  0  0  0  0  0  0  0  0  0  0
    4.2100    0.9560  -61.1320 N   0  0  0  0  0  0  0  0  0  0  0  0
    7.5500    2.5220  -61.7260 H   0  0  0  0  0  0  0  0  0  0  0  0
    7.7360    5.4836  -60.0156 H   0  0  0  0  0  0  0  0  0  0  0  0
    7.2020    4.5291  -58.5798 H   0  0  0  0  0  0  0  0  0  0  0  0
    8.9575    6.1771  -57.9486 H   0  0  0  0  0  0  0  0  0  0  0  0
   10.5212    4.5579  -56.8694 H   0  0  0  0  0  0  0  0  0  0  0  0
    8.8194    3.9752  -56.7727 H   0  0  0  0  0  0  0  0  0  0  0  0
   10.3740    2.1302  -57.4318 H   0  0  0  0  0  0  0  0  0  0  0  0
   12.0859    3.5534  -58.5567 H   0  0  0  0  0  0  0  0  0  0  0  0
   11.5010    2.2533  -59.6563 H   0  0  0  0  0  0  0  0  0  0  0  0
   11.6361    4.4412  -60.8462 H   0  0  0  0  0  0  0  0  0  0  0  0
   11.2660    5.9020  -58.8550 H   0  0  0  0  0  0  0  0  0  0  0  0
   10.0961    6.2832  -60.1677 H   0  0  0  0  0  0  0  0  0  0  0  0
    9.2854    4.4745  -61.6847 H   0  0  0  0  0  0  0  0  0  0  0  0
    9.8814    2.7822  -61.4584 H   0  0  0  0  0  0  0  0  0  0  0  0
    9.1504    1.4370  -59.4949 H   0  0  0  0  0  0  0  0  0  0  0  0
    8.0321    2.1561  -58.2747 H   0  0  0  0  0  0  0  0  0  0  0  0
    2.7952    0.0746  -62.5491 H   0  0  0  0  0  0  0  0  0  0  0  0
    4.0210    0.4510  -60.2790 H   0  0  0  0  0  0  0  0  0  0  0  0
  1  2  2  0
  2  3  1  0
  4  3  1  6
  4  5  1  0
  5  6  1  0
  6  7  1  0
  7  8  1  0
  8  9  1  0
  9 10  1  0
 10 11  1  0
 10 12  1  0
  8 13  1  0
  2 14  1  0
 14 15  2  0
 15 16  1  0
 16 17  2  0
 17 18  1  0
 12  4  1  0
 18 14  1  0
 13  4  1  0
 11  6  1  0
  3 19  1  0
  5 20  1  0
  5 21  1  0
  6 22  1  1
  7 23  1  0
  7 24  1  0
  8 25  1  1
  9 26  1  0
  9 27  1  0
 10 28  1  6
 11 29  1  0
 11 30  1  0
 12 31  1  0
 12 32  1  0
 13 33  1  0
 13 34  1  0
 17 35  1  0
 18 36  1  0
M  END
>  <meeko>  (81) 
{"is_sidechain": false}

$$$$

     RDKit          3D

 36 39  0  0  0  0  0  0  0  0999 V2000
    6.0310    2.3440  -59.0210 O   0  0  0  0  0  0  0  0  0  0  0  0
    6.2330    2.3520  -60.2300 C   0  0  0  0  0  0  0  0  0  0  0  0
    7.4250    2.8010  -60.7880 N   0  0  0  0  0  0  0  0  0  0  0  0
    8.5330    3.3690  -60.0040 C   0  0  2  0  0  0  0  0  0  0  0  0
    8.1090    4.6600  -59.2620 C   0  0  0  0  0  0  0  0  0  0  0  0
    9.3040    5.2660  -58.5040 C   0  0  1  0  0  0  0  0  0  0  0  0
    9.8360    4.2370  -57.4920 C   0  0  0  0  0  0  0  0  0  0  0  0
   10.2990    2.9650  -58.2220 C   0  0  2  0  0  0  0  0  0  0  0  0
   11.4050    3.3270  -59.2230 C   0  0  0  0  0  0  0  0  0  0  0  0
   10.8750    4.3460  -60.2440 C   0  0  2  0  0  0  0  0  0  0  0  0
   10.4170    5.6140  -59.5050 C   0  0  0  0  0  0  0  0  0  0  0  0
    9.6780    3.7360  -60.9880 C   0  0  0  0  0  0  0  0  0  0  0  0
    9.1050    2.3550  -58.9810 C   0  0  0  0  0  0  0  0  0  0  0  0
    5.2580    1.9100  -61.2060 C   0  0  0  0  0  0  0  0  0  0  0  0
    4.3240    0.9980  -61.0080 N   0  0  0  0  0  0  0  0  0  0  0  0
    3.6790    0.9340  -62.2090 C   0  0  0  0  0  0  0  0  0  0  0  0
    4.1560    1.7490  -63.1520 N   0  0  0  0  0  0  0  0  0  0  0  0
    5.1740    2.3330  -62.5020 N   0  0  0  0  0  0  0  0  0  0  0  0
    7.3630    3.1280  -61.7430 H   0  0  0  0  0  0  0  0  0  0  0  0
    7.7362    5.3918  -59.9938 H   0  0  0  0  0  0  0  0  0  0  0  0
    7.3194    4.4101  -58.5381 H   0  0  0  0  0  0  0  0  0  0  0  0
    8.9842    6.1761  -57.9753 H   0  0  0  0  0  0  0  0  0  0  0  0
   10.6855    4.6714  -56.9445 H   0  0  0  0  0  0  0  0  0  0  0  0
    9.0311    3.9750  -56.7895 H   0  0  0  0  0  0  0  0  0  0  0  0
   10.6862    2.2386  -57.4923 H   0  0  0  0  0  0  0  0  0  0  0  0
   12.2579    3.7629  -58.6820 H   0  0  0  0  0  0  0  0  0  0  0  0
   11.7253    2.4176  -59.7525 H   0  0  0  0  0  0  0  0  0  0  0  0
   11.6695    4.6015  -60.9606 H   0  0  0  0  0  0  0  0  0  0  0  0
   11.2705    6.0487  -58.9641 H   0  0  0  0  0  0  0  0  0  0  0  0
   10.0308    6.3388  -60.2368 H   0  0  0  0  0  0  0  0  0  0  0  0
    9.3016    4.4649  -61.7208 H   0  0  0  0  0  0  0  0  0  0  0  0
   10.0124    2.8171  -61.4918 H   0  0  0  0  0  0  0  0  0  0  0  0
    9.4386    1.4527  -59.5144 H   0  0  0  0  0  0  0  0  0  0  0  0
    8.3175    2.0997  -58.2566 H   0  0  0  0  0  0  0  0  0  0  0  0
    2.8281    0.2599  -62.3868 H   0  0  0  0  0  0  0  0  0  0  0  0
    5.7730    2.9860  -62.9950 H   0  0  0  0  0  0  0  0  0  0  0  0
  1  2  2  0
  2  3  1  0
  4  3  1  6
  4  5  1  0
  5  6  1  0
  6  7  1  0
  7  8  1  0
  8  9  1  0
  9 10  1  0
 10 11  1  0
 10 12  1  0
  8 13  1  0
  2 14  1  0
 14 15  2  0
 15 16  1  0
 16 17  2  0
 17 18  1  0
 12  4  1  0
 18 14  1  0
 13  4  1  0
 11  6  1  0
  3 19  1  0
  5 20  1  0
  5 21  1  0
  6 22  1  1
  7 23  1  0
  7 24  1  0
  8 25  1  1
  9 26  1  0
  9 27  1  0
 10 28  1  6
 11 29  1  0
 11 30  1  0
 12 31  1  0
 12 32  1  0
 13 33  1  0
 13 34  1  0
 16 35  1  0
 18 36  1  0
M  END
>  <meeko>  (82) 
{"is_sidechain": false}

$$$$

     RDKit          3D

 36 39  0  0  0  0  0  0  0  0999 V2000
    5.7970    2.4590  -59.1090 O   0  0  0  0  0  0  0  0  0  0  0  0
    6.0970    2.4310  -60.2990 C   0  0  0  0  0  0  0  0  0  0  0  0
    7.3190    2.8500  -60.7960 N   0  0  0  0  0  0  0  0  0  0  0  0
    8.4290    3.3810  -60.0090 C   0  0  2  0  0  0  0  0  0  0  0  0
    8.0510    4.7140  -59.3150 C   0  0  0  0  0  0  0  0  0  0  0  0
    9.2520    5.2770  -58.5350 C   0  0  1  0  0  0  0  0  0  0  0  0
    9.6950    4.2510  -57.4780 C   0  0  0  0  0  0  0  0  0  0  0  0
   10.1080    2.9350  -58.1590 C   0  0  2  0  0  0  0  0  0  0  0  0
   11.2640    3.2100  -59.1340 C   0  0  0  0  0  0  0  0  0  0  0  0
   10.8230    4.2270  -60.1970 C   0  0  2  0  0  0  0  0  0  0  0  0
   10.4120    5.5380  -59.5080 C   0  0  0  0  0  0  0  0  0  0  0  0
    9.6180    3.6630  -60.9660 C   0  0  0  0  0  0  0  0  0  0  0  0
    8.9070    2.3700  -58.9380 C   0  0  0  0  0  0  0  0  0  0  0  0
    5.1850    1.9420  -61.3600 C   0  0  0  0  0  0  0  0  0  0  0  0
    4.1890    1.0060  -61.1560 N   0  0  0  0  0  0  0  0  0  0  0  0
    3.6390    0.8730  -62.3370 C   0  0  0  0  0  0  0  0  0  0  0  0
    4.2650    1.6850  -63.2230 N   0  0  0  0  0  0  0  0  0  0  0  0
    5.2550    2.3820  -62.6390 N   0  0  0  0  0  0  0  0  0  0  0  0
    7.4120    2.7630  -61.8040 H   0  0  0  0  0  0  0  0  0  0  0  0
    7.7409    5.4436  -60.0776 H   0  0  0  0  0  0  0  0  0  0  0  0
    7.2268    4.5265  -58.6110 H   0  0  0  0  0  0  0  0  0  0  0  0
    8.9659    6.2174  -58.0413 H   0  0  0  0  0  0  0  0  0  0  0  0
   10.5505    4.6539  -56.9160 H   0  0  0  0  0  0  0  0  0  0  0  0
    8.8566    4.0545  -56.7936 H   0  0  0  0  0  0  0  0  0  0  0  0
   10.4312    2.2083  -57.3991 H   0  0  0  0  0  0  0  0  0  0  0  0
   12.1222    3.6140  -58.5770 H   0  0  0  0  0  0  0  0  0  0  0  0
   11.5501    2.2705  -59.6294 H   0  0  0  0  0  0  0  0  0  0  0  0
   11.6535    4.4185  -60.8924 H   0  0  0  0  0  0  0  0  0  0  0  0
   11.2706    5.9422  -58.9517 H   0  0  0  0  0  0  0  0  0  0  0  0
   10.0886    6.2616  -60.2707 H   0  0  0  0  0  0  0  0  0  0  0  0
    9.3026    4.3931  -61.7259 H   0  0  0  0  0  0  0  0  0  0  0  0
    9.9173    2.7170  -61.4408 H   0  0  0  0  0  0  0  0  0  0  0  0
    9.2046    1.4334  -59.4321 H   0  0  0  0  0  0  0  0  0  0  0  0
    8.0831    2.1829  -58.2336 H   0  0  0  0  0  0  0  0  0  0  0  0
    2.7979    0.2047  -62.5735 H   0  0  0  0  0  0  0  0  0  0  0  0
    4.0800    1.8140  -64.2110 H   0  0  0  0  0  0  0  0  0  0  0  0
  1  2  2  0
  2  3  1  0
  4  3  1  6
  4  5  1  0
  5  6  1  0
  6  7  1  0
  7  8  1  0
  8  9  1  0
  9 10  1  0
 10 11  1  0
 10 12  1  0
  8 13  1  0
  2 14  1  0
 14 15  1  0
 15 16  2  0
 16 17  1  0
 17 18  1  0
 12  4  1  0
 18 14  2  0
 13  4  1  0
 11  6  1  0
  3 19  1  0
  5 20  1  0
  5 21  1  0
  6 22  1  1
  7 23  1  0
  7 24  1  0
  8 25  1  1
  9 26  1  0
  9 27  1  0
 10 28  1  6
 11 29  1  0
 11 30  1  0
 12 31  1  0
 12 32  1  0
 13 33  1  0
 13 34  1  0
 16 35  1  0
 17 36  1  0
M  END
>  <meeko>  (83) 
{"is_sidechain": false}

$$$$

     RDKit          3D

 34 37  0  0  0  0  0  0  0  0999 V2000
    5.6920    2.4770  -58.9890 O   0  0  0  0  0  0  0  0  0  0  0  0
    5.9200    2.3730  -60.1990 C   0  0  0  0  0  0  0  0  0  0  0  0
    7.1580    2.7550  -60.7230 N   0  0  0  0  0  0  0  0  0  0  0  0
    8.2900    3.2970  -59.9830 C   0  0  2  0  0  0  0  0  0  0  0  0
    7.9920    4.7150  -59.4350 C   0  0  0  0  0  0  0  0  0  0  0  0
    9.2220    5.2820  -58.7040 C   0  0  1  0  0  0  0  0  0  0  0  0
    9.5970    4.3460  -57.5420 C   0  0  0  0  0  0  0  0  0  0  0  0
    9.9320    2.9440  -58.0790 C   0  0  2  0  0  0  0  0  0  0  0  0
   11.1070    3.0460  -59.0650 C   0  0  0  0  0  0  0  0  0  0  0  0
   10.7330    3.9730  -60.2320 C   0  0  2  0  0  0  0  0  0  0  0  0
   10.4010    5.3700  -59.6860 C   0  0  0  0  0  0  0  0  0  0  0  0
    9.4990    3.4060  -60.9510 C   0  0  0  0  0  0  0  0  0  0  0  0
    8.7030    2.3740  -58.8100 C   0  0  0  0  0  0  0  0  0  0  0  0
    5.0610    1.8780  -61.2920 C   0  0  0  0  0  0  0  0  0  0  0  0
    4.0730    0.9470  -61.1070 N   0  0  0  0  0  0  0  0  0  0  0  0
    3.5330    0.7700  -62.3340 N   0  0  0  0  0  0  0  0  0  0  0  0
    4.1690    1.5620  -63.2220 N   0  0  0  0  0  0  0  0  0  0  0  0
    5.1370    2.2690  -62.5910 N   0  0  0  0  0  0  0  0  0  0  0  0
    7.2210    2.6210  -61.7350 H   0  0  0  0  0  0  0  0  0  0  0  0
    7.7311    5.3789  -60.2724 H   0  0  0  0  0  0  0  0  0  0  0  0
    7.1546    4.6522  -58.7245 H   0  0  0  0  0  0  0  0  0  0  0  0
    8.9913    6.2840  -58.3132 H   0  0  0  0  0  0  0  0  0  0  0  0
   10.4730    4.7527  -57.0155 H   0  0  0  0  0  0  0  0  0  0  0  0
    8.7451    4.2722  -56.8501 H   0  0  0  0  0  0  0  0  0  0  0  0
   10.2061    2.2827  -57.2438 H   0  0  0  0  0  0  0  0  0  0  0  0
   11.9861    3.4527  -58.5437 H   0  0  0  0  0  0  0  0  0  0  0  0
   11.3373    2.0447  -59.4580 H   0  0  0  0  0  0  0  0  0  0  0  0
   11.5761    4.0414  -60.9352 H   0  0  0  0  0  0  0  0  0  0  0  0
   11.2803    5.7761  -59.1646 H   0  0  0  0  0  0  0  0  0  0  0  0
   10.1268    6.0297  -60.5225 H   0  0  0  0  0  0  0  0  0  0  0  0
    9.2323    4.0709  -61.7857 H   0  0  0  0  0  0  0  0  0  0  0  0
    9.7421    2.3993  -61.3217 H   0  0  0  0  0  0  0  0  0  0  0  0
    8.9471    1.3763  -59.2037 H   0  0  0  0  0  0  0  0  0  0  0  0
    7.8663    2.3082  -58.0989 H   0  0  0  0  0  0  0  0  0  0  0  0
  1  2  2  0
  2  3  1  0
  4  3  1  6
  4  5  1  0
  5  6  1  0
  6  7  1  0
  7  8  1  0
  8  9  1  0
  9 10  1  0
 10 11  1  0
 10 12  1  0
  8 13  1  0
  2 14  1  0
 14 15  2  0
 15 16  1  0
 16 17  2  0
 17 18  1  0
 12  4  1  0
 18 14  1  0
 13  4  1  0
 11  6  1  0
  3 19  1  0
  5 20  1  0
  5 21  1  0
  6 22  1  1
  7 23  1  0
  7 24  1  0
  8 25  1  1
  9 26  1  0
  9 27  1  0
 10 28  1  6
 11 29  1  0
 11 30  1  0
 12 31  1  0
 12 32  1  0
 13 33  1  0
 13 34  1  0
M  CHG  1  18  -1
M  END
>  <meeko>  (84) 
{"is_sidechain": false}

$$$$

     RDKit          3D

 46 50  0  0  0  0  0  0  0  0999 V2000
   10.0220    1.1440  -56.4890 O   0  0  0  0  0  0  0  0  0  0  0  0
    9.0830    1.8610  -56.8420 C   0  0  0  0  0  0  0  0  0  0  0  0
    7.7960    1.6980  -56.3770 N   0  0  0  0  0  0  0  0  0  0  0  0
    7.4610    0.7180  -55.4800 C   0  0  0  0  0  0  0  0  0  0  0  0
    6.2820    0.1600  -55.3490 N   0  0  0  0  0  0  0  0  0  0  0  0
    6.3730   -0.7720  -54.3390 N   0  0  0  0  0  0  0  0  0  0  0  0
    7.6080   -0.7670  -53.8640 C   0  0  0  0  0  0  0  0  0  0  0  0
    8.1400   -1.6000  -52.7850 C   0  0  0  0  0  0  0  0  0  0  0  0
    7.3770   -1.7880  -51.6230 C   0  0  0  0  0  0  0  0  0  0  0  0
    7.8490   -2.5760  -50.5700 C   0  0  0  0  0  0  0  0  0  0  0  0
    9.0960   -3.1880  -50.6640 C   0  0  0  0  0  0  0  0  0  0  0  0
    9.8690   -3.0120  -51.8090 C   0  0  0  0  0  0  0  0  0  0  0  0
    9.3960   -2.2230  -52.8630 C   0  0  0  0  0  0  0  0  0  0  0  0
    8.3170    0.1680  -54.5690 N   0  0  0  0  0  0  0  0  0  0  0  0
    9.2630    3.0150  -57.8450 C   0  0  2  0  0  0  0  0  0  0  0  0
    9.2170    4.3840  -57.1220 C   0  0  0  0  0  0  0  0  0  0  0  0
    9.3810    5.5330  -58.1330 C   0  0  1  0  0  0  0  0  0  0  0  0
   10.7290    5.3790  -58.8580 C   0  0  0  0  0  0  0  0  0  0  0  0
   10.7780    4.0350  -59.6060 C   0  0  2  0  0  0  0  0  0  0  0  0
    9.6320    3.9830  -60.6280 C   0  0  0  0  0  0  0  0  0  0  0  0
    8.2810    4.1290  -59.9100 C   0  0  2  0  0  0  0  0  0  0  0  0
    8.2420    5.4720  -59.1630 C   0  0  0  0  0  0  0  0  0  0  0  0
    8.1230    2.9840  -58.8960 C   0  0  0  0  0  0  0  0  0  0  0  0
   10.6120    2.8880  -58.5940 C   0  0  0  0  0  0  0  0  0  0  0  0
    7.0340    2.2920  -56.6730 H   0  0  0  0  0  0  0  0  0  0  0  0
    6.3911   -1.3073  -51.5394 H   0  0  0  0  0  0  0  0  0  0  0  0
    7.2356   -2.7127  -49.6672 H   0  0  0  0  0  0  0  0  0  0  0  0
    9.4696   -3.8087  -49.8363 H   0  0  0  0  0  0  0  0  0  0  0  0
   10.8545   -3.4948  -51.8849 H   0  0  0  0  0  0  0  0  0  0  0  0
   10.0147   -2.0892  -53.7626 H   0  0  0  0  0  0  0  0  0  0  0  0
    9.2880    0.4300  -54.4700 H   0  0  0  0  0  0  0  0  0  0  0  0
    8.2504    4.4895  -56.6077 H   0  0  0  0  0  0  0  0  0  0  0  0
   10.0406    4.4300  -56.3943 H   0  0  0  0  0  0  0  0  0  0  0  0
    9.3499    6.4977  -57.6054 H   0  0  0  0  0  0  0  0  0  0  0  0
   10.8501    6.2010  -59.5789 H   0  0  0  0  0  0  0  0  0  0  0  0
   11.5412    5.4078  -58.1168 H   0  0  0  0  0  0  0  0  0  0  0  0
   11.7415    3.9327  -60.1267 H   0  0  0  0  0  0  0  0  0  0  0  0
    9.7510    4.8035  -61.3509 H   0  0  0  0  0  0  0  0  0  0  0  0
    9.6596    3.0167  -61.1529 H   0  0  0  0  0  0  0  0  0  0  0  0
    7.4651    4.0921  -60.6469 H   0  0  0  0  0  0  0  0  0  0  0  0
    8.3589    6.2939  -59.8847 H   0  0  0  0  0  0  0  0  0  0  0  0
    7.2780    5.5678  -58.6419 H   0  0  0  0  0  0  0  0  0  0  0  0
    7.1562    3.0889  -58.3820 H   0  0  0  0  0  0  0  0  0  0  0  0
    8.1687    2.0269  -59.4363 H   0  0  0  0  0  0  0  0  0  0  0  0
   10.6399    1.9270  -59.1286 H   0  0  0  0  0  0  0  0  0  0  0  0
   11.4311    2.9392  -57.8616 H   0  0  0  0  0  0  0  0  0  0  0  0
  1  2  2  0
  2  3  1  0
  3  4  1  0
  4  5  2  0
  5  6  1  0
  6  7  2  0
  7  8  1  0
  8  9  2  0
  9 10  1  0
 10 11  2  0
 11 12  1  0
 12 13  2  0
  7 14  1  0
 15  2  1  1
 15 16  1  0
 16 17  1  0
 17 18  1  0
 18 19  1  0
 19 20  1  0
 20 21  1  0
 21 22  1  0
 21 23  1  0
 19 24  1  0
 14  4  1  0
 23 15  1  0
 13  8  1  0
 24 15  1  0
 22 17  1  0
  3 25  1  0
  9 26  1  0
 10 27  1  0
 11 28  1  0
 12 29  1  0
 13 30  1  0
 14 31  1  0
 16 32  1  0
 16 33  1  0
 17 34  1  1
 18 35  1  0
 18 36  1  0
 19 37  1  6
 20 38  1  0
 20 39  1  0
 21 40  1  6
 22 41  1  0
 22 42  1  0
 23 43  1  0
 23 44  1  0
 24 45  1  0
 24 46  1  0
M  END
>  <meeko>  (85) 
{"is_sidechain": false}

$$$$

     RDKit          3D

 46 50  0  0  0  0  0  0  0  0999 V2000
    6.2590    2.0710  -56.4730 O   0  0  0  0  0  0  0  0  0  0  0  0
    7.4780    2.1200  -56.6490 C   0  0  0  0  0  0  0  0  0  0  0  0
    8.3620    1.2830  -56.0020 N   0  0  0  0  0  0  0  0  0  0  0  0
    7.9380    0.3320  -55.1110 C   0  0  0  0  0  0  0  0  0  0  0  0
    8.6510   -0.1550  -54.1270 N   0  0  0  0  0  0  0  0  0  0  0  0
    7.8020   -1.0670  -53.5260 C   0  0  0  0  0  0  0  0  0  0  0  0
    8.2030   -1.8540  -52.3630 C   0  0  0  0  0  0  0  0  0  0  0  0
    7.3910   -1.8940  -51.2190 C   0  0  0  0  0  0  0  0  0  0  0  0
    7.7690   -2.6440  -50.1020 C   0  0  0  0  0  0  0  0  0  0  0  0
    8.9630   -3.3620  -50.1160 C   0  0  0  0  0  0  0  0  0  0  0  0
    9.7800   -3.3320  -51.2450 C   0  0  0  0  0  0  0  0  0  0  0  0
    9.4020   -2.5820  -52.3620 C   0  0  0  0  0  0  0  0  0  0  0  0
    6.5940   -1.1510  -54.1100 N   0  0  0  0  0  0  0  0  0  0  0  0
    6.7070   -0.2580  -55.1070 N   0  0  0  0  0  0  0  0  0  0  0  0
    8.1310    3.1250  -57.6130 C   0  0  2  0  0  0  0  0  0  0  0  0
    7.1500    3.4680  -58.7650 C   0  0  0  0  0  0  0  0  0  0  0  0
    7.7820    4.4730  -59.7420 C   0  0  1  0  0  0  0  0  0  0  0  0
    8.1360    5.7600  -58.9820 C   0  0  0  0  0  0  0  0  0  0  0  0
    9.1280    5.4460  -57.8500 C   0  0  2  0  0  0  0  0  0  0  0  0
   10.4030    4.8290  -58.4510 C   0  0  0  0  0  0  0  0  0  0  0  0
   10.0570    3.5370  -59.2110 C   0  0  2  0  0  0  0  0  0  0  0  0
    9.0610    3.8620  -60.3350 C   0  0  0  0  0  0  0  0  0  0  0  0
    9.4180    2.5320  -58.2370 C   0  0  0  0  0  0  0  0  0  0  0  0
    8.4890    4.4390  -56.8780 C   0  0  0  0  0  0  0  0  0  0  0  0
    9.3600    1.3280  -56.1500 H   0  0  0  0  0  0  0  0  0  0  0  0
    6.4473   -1.3292  -51.2014 H   0  0  0  0  0  0  0  0  0  0  0  0
    7.1237   -2.6675  -49.2115 H   0  0  0  0  0  0  0  0  0  0  0  0
    9.2607   -3.9521  -49.2367 H   0  0  0  0  0  0  0  0  0  0  0  0
   10.7226   -3.8989  -51.2567 H   0  0  0  0  0  0  0  0  0  0  0  0
   10.0514   -2.5624  -53.2496 H   0  0  0  0  0  0  0  0  0  0  0  0
    5.9390   -0.0860  -55.7490 H   0  0  0  0  0  0  0  0  0  0  0  0
    6.8975    2.5462  -59.3096 H   0  0  0  0  0  0  0  0  0  0  0  0
    6.2444    3.9191  -58.3332 H   0  0  0  0  0  0  0  0  0  0  0  0
    7.0736    4.7049  -60.5509 H   0  0  0  0  0  0  0  0  0  0  0  0
    8.5926    6.4798  -59.6773 H   0  0  0  0  0  0  0  0  0  0  0  0
    7.2193    6.1884  -58.5505 H   0  0  0  0  0  0  0  0  0  0  0  0
    9.3801    6.3716  -57.3117 H   0  0  0  0  0  0  0  0  0  0  0  0
   10.8626    5.5477  -59.1454 H   0  0  0  0  0  0  0  0  0  0  0  0
   11.1058    4.5919  -57.6387 H   0  0  0  0  0  0  0  0  0  0  0  0
   10.9712    3.1030  -59.6422 H   0  0  0  0  0  0  0  0  0  0  0  0
    9.5189    4.5799  -61.0314 H   0  0  0  0  0  0  0  0  0  0  0  0
    8.8047    2.9356  -60.8699 H   0  0  0  0  0  0  0  0  0  0  0  0
    9.1648    1.6107  -58.7820 H   0  0  0  0  0  0  0  0  0  0  0  0
   10.1347    2.3116  -57.4322 H   0  0  0  0  0  0  0  0  0  0  0  0
    9.1993    4.2180  -56.0676 H   0  0  0  0  0  0  0  0  0  0  0  0
    7.5679    4.8780  -56.4672 H   0  0  0  0  0  0  0  0  0  0  0  0
  1  2  2  0
  2  3  1  0
  3  4  1  0
  4  5  2  0
  5  6  1  0
  6  7  1  0
  7  8  2  0
  8  9  1  0
  9 10  2  0
 10 11  1  0
 11 12  2  0
  6 13  2  0
 13 14  1  0
 15  2  1  1
 15 16  1  0
 16 17  1  0
 17 18  1  0
 18 19  1  0
 19 20  1  0
 20 21  1  0
 21 22  1  0
 21 23  1  0
 19 24  1  0
 14  4  1  0
 23 15  1  0
 12  7  1  0
 24 15  1  0
 22 17  1  0
  3 25  1  0
  8 26  1  0
  9 27  1  0
 10 28  1  0
 11 29  1  0
 12 30  1  0
 14 31  1  0
 16 32  1  0
 16 33  1  0
 17 34  1  6
 18 35  1  0
 18 36  1  0
 19 37  1  1
 20 38  1  0
 20 39  1  0
 21 40  1  6
 22 41  1  0
 22 42  1  0
 23 43  1  0
 23 44  1  0
 24 45  1  0
 24 46  1  0
M  END
>  <meeko>  (86) 
{"is_sidechain": false}

$$$$

     RDKit          3D

 46 50  0  0  0  0  0  0  0  0999 V2000
    5.9660    2.3540  -56.4450 O   0  0  0  0  0  0  0  0  0  0  0  0
    7.1740    2.2030  -56.6060 C   0  0  0  0  0  0  0  0  0  0  0  0
    7.9480    1.2370  -56.0070 N   0  0  0  0  0  0  0  0  0  0  0  0
    7.5030    0.2860  -55.1350 C   0  0  0  0  0  0  0  0  0  0  0  0
    6.3020   -0.2810  -55.0680 N   0  0  0  0  0  0  0  0  0  0  0  0
    6.4480   -1.1190  -54.0370 N   0  0  0  0  0  0  0  0  0  0  0  0
    7.7060   -1.0560  -53.5010 C   0  0  0  0  0  0  0  0  0  0  0  0
    8.1860   -1.8450  -52.3650 C   0  0  0  0  0  0  0  0  0  0  0  0
    7.4120   -1.8990  -51.1940 C   0  0  0  0  0  0  0  0  0  0  0  0
    7.8310   -2.6380  -50.0860 C   0  0  0  0  0  0  0  0  0  0  0  0
    9.0330   -3.3380  -50.1320 C   0  0  0  0  0  0  0  0  0  0  0  0
    9.8150   -3.2980  -51.2830 C   0  0  0  0  0  0  0  0  0  0  0  0
    9.3960   -2.5560  -52.3940 C   0  0  0  0  0  0  0  0  0  0  0  0
    8.3890   -0.1600  -54.1930 N   0  0  0  0  0  0  0  0  0  0  0  0
    7.9700    3.1350  -57.5460 C   0  0  2  0  0  0  0  0  0  0  0  0
    7.0930    3.5410  -58.7610 C   0  0  0  0  0  0  0  0  0  0  0  0
    7.8640    4.4710  -59.7110 C   0  0  1  0  0  0  0  0  0  0  0  0
    8.2820    5.7370  -58.9490 C   0  0  0  0  0  0  0  0  0  0  0  0
    9.1740    5.3610  -57.7560 C   0  0  2  0  0  0  0  0  0  0  0  0
   10.4250    4.6270  -58.2690 C   0  0  0  0  0  0  0  0  0  0  0  0
   10.0160    3.3550  -59.0330 C   0  0  2  0  0  0  0  0  0  0  0  0
    9.1190    3.7420  -60.2190 C   0  0  0  0  0  0  0  0  0  0  0  0
    9.2370    2.4260  -58.0860 C   0  0  0  0  0  0  0  0  0  0  0  0
    8.3950    4.4300  -56.8090 C   0  0  0  0  0  0  0  0  0  0  0  0
    8.9360    1.1700  -56.1840 H   0  0  0  0  0  0  0  0  0  0  0  0
    5.6630   -1.6940  -53.7600 H   0  0  0  0  0  0  0  0  0  0  0  0
    6.4599   -1.3499  -51.1492 H   0  0  0  0  0  0  0  0  0  0  0  0
    7.2116   -2.6669  -49.1774 H   0  0  0  0  0  0  0  0  0  0  0  0
    9.3645   -3.9217  -49.2606 H   0  0  0  0  0  0  0  0  0  0  0  0
   10.7651   -3.8511  -51.3198 H   0  0  0  0  0  0  0  0  0  0  0  0
   10.0213   -2.5300  -53.2986 H   0  0  0  0  0  0  0  0  0  0  0  0
    6.7950    2.6346  -59.3084 H   0  0  0  0  0  0  0  0  0  0  0  0
    6.2065    4.0762  -58.3899 H   0  0  0  0  0  0  0  0  0  0  0  0
    7.2262    4.7480  -60.5633 H   0  0  0  0  0  0  0  0  0  0  0  0
    8.8392    6.4020  -59.6252 H   0  0  0  0  0  0  0  0  0  0  0  0
    7.3819    6.2502  -58.5796 H   0  0  0  0  0  0  0  0  0  0  0  0
    9.4718    6.2725  -57.2171 H   0  0  0  0  0  0  0  0  0  0  0  0
   10.9860    5.2914  -58.9427 H   0  0  0  0  0  0  0  0  0  0  0  0
   11.0540    4.3454  -57.4117 H   0  0  0  0  0  0  0  0  0  0  0  0
   10.9137    2.8384  -59.4033 H   0  0  0  0  0  0  0  0  0  0  0  0
    9.6766    4.4052  -60.8967 H   0  0  0  0  0  0  0  0  0  0  0  0
    8.8159    2.8310  -60.7558 H   0  0  0  0  0  0  0  0  0  0  0  0
    8.9384    1.5198  -58.6335 H   0  0  0  0  0  0  0  0  0  0  0  0
    9.8844    2.1619  -57.2368 H   0  0  0  0  0  0  0  0  0  0  0  0
    9.0349    4.1661  -55.9541 H   0  0  0  0  0  0  0  0  0  0  0  0
    7.4920    4.9528  -56.4609 H   0  0  0  0  0  0  0  0  0  0  0  0
  1  2  2  0
  2  3  1  0
  3  4  1  0
  4  5  2  0
  5  6  1  0
  6  7  1  0
  7  8  1  0
  8  9  2  0
  9 10  1  0
 10 11  2  0
 11 12  1  0
 12 13  2  0
  7 14  2  0
 15  2  1  1
 15 16  1  0
 16 17  1  0
 17 18  1  0
 18 19  1  0
 19 20  1  0
 20 21  1  0
 21 22  1  0
 21 23  1  0
 19 24  1  0
 14  4  1  0
 23 15  1  0
 13  8  1  0
 24 15  1  0
 22 17  1  0
  3 25  1  0
  6 26  1  0
  9 27  1  0
 10 28  1  0
 11 29  1  0
 12 30  1  0
 13 31  1  0
 16 32  1  0
 16 33  1  0
 17 34  1  6
 18 35  1  0
 18 36  1  0
 19 37  1  1
 20 38  1  0
 20 39  1  0
 21 40  1  6
 22 41  1  0
 22 42  1  0
 23 43  1  0
 23 44  1  0
 24 45  1  0
 24 46  1  0
M  END
>  <meeko>  (87) 
{"is_sidechain": false}

$$$$

     RDKit          3D

 49 52  0  0  0  0  0  0  0  0999 V2000
    5.9870   -0.0830  -55.4800 C   0  0  0  0  0  0  0  0  0  0  0  0
    7.1090    0.7190  -56.0370 C   0  0  0  0  0  0  0  0  0  0  0  0
    8.3930    0.8810  -55.4570 C   0  0  0  0  0  0  0  0  0  0  0  0
    8.9110    0.2730  -54.2150 C   0  0  0  0  0  0  0  0  0  0  0  0
    8.7440    0.7640  -53.1030 O   0  0  0  0  0  0  0  0  0  0  0  0
    9.5880   -0.9050  -54.4370 N   0  0  0  0  0  0  0  0  0  0  0  0
   10.0080   -1.7760  -53.3720 C   0  0  0  0  0  0  0  0  0  0  0  0
    8.8230   -2.4220  -52.7040 C   0  0  0  0  0  0  0  0  0  0  0  0
    7.7400   -2.8770  -53.4690 C   0  0  0  0  0  0  0  0  0  0  0  0
    6.6500   -3.4960  -52.8560 C   0  0  0  0  0  0  0  0  0  0  0  0
    6.6340   -3.6730  -51.4740 C   0  0  0  0  0  0  0  0  0  0  0  0
    7.7100   -3.2340  -50.7040 C   0  0  0  0  0  0  0  0  0  0  0  0
    8.8020   -2.6150  -51.3150 C   0  0  0  0  0  0  0  0  0  0  0  0
    9.1540    1.7130  -56.1850 N   0  0  0  0  0  0  0  0  0  0  0  0
    8.4100    2.0360  -57.2820 N   0  0  0  0  0  0  0  0  0  0  0  0
    9.0280    2.8290  -58.3050 C   0  0  0  0  0  0  0  0  0  0  0  0
    8.9780    4.2330  -58.1970 C   0  0  0  0  0  0  0  0  0  0  0  0
    9.5650    5.0490  -59.1670 C   0  0  0  0  0  0  0  0  0  0  0  0
   10.2200    4.4770  -60.2540 C   0  0  0  0  0  0  0  0  0  0  0  0
   10.2940    3.0910  -60.3640 C   0  0  0  0  0  0  0  0  0  0  0  0
    9.7060    2.2700  -59.3940 C   0  0  0  0  0  0  0  0  0  0  0  0
    7.1260    1.4940  -57.1920 C   0  0  0  0  0  0  0  0  0  0  0  0
    6.0030    1.7570  -58.0910 C   0  0  0  0  0  0  0  0  0  0  0  0
    6.0370    1.2980  -59.4140 C   0  0  0  0  0  0  0  0  0  0  0  0
    4.9580    1.5350  -60.2670 C   0  0  0  0  0  0  0  0  0  0  0  0
    3.8380    2.2220  -59.8020 C   0  0  0  0  0  0  0  0  0  0  0  0
    3.7910    2.6690  -58.4820 C   0  0  0  0  0  0  0  0  0  0  0  0
    4.8680    2.4330  -57.6250 C   0  0  0  0  0  0  0  0  0  0  0  0
    6.0264   -0.0549  -54.3811 H   0  0  0  0  0  0  0  0  0  0  0  0
    5.0301    0.3370  -55.8235 H   0  0  0  0  0  0  0  0  0  0  0  0
    6.0747   -1.1243  -55.8235 H   0  0  0  0  0  0  0  0  0  0  0  0
    9.5350   -1.2560  -55.3880 H   0  0  0  0  0  0  0  0  0  0  0  0
   10.6600   -2.5600  -53.7845 H   0  0  0  0  0  0  0  0  0  0  0  0
   10.5495   -1.1787  -52.6237 H   0  0  0  0  0  0  0  0  0  0  0  0
    7.7495   -2.7450  -54.5610 H   0  0  0  0  0  0  0  0  0  0  0  0
    5.8025   -3.8446  -53.4644 H   0  0  0  0  0  0  0  0  0  0  0  0
    5.7732   -4.1586  -50.9911 H   0  0  0  0  0  0  0  0  0  0  0  0
    7.6986   -3.3756  -49.6132 H   0  0  0  0  0  0  0  0  0  0  0  0
    9.6512   -2.2765  -50.7032 H   0  0  0  0  0  0  0  0  0  0  0  0
    8.4696    4.6930  -57.3368 H   0  0  0  0  0  0  0  0  0  0  0  0
    9.5097    6.1435  -59.0719 H   0  0  0  0  0  0  0  0  0  0  0  0
   10.6772    5.1173  -61.0228 H   0  0  0  0  0  0  0  0  0  0  0  0
   10.8179    2.6379  -61.2186 H   0  0  0  0  0  0  0  0  0  0  0  0
    9.7777    1.1764  -59.4888 H   0  0  0  0  0  0  0  0  0  0  0  0
    6.9166    0.7492  -59.7817 H   0  0  0  0  0  0  0  0  0  0  0  0
    4.9916    1.1792  -61.3073 H   0  0  0  0  0  0  0  0  0  0  0  0
    2.9904    2.4118  -60.4769 H   0  0  0  0  0  0  0  0  0  0  0  0
    2.9049    3.2079  -58.1155 H   0  0  0  0  0  0  0  0  0  0  0  0
    4.8250    2.7787  -56.5816 H   0  0  0  0  0  0  0  0  0  0  0  0
  1  2  1  0
  2  3  1  0
  3  4  1  0
  4  5  2  0
  4  6  1  0
  6  7  1  0
  7  8  1  0
  8  9  2  0
  9 10  1  0
 10 11  2  0
 11 12  1  0
 12 13  2  0
  3 14  2  0
 14 15  1  0
 15 16  1  0
 16 17  2  0
 17 18  1  0
 18 19  2  0
 19 20  1  0
 20 21  2  0
 15 22  1  0
 22 23  1  0
 23 24  2  0
 24 25  1  0
 25 26  2  0
 26 27  1  0
 27 28  2  0
 22  2  2  0
 28 23  1  0
 13  8  1  0
 21 16  1  0
  1 29  1  0
  1 30  1  0
  1 31  1  0
  6 32  1  0
  7 33  1  0
  7 34  1  0
  9 35  1  0
 10 36  1  0
 11 37  1  0
 12 38  1  0
 13 39  1  0
 17 40  1  0
 18 41  1  0
 19 42  1  0
 20 43  1  0
 21 44  1  0
 24 45  1  0
 25 46  1  0
 26 47  1  0
 27 48  1  0
 28 49  1  0
M  END
>  <meeko>  (88) 
{"is_sidechain": false}

$$$$

     RDKit          3D

 46 49  0  0  0  0  0  0  0  0999 V2000
    8.4180    0.8660  -53.8990 C   0  0  0  0  0  0  0  0  0  0  0  0
    9.3390    0.0540  -54.7390 C   0  0  0  0  0  0  0  0  0  0  0  0
   10.0250    0.4710  -55.9140 C   0  0  0  0  0  0  0  0  0  0  0  0
   10.0440    1.8130  -56.5350 C   0  0  0  0  0  0  0  0  0  0  0  0
    9.1720    2.6430  -56.3030 O   0  0  0  0  0  0  0  0  0  0  0  0
   11.1270    1.9850  -57.3860 N   0  0  0  0  0  0  0  0  0  0  0  0
   11.4880    3.1430  -58.1010 C   0  0  0  0  0  0  0  0  0  0  0  0
   12.6460    3.8140  -57.6860 C   0  0  0  0  0  0  0  0  0  0  0  0
   13.0700    4.9760  -58.3360 C   0  0  0  0  0  0  0  0  0  0  0  0
   12.3390    5.4800  -59.4080 C   0  0  0  0  0  0  0  0  0  0  0  0
   11.1840    4.8210  -59.8260 C   0  0  0  0  0  0  0  0  0  0  0  0
   10.7600    3.6580  -59.1750 C   0  0  0  0  0  0  0  0  0  0  0  0
   10.6930   -0.5490  -56.4630 N   0  0  0  0  0  0  0  0  0  0  0  0
   10.5250   -1.6120  -55.6360 N   0  0  0  0  0  0  0  0  0  0  0  0
   11.2370   -2.8190  -55.9320 C   0  0  0  0  0  0  0  0  0  0  0  0
   11.8110   -2.9690  -57.2080 C   0  0  0  0  0  0  0  0  0  0  0  0
   12.5140   -4.1270  -57.5470 C   0  0  0  0  0  0  0  0  0  0  0  0
   12.6640   -5.1490  -56.6140 C   0  0  0  0  0  0  0  0  0  0  0  0
   12.1190   -5.0060  -55.3410 C   0  0  0  0  0  0  0  0  0  0  0  0
   11.4130   -3.8480  -54.9980 C   0  0  0  0  0  0  0  0  0  0  0  0
    9.6560   -1.2930  -54.5870 C   0  0  0  0  0  0  0  0  0  0  0  0
    9.0990   -2.2170  -53.6030 C   0  0  0  0  0  0  0  0  0  0  0  0
    7.9660   -2.9820  -53.9120 C   0  0  0  0  0  0  0  0  0  0  0  0
    7.4200   -3.8470  -52.9610 C   0  0  0  0  0  0  0  0  0  0  0  0
    8.0000   -3.9430  -51.6970 C   0  0  0  0  0  0  0  0  0  0  0  0
    7.3290   -5.0100  -50.5270 Cl  0  0  0  0  0  0  0  0  0  0  0  0
    9.1190   -3.1780  -51.3740 C   0  0  0  0  0  0  0  0  0  0  0  0
    9.6670   -2.3110  -52.3250 C   0  0  0  0  0  0  0  0  0  0  0  0
    8.6302    0.6789  -52.8360 H   0  0  0  0  0  0  0  0  0  0  0  0
    8.5653    1.9335  -54.1199 H   0  0  0  0  0  0  0  0  0  0  0  0
    7.3774    0.5861  -54.1199 H   0  0  0  0  0  0  0  0  0  0  0  0
   11.6850    1.1610  -57.5630 H   0  0  0  0  0  0  0  0  0  0  0  0
   13.2278    3.4216  -56.8390 H   0  0  0  0  0  0  0  0  0  0  0  0
   13.9814    5.4925  -58.0005 H   0  0  0  0  0  0  0  0  0  0  0  0
   12.6711    6.3937  -59.9227 H   0  0  0  0  0  0  0  0  0  0  0  0
   10.6033    5.2175  -60.6719 H   0  0  0  0  0  0  0  0  0  0  0  0
    9.8467    3.1456  -59.5116 H   0  0  0  0  0  0  0  0  0  0  0  0
   11.7045   -2.1628  -57.9488 H   0  0  0  0  0  0  0  0  0  0  0  0
   12.9494   -4.2316  -58.5517 H   0  0  0  0  0  0  0  0  0  0  0  0
   13.2106   -6.0654  -56.8813 H   0  0  0  0  0  0  0  0  0  0  0  0
   12.2444   -5.8090  -54.5998 H   0  0  0  0  0  0  0  0  0  0  0  0
   10.9927   -3.7447  -53.9867 H   0  0  0  0  0  0  0  0  0  0  0  0
    7.5050   -2.9008  -54.9074 H   0  0  0  0  0  0  0  0  0  0  0  0
    6.5346   -4.4509  -53.2088 H   0  0  0  0  0  0  0  0  0  0  0  0
    9.5702   -3.2557  -50.3738 H   0  0  0  0  0  0  0  0  0  0  0  0
   10.5461   -1.7013  -52.0693 H   0  0  0  0  0  0  0  0  0  0  0  0
  1  2  1  0
  2  3  1  0
  3  4  1  0
  4  5  2  0
  4  6  1  0
  6  7  1  0
  7  8  2  0
  8  9  1  0
  9 10  2  0
 10 11  1  0
 11 12  2  0
  3 13  2  0
 13 14  1  0
 14 15  1  0
 15 16  2  0
 16 17  1  0
 17 18  2  0
 18 19  1  0
 19 20  2  0
 14 21  1  0
 21 22  1  0
 22 23  1  0
 23 24  2  0
 24 25  1  0
 25 26  1  0
 25 27  2  0
 27 28  1  0
 21  2  2  0
 28 22  2  0
 12  7  1  0
 20 15  1  0
  1 29  1  0
  1 30  1  0
  1 31  1  0
  6 32  1  0
  8 33  1  0
  9 34  1  0
 10 35  1  0
 11 36  1  0
 12 37  1  0
 16 38  1  0
 17 39  1  0
 18 40  1  0
 19 41  1  0
 20 42  1  0
 23 43  1  0
 24 44  1  0
 27 45  1  0
 28 46  1  0
M  END
>  <meeko>  (89) 
{"is_sidechain": false}

$$$$

     RDKit          3D

 52 55  0  0  0  0  0  0  0  0999 V2000
    9.1280    2.3330  -55.7800 C   0  0  0  0  0  0  0  0  0  0  0  0
    8.0900    1.9980  -56.7920 C   0  0  0  0  0  0  0  0  0  0  0  0
    6.9880    1.1260  -56.6050 C   0  0  0  0  0  0  0  0  0  0  0  0
    6.6040    0.3960  -55.3800 C   0  0  0  0  0  0  0  0  0  0  0  0
    5.5800    0.6300  -54.7470 O   0  0  0  0  0  0  0  0  0  0  0  0
    7.5090   -0.5880  -55.0350 N   0  0  0  0  0  0  0  0  0  0  0  0
    7.2510   -1.5730  -54.0010 C   0  0  0  0  0  0  0  0  0  0  0  0
    7.5660   -0.9690  -52.6220 C   0  0  0  0  0  0  0  0  0  0  0  0
    7.9510   -2.0380  -51.6080 C   0  0  0  0  0  0  0  0  0  0  0  0
    9.2100   -2.7950  -52.0390 C   0  0  0  0  0  0  0  0  0  0  0  0
    9.3720   -2.8960  -53.5570 C   0  0  0  0  0  0  0  0  0  0  0  0
    8.0260   -2.8770  -54.2730 C   0  0  0  0  0  0  0  0  0  0  0  0
    6.2690    1.0000  -57.7320 N   0  0  0  0  0  0  0  0  0  0  0  0
    6.8460    1.8400  -58.6380 N   0  0  0  0  0  0  0  0  0  0  0  0
    6.2080    1.9970  -59.9120 C   0  0  0  0  0  0  0  0  0  0  0  0
    6.8600    2.5370  -61.0270 C   0  0  0  0  0  0  0  0  0  0  0  0
    6.1870    2.6690  -62.2480 C   0  0  0  0  0  0  0  0  0  0  0  0
    4.8580    2.2740  -62.3690 C   0  0  0  0  0  0  0  0  0  0  0  0
    4.1910    1.7520  -61.2660 C   0  0  0  0  0  0  0  0  0  0  0  0
    4.8580    1.6180  -60.0450 C   0  0  0  0  0  0  0  0  0  0  0  0
    8.0020    2.4240  -58.1130 C   0  0  0  0  0  0  0  0  0  0  0  0
    8.9680    3.2490  -58.8360 C   0  0  0  0  0  0  0  0  0  0  0  0
    8.8770    4.6460  -58.7910 C   0  0  0  0  0  0  0  0  0  0  0  0
    9.8100    5.4340  -59.4680 C   0  0  0  0  0  0  0  0  0  0  0  0
   10.8410    4.8310  -60.1850 C   0  0  0  0  0  0  0  0  0  0  0  0
   10.9470    3.4410  -60.2240 C   0  0  0  0  0  0  0  0  0  0  0  0
   10.0160    2.6510  -59.5470 C   0  0  0  0  0  0  0  0  0  0  0  0
    8.7125    2.1989  -54.7704 H   0  0  0  0  0  0  0  0  0  0  0  0
    9.9953    1.6691  -55.9107 H   0  0  0  0  0  0  0  0  0  0  0  0
    9.4436    3.3786  -55.9107 H   0  0  0  0  0  0  0  0  0  0  0  0
    8.2290   -0.7500  -55.7350 H   0  0  0  0  0  0  0  0  0  0  0  0
    6.1850   -1.8442  -54.0101 H   0  0  0  0  0  0  0  0  0  0  0  0
    8.4011   -0.2607  -52.7264 H   0  0  0  0  0  0  0  0  0  0  0  0
    6.6601   -0.4632  -52.2566 H   0  0  0  0  0  0  0  0  0  0  0  0
    8.1382   -1.5576  -50.6363 H   0  0  0  0  0  0  0  0  0  0  0  0
    7.1232   -2.7589  -51.5364 H   0  0  0  0  0  0  0  0  0  0  0  0
   10.0874   -2.2732  -51.6292 H   0  0  0  0  0  0  0  0  0  0  0  0
    9.1177   -3.8215  -51.6546 H   0  0  0  0  0  0  0  0  0  0  0  0
    9.9741   -2.0450  -53.9082 H   0  0  0  0  0  0  0  0  0  0  0  0
    9.8669   -3.8515  -53.7850 H   0  0  0  0  0  0  0  0  0  0  0  0
    8.1973   -2.9701  -55.3556 H   0  0  0  0  0  0  0  0  0  0  0  0
    7.4254   -3.7169  -53.8939 H   0  0  0  0  0  0  0  0  0  0  0  0
    7.9082    2.8599  -60.9434 H   0  0  0  0  0  0  0  0  0  0  0  0
    6.7130    3.0882  -63.1184 H   0  0  0  0  0  0  0  0  0  0  0  0
    4.3375    2.3742  -63.3328 H   0  0  0  0  0  0  0  0  0  0  0  0
    3.1385    1.4446  -61.3544 H   0  0  0  0  0  0  0  0  0  0  0  0
    4.3210    1.2108  -59.1756 H   0  0  0  0  0  0  0  0  0  0  0  0
    8.0674    5.1242  -58.2201 H   0  0  0  0  0  0  0  0  0  0  0  0
    9.7309    6.5307  -59.4352 H   0  0  0  0  0  0  0  0  0  0  0  0
   11.5730    5.4525  -60.7215 H   0  0  0  0  0  0  0  0  0  0  0  0
   11.7639    2.9672  -60.7880 H   0  0  0  0  0  0  0  0  0  0  0  0
   10.1059    1.5550  -59.5721 H   0  0  0  0  0  0  0  0  0  0  0  0
  1  2  1  0
  2  3  1  0
  3  4  1  0
  4  5  2  0
  4  6  1  0
  6  7  1  0
  7  8  1  0
  8  9  1  0
  9 10  1  0
 10 11  1  0
 11 12  1  0
  3 13  2  0
 13 14  1  0
 14 15  1  0
 15 16  2  0
 16 17  1  0
 17 18  2  0
 18 19  1  0
 19 20  2  0
 14 21  1  0
 21 22  1  0
 22 23  2  0
 23 24  1  0
 24 25  2  0
 25 26  1  0
 26 27  2  0
 21  2  2  0
 27 22  1  0
 12  7  1  0
 20 15  1  0
  1 28  1  0
  1 29  1  0
  1 30  1  0
  6 31  1  0
  7 32  1  0
  8 33  1  0
  8 34  1  0
  9 35  1  0
  9 36  1  0
 10 37  1  0
 10 38  1  0
 11 39  1  0
 11 40  1  0
 12 41  1  0
 12 42  1  0
 16 43  1  0
 17 44  1  0
 18 45  1  0
 19 46  1  0
 20 47  1  0
 23 48  1  0
 24 49  1  0
 25 50  1  0
 26 51  1  0
 27 52  1  0
M  END
>  <meeko>  (90) 
{"is_sidechain": false}

$$$$

     RDKit          3D

 39 41  0  0  0  0  0  0  0  0999 V2000
    6.6360   -1.5000  -53.0870 C   0  0  0  0  0  0  0  0  0  0  0  0
    6.8020   -0.8460  -54.3590 N   0  0  0  0  0  0  0  0  0  0  0  0
    7.7220    0.1810  -54.5010 C   0  0  0  0  0  0  0  0  0  0  0  0
    8.4950    0.5010  -53.6010 O   0  0  0  0  0  0  0  0  0  0  0  0
    7.6600    0.8760  -55.8030 C   0  0  0  0  0  0  0  0  0  0  0  0
    6.5050    0.9630  -56.4720 N   0  0  0  0  0  0  0  0  0  0  0  0
    6.7830    1.5910  -57.6430 N   0  0  0  0  0  0  0  0  0  0  0  0
    5.7290    1.7120  -58.6100 C   0  0  0  0  0  0  0  0  0  0  0  0
    5.8130    0.9600  -59.7970 C   0  0  0  0  0  0  0  0  0  0  0  0
    4.8150    1.0410  -60.7710 C   0  0  0  0  0  0  0  0  0  0  0  0
    3.7230    1.8820  -60.5790 C   0  0  0  0  0  0  0  0  0  0  0  0
    3.6360    2.6470  -59.4180 C   0  0  0  0  0  0  0  0  0  0  0  0
    4.6350    2.5670  -58.4400 C   0  0  0  0  0  0  0  0  0  0  0  0
    8.1170    2.0020  -57.6830 C   0  0  0  0  0  0  0  0  0  0  0  0
    8.7420    2.8460  -58.6990 C   0  0  0  0  0  0  0  0  0  0  0  0
    8.7510    4.2390  -58.5540 C   0  0  0  0  0  0  0  0  0  0  0  0
    9.3680    5.0420  -59.5140 C   0  0  0  0  0  0  0  0  0  0  0  0
    9.9870    4.4580  -60.6190 C   0  0  0  0  0  0  0  0  0  0  0  0
    9.9950    3.0710  -60.7620 C   0  0  0  0  0  0  0  0  0  0  0  0
    9.3780    2.2660  -59.8030 C   0  0  0  0  0  0  0  0  0  0  0  0
    8.7050    1.5350  -56.5100 C   0  0  0  0  0  0  0  0  0  0  0  0
   10.1070    1.7470  -56.0610 C   0  0  0  0  0  0  0  0  0  0  0  0
    6.8191   -0.7785  -52.2771 H   0  0  0  0  0  0  0  0  0  0  0  0
    5.6105   -1.8896  -53.0061 H   0  0  0  0  0  0  0  0  0  0  0  0
    7.3516   -2.3315  -53.0061 H   0  0  0  0  0  0  0  0  0  0  0  0
    6.0290   -0.8610  -55.0090 H   0  0  0  0  0  0  0  0  0  0  0  0
    6.6770    0.2990  -59.9599 H   0  0  0  0  0  0  0  0  0  0  0  0
    4.8922    0.4403  -61.6893 H   0  0  0  0  0  0  0  0  0  0  0  0
    2.9318    1.9425  -61.3408 H   0  0  0  0  0  0  0  0  0  0  0  0
    2.7773    3.3180  -59.2686 H   0  0  0  0  0  0  0  0  0  0  0  0
    4.5589    3.1814  -57.5308 H   0  0  0  0  0  0  0  0  0  0  0  0
    8.2698    4.7019  -57.6799 H   0  0  0  0  0  0  0  0  0  0  0  0
    9.3662    6.1360  -59.3992 H   0  0  0  0  0  0  0  0  0  0  0  0
   10.4690    5.0918  -61.3779 H   0  0  0  0  0  0  0  0  0  0  0  0
   10.4879    2.6109  -61.6311 H   0  0  0  0  0  0  0  0  0  0  0  0
    9.3916    1.1718  -59.9152 H   0  0  0  0  0  0  0  0  0  0  0  0
   10.1431    1.7525  -54.9616 H   0  0  0  0  0  0  0  0  0  0  0  0
   10.7417    0.9346  -56.4447 H   0  0  0  0  0  0  0  0  0  0  0  0
   10.4731    2.7107  -56.4447 H   0  0  0  0  0  0  0  0  0  0  0  0
  1  2  1  0
  2  3  1  0
  3  4  2  0
  3  5  1  0
  5  6  2  0
  6  7  1  0
  7  8  1  0
  8  9  2  0
  9 10  1  0
 10 11  2  0
 11 12  1  0
 12 13  2  0
  7 14  1  0
 14 15  1  0
 15 16  2  0
 16 17  1  0
 17 18  2  0
 18 19  1  0
 19 20  2  0
 14 21  2  0
 21 22  1  0
 21  5  1  0
 13  8  1  0
 20 15  1  0
  1 23  1  0
  1 24  1  0
  1 25  1  0
  2 26  1  0
  9 27  1  0
 10 28  1  0
 11 29  1  0
 12 30  1  0
 13 31  1  0
 16 32  1  0
 17 33  1  0
 18 34  1  0
 19 35  1  0
 20 36  1  0
 22 37  1  0
 22 38  1  0
 22 39  1  0
M  END
>  <meeko>  (91) 
{"is_sidechain": false}

$$$$

     RDKit          3D

 46 49  0  0  0  0  0  0  0  0999 V2000
    9.5870    1.9910  -55.5120 C   0  0  0  0  0  0  0  0  0  0  0  0
    8.2860    1.6660  -56.1600 C   0  0  0  0  0  0  0  0  0  0  0  0
    7.2570    0.8560  -55.6140 C   0  0  0  0  0  0  0  0  0  0  0  0
    7.2240    0.1900  -54.2910 C   0  0  0  0  0  0  0  0  0  0  0  0
    6.3630    0.4470  -53.4570 O   0  0  0  0  0  0  0  0  0  0  0  0
    8.2560   -0.7200  -54.1560 N   0  0  0  0  0  0  0  0  0  0  0  0
    8.5640   -1.5450  -53.0630 C   0  0  0  0  0  0  0  0  0  0  0  0
    9.8540   -2.0880  -53.0180 C   0  0  0  0  0  0  0  0  0  0  0  0
   10.2420   -2.9190  -51.9630 C   0  0  0  0  0  0  0  0  0  0  0  0
    9.3400   -3.2140  -50.9430 C   0  0  0  0  0  0  0  0  0  0  0  0
    8.0550   -2.6790  -50.9810 C   0  0  0  0  0  0  0  0  0  0  0  0
    7.6670   -1.8470  -52.0370 C   0  0  0  0  0  0  0  0  0  0  0  0
    6.2410    0.7100  -56.4790 N   0  0  0  0  0  0  0  0  0  0  0  0
    6.5540    1.4900  -57.5540 N   0  0  0  0  0  0  0  0  0  0  0  0
    5.5760    1.6280  -58.5940 C   0  0  0  0  0  0  0  0  0  0  0  0
    4.4570    2.4600  -58.4750 C   0  0  0  0  0  0  0  0  0  0  0  0
    3.5310    2.5580  -59.5210 C   0  0  0  0  0  0  0  0  0  0  0  0
    3.7070    1.8230  -60.6890 C   0  0  0  0  0  0  0  0  0  0  0  0
    4.8030    0.9770  -60.8150 C   0  0  0  0  0  0  0  0  0  0  0  0
    5.7300    0.8760  -59.7730 C   0  0  0  0  0  0  0  0  0  0  0  0
    7.8310    2.0380  -57.4200 C   0  0  0  0  0  0  0  0  0  0  0  0
    8.5720    2.7790  -58.4390 C   0  0  0  0  0  0  0  0  0  0  0  0
    8.4040    4.1650  -58.5660 C   0  0  0  0  0  0  0  0  0  0  0  0
    9.1260    4.8750  -59.5280 C   0  0  0  0  0  0  0  0  0  0  0  0
   10.0180    4.1990  -60.3520 C   0  0  0  0  0  0  0  0  0  0  0  0
   10.7090    4.8800  -61.2750 F   0  0  0  0  0  0  0  0  0  0  0  0
   10.2060    2.8260  -60.2320 C   0  0  0  0  0  0  0  0  0  0  0  0
    9.4860    2.1140  -59.2710 C   0  0  0  0  0  0  0  0  0  0  0  0
    9.4695    1.9617  -54.4187 H   0  0  0  0  0  0  0  0  0  0  0  0
   10.3439    1.2543  -55.8194 H   0  0  0  0  0  0  0  0  0  0  0  0
    9.9085    2.9971  -55.8194 H   0  0  0  0  0  0  0  0  0  0  0  0
    8.8500   -0.7740  -54.9790 H   0  0  0  0  0  0  0  0  0  0  0  0
   10.5695   -1.8582  -53.8213 H   0  0  0  0  0  0  0  0  0  0  0  0
   11.2582   -3.3395  -51.9382 H   0  0  0  0  0  0  0  0  0  0  0  0
    9.6418   -3.8670  -50.1109 H   0  0  0  0  0  0  0  0  0  0  0  0
    7.3414   -2.9116  -50.1769 H   0  0  0  0  0  0  0  0  0  0  0  0
    6.6498   -1.4288  -52.0587 H   0  0  0  0  0  0  0  0  0  0  0  0
    4.3038    3.0409  -57.5536 H   0  0  0  0  0  0  0  0  0  0  0  0
    2.6588    3.2204  -59.4184 H   0  0  0  0  0  0  0  0  0  0  0  0
    2.9809    1.9110  -61.5106 H   0  0  0  0  0  0  0  0  0  0  0  0
    4.9408    0.3876  -61.7335 H   0  0  0  0  0  0  0  0  0  0  0  0
    6.5912    0.1995  -59.8765 H   0  0  0  0  0  0  0  0  0  0  0  0
    7.7014    4.6949  -57.9060 H   0  0  0  0  0  0  0  0  0  0  0  0
    8.9896    5.9615  -59.6327 H   0  0  0  0  0  0  0  0  0  0  0  0
   10.9171    2.3048  -60.8898 H   0  0  0  0  0  0  0  0  0  0  0  0
    9.6354    1.0293  -59.1656 H   0  0  0  0  0  0  0  0  0  0  0  0
  1  2  1  0
  2  3  1  0
  3  4  1  0
  4  5  2  0
  4  6  1  0
  6  7  1  0
  7  8  2  0
  8  9  1  0
  9 10  2  0
 10 11  1  0
 11 12  2  0
  3 13  2  0
 13 14  1  0
 14 15  1  0
 15 16  2  0
 16 17  1  0
 17 18  2  0
 18 19  1  0
 19 20  2  0
 14 21  1  0
 21 22  1  0
 22 23  1  0
 23 24  2  0
 24 25  1  0
 25 26  1  0
 25 27  2  0
 27 28  1  0
 21  2  2  0
 28 22  2  0
 12  7  1  0
 20 15  1  0
  1 29  1  0
  1 30  1  0
  1 31  1  0
  6 32  1  0
  8 33  1  0
  9 34  1  0
 10 35  1  0
 11 36  1  0
 12 37  1  0
 16 38  1  0
 17 39  1  0
 18 40  1  0
 19 41  1  0
 20 42  1  0
 23 43  1  0
 24 44  1  0
 27 45  1  0
 28 46  1  0
M  END
>  <meeko>  (92) 
{"is_sidechain": false}

$$$$

     RDKit          3D

 45 47  0  0  0  0  0  0  0  0999 V2000
    9.2520    2.8940  -61.2040 C   0  0  0  0  0  0  0  0  0  0  0  0
   10.0540    4.1510  -60.9060 C   0  0  0  0  0  0  0  0  0  0  0  0
   11.1510    3.8830  -59.8790 C   0  0  0  0  0  0  0  0  0  0  0  0
   10.7520    2.8730  -58.9300 N   0  0  0  0  0  0  0  0  0  0  0  0
   11.3740    2.6930  -57.7130 C   0  0  0  0  0  0  0  0  0  0  0  0
   12.3710    3.3150  -57.3620 O   0  0  0  0  0  0  0  0  0  0  0  0
   10.7070    1.6830  -56.8680 C   0  0  0  0  0  0  0  0  0  0  0  0
   11.3440    0.5560  -56.5090 N   0  0  0  0  0  0  0  0  0  0  0  0
   10.4390   -0.1730  -55.7960 N   0  0  0  0  0  0  0  0  0  0  0  0
   10.8150   -1.4930  -55.3800 C   0  0  0  0  0  0  0  0  0  0  0  0
   10.8280   -1.8920  -54.0390 C   0  0  0  0  0  0  0  0  0  0  0  0
   11.2020   -3.1950  -53.6890 C   0  0  0  0  0  0  0  0  0  0  0  0
   11.5570   -4.1150  -54.6710 C   0  0  0  0  0  0  0  0  0  0  0  0
   11.5330   -3.7390  -56.0100 C   0  0  0  0  0  0  0  0  0  0  0  0
   11.1590   -2.4400  -56.3640 C   0  0  0  0  0  0  0  0  0  0  0  0
    9.2540    0.5450  -55.6080 C   0  0  0  0  0  0  0  0  0  0  0  0
    8.1260    0.1600  -54.7640 C   0  0  0  0  0  0  0  0  0  0  0  0
    8.1900    0.3340  -53.3750 C   0  0  0  0  0  0  0  0  0  0  0  0
    7.1050   -0.0190  -52.5720 C   0  0  0  0  0  0  0  0  0  0  0  0
    5.9480   -0.5400  -53.1510 C   0  0  0  0  0  0  0  0  0  0  0  0
    5.8710   -0.7030  -54.5330 C   0  0  0  0  0  0  0  0  0  0  0  0
    6.9550   -0.3500  -55.3390 C   0  0  0  0  0  0  0  0  0  0  0  0
    9.3990    1.7320  -56.3210 C   0  0  0  0  0  0  0  0  0  0  0  0
    8.4280    2.8490  -56.4610 C   0  0  0  0  0  0  0  0  0  0  0  0
    8.9493    2.4195  -60.2589 H   0  0  0  0  0  0  0  0  0  0  0  0
    8.3561    3.1596  -61.7843 H   0  0  0  0  0  0  0  0  0  0  0  0
    9.8704    2.1935  -61.7843 H   0  0  0  0  0  0  0  0  0  0  0  0
   10.5161    4.5096  -61.8376 H   0  0  0  0  0  0  0  0  0  0  0  0
    9.3705    4.9071  -60.4923 H   0  0  0  0  0  0  0  0  0  0  0  0
   12.0561    3.5429  -60.4035 H   0  0  0  0  0  0  0  0  0  0  0  0
   11.3440    4.8159  -59.3291 H   0  0  0  0  0  0  0  0  0  0  0  0
    9.8910    2.3460  -59.0570 H   0  0  0  0  0  0  0  0  0  0  0  0
   10.5422   -1.1766  -53.2538 H   0  0  0  0  0  0  0  0  0  0  0  0
   11.2153   -3.4936  -52.6304 H   0  0  0  0  0  0  0  0  0  0  0  0
   11.8554   -5.1356  -54.3894 H   0  0  0  0  0  0  0  0  0  0  0  0
   11.8084   -4.4641  -56.7900 H   0  0  0  0  0  0  0  0  0  0  0  0
   11.1329   -2.1532  -57.4256 H   0  0  0  0  0  0  0  0  0  0  0  0
    9.0989    0.7504  -52.9161 H   0  0  0  0  0  0  0  0  0  0  0  0
    7.1621    0.1137  -51.4815 H   0  0  0  0  0  0  0  0  0  0  0  0
    5.0953   -0.8226  -52.5161 H   0  0  0  0  0  0  0  0  0  0  0  0
    4.9562   -1.1098  -54.9887 H   0  0  0  0  0  0  0  0  0  0  0  0
    6.8892   -0.4729  -56.4301 H   0  0  0  0  0  0  0  0  0  0  0  0
    8.1244    3.1982  -55.4630 H   0  0  0  0  0  0  0  0  0  0  0  0
    8.8984    3.6769  -57.0118 H   0  0  0  0  0  0  0  0  0  0  0  0
    7.5427    2.4984  -57.0118 H   0  0  0  0  0  0  0  0  0  0  0  0
  1  2  1  0
  2  3  1  0
  3  4  1  0
  4  5  1  0
  5  6  2  0
  5  7  1  0
  7  8  2  0
  8  9  1  0
  9 10  1  0
 10 11  2  0
 11 12  1  0
 12 13  2  0
 13 14  1  0
 14 15  2  0
  9 16  1  0
 16 17  1  0
 17 18  2  0
 18 19  1  0
 19 20  2  0
 20 21  1  0
 21 22  2  0
 16 23  2  0
 23 24  1  0
 23  7  1  0
 15 10  1  0
 22 17  1  0
  1 25  1  0
  1 26  1  0
  1 27  1  0
  2 28  1  0
  2 29  1  0
  3 30  1  0
  3 31  1  0
  4 32  1  0
 11 33  1  0
 12 34  1  0
 13 35  1  0
 14 36  1  0
 15 37  1  0
 18 38  1  0
 19 39  1  0
 20 40  1  0
 21 41  1  0
 22 42  1  0
 24 43  1  0
 24 44  1  0
 24 45  1  0
M  END
>  <meeko>  (93) 
{"is_sidechain": false}

$$$$

     RDKit          3D

 42 44  0  0  0  0  0  0  0  0999 V2000
   12.8350    7.4270  -60.6560 C   0  0  0  0  0  0  0  0  0  0  0  0
   13.3880    6.5630  -59.5390 C   0  0  0  0  0  0  0  0  0  0  0  0
   12.3700    5.6900  -58.9970 N   0  0  0  0  0  0  0  0  0  0  0  0
   12.5050    4.3140  -59.1050 C   0  0  0  0  0  0  0  0  0  0  0  0
   13.5270    3.7840  -59.5340 O   0  0  0  0  0  0  0  0  0  0  0  0
   11.3050    3.5550  -58.6990 C   0  0  0  0  0  0  0  0  0  0  0  0
   11.3340    2.7630  -57.6220 N   0  0  0  0  0  0  0  0  0  0  0  0
   10.1170    2.1630  -57.5490 N   0  0  0  0  0  0  0  0  0  0  0  0
    9.9160    1.1630  -56.5400 C   0  0  0  0  0  0  0  0  0  0  0  0
   10.8140    0.0800  -56.4750 C   0  0  0  0  0  0  0  0  0  0  0  0
   10.6640   -0.9190  -55.5110 C   0  0  0  0  0  0  0  0  0  0  0  0
    9.6110   -0.8590  -54.6040 C   0  0  0  0  0  0  0  0  0  0  0  0
    8.7050    0.1960  -54.6680 C   0  0  0  0  0  0  0  0  0  0  0  0
    8.8520    1.2010  -55.6320 C   0  0  0  0  0  0  0  0  0  0  0  0
    9.2620    2.6520  -58.5390 C   0  0  0  0  0  0  0  0  0  0  0  0
    7.8360    2.3710  -58.6800 C   0  0  0  0  0  0  0  0  0  0  0  0
    6.9070    2.9830  -57.8290 C   0  0  0  0  0  0  0  0  0  0  0  0
    5.5430    2.7290  -57.9790 C   0  0  0  0  0  0  0  0  0  0  0  0
    5.0990    1.8710  -58.9840 C   0  0  0  0  0  0  0  0  0  0  0  0
    6.0160    1.2690  -59.8440 C   0  0  0  0  0  0  0  0  0  0  0  0
    7.3810    1.5210  -59.6960 C   0  0  0  0  0  0  0  0  0  0  0  0
   10.0160    3.5400  -59.3020 C   0  0  0  0  0  0  0  0  0  0  0  0
    9.5480    4.3550  -60.4560 C   0  0  0  0  0  0  0  0  0  0  0  0
   12.2895    8.2792  -60.2246 H   0  0  0  0  0  0  0  0  0  0  0  0
   13.6637    7.7984  -61.2768 H   0  0  0  0  0  0  0  0  0  0  0  0
   12.1507    6.8300  -61.2768 H   0  0  0  0  0  0  0  0  0  0  0  0
   14.2120    5.9506  -59.9340 H   0  0  0  0  0  0  0  0  0  0  0  0
   13.7446    7.2224  -58.7340 H   0  0  0  0  0  0  0  0  0  0  0  0
   11.4210    6.0380  -58.9580 H   0  0  0  0  0  0  0  0  0  0  0  0
   11.6449    0.0203  -57.1934 H   0  0  0  0  0  0  0  0  0  0  0  0
   11.3789   -1.7539  -55.4688 H   0  0  0  0  0  0  0  0  0  0  0  0
    9.4948   -1.6416  -53.8397 H   0  0  0  0  0  0  0  0  0  0  0  0
    7.8676    0.2405  -53.9562 H   0  0  0  0  0  0  0  0  0  0  0  0
    8.1259    2.0262  -55.6758 H   0  0  0  0  0  0  0  0  0  0  0  0
    7.2537    3.6662  -57.0397 H   0  0  0  0  0  0  0  0  0  0  0  0
    4.8176    3.2062  -57.3037 H   0  0  0  0  0  0  0  0  0  0  0  0
    4.0238    1.6688  -59.0985 H   0  0  0  0  0  0  0  0  0  0  0  0
    5.6641    0.5954  -60.6392 H   0  0  0  0  0  0  0  0  0  0  0  0
    8.1023    1.0501  -60.3801 H   0  0  0  0  0  0  0  0  0  0  0  0
    9.0323    5.2531  -60.0854 H   0  0  0  0  0  0  0  0  0  0  0  0
   10.4118    4.6544  -61.0678 H   0  0  0  0  0  0  0  0  0  0  0  0
    8.8541    3.7599  -61.0678 H   0  0  0  0  0  0  0  0  0  0  0  0
  1  2  1  0
  2  3  1  0
  3  4  1  0
  4  5  2  0
  4  6  1  0
  6  7  2  0
  7  8  1  0
  8  9  1  0
  9 10  2  0
 10 11  1  0
 11 12  2  0
 12 13  1  0
 13 14  2  0
  8 15  1  0
 15 16  1  0
 16 17  2  0
 17 18  1  0
 18 19  2  0
 19 20  1  0
 20 21  2  0
 15 22  2  0
 22 23  1  0
 22  6  1  0
 14  9  1  0
 21 16  1  0
  1 24  1  0
  1 25  1  0
  1 26  1  0
  2 27  1  0
  2 28  1  0
  3 29  1  0
 10 30  1  0
 11 31  1  0
 12 32  1  0
 13 33  1  0
 14 34  1  0
 17 35  1  0
 18 36  1  0
 19 37  1  0
 20 38  1  0
 21 39  1  0
 23 40  1  0
 23 41  1  0
 23 42  1  0
M  END
>  <meeko>  (94) 
{"is_sidechain": false}

$$$$

     RDKit          3D

 34 36  0  0  0  0  0  0  0  0999 V2000
   10.2800    4.3610  -60.3690 C   0  0  0  0  0  0  0  0  0  0  0  0
   10.5380    3.5210  -59.1690 C   0  0  0  0  0  0  0  0  0  0  0  0
   11.7490    3.4470  -58.4290 C   0  0  0  0  0  0  0  0  0  0  0  0
   13.1040    4.2720  -58.8150 C   0  0  0  0  0  0  0  0  0  0  0  0
   13.4030    5.2650  -58.0750 O   0  0  0  0  0  0  0  0  0  0  0  0
   13.7690    3.8720  -59.8240 O   0  0  0  0  0  0  0  0  0  0  0  0
   11.6200    2.6370  -57.3670 N   0  0  0  0  0  0  0  0  0  0  0  0
   10.3730    2.1140  -57.4460 N   0  0  0  0  0  0  0  0  0  0  0  0
   10.0050    1.1100  -56.4850 C   0  0  0  0  0  0  0  0  0  0  0  0
    8.8570    1.1970  -55.6900 C   0  0  0  0  0  0  0  0  0  0  0  0
    8.5500    0.1870  -54.7680 C   0  0  0  0  0  0  0  0  0  0  0  0
    9.3790   -0.9240  -54.6380 C   0  0  0  0  0  0  0  0  0  0  0  0
   10.5150   -1.0340  -55.4340 C   0  0  0  0  0  0  0  0  0  0  0  0
   10.8230   -0.0280  -56.3530 C   0  0  0  0  0  0  0  0  0  0  0  0
    9.6520    2.6800  -58.5010 C   0  0  0  0  0  0  0  0  0  0  0  0
    8.2340    2.4860  -58.7940 C   0  0  0  0  0  0  0  0  0  0  0  0
    7.2590    3.1460  -58.0360 C   0  0  0  0  0  0  0  0  0  0  0  0
    5.9040    2.9710  -58.3270 C   0  0  0  0  0  0  0  0  0  0  0  0
    5.5170    2.1460  -59.3830 C   0  0  0  0  0  0  0  0  0  0  0  0
    6.4840    1.4980  -60.1520 C   0  0  0  0  0  0  0  0  0  0  0  0
    7.8380    1.6710  -59.8630 C   0  0  0  0  0  0  0  0  0  0  0  0
    9.9707    5.3679  -60.0521 H   0  0  0  0  0  0  0  0  0  0  0  0
   11.1978    4.4319  -60.9712 H   0  0  0  0  0  0  0  0  0  0  0  0
    9.4807    3.9045  -60.9712 H   0  0  0  0  0  0  0  0  0  0  0  0
    8.1895    2.0657  -55.7894 H   0  0  0  0  0  0  0  0  0  0  0  0
    7.6486    0.2726  -54.1433 H   0  0  0  0  0  0  0  0  0  0  0  0
    9.1369   -1.7115  -53.9091 H   0  0  0  0  0  0  0  0  0  0  0  0
   11.1701   -1.9126  -55.3397 H   0  0  0  0  0  0  0  0  0  0  0  0
   11.7189   -0.1267  -56.9835 H   0  0  0  0  0  0  0  0  0  0  0  0
    7.5612    3.8046  -57.2084 H   0  0  0  0  0  0  0  0  0  0  0  0
    5.1415    3.4843  -57.7228 H   0  0  0  0  0  0  0  0  0  0  0  0
    4.4496    2.0063  -59.6094 H   0  0  0  0  0  0  0  0  0  0  0  0
    6.1787    0.8501  -60.9869 H   0  0  0  0  0  0  0  0  0  0  0  0
    8.5979    1.1655  -60.4769 H   0  0  0  0  0  0  0  0  0  0  0  0
  1  2  1  0
  2  3  1  0
  3  4  1  0
  4  5  2  0
  4  6  1  0
  3  7  2  0
  7  8  1  0
  8  9  1  0
  9 10  2  0
 10 11  1  0
 11 12  2  0
 12 13  1  0
 13 14  2  0
  8 15  1  0
 15 16  1  0
 16 17  2  0
 17 18  1  0
 18 19  2  0
 19 20  1  0
 20 21  2  0
 15  2  2  0
 21 16  1  0
 14  9  1  0
  1 22  1  0
  1 23  1  0
  1 24  1  0
 10 25  1  0
 11 26  1  0
 12 27  1  0
 13 28  1  0
 14 29  1  0
 17 30  1  0
 18 31  1  0
 19 32  1  0
 20 33  1  0
 21 34  1  0
M  CHG  1   6  -1
M  END
>  <meeko>  (95) 
{"is_sidechain": false}

$$$$

     RDKit          3D

 41 43  0  0  0  0  0  0  0  0999 V2000
    5.3410   -4.3670  -50.4140 C   0  0  0  0  0  0  0  0  0  0  0  0
    6.4550   -4.4870  -51.4370 C   0  0  0  0  0  0  0  0  0  0  0  0
    7.7200   -4.1910  -50.8300 O   0  0  0  0  0  0  0  0  0  0  0  0
    8.0600   -2.8660  -50.7680 C   0  0  0  0  0  0  0  0  0  0  0  0
    8.1320   -2.2390  -49.7150 O   0  0  0  0  0  0  0  0  0  0  0  0
    8.3320   -2.2840  -52.0990 C   0  0  0  0  0  0  0  0  0  0  0  0
    9.2780   -2.8130  -52.8870 N   0  0  0  0  0  0  0  0  0  0  0  0
    9.2600   -2.1130  -54.0490 N   0  0  0  0  0  0  0  0  0  0  0  0
   10.1130   -2.5550  -55.1160 C   0  0  0  0  0  0  0  0  0  0  0  0
   11.0490   -1.7220  -55.7410 C   0  0  0  0  0  0  0  0  0  0  0  0
   11.8540   -2.2110  -56.7770 C   0  0  0  0  0  0  0  0  0  0  0  0
   11.7310   -3.5290  -57.2070 C   0  0  0  0  0  0  0  0  0  0  0  0
   10.7940   -4.3640  -56.6080 C   0  0  0  0  0  0  0  0  0  0  0  0
    9.9890   -3.8810  -55.5730 C   0  0  0  0  0  0  0  0  0  0  0  0
    8.3610   -1.0480  -53.9710 C   0  0  0  0  0  0  0  0  0  0  0  0
    8.1770    0.0120  -54.9590 C   0  0  0  0  0  0  0  0  0  0  0  0
    9.2320    0.8810  -55.2670 C   0  0  0  0  0  0  0  0  0  0  0  0
    9.0490    1.9060  -56.1970 C   0  0  0  0  0  0  0  0  0  0  0  0
    7.8100    2.0740  -56.8170 C   0  0  0  0  0  0  0  0  0  0  0  0
    6.7520    1.2220  -56.5050 C   0  0  0  0  0  0  0  0  0  0  0  0
    6.9320    0.1950  -55.5750 C   0  0  0  0  0  0  0  0  0  0  0  0
    7.7320   -1.1560  -52.7340 C   0  0  0  0  0  0  0  0  0  0  0  0
    6.6870   -0.2550  -52.1730 C   0  0  0  0  0  0  0  0  0  0  0  0
    5.7670   -4.4129  -49.4009 H   0  0  0  0  0  0  0  0  0  0  0  0
    4.8203   -3.4076  -50.5497 H   0  0  0  0  0  0  0  0  0  0  0  0
    4.6280   -5.1935  -50.5497 H   0  0  0  0  0  0  0  0  0  0  0  0
    6.4740   -5.5125  -51.8346 H   0  0  0  0  0  0  0  0  0  0  0  0
    6.2721   -3.7711  -52.2519 H   0  0  0  0  0  0  0  0  0  0  0  0
   11.1526   -0.6763  -55.4159 H   0  0  0  0  0  0  0  0  0  0  0  0
   12.5899   -1.5478  -57.2552 H   0  0  0  0  0  0  0  0  0  0  0  0
   12.3718   -3.9083  -58.0166 H   0  0  0  0  0  0  0  0  0  0  0  0
   10.6866   -5.4043  -56.9489 H   0  0  0  0  0  0  0  0  0  0  0  0
    9.2471   -4.5469  -55.1081 H   0  0  0  0  0  0  0  0  0  0  0  0
   10.2075    0.7552  -54.7745 H   0  0  0  0  0  0  0  0  0  0  0  0
    9.8819    2.5817  -56.4413 H   0  0  0  0  0  0  0  0  0  0  0  0
    7.6683    2.8795  -57.5526 H   0  0  0  0  0  0  0  0  0  0  0  0
    5.7747    1.3582  -56.9912 H   0  0  0  0  0  0  0  0  0  0  0  0
    6.0936   -0.4720  -55.3256 H   0  0  0  0  0  0  0  0  0  0  0  0
    6.7256   -0.2883  -51.0742 H   0  0  0  0  0  0  0  0  0  0  0  0
    6.8683    0.7746  -52.5153 H   0  0  0  0  0  0  0  0  0  0  0  0
    5.6953   -0.5859  -52.5153 H   0  0  0  0  0  0  0  0  0  0  0  0
  1  2  1  0
  2  3  1  0
  3  4  1  0
  4  5  2  0
  4  6  1  0
  6  7  2  0
  7  8  1  0
  8  9  1  0
  9 10  2  0
 10 11  1  0
 11 12  2  0
 12 13  1  0
 13 14  2  0
  8 15  1  0
 15 16  1  0
 16 17  2  0
 17 18  1  0
 18 19  2  0
 19 20  1  0
 20 21  2  0
 15 22  2  0
 22 23  1  0
 22  6  1  0
 14  9  1  0
 21 16  1  0
  1 24  1  0
  1 25  1  0
  1 26  1  0
  2 27  1  0
  2 28  1  0
 10 29  1  0
 11 30  1  0
 12 31  1  0
 13 32  1  0
 14 33  1  0
 17 34  1  0
 18 35  1  0
 19 36  1  0
 20 37  1  0
 21 38  1  0
 23 39  1  0
 23 40  1  0
 23 41  1  0
M  END
>  <meeko>  (96) 
{"is_sidechain": false}

$$$$

     RDKit          3D

 38 40  0  0  0  0  0  0  0  0999 V2000
   12.9970    6.5390  -59.7900 C   0  0  0  0  0  0  0  0  0  0  0  0
   12.8050    5.6220  -58.7150 O   0  0  0  0  0  0  0  0  0  0  0  0
   12.8330    4.3040  -59.0860 C   0  0  0  0  0  0  0  0  0  0  0  0
   13.7780    3.7860  -59.6750 O   0  0  0  0  0  0  0  0  0  0  0  0
   11.6130    3.5680  -58.7050 C   0  0  0  0  0  0  0  0  0  0  0  0
   11.5640    2.7810  -57.6220 N   0  0  0  0  0  0  0  0  0  0  0  0
   10.3230    2.2230  -57.6060 N   0  0  0  0  0  0  0  0  0  0  0  0
   10.0400    1.2390  -56.6010 C   0  0  0  0  0  0  0  0  0  0  0  0
   10.8890    0.1190  -56.4940 C   0  0  0  0  0  0  0  0  0  0  0  0
   10.6600   -0.8670  -55.5320 C   0  0  0  0  0  0  0  0  0  0  0  0
    9.5750   -0.7580  -54.6690 C   0  0  0  0  0  0  0  0  0  0  0  0
    8.7170    0.3320  -54.7740 C   0  0  0  0  0  0  0  0  0  0  0  0
    8.9430    1.3250  -55.7360 C   0  0  0  0  0  0  0  0  0  0  0  0
    9.5320    2.7430  -58.6330 C   0  0  0  0  0  0  0  0  0  0  0  0
    8.1050    2.5070  -58.8400 C   0  0  0  0  0  0  0  0  0  0  0  0
    7.1560    3.1980  -58.0760 C   0  0  0  0  0  0  0  0  0  0  0  0
    5.7930    2.9850  -58.2870 C   0  0  0  0  0  0  0  0  0  0  0  0
    5.3710    2.0890  -59.2690 C   0  0  0  0  0  0  0  0  0  0  0  0
    6.3090    1.4080  -60.0430 C   0  0  0  0  0  0  0  0  0  0  0  0
    7.6740    1.6190  -59.8340 C   0  0  0  0  0  0  0  0  0  0  0  0
   10.3560    3.5870  -59.3700 C   0  0  0  0  0  0  0  0  0  0  0  0
   10.0070    4.3870  -60.5760 C   0  0  0  0  0  0  0  0  0  0  0  0
   13.2066    7.5400  -59.3850 H   0  0  0  0  0  0  0  0  0  0  0  0
   13.8453    6.2081  -60.4071 H   0  0  0  0  0  0  0  0  0  0  0  0
   12.0872    6.5762  -60.4071 H   0  0  0  0  0  0  0  0  0  0  0  0
   11.7445    0.0202  -57.1783 H   0  0  0  0  0  0  0  0  0  0  0  0
   11.3379   -1.7300  -55.4569 H   0  0  0  0  0  0  0  0  0  0  0  0
    9.3959   -1.5304  -53.9065 H   0  0  0  0  0  0  0  0  0  0  0  0
    7.8544    0.4148  -54.0964 H   0  0  0  0  0  0  0  0  0  0  0  0
    8.2533    2.1785  -55.8121 H   0  0  0  0  0  0  0  0  0  0  0  0
    7.4863    3.9114  -57.3066 H   0  0  0  0  0  0  0  0  0  0  0  0
    5.0515    3.5238  -57.6788 H   0  0  0  0  0  0  0  0  0  0  0  0
    4.2965    1.9196  -59.4329 H   0  0  0  0  0  0  0  0  0  0  0  0
    5.9742    0.7039  -60.8190 H   0  0  0  0  0  0  0  0  0  0  0  0
    8.4123    1.0865  -60.4515 H   0  0  0  0  0  0  0  0  0  0  0  0
    9.5851    5.3541  -60.2650 H   0  0  0  0  0  0  0  0  0  0  0  0
   10.9122    4.5581  -61.1771 H   0  0  0  0  0  0  0  0  0  0  0  0
    9.2658    3.8399  -61.1771 H   0  0  0  0  0  0  0  0  0  0  0  0
  1  2  1  0
  2  3  1  0
  3  4  2  0
  3  5  1  0
  5  6  2  0
  6  7  1  0
  7  8  1  0
  8  9  2  0
  9 10  1  0
 10 11  2  0
 11 12  1  0
 12 13  2  0
  7 14  1  0
 14 15  1  0
 15 16  2  0
 16 17  1  0
 17 18  2  0
 18 19  1  0
 19 20  2  0
 14 21  2  0
 21 22  1  0
 21  5  1  0
 13  8  1  0
 20 15  1  0
  1 23  1  0
  1 24  1  0
  1 25  1  0
  9 26  1  0
 10 27  1  0
 11 28  1  0
 12 29  1  0
 13 30  1  0
 16 31  1  0
 17 32  1  0
 18 33  1  0
 19 34  1  0
 20 35  1  0
 22 36  1  0
 22 37  1  0
 22 38  1  0
M  END
>  <meeko>  (97) 
{"is_sidechain": false}

$$$$

     RDKit          3D

 36 38  0  0  0  0  0  0  0  0999 V2000
   10.2410    4.5090  -60.2570 C   0  0  0  0  0  0  0  0  0  0  0  0
   10.5580    3.6250  -59.1020 C   0  0  0  0  0  0  0  0  0  0  0  0
   11.7850    3.5440  -58.3840 C   0  0  0  0  0  0  0  0  0  0  0  0
   13.0560    4.2430  -58.6390 C   0  0  0  0  0  0  0  0  0  0  0  0
   13.4560    5.1250  -57.6650 N   0  0  0  0  0  0  0  0  0  0  0  0
   13.7310    4.1210  -59.6560 O   0  0  0  0  0  0  0  0  0  0  0  0
   11.6690    2.7110  -57.3440 N   0  0  0  0  0  0  0  0  0  0  0  0
   10.4230    2.1740  -57.4110 N   0  0  0  0  0  0  0  0  0  0  0  0
   10.0780    1.1490  -56.4690 C   0  0  0  0  0  0  0  0  0  0  0  0
    8.9500    1.2230  -55.6440 C   0  0  0  0  0  0  0  0  0  0  0  0
    8.6600    0.1910  -54.7420 C   0  0  0  0  0  0  0  0  0  0  0  0
    9.4850   -0.9290  -54.6640 C   0  0  0  0  0  0  0  0  0  0  0  0
   10.5990   -1.0250  -55.4910 C   0  0  0  0  0  0  0  0  0  0  0  0
   10.8910    0.0030  -56.3910 C   0  0  0  0  0  0  0  0  0  0  0  0
    9.6920    2.7500  -58.4510 C   0  0  0  0  0  0  0  0  0  0  0  0
    8.2720    2.5530  -58.7340 C   0  0  0  0  0  0  0  0  0  0  0  0
    7.8720    1.7490  -59.8080 C   0  0  0  0  0  0  0  0  0  0  0  0
    6.5140    1.5780  -60.0920 C   0  0  0  0  0  0  0  0  0  0  0  0
    5.5530    2.2180  -59.3100 C   0  0  0  0  0  0  0  0  0  0  0  0
    5.9450    3.0320  -58.2490 C   0  0  0  0  0  0  0  0  0  0  0  0
    7.3000    3.2040  -57.9630 C   0  0  0  0  0  0  0  0  0  0  0  0
    9.8913    5.4842  -59.8872 H   0  0  0  0  0  0  0  0  0  0  0  0
   11.1442    4.6512  -60.8686 H   0  0  0  0  0  0  0  0  0  0  0  0
    9.4533    4.0449  -60.8686 H   0  0  0  0  0  0  0  0  0  0  0  0
   12.7730    5.5000  -57.0230 H   0  0  0  0  0  0  0  0  0  0  0  0
   14.2190    5.7290  -57.9390 H   0  0  0  0  0  0  0  0  0  0  0  0
    8.2861    2.0980  -55.7042 H   0  0  0  0  0  0  0  0  0  0  0  0
    7.7759    0.2654  -54.0917 H   0  0  0  0  0  0  0  0  0  0  0  0
    9.2560   -1.7345  -53.9508 H   0  0  0  0  0  0  0  0  0  0  0  0
   11.2500   -1.9100  -55.4366 H   0  0  0  0  0  0  0  0  0  0  0  0
   11.7689   -0.0847  -57.0480 H   0  0  0  0  0  0  0  0  0  0  0  0
    8.6291    1.2500  -60.4307 H   0  0  0  0  0  0  0  0  0  0  0  0
    6.2036    0.9390  -60.9318 H   0  0  0  0  0  0  0  0  0  0  0  0
    4.4843    2.0801  -59.5309 H   0  0  0  0  0  0  0  0  0  0  0  0
    5.1855    3.5395  -57.6362 H   0  0  0  0  0  0  0  0  0  0  0  0
    7.6060    3.8530  -57.1293 H   0  0  0  0  0  0  0  0  0  0  0  0
  1  2  1  0
  2  3  1  0
  3  4  1  0
  4  5  1  0
  4  6  2  0
  3  7  2  0
  7  8  1  0
  8  9  1  0
  9 10  2  0
 10 11  1  0
 11 12  2  0
 12 13  1  0
 13 14  2  0
  8 15  1  0
 15 16  1  0
 16 17  2  0
 17 18  1  0
 18 19  2  0
 19 20  1  0
 20 21  2  0
 15  2  2  0
 21 16  1  0
 14  9  1  0
  1 22  1  0
  1 23  1  0
  1 24  1  0
  5 25  1  0
  5 26  1  0
 10 27  1  0
 11 28  1  0
 12 29  1  0
 13 30  1  0
 14 31  1  0
 17 32  1  0
 18 33  1  0
 19 34  1  0
 20 35  1  0
 21 36  1  0
M  END
>  <meeko>  (98) 
{"is_sidechain": false}

$$$$

     RDKit          3D

 42 45  0  0  0  0  0  0  0  0999 V2000
    9.9510    2.0660  -55.8580 C   0  0  0  0  0  0  0  0  0  0  0  0
    8.6090    1.7190  -56.4010 C   0  0  0  0  0  0  0  0  0  0  0  0
    7.6400    0.8530  -55.8270 C   0  0  0  0  0  0  0  0  0  0  0  0
    7.6890    0.1390  -54.5500 C   0  0  0  0  0  0  0  0  0  0  0  0
    8.6970   -0.8040  -54.3110 C   0  0  0  0  0  0  0  0  0  0  0  0
    8.7560   -1.4890  -53.0960 C   0  0  0  0  0  0  0  0  0  0  0  0
    7.8020   -1.2410  -52.1100 C   0  0  0  0  0  0  0  0  0  0  0  0
    6.7870   -0.3140  -52.3410 C   0  0  0  0  0  0  0  0  0  0  0  0
    6.7270    0.3720  -53.5570 C   0  0  0  0  0  0  0  0  0  0  0  0
    6.5970    0.6950  -56.6470 N   0  0  0  0  0  0  0  0  0  0  0  0
    6.7990    1.5420  -57.6910 N   0  0  0  0  0  0  0  0  0  0  0  0
    5.7470    1.6910  -58.6550 C   0  0  0  0  0  0  0  0  0  0  0  0
    4.6300    2.5060  -58.4420 C   0  0  0  0  0  0  0  0  0  0  0  0
    3.6320    2.6130  -59.4180 C   0  0  0  0  0  0  0  0  0  0  0  0
    3.7320    1.9010  -60.6100 C   0  0  0  0  0  0  0  0  0  0  0  0
    4.8260    1.0710  -60.8280 C   0  0  0  0  0  0  0  0  0  0  0  0
    5.8240    0.9610  -59.8560 C   0  0  0  0  0  0  0  0  0  0  0  0
    8.0610    2.1350  -57.6110 C   0  0  0  0  0  0  0  0  0  0  0  0
    8.7090    2.9540  -58.6330 C   0  0  0  0  0  0  0  0  0  0  0  0
    9.3480    2.3510  -59.7240 C   0  0  0  0  0  0  0  0  0  0  0  0
    9.9830    3.1350  -60.6880 C   0  0  0  0  0  0  0  0  0  0  0  0
    9.9920    4.5240  -60.5630 C   0  0  0  0  0  0  0  0  0  0  0  0
    9.3710    5.1310  -59.4730 C   0  0  0  0  0  0  0  0  0  0  0  0
    8.7350    4.3490  -58.5070 C   0  0  0  0  0  0  0  0  0  0  0  0
    9.9153    2.0568  -54.7586 H   0  0  0  0  0  0  0  0  0  0  0  0
   10.6895    1.3293  -56.2071 H   0  0  0  0  0  0  0  0  0  0  0  0
   10.2398    3.0684  -56.2071 H   0  0  0  0  0  0  0  0  0  0  0  0
    9.4490   -1.0066  -55.0879 H   0  0  0  0  0  0  0  0  0  0  0  0
    9.5546   -2.2239  -52.9167 H   0  0  0  0  0  0  0  0  0  0  0  0
    7.8503   -1.7765  -51.1504 H   0  0  0  0  0  0  0  0  0  0  0  0
    6.0318   -0.1221  -51.5646 H   0  0  0  0  0  0  0  0  0  0  0  0
    5.9208    1.0986  -53.7361 H   0  0  0  0  0  0  0  0  0  0  0  0
    4.5352    3.0670  -57.5006 H   0  0  0  0  0  0  0  0  0  0  0  0
    2.7630    3.2640  -59.2418 H   0  0  0  0  0  0  0  0  0  0  0  0
    2.9486    1.9947  -61.3765 H   0  0  0  0  0  0  0  0  0  0  0  0
    4.9059    0.5010  -61.7654 H   0  0  0  0  0  0  0  0  0  0  0  0
    6.6815    0.2948  -60.0319 H   0  0  0  0  0  0  0  0  0  0  0  0
    9.3492    1.2553  -59.8212 H   0  0  0  0  0  0  0  0  0  0  0  0
   10.4768    2.6572  -61.5470 H   0  0  0  0  0  0  0  0  0  0  0  0
   10.4898    5.1411  -61.3255 H   0  0  0  0  0  0  0  0  0  0  0  0
    9.3819    6.2265  -59.3737 H   0  0  0  0  0  0  0  0  0  0  0  0
    8.2524    4.8301  -57.6435 H   0  0  0  0  0  0  0  0  0  0  0  0
  1  2  1  0
  2  3  1  0
  3  4  1  0
  4  5  2  0
  5  6  1  0
  6  7  2  0
  7  8  1  0
  8  9  2  0
  3 10  2  0
 10 11  1  0
 11 12  1  0
 12 13  2  0
 13 14  1  0
 14 15  2  0
 15 16  1  0
 16 17  2  0
 11 18  1  0
 18 19  1  0
 19 20  2  0
 20 21  1  0
 21 22  2  0
 22 23  1  0
 23 24  2  0
 18  2  2  0
 24 19  1  0
  9  4  1  0
 17 12  1  0
  1 25  1  0
  1 26  1  0
  1 27  1  0
  5 28  1  0
  6 29  1  0
  7 30  1  0
  8 31  1  0
  9 32  1  0
 13 33  1  0
 14 34  1  0
 15 35  1  0
 16 36  1  0
 17 37  1  0
 20 38  1  0
 21 39  1  0
 22 40  1  0
 23 41  1  0
 24 42  1  0
M  END
>  <meeko>  (99) 
{"is_sidechain": false}

$$$$

     RDKit          3D

 43 46  0  0  0  0  0  0  0  0999 V2000
    9.6960   -0.7190  -53.4450 O   0  0  0  0  0  0  0  0  0  0  0  0
    8.5440   -0.6320  -53.8520 C   0  0  0  0  0  0  0  0  0  0  0  0
    7.4390   -1.3040  -53.3690 N   0  0  0  0  0  0  0  0  0  0  0  0
    7.3650   -2.2320  -52.3170 C   0  0  0  0  0  0  0  0  0  0  0  0
    7.8130   -1.9750  -51.0210 C   0  0  0  0  0  0  0  0  0  0  0  0
    7.7040   -2.9550  -50.0290 C   0  0  0  0  0  0  0  0  0  0  0  0
    7.1460   -4.1970  -50.3250 C   0  0  0  0  0  0  0  0  0  0  0  0
    6.6970   -4.4610  -51.6160 C   0  0  0  0  0  0  0  0  0  0  0  0
    6.8060   -3.4830  -52.6070 C   0  0  0  0  0  0  0  0  0  0  0  0
    8.1900    0.2590  -54.9740 C   0  0  0  0  0  0  0  0  0  0  0  0
    7.0830    0.1410  -55.8340 C   0  0  0  0  0  0  0  0  0  0  0  0
    7.1490    1.2180  -56.7000 C   0  0  0  0  0  0  0  0  0  0  0  0
    6.1340    1.6150  -57.6720 C   0  0  0  0  0  0  0  0  0  0  0  0
    6.2770    1.2640  -59.0210 C   0  0  0  0  0  0  0  0  0  0  0  0
    5.3010    1.6280  -59.9510 C   0  0  0  0  0  0  0  0  0  0  0  0
    4.1720    2.3340  -59.5380 C   0  0  0  0  0  0  0  0  0  0  0  0
    4.0140    2.6730  -58.1960 C   0  0  0  0  0  0  0  0  0  0  0  0
    4.9890    2.3110  -57.2630 C   0  0  0  0  0  0  0  0  0  0  0  0
    8.3400    1.8790  -56.3920 N   0  0  0  0  0  0  0  0  0  0  0  0
    9.0040    2.9600  -57.0560 C   0  0  0  0  0  0  0  0  0  0  0  0
    8.6200    4.2950  -56.8860 C   0  0  0  0  0  0  0  0  0  0  0  0
    9.2970    5.3180  -57.5590 C   0  0  0  0  0  0  0  0  0  0  0  0
   10.3540    5.0190  -58.4160 C   0  0  0  0  0  0  0  0  0  0  0  0
   10.7320    3.6940  -58.6090 C   0  0  0  0  0  0  0  0  0  0  0  0
   10.0590    2.6690  -57.9400 C   0  0  0  0  0  0  0  0  0  0  0  0
    8.9250    1.3430  -55.2780 N   0  0  0  0  0  0  0  0  0  0  0  0
    6.5800   -1.0720  -53.8620 H   0  0  0  0  0  0  0  0  0  0  0  0
    8.2541   -0.9970  -50.7782 H   0  0  0  0  0  0  0  0  0  0  0  0
    8.0606   -2.7442  -49.0100 H   0  0  0  0  0  0  0  0  0  0  0  0
    7.0607   -4.9652  -49.5423 H   0  0  0  0  0  0  0  0  0  0  0  0
    6.2563   -5.4400  -51.8556 H   0  0  0  0  0  0  0  0  0  0  0  0
    6.4493   -3.6973  -53.6253 H   0  0  0  0  0  0  0  0  0  0  0  0
    6.3180   -0.6493  -55.8206 H   0  0  0  0  0  0  0  0  0  0  0  0
    7.1621    0.6992  -59.3489 H   0  0  0  0  0  0  0  0  0  0  0  0
    5.4231    1.3575  -61.0102 H   0  0  0  0  0  0  0  0  0  0  0  0
    3.4056    2.6235  -60.2721 H   0  0  0  0  0  0  0  0  0  0  0  0
    3.1207    3.2263  -57.8706 H   0  0  0  0  0  0  0  0  0  0  0  0
    4.8570    2.5736  -56.2030 H   0  0  0  0  0  0  0  0  0  0  0  0
    7.7807    4.5416  -56.2191 H   0  0  0  0  0  0  0  0  0  0  0  0
    8.9929    6.3646  -57.4106 H   0  0  0  0  0  0  0  0  0  0  0  0
   10.8875    5.8271  -58.9379 H   0  0  0  0  0  0  0  0  0  0  0  0
   11.5621    3.4533  -59.2894 H   0  0  0  0  0  0  0  0  0  0  0  0
   10.3571    1.6233  -58.1061 H   0  0  0  0  0  0  0  0  0  0  0  0
  1  2  2  0
  2  3  1  0
  3  4  1  0
  4  5  2  0
  5  6  1  0
  6  7  2  0
  7  8  1  0
  8  9  2  0
  2 10  1  0
 10 11  1  0
 11 12  2  0
 12 13  1  0
 13 14  2  0
 14 15  1  0
 15 16  2  0
 16 17  1  0
 17 18  2  0
 12 19  1  0
 19 20  1  0
 20 21  2  0
 21 22  1  0
 22 23  2  0
 23 24  1  0
 24 25  2  0
 19 26  1  0
  9  4  1  0
 26 10  2  0
 18 13  1  0
 25 20  1  0
  3 27  1  0
  5 28  1  0
  6 29  1  0
  7 30  1  0
  8 31  1  0
  9 32  1  0
 11 33  1  0
 14 34  1  0
 15 35  1  0
 16 36  1  0
 17 37  1  0
 18 38  1  0
 21 39  1  0
 22 40  1  0
 23 41  1  0
 24 42  1  0
 25 43  1  0
M  END
>  <meeko>  (100) 
{"is_sidechain": false}

$$$$

     RDKit          3D

 51 54  0  0  0  0  0  0  0  0999 V2000
    8.1330    0.8880  -53.8020 C   0  0  0  0  0  0  0  0  0  0  0  0
    9.0780    0.0850  -54.6240 C   0  0  0  0  0  0  0  0  0  0  0  0
    9.7750    0.5320  -55.7770 C   0  0  0  0  0  0  0  0  0  0  0  0
    9.7470    1.8760  -56.3900 C   0  0  0  0  0  0  0  0  0  0  0  0
    9.9650    2.9030  -55.7540 O   0  0  0  0  0  0  0  0  0  0  0  0
    9.4570    1.8180  -57.7470 N   0  0  0  0  0  0  0  0  0  0  0  0
    9.3570    2.9770  -58.5330 N   0  0  0  0  0  0  0  0  0  0  0  0
   10.6810    3.4030  -59.0080 C   0  0  0  0  0  0  0  0  0  0  0  0
   10.5880    4.3210  -60.2230 C   0  0  0  0  0  0  0  0  0  0  0  0
    9.9170    3.6170  -61.4030 C   0  0  0  0  0  0  0  0  0  0  0  0
    8.9400    2.5280  -60.9570 C   0  0  0  0  0  0  0  0  0  0  0  0
    8.3440    2.8430  -59.5880 C   0  0  0  0  0  0  0  0  0  0  0  0
   10.5030   -0.4580  -56.3170 N   0  0  0  0  0  0  0  0  0  0  0  0
   10.3570   -1.5280  -55.4840 N   0  0  0  0  0  0  0  0  0  0  0  0
   11.1320   -2.7040  -55.7550 C   0  0  0  0  0  0  0  0  0  0  0  0
   11.7680   -2.8230  -57.0050 C   0  0  0  0  0  0  0  0  0  0  0  0
   12.5340   -3.9490  -57.3180 C   0  0  0  0  0  0  0  0  0  0  0  0
   12.6850   -4.9680  -56.3830 C   0  0  0  0  0  0  0  0  0  0  0  0
   12.0760   -4.8570  -55.1360 C   0  0  0  0  0  0  0  0  0  0  0  0
   11.3080   -3.7300  -54.8200 C   0  0  0  0  0  0  0  0  0  0  0  0
    9.4390   -1.2490  -54.4680 C   0  0  0  0  0  0  0  0  0  0  0  0
    8.9050   -2.1950  -53.4910 C   0  0  0  0  0  0  0  0  0  0  0  0
    9.4640   -2.2770  -52.2090 C   0  0  0  0  0  0  0  0  0  0  0  0
    8.9440   -3.1710  -51.2700 C   0  0  0  0  0  0  0  0  0  0  0  0
    7.8580   -3.9800  -51.6050 C   0  0  0  0  0  0  0  0  0  0  0  0
    7.2890   -3.8940  -52.8740 C   0  0  0  0  0  0  0  0  0  0  0  0
    7.8070   -3.0010  -53.8140 C   0  0  0  0  0  0  0  0  0  0  0  0
    8.3367    0.7149  -52.7350 H   0  0  0  0  0  0  0  0  0  0  0  0
    8.2634    1.9558  -54.0316 H   0  0  0  0  0  0  0  0  0  0  0  0
    7.1002    0.5870  -54.0316 H   0  0  0  0  0  0  0  0  0  0  0  0
    9.2990    0.8900  -58.1390 H   0  0  0  0  0  0  0  0  0  0  0  0
   11.1929    3.9403  -58.1961 H   0  0  0  0  0  0  0  0  0  0  0  0
   11.2392    2.5031  -59.3059 H   0  0  0  0  0  0  0  0  0  0  0  0
    9.9994    5.2109  -59.9552 H   0  0  0  0  0  0  0  0  0  0  0  0
   11.6079    4.6038  -60.5226 H   0  0  0  0  0  0  0  0  0  0  0  0
    9.3666    4.3645  -61.9931 H   0  0  0  0  0  0  0  0  0  0  0  0
   10.7069    3.1343  -61.9972 H   0  0  0  0  0  0  0  0  0  0  0  0
    8.1262    2.4536  -61.6933 H   0  0  0  0  0  0  0  0  0  0  0  0
    9.4892    1.5776  -60.8857 H   0  0  0  0  0  0  0  0  0  0  0  0
    7.7858    3.7882  -59.6588 H   0  0  0  0  0  0  0  0  0  0  0  0
    7.6944    1.9992  -59.3122 H   0  0  0  0  0  0  0  0  0  0  0  0
   11.6604   -2.0176  -57.7465 H   0  0  0  0  0  0  0  0  0  0  0  0
   13.0172   -4.0296  -58.3029 H   0  0  0  0  0  0  0  0  0  0  0  0
   13.2833   -5.8580  -56.6280 H   0  0  0  0  0  0  0  0  0  0  0  0
   12.1991   -5.6600  -54.3943 H   0  0  0  0  0  0  0  0  0  0  0  0
   10.8389   -3.6504  -53.8282 H   0  0  0  0  0  0  0  0  0  0  0  0
   10.3158   -1.6348  -51.9407 H   0  0  0  0  0  0  0  0  0  0  0  0
    9.3906   -3.2370  -50.2669 H   0  0  0  0  0  0  0  0  0  0  0  0
    7.4505   -4.6864  -50.8667 H   0  0  0  0  0  0  0  0  0  0  0  0
    6.4307   -4.5304  -53.1355 H   0  0  0  0  0  0  0  0  0  0  0  0
    7.3505   -2.9305  -54.8123 H   0  0  0  0  0  0  0  0  0  0  0  0
  1  2  1  0
  2  3  1  0
  3  4  1  0
  4  5  2  0
  4  6  1  0
  6  7  1  0
  7  8  1  0
  8  9  1  0
  9 10  1  0
 10 11  1  0
 11 12  1  0
  3 13  2  0
 13 14  1  0
 14 15  1  0
 15 16  2  0
 16 17  1  0
 17 18  2  0
 18 19  1  0
 19 20  2  0
 14 21  1  0
 21 22  1  0
 22 23  2  0
 23 24  1  0
 24 25  2  0
 25 26  1  0
 26 27  2  0
 21  2  2  0
 27 22  1  0
 12  7  1  0
 20 15  1  0
  1 28  1  0
  1 29  1  0
  1 30  1  0
  6 31  1  0
  8 32  1  0
  8 33  1  0
  9 34  1  0
  9 35  1  0
 10 36  1  0
 10 37  1  0
 11 38  1  0
 11 39  1  0
 12 40  1  0
 12 41  1  0
 16 42  1  0
 17 43  1  0
 18 44  1  0
 19 45  1  0
 20 46  1  0
 23 47  1  0
 24 48  1  0
 25 49  1  0
 26 50  1  0
 27 51  1  0
M  END
>  <meeko>  (101) 
{"is_sidechain": false}

$$$$

     RDKit          3D

 45 47  0  0  0  0  0  0  0  0999 V2000
   10.0380    2.0120  -55.8630 C   0  0  0  0  0  0  0  0  0  0  0  0
    8.6750    1.6950  -56.3720 C   0  0  0  0  0  0  0  0  0  0  0  0
    7.7060    0.8390  -55.7780 C   0  0  0  0  0  0  0  0  0  0  0  0
    7.7800    0.1210  -54.4920 C   0  0  0  0  0  0  0  0  0  0  0  0
    7.0740    0.3970  -53.5250 O   0  0  0  0  0  0  0  0  0  0  0  0
    8.7270   -0.8880  -54.4580 N   0  0  0  0  0  0  0  0  0  0  0  0
    8.8970   -1.7500  -53.3010 C   0  0  0  0  0  0  0  0  0  0  0  0
    8.0710   -3.0240  -53.4600 C   0  0  0  0  0  0  0  0  0  0  0  0
   10.3730   -2.0850  -53.1080 C   0  0  0  0  0  0  0  0  0  0  0  0
    6.6370    0.7100  -56.5710 N   0  0  0  0  0  0  0  0  0  0  0  0
    6.8400    1.5350  -57.6310 N   0  0  0  0  0  0  0  0  0  0  0  0
    5.7790    1.6830  -58.5850 C   0  0  0  0  0  0  0  0  0  0  0  0
    5.8510    0.9620  -59.7920 C   0  0  0  0  0  0  0  0  0  0  0  0
    4.8440    1.0700  -60.7540 C   0  0  0  0  0  0  0  0  0  0  0  0
    3.7460    1.8940  -60.5230 C   0  0  0  0  0  0  0  0  0  0  0  0
    3.6530    2.5990  -59.3260 C   0  0  0  0  0  0  0  0  0  0  0  0
    4.6600    2.4930  -58.3580 C   0  0  0  0  0  0  0  0  0  0  0  0
    8.1060    2.1200  -57.5700 C   0  0  0  0  0  0  0  0  0  0  0  0
    8.7470    2.9270  -58.6050 C   0  0  0  0  0  0  0  0  0  0  0  0
    9.3920    2.3110  -59.6850 C   0  0  0  0  0  0  0  0  0  0  0  0
   10.0240    3.0840  -60.6610 C   0  0  0  0  0  0  0  0  0  0  0  0
   10.0230    4.4740  -60.5590 C   0  0  0  0  0  0  0  0  0  0  0  0
    9.3960    5.0950  -59.4800 C   0  0  0  0  0  0  0  0  0  0  0  0
    8.7640    4.3240  -58.5020 C   0  0  0  0  0  0  0  0  0  0  0  0
   10.0283    2.0098  -54.7630 H   0  0  0  0  0  0  0  0  0  0  0  0
   10.7497    1.2554  -56.2250 H   0  0  0  0  0  0  0  0  0  0  0  0
   10.3428    3.0050  -56.2250 H   0  0  0  0  0  0  0  0  0  0  0  0
    9.3050   -1.0350  -55.2730 H   0  0  0  0  0  0  0  0  0  0  0  0
    8.5398   -1.2179  -52.4070 H   0  0  0  0  0  0  0  0  0  0  0  0
    7.8139   -3.4206  -52.4667 H   0  0  0  0  0  0  0  0  0  0  0  0
    7.1484   -2.7961  -54.0139 H   0  0  0  0  0  0  0  0  0  0  0  0
    8.6556   -3.7733  -54.0139 H   0  0  0  0  0  0  0  0  0  0  0  0
   10.5998   -2.1365  -52.0329 H   0  0  0  0  0  0  0  0  0  0  0  0
   10.5929   -3.0559  -53.5760 H   0  0  0  0  0  0  0  0  0  0  0  0
   10.9905   -1.3042  -53.5760 H   0  0  0  0  0  0  0  0  0  0  0  0
    6.7124    0.3043  -59.9802 H   0  0  0  0  0  0  0  0  0  0  0  0
    4.9186    0.5039  -61.6942 H   0  0  0  0  0  0  0  0  0  0  0  0
    2.9558    1.9876  -61.2824 H   0  0  0  0  0  0  0  0  0  0  0  0
    2.7820    3.2443  -59.1390 H   0  0  0  0  0  0  0  0  0  0  0  0
    4.5709    3.0498  -57.4135 H   0  0  0  0  0  0  0  0  0  0  0  0
    9.4007    1.2139  -59.7646 H   0  0  0  0  0  0  0  0  0  0  0  0
   10.5230    2.5956  -61.5110 H   0  0  0  0  0  0  0  0  0  0  0  0
   10.5176    5.0818  -61.3310 H   0  0  0  0  0  0  0  0  0  0  0  0
    9.3990    6.1920  -59.3989 H   0  0  0  0  0  0  0  0  0  0  0  0
    8.2773    4.8159  -57.6469 H   0  0  0  0  0  0  0  0  0  0  0  0
  1  2  1  0
  2  3  1  0
  3  4  1  0
  4  5  2  0
  4  6  1  0
  6  7  1  0
  7  8  1  0
  7  9  1  0
  3 10  2  0
 10 11  1  0
 11 12  1  0
 12 13  2  0
 13 14  1  0
 14 15  2  0
 15 16  1  0
 16 17  2  0
 11 18  1  0
 18 19  1  0
 19 20  2  0
 20 21  1  0
 21 22  2  0
 22 23  1  0
 23 24  2  0
 18  2  2  0
 24 19  1  0
 17 12  1  0
  1 25  1  0
  1 26  1  0
  1 27  1  0
  6 28  1  0
  7 29  1  0
  8 30  1  0
  8 31  1  0
  8 32  1  0
  9 33  1  0
  9 34  1  0
  9 35  1  0
 13 36  1  0
 14 37  1  0
 15 38  1  0
 16 39  1  0
 17 40  1  0
 20 41  1  0
 21 42  1  0
 22 43  1  0
 23 44  1  0
 24 45  1  0
M  END
>  <meeko>  (102) 
{"is_sidechain": false}

$$$$

     RDKit          3D

 43 46  0  0  0  0  0  0  0  0999 V2000
    9.8090    1.8170  -55.7380 C   0  0  0  0  0  0  0  0  0  0  0  0
    8.4640    1.5490  -56.3160 C   0  0  0  0  0  0  0  0  0  0  0  0
    7.3910    0.8350  -55.7140 C   0  0  0  0  0  0  0  0  0  0  0  0
    7.3670    0.1290  -54.4180 C   0  0  0  0  0  0  0  0  0  0  0  0
    6.6450    0.4620  -53.4810 O   0  0  0  0  0  0  0  0  0  0  0  0
    8.2170   -0.9670  -54.3620 N   0  0  0  0  0  0  0  0  0  0  0  0
    8.2940   -1.8130  -53.2150 C   0  0  0  0  0  0  0  0  0  0  0  0
    9.6080   -2.4220  -52.8090 C   0  0  0  0  0  0  0  0  0  0  0  0
    8.5210   -3.2920  -53.3710 C   0  0  0  0  0  0  0  0  0  0  0  0
    6.2990    0.8800  -56.4850 N   0  0  0  0  0  0  0  0  0  0  0  0
    6.6540    1.5360  -57.6210 N   0  0  0  0  0  0  0  0  0  0  0  0
    5.6890    1.6250  -58.6790 C   0  0  0  0  0  0  0  0  0  0  0  0
    4.5930    2.4950  -58.5220 C   0  0  0  0  0  0  0  0  0  0  0  0
    3.6270    2.6180  -59.5220 C   0  0  0  0  0  0  0  0  0  0  0  0
    3.7320    1.8680  -60.6890 C   0  0  0  0  0  0  0  0  0  0  0  0
    4.8010    0.9910  -60.8500 C   0  0  0  0  0  0  0  0  0  0  0  0
    5.7730    0.8630  -59.8500 C   0  0  0  0  0  0  0  0  0  0  0  0
    7.9670    2.0040  -57.5330 C   0  0  0  0  0  0  0  0  0  0  0  0
    8.6450    2.8890  -58.4780 C   0  0  0  0  0  0  0  0  0  0  0  0
    8.6080    4.2780  -58.3000 C   0  0  0  0  0  0  0  0  0  0  0  0
    9.2740    5.1200  -59.1920 C   0  0  0  0  0  0  0  0  0  0  0  0
    9.9880    4.5790  -60.2600 C   0  0  0  0  0  0  0  0  0  0  0  0
   10.0410    3.1960  -60.4370 C   0  0  0  0  0  0  0  0  0  0  0  0
    9.3760    2.3520  -59.5460 C   0  0  0  0  0  0  0  0  0  0  0  0
    9.7454    1.8043  -54.6399 H   0  0  0  0  0  0  0  0  0  0  0  0
   10.5134    1.0416  -56.0734 H   0  0  0  0  0  0  0  0  0  0  0  0
   10.1624    2.8032  -56.0734 H   0  0  0  0  0  0  0  0  0  0  0  0
    8.6230   -1.2920  -55.2300 H   0  0  0  0  0  0  0  0  0  0  0  0
    7.5354   -1.1914  -52.7168 H   0  0  0  0  0  0  0  0  0  0  0  0
   10.5132   -2.2216  -53.4011 H   0  0  0  0  0  0  0  0  0  0  0  0
   10.2108   -2.4279  -51.8889 H   0  0  0  0  0  0  0  0  0  0  0  0
    8.6300   -3.7287  -54.3747 H   0  0  0  0  0  0  0  0  0  0  0  0
    7.9981   -4.1988  -53.0330 H   0  0  0  0  0  0  0  0  0  0  0  0
    4.4968    3.0856  -57.5990 H   0  0  0  0  0  0  0  0  0  0  0  0
    2.7817    3.3088  -59.3872 H   0  0  0  0  0  0  0  0  0  0  0  0
    2.9744    1.9675  -61.4803 H   0  0  0  0  0  0  0  0  0  0  0  0
    4.8829    0.3937  -61.7701 H   0  0  0  0  0  0  0  0  0  0  0  0
    6.6075    0.1593  -59.9857 H   0  0  0  0  0  0  0  0  0  0  0  0
    8.0517    4.7070  -57.4536 H   0  0  0  0  0  0  0  0  0  0  0  0
    9.2354    6.2104  -59.0522 H   0  0  0  0  0  0  0  0  0  0  0  0
   10.5104    5.2433  -60.9642 H   0  0  0  0  0  0  0  0  0  0  0  0
   10.6070    2.7707  -61.2789 H   0  0  0  0  0  0  0  0  0  0  0  0
    9.4260    1.2617  -59.6827 H   0  0  0  0  0  0  0  0  0  0  0  0
  1  2  1  0
  2  3  1  0
  3  4  1  0
  4  5  2  0
  4  6  1  0
  6  7  1  0
  7  8  1  0
  8  9  1  0
  3 10  2  0
 10 11  1  0
 11 12  1  0
 12 13  2  0
 13 14  1  0
 14 15  2  0
 15 16  1  0
 16 17  2  0
 11 18  1  0
 18 19  1  0
 19 20  2  0
 20 21  1  0
 21 22  2  0
 22 23  1  0
 23 24  2  0
 18  2  2  0
 24 19  1  0
  9  7  1  0
 17 12  1  0
  1 25  1  0
  1 26  1  0
  1 27  1  0
  6 28  1  0
  7 29  1  0
  8 30  1  0
  8 31  1  0
  9 32  1  0
  9 33  1  0
 13 34  1  0
 14 35  1  0
 15 36  1  0
 16 37  1  0
 17 38  1  0
 20 39  1  0
 21 40  1  0
 22 41  1  0
 23 42  1  0
 24 43  1  0
M  END
>  <meeko>  (103) 
{"is_sidechain": false}

$$$$

     RDKit          3D

 46 49  0  0  0  0  0  0  0  0999 V2000
    8.0940    0.7490  -54.0780 C   0  0  0  0  0  0  0  0  0  0  0  0
    9.1260   -0.0280  -54.8180 C   0  0  0  0  0  0  0  0  0  0  0  0
    9.9500    0.4570  -55.8660 C   0  0  0  0  0  0  0  0  0  0  0  0
    9.9550    1.8050  -56.4770 C   0  0  0  0  0  0  0  0  0  0  0  0
    9.0690    2.6220  -56.2550 O   0  0  0  0  0  0  0  0  0  0  0  0
   11.0530    1.9850  -57.2960 N   0  0  0  0  0  0  0  0  0  0  0  0
   11.4130    3.1140  -58.0480 C   0  0  0  0  0  0  0  0  0  0  0  0
   12.5770    3.7930  -57.6610 C   0  0  0  0  0  0  0  0  0  0  0  0
   13.0050    4.9270  -58.3580 C   0  0  0  0  0  0  0  0  0  0  0  0
   12.2680    5.3880  -59.4450 C   0  0  0  0  0  0  0  0  0  0  0  0
   12.7920    6.7840  -60.3050 Cl  0  0  0  0  0  0  0  0  0  0  0  0
   11.1100    4.7240  -59.8400 C   0  0  0  0  0  0  0  0  0  0  0  0
   10.6830    3.5880  -59.1410 C   0  0  0  0  0  0  0  0  0  0  0  0
   10.8160   -0.4840  -56.2790 N   0  0  0  0  0  0  0  0  0  0  0  0
   10.5130   -1.6080  -55.5670 N   0  0  0  0  0  0  0  0  0  0  0  0
   11.2110   -2.8190  -55.8920 C   0  0  0  0  0  0  0  0  0  0  0  0
   11.4120   -3.8490  -54.9660 C   0  0  0  0  0  0  0  0  0  0  0  0
   12.0990   -5.0120  -55.3370 C   0  0  0  0  0  0  0  0  0  0  0  0
   12.5820   -5.1640  -56.6330 C   0  0  0  0  0  0  0  0  0  0  0  0
   12.3750   -4.1560  -57.5680 C   0  0  0  0  0  0  0  0  0  0  0  0
   11.6900   -2.9940  -57.2040 C   0  0  0  0  0  0  0  0  0  0  0  0
    9.5220   -1.3460  -54.6180 C   0  0  0  0  0  0  0  0  0  0  0  0
    9.0580   -2.2550  -53.5720 C   0  0  0  0  0  0  0  0  0  0  0  0
    9.6590   -2.2430  -52.3070 C   0  0  0  0  0  0  0  0  0  0  0  0
    9.2030   -3.1000  -51.3030 C   0  0  0  0  0  0  0  0  0  0  0  0
    8.1390   -3.9660  -51.5560 C   0  0  0  0  0  0  0  0  0  0  0  0
    7.5250   -3.9730  -52.8080 C   0  0  0  0  0  0  0  0  0  0  0  0
    7.9800   -3.1170  -53.8130 C   0  0  0  0  0  0  0  0  0  0  0  0
    8.2517    0.6303  -52.9958 H   0  0  0  0  0  0  0  0  0  0  0  0
    8.1741    1.8129  -54.3457 H   0  0  0  0  0  0  0  0  0  0  0  0
    7.0937    0.3779  -54.3457 H   0  0  0  0  0  0  0  0  0  0  0  0
   11.6570    1.1670  -57.3350 H   0  0  0  0  0  0  0  0  0  0  0  0
   13.1590    3.4302  -56.8010 H   0  0  0  0  0  0  0  0  0  0  0  0
   13.9204    5.4526  -58.0486 H   0  0  0  0  0  0  0  0  0  0  0  0
   10.5310    5.0912  -60.7002 H   0  0  0  0  0  0  0  0  0  0  0  0
    9.7671    3.0656  -59.4545 H   0  0  0  0  0  0  0  0  0  0  0  0
   11.0281   -3.7446  -53.9405 H   0  0  0  0  0  0  0  0  0  0  0  0
   12.2579   -5.8112  -54.5981 H   0  0  0  0  0  0  0  0  0  0  0  0
   13.1252   -6.0775  -56.9166 H   0  0  0  0  0  0  0  0  0  0  0  0
   12.7508   -4.2735  -58.5951 H   0  0  0  0  0  0  0  0  0  0  0  0
   11.5228   -2.2055  -57.9525 H   0  0  0  0  0  0  0  0  0  0  0  0
   10.4935   -1.5558  -52.1035 H   0  0  0  0  0  0  0  0  0  0  0  0
    9.6826   -3.0922  -50.3131 H   0  0  0  0  0  0  0  0  0  0  0  0
    7.7837   -4.6445  -50.7665 H   0  0  0  0  0  0  0  0  0  0  0  0
    6.6825   -4.6526  -53.0038 H   0  0  0  0  0  0  0  0  0  0  0  0
    7.4901   -3.1194  -54.7979 H   0  0  0  0  0  0  0  0  0  0  0  0
  1  2  1  0
  2  3  1  0
  3  4  1  0
  4  5  2  0
  4  6  1  0
  6  7  1  0
  7  8  1  0
  8  9  2  0
  9 10  1  0
 10 11  1  0
 10 12  2  0
 12 13  1  0
  3 14  2  0
 14 15  1  0
 15 16  1  0
 16 17  2  0
 17 18  1  0
 18 19  2  0
 19 20  1  0
 20 21  2  0
 15 22  1  0
 22 23  1  0
 23 24  2  0
 24 25  1  0
 25 26  2  0
 26 27  1  0
 27 28  2  0
 22  2  2  0
 28 23  1  0
 13  7  2  0
 21 16  1  0
  1 29  1  0
  1 30  1  0
  1 31  1  0
  6 32  1  0
  8 33  1  0
  9 34  1  0
 12 35  1  0
 13 36  1  0
 17 37  1  0
 18 38  1  0
 19 39  1  0
 20 40  1  0
 21 41  1  0
 24 42  1  0
 25 43  1  0
 26 44  1  0
 27 45  1  0
 28 46  1  0
M  END
>  <meeko>  (104) 
{"is_sidechain": false}

$$$$

     RDKit          3D

 46 49  0  0  0  0  0  0  0  0999 V2000
    9.5990    1.9680  -55.7200 C   0  0  0  0  0  0  0  0  0  0  0  0
    8.2660    1.6760  -56.3170 C   0  0  0  0  0  0  0  0  0  0  0  0
    7.2300    0.8750  -55.7630 C   0  0  0  0  0  0  0  0  0  0  0  0
    7.1960    0.2050  -54.4450 C   0  0  0  0  0  0  0  0  0  0  0  0
    6.7180    0.7480  -53.4560 O   0  0  0  0  0  0  0  0  0  0  0  0
    7.7710   -1.0580  -54.4790 N   0  0  0  0  0  0  0  0  0  0  0  0
    7.8710   -1.9900  -53.4290 C   0  0  0  0  0  0  0  0  0  0  0  0
    6.8250   -2.9150  -53.2950 C   0  0  0  0  0  0  0  0  0  0  0  0
    6.8440   -3.8680  -52.2730 C   0  0  0  0  0  0  0  0  0  0  0  0
    7.9080   -3.8960  -51.3840 C   0  0  0  0  0  0  0  0  0  0  0  0
    7.9280   -4.8090  -50.4040 F   0  0  0  0  0  0  0  0  0  0  0  0
    8.9520   -2.9880  -51.4980 C   0  0  0  0  0  0  0  0  0  0  0  0
    8.9330   -2.0330  -52.5210 C   0  0  0  0  0  0  0  0  0  0  0  0
    6.2080    0.7590  -56.6160 N   0  0  0  0  0  0  0  0  0  0  0  0
    6.5180    1.5250  -57.6960 N   0  0  0  0  0  0  0  0  0  0  0  0
    5.5340    1.6630  -58.7300 C   0  0  0  0  0  0  0  0  0  0  0  0
    5.6830    0.9070  -59.9090 C   0  0  0  0  0  0  0  0  0  0  0  0
    4.7520    1.0050  -60.9480 C   0  0  0  0  0  0  0  0  0  0  0  0
    3.6550    1.8510  -60.8200 C   0  0  0  0  0  0  0  0  0  0  0  0
    3.4850    2.5900  -59.6530 C   0  0  0  0  0  0  0  0  0  0  0  0
    4.4150    2.4960  -58.6100 C   0  0  0  0  0  0  0  0  0  0  0  0
    7.7960    2.0710  -57.5650 C   0  0  0  0  0  0  0  0  0  0  0  0
    8.5380    2.8160  -58.5810 C   0  0  0  0  0  0  0  0  0  0  0  0
    9.2310    2.1340  -59.5900 C   0  0  0  0  0  0  0  0  0  0  0  0
    9.9200    2.8470  -60.5730 C   0  0  0  0  0  0  0  0  0  0  0  0
    9.9130    4.2400  -60.5590 C   0  0  0  0  0  0  0  0  0  0  0  0
    9.2140    4.9260  -59.5660 C   0  0  0  0  0  0  0  0  0  0  0  0
    8.5230    4.2160  -58.5810 C   0  0  0  0  0  0  0  0  0  0  0  0
    9.5211    1.9509  -54.6229 H   0  0  0  0  0  0  0  0  0  0  0  0
   10.3224    1.2070  -56.0481 H   0  0  0  0  0  0  0  0  0  0  0  0
    9.9380    2.9617  -56.0481 H   0  0  0  0  0  0  0  0  0  0  0  0
    8.2290   -1.3090  -55.3460 H   0  0  0  0  0  0  0  0  0  0  0  0
    5.9818   -2.8900  -54.0010 H   0  0  0  0  0  0  0  0  0  0  0  0
    6.0207   -4.5909  -52.1744 H   0  0  0  0  0  0  0  0  0  0  0  0
    9.7908   -3.0190  -50.7871 H   0  0  0  0  0  0  0  0  0  0  0  0
    9.7588   -1.3119  -52.6111 H   0  0  0  0  0  0  0  0  0  0  0  0
    6.5436    0.2300  -60.0140 H   0  0  0  0  0  0  0  0  0  0  0  0
    4.8870    0.4137  -61.8657 H   0  0  0  0  0  0  0  0  0  0  0  0
    2.9247    1.9355  -61.6382 H   0  0  0  0  0  0  0  0  0  0  0  0
    2.6135    3.2530  -59.5490 H   0  0  0  0  0  0  0  0  0  0  0  0
    4.2653    3.0806  -57.6903 H   0  0  0  0  0  0  0  0  0  0  0  0
    9.2322    1.0341  -59.6077 H   0  0  0  0  0  0  0  0  0  0  0  0
   10.4690    2.3082  -61.3594 H   0  0  0  0  0  0  0  0  0  0  0  0
   10.4596    4.7997  -61.3323 H   0  0  0  0  0  0  0  0  0  0  0  0
    9.2068    6.0260  -59.5584 H   0  0  0  0  0  0  0  0  0  0  0  0
    7.9655    4.7585  -57.8032 H   0  0  0  0  0  0  0  0  0  0  0  0
  1  2  1  0
  2  3  1  0
  3  4  1  0
  4  5  2  0
  4  6  1  0
  6  7  1  0
  7  8  1  0
  8  9  2  0
  9 10  1  0
 10 11  1  0
 10 12  2  0
 12 13  1  0
  3 14  2  0
 14 15  1  0
 15 16  1  0
 16 17  2  0
 17 18  1  0
 18 19  2  0
 19 20  1  0
 20 21  2  0
 15 22  1  0
 22 23  1  0
 23 24  2  0
 24 25  1  0
 25 26  2  0
 26 27  1  0
 27 28  2  0
 22  2  2  0
 28 23  1  0
 13  7  2  0
 21 16  1  0
  1 29  1  0
  1 30  1  0
  1 31  1  0
  6 32  1  0
  8 33  1  0
  9 34  1  0
 12 35  1  0
 13 36  1  0
 17 37  1  0
 18 38  1  0
 19 39  1  0
 20 40  1  0
 21 41  1  0
 24 42  1  0
 25 43  1  0
 26 44  1  0
 27 45  1  0
 28 46  1  0
M  END
>  <meeko>  (105) 
{"is_sidechain": false}

$$$$

     RDKit          3D

 49 52  0  0  0  0  0  0  0  0999 V2000
   12.8750    6.6300  -60.1510 C   0  0  0  0  0  0  0  0  0  0  0  0
   12.3750    5.4360  -59.3960 C   0  0  0  0  0  0  0  0  0  0  0  0
   13.0890    4.9340  -58.3050 C   0  0  0  0  0  0  0  0  0  0  0  0
   12.6350    3.8010  -57.6220 C   0  0  0  0  0  0  0  0  0  0  0  0
   11.4660    3.1440  -58.0260 C   0  0  0  0  0  0  0  0  0  0  0  0
   11.0790    2.0140  -57.2870 N   0  0  0  0  0  0  0  0  0  0  0  0
    9.9590    1.8380  -56.4970 C   0  0  0  0  0  0  0  0  0  0  0  0
    9.0710    2.6570  -56.2950 O   0  0  0  0  0  0  0  0  0  0  0  0
    9.9310    0.4860  -55.8920 C   0  0  0  0  0  0  0  0  0  0  0  0
   10.7990   -0.4590  -56.2890 N   0  0  0  0  0  0  0  0  0  0  0  0
   10.4720   -1.5830  -55.5870 N   0  0  0  0  0  0  0  0  0  0  0  0
   11.1680   -2.7980  -55.8990 C   0  0  0  0  0  0  0  0  0  0  0  0
   11.6590   -2.9800  -57.2050 C   0  0  0  0  0  0  0  0  0  0  0  0
   12.3440   -4.1480  -57.5580 C   0  0  0  0  0  0  0  0  0  0  0  0
   12.5380   -5.1510  -56.6160 C   0  0  0  0  0  0  0  0  0  0  0  0
   12.0410   -4.9930  -55.3250 C   0  0  0  0  0  0  0  0  0  0  0  0
   11.3550   -3.8260  -54.9670 C   0  0  0  0  0  0  0  0  0  0  0  0
    9.4610   -1.3170  -54.6590 C   0  0  0  0  0  0  0  0  0  0  0  0
    8.9670   -2.2240  -53.6260 C   0  0  0  0  0  0  0  0  0  0  0  0
    9.5350   -2.2140  -52.3450 C   0  0  0  0  0  0  0  0  0  0  0  0
    9.0490   -3.0710  -51.3560 C   0  0  0  0  0  0  0  0  0  0  0  0
    7.9910   -3.9340  -51.6360 C   0  0  0  0  0  0  0  0  0  0  0  0
    7.4110   -3.9390  -52.9040 C   0  0  0  0  0  0  0  0  0  0  0  0
    7.8940   -3.0830  -53.8960 C   0  0  0  0  0  0  0  0  0  0  0  0
    9.0810    0.0060  -54.8640 C   0  0  0  0  0  0  0  0  0  0  0  0
    8.0390    0.7880  -54.1450 C   0  0  0  0  0  0  0  0  0  0  0  0
   10.7610    3.6360  -59.1230 C   0  0  0  0  0  0  0  0  0  0  0  0
   11.2150    4.7710  -59.8070 C   0  0  0  0  0  0  0  0  0  0  0  0
   13.1992    7.4041  -59.4399 H   0  0  0  0  0  0  0  0  0  0  0  0
   13.7249    6.3343  -60.7837 H   0  0  0  0  0  0  0  0  0  0  0  0
   12.0680    7.0281  -60.7837 H   0  0  0  0  0  0  0  0  0  0  0  0
   14.0142    5.4331  -57.9811 H   0  0  0  0  0  0  0  0  0  0  0  0
   13.2019    3.4221  -56.7588 H   0  0  0  0  0  0  0  0  0  0  0  0
   11.6810    1.1960  -57.3140 H   0  0  0  0  0  0  0  0  0  0  0  0
   11.5023   -2.1939  -57.9583 H   0  0  0  0  0  0  0  0  0  0  0  0
   12.7288   -4.2722  -58.5810 H   0  0  0  0  0  0  0  0  0  0  0  0
   13.0825   -6.0669  -56.8894 H   0  0  0  0  0  0  0  0  0  0  0  0
   12.1882   -5.7902  -54.5815 H   0  0  0  0  0  0  0  0  0  0  0  0
   10.9602   -3.7161  -53.9462 H   0  0  0  0  0  0  0  0  0  0  0  0
   10.3656   -1.5294  -52.1183 H   0  0  0  0  0  0  0  0  0  0  0  0
    9.5020   -3.0652  -50.3536 H   0  0  0  0  0  0  0  0  0  0  0  0
    7.6133   -4.6116  -50.8562 H   0  0  0  0  0  0  0  0  0  0  0  0
    6.5730   -4.6172  -53.1229 H   0  0  0  0  0  0  0  0  0  0  0  0
    7.4300   -3.0833  -54.8934 H   0  0  0  0  0  0  0  0  0  0  0  0
    8.1830    0.6799  -53.0598 H   0  0  0  0  0  0  0  0  0  0  0  0
    8.1209    1.8494  -54.4218 H   0  0  0  0  0  0  0  0  0  0  0  0
    7.0427    0.4127  -54.4218 H   0  0  0  0  0  0  0  0  0  0  0  0
    9.8421    3.1298  -59.4538 H   0  0  0  0  0  0  0  0  0  0  0  0
   10.6534    5.1433  -60.6765 H   0  0  0  0  0  0  0  0  0  0  0  0
  1  2  1  0
  2  3  1  0
  3  4  2  0
  4  5  1  0
  5  6  1  0
  6  7  1  0
  7  8  2  0
  7  9  1  0
  9 10  2  0
 10 11  1  0
 11 12  1  0
 12 13  2  0
 13 14  1  0
 14 15  2  0
 15 16  1  0
 16 17  2  0
 11 18  1  0
 18 19  1  0
 19 20  2  0
 20 21  1  0
 21 22  2  0
 22 23  1  0
 23 24  2  0
 18 25  2  0
 25 26  1  0
  5 27  2  0
 27 28  1  0
 28  2  2  0
 25  9  1  0
 17 12  1  0
 24 19  1  0
  1 29  1  0
  1 30  1  0
  1 31  1  0
  3 32  1  0
  4 33  1  0
  6 34  1  0
 13 35  1  0
 14 36  1  0
 15 37  1  0
 16 38  1  0
 17 39  1  0
 20 40  1  0
 21 41  1  0
 22 42  1  0
 23 43  1  0
 24 44  1  0
 26 45  1  0
 26 46  1  0
 26 47  1  0
 27 48  1  0
 28 49  1  0
M  END
>  <meeko>  (106) 
{"is_sidechain": false}

$$$$

     RDKit          3D

 46 49  0  0  0  0  0  0  0  0999 V2000
    9.6230    1.8280  -55.6640 C   0  0  0  0  0  0  0  0  0  0  0  0
    8.2970    1.5460  -56.2790 C   0  0  0  0  0  0  0  0  0  0  0  0
    7.2040    0.8480  -55.6930 C   0  0  0  0  0  0  0  0  0  0  0  0
    7.1440    0.1820  -54.3750 C   0  0  0  0  0  0  0  0  0  0  0  0
    6.4160    0.5890  -53.4770 O   0  0  0  0  0  0  0  0  0  0  0  0
    7.9730   -0.9300  -54.3070 N   0  0  0  0  0  0  0  0  0  0  0  0
    8.2000   -1.7710  -53.1990 C   0  0  0  0  0  0  0  0  0  0  0  0
    9.4650   -2.0670  -52.6870 C   0  0  0  0  0  0  0  0  0  0  0  0
    9.6080   -2.9180  -51.5860 C   0  0  0  0  0  0  0  0  0  0  0  0
    8.4850   -3.4840  -50.9870 C   0  0  0  0  0  0  0  0  0  0  0  0
    7.2220   -3.1940  -51.4950 C   0  0  0  0  0  0  0  0  0  0  0  0
    5.8280   -3.8910  -50.7640 Cl  0  0  0  0  0  0  0  0  0  0  0  0
    7.0750   -2.3450  -52.5940 C   0  0  0  0  0  0  0  0  0  0  0  0
    6.1400    0.8640  -56.5020 N   0  0  0  0  0  0  0  0  0  0  0  0
    6.5280    1.4950  -57.6410 N   0  0  0  0  0  0  0  0  0  0  0  0
    5.5980    1.5560  -58.7310 C   0  0  0  0  0  0  0  0  0  0  0  0
    4.4870    2.4130  -58.6220 C   0  0  0  0  0  0  0  0  0  0  0  0
    3.5510    2.5100  -59.6550 C   0  0  0  0  0  0  0  0  0  0  0  0
    3.7050    1.7460  -60.8070 C   0  0  0  0  0  0  0  0  0  0  0  0
    4.7890    0.8810  -60.9220 C   0  0  0  0  0  0  0  0  0  0  0  0
    5.7310    0.7800  -59.8890 C   0  0  0  0  0  0  0  0  0  0  0  0
    7.8380    1.9670  -57.5240 C   0  0  0  0  0  0  0  0  0  0  0  0
    8.5470    2.8260  -58.4700 C   0  0  0  0  0  0  0  0  0  0  0  0
    9.4570    2.2740  -59.3800 C   0  0  0  0  0  0  0  0  0  0  0  0
   10.1160    3.0930  -60.2990 C   0  0  0  0  0  0  0  0  0  0  0  0
    9.8630    4.4640  -60.3190 C   0  0  0  0  0  0  0  0  0  0  0  0
    8.9490    5.0190  -59.4240 C   0  0  0  0  0  0  0  0  0  0  0  0
    8.2870    4.2010  -58.5050 C   0  0  0  0  0  0  0  0  0  0  0  0
    9.5305    1.8083  -54.5681 H   0  0  0  0  0  0  0  0  0  0  0  0
   10.3460    1.0635  -55.9847 H   0  0  0  0  0  0  0  0  0  0  0  0
    9.9723    2.8205  -55.9847 H   0  0  0  0  0  0  0  0  0  0  0  0
    8.4160   -1.2000  -55.1750 H   0  0  0  0  0  0  0  0  0  0  0  0
   10.3581   -1.6265  -53.1542 H   0  0  0  0  0  0  0  0  0  0  0  0
   10.6105   -3.1409  -51.1920 H   0  0  0  0  0  0  0  0  0  0  0  0
    8.5952   -4.1535  -50.1212 H   0  0  0  0  0  0  0  0  0  0  0  0
    6.0709   -2.1261  -52.9863 H   0  0  0  0  0  0  0  0  0  0  0  0
    4.3536    3.0148  -57.7110 H   0  0  0  0  0  0  0  0  0  0  0  0
    2.6924    3.1906  -59.5571 H   0  0  0  0  0  0  0  0  0  0  0  0
    2.9728    1.8252  -61.6240 H   0  0  0  0  0  0  0  0  0  0  0  0
    4.9075    0.2720  -61.8303 H   0  0  0  0  0  0  0  0  0  0  0  0
    6.5796    0.0872  -59.9886 H   0  0  0  0  0  0  0  0  0  0  0  0
    9.6533    1.1917  -59.3708 H   0  0  0  0  0  0  0  0  0  0  0  0
   10.8352    2.6563  -61.0076 H   0  0  0  0  0  0  0  0  0  0  0  0
   10.3850    5.1085  -61.0416 H   0  0  0  0  0  0  0  0  0  0  0  0
    8.7493    6.1006  -59.4415 H   0  0  0  0  0  0  0  0  0  0  0  0
    7.5589    4.6390  -57.8065 H   0  0  0  0  0  0  0  0  0  0  0  0
  1  2  1  0
  2  3  1  0
  3  4  1  0
  4  5  2  0
  4  6  1  0
  6  7  1  0
  7  8  2  0
  8  9  1  0
  9 10  2  0
 10 11  1  0
 11 12  1  0
 11 13  2  0
  3 14  2  0
 14 15  1  0
 15 16  1  0
 16 17  2  0
 17 18  1  0
 18 19  2  0
 19 20  1  0
 20 21  2  0
 15 22  1  0
 22 23  1  0
 23 24  2  0
 24 25  1  0
 25 26  2  0
 26 27  1  0
 27 28  2  0
 22  2  2  0
 28 23  1  0
 13  7  1  0
 21 16  1  0
  1 29  1  0
  1 30  1  0
  1 31  1  0
  6 32  1  0
  8 33  1  0
  9 34  1  0
 10 35  1  0
 13 36  1  0
 17 37  1  0
 18 38  1  0
 19 39  1  0
 20 40  1  0
 21 41  1  0
 24 42  1  0
 25 43  1  0
 26 44  1  0
 27 45  1  0
 28 46  1  0
M  END
>  <meeko>  (107) 
{"is_sidechain": false}

$$$$

     RDKit          3D

 51 53  0  0  0  0  0  0  0  0999 V2000
   11.4600   -4.5550  -55.3120 C   0  0  0  0  0  0  0  0  0  0  0  0
   10.2110   -3.7740  -54.9280 C   0  0  0  0  0  0  0  0  0  0  0  0
   10.5120   -2.5090  -54.1210 C   0  0  0  0  0  0  0  0  0  0  0  0
    9.4130   -1.4940  -54.1550 C   0  0  0  0  0  0  0  0  0  0  0  0
    9.3290   -0.3150  -54.9660 C   0  0  0  0  0  0  0  0  0  0  0  0
   10.2820    0.1490  -55.9840 C   0  0  0  0  0  0  0  0  0  0  0  0
   11.3220   -0.4440  -56.2550 O   0  0  0  0  0  0  0  0  0  0  0  0
    9.8900    1.3160  -56.6150 N   0  0  0  0  0  0  0  0  0  0  0  0
   10.6350    1.8840  -57.7250 C   0  0  0  0  0  0  0  0  0  0  0  0
    9.6780    2.4360  -58.7900 C   0  0  0  0  0  0  0  0  0  0  0  0
   10.4330    3.1050  -59.9360 C   0  0  0  0  0  0  0  0  0  0  0  0
   11.3850    4.1840  -59.4300 C   0  0  0  0  0  0  0  0  0  0  0  0
   12.3400    3.6390  -58.3720 C   0  0  0  0  0  0  0  0  0  0  0  0
   11.5860    2.9760  -57.2230 C   0  0  0  0  0  0  0  0  0  0  0  0
    8.2100    0.3770  -54.6980 N   0  0  0  0  0  0  0  0  0  0  0  0
    7.5960   -0.3300  -53.7360 N   0  0  0  0  0  0  0  0  0  0  0  0
    6.3420    0.1540  -53.2050 C   0  0  0  0  0  0  0  0  0  0  0  0
    8.2650   -1.4710  -53.3730 C   0  0  0  0  0  0  0  0  0  0  0  0
    7.8040   -2.3960  -52.3450 C   0  0  0  0  0  0  0  0  0  0  0  0
    7.0010   -3.4880  -52.6910 C   0  0  0  0  0  0  0  0  0  0  0  0
    6.5570   -4.3730  -51.7060 C   0  0  0  0  0  0  0  0  0  0  0  0
    6.9160   -4.1720  -50.3730 C   0  0  0  0  0  0  0  0  0  0  0  0
    7.7210   -3.0880  -50.0240 C   0  0  0  0  0  0  0  0  0  0  0  0
    8.1640   -2.2020  -51.0070 C   0  0  0  0  0  0  0  0  0  0  0  0
   11.9826   -4.8818  -54.4009 H   0  0  0  0  0  0  0  0  0  0  0  0
   11.1738   -5.4353  -55.9063 H   0  0  0  0  0  0  0  0  0  0  0  0
   12.1261   -3.9122  -55.9063 H   0  0  0  0  0  0  0  0  0  0  0  0
    9.6841   -3.4835  -55.8488 H   0  0  0  0  0  0  0  0  0  0  0  0
    9.6002   -4.4297  -54.2900 H   0  0  0  0  0  0  0  0  0  0  0  0
   10.6841   -2.7986  -53.0739 H   0  0  0  0  0  0  0  0  0  0  0  0
   11.3951   -2.0398  -54.5792 H   0  0  0  0  0  0  0  0  0  0  0  0
    9.0160    1.7380  -56.3300 H   0  0  0  0  0  0  0  0  0  0  0  0
   11.2372    1.0891  -58.1891 H   0  0  0  0  0  0  0  0  0  0  0  0
    9.0782    1.6072  -59.1942 H   0  0  0  0  0  0  0  0  0  0  0  0
    9.0360    3.1924  -58.3149 H   0  0  0  0  0  0  0  0  0  0  0  0
   11.0134    2.3413  -60.4744 H   0  0  0  0  0  0  0  0  0  0  0  0
    9.6967    3.5811  -60.6002 H   0  0  0  0  0  0  0  0  0  0  0  0
   11.9722    4.5679  -60.2772 H   0  0  0  0  0  0  0  0  0  0  0  0
   10.7855    4.9849  -58.9727 H   0  0  0  0  0  0  0  0  0  0  0  0
   13.0039    2.8965  -58.8389 H   0  0  0  0  0  0  0  0  0  0  0  0
   12.9181    4.4811  -57.9637 H   0  0  0  0  0  0  0  0  0  0  0  0
   12.3136    2.5252  -56.5321 H   0  0  0  0  0  0  0  0  0  0  0  0
   10.9866    3.7465  -56.7161 H   0  0  0  0  0  0  0  0  0  0  0  0
    6.3793    0.1396  -52.1057 H   0  0  0  0  0  0  0  0  0  0  0  0
    6.1695    1.1833  -53.5526 H   0  0  0  0  0  0  0  0  0  0  0  0
    5.5227   -0.4925  -53.5526 H   0  0  0  0  0  0  0  0  0  0  0  0
    6.7185   -3.6501  -53.7417 H   0  0  0  0  0  0  0  0  0  0  0  0
    5.9237   -5.2292  -51.9815 H   0  0  0  0  0  0  0  0  0  0  0  0
    6.5642   -4.8683  -49.5975 H   0  0  0  0  0  0  0  0  0  0  0  0
    8.0069   -2.9313  -48.9734 H   0  0  0  0  0  0  0  0  0  0  0  0
    8.7987   -1.3478  -50.7288 H   0  0  0  0  0  0  0  0  0  0  0  0
  1  2  1  0
  2  3  1  0
  3  4  1  0
  4  5  1  0
  5  6  1  0
  6  7  2  0
  6  8  1  0
  8  9  1  0
  9 10  1  0
 10 11  1  0
 11 12  1  0
 12 13  1  0
 13 14  1  0
  5 15  2  0
 15 16  1  0
 16 17  1  0
 16 18  1  0
 18 19  1  0
 19 20  2  0
 20 21  1  0
 21 22  2  0
 22 23  1  0
 23 24  2  0
 18  4  2  0
 24 19  1  0
 14  9  1  0
  1 25  1  0
  1 26  1  0
  1 27  1  0
  2 28  1  0
  2 29  1  0
  3 30  1  0
  3 31  1  0
  8 32  1  0
  9 33  1  0
 10 34  1  0
 10 35  1  0
 11 36  1  0
 11 37  1  0
 12 38  1  0
 12 39  1  0
 13 40  1  0
 13 41  1  0
 14 42  1  0
 14 43  1  0
 17 44  1  0
 17 45  1  0
 17 46  1  0
 20 47  1  0
 21 48  1  0
 22 49  1  0
 23 50  1  0
 24 51  1  0
M  END
>  <meeko>  (108) 
{"is_sidechain": false}

$$$$

     RDKit          3D

 45 47  0  0  0  0  0  0  0  0999 V2000
    9.2280    3.0490  -61.3330 C   0  0  0  0  0  0  0  0  0  0  0  0
    9.1250    3.1680  -59.8560 C   0  0  0  0  0  0  0  0  0  0  0  0
    8.0990    2.6470  -59.0000 C   0  0  0  0  0  0  0  0  0  0  0  0
    6.8730    1.9180  -59.3790 C   0  0  0  0  0  0  0  0  0  0  0  0
    6.4080    0.9900  -58.7230 O   0  0  0  0  0  0  0  0  0  0  0  0
    6.2790    2.3780  -60.5430 N   0  0  0  0  0  0  0  0  0  0  0  0
    5.1150    1.7320  -61.1250 C   0  0  0  0  0  0  0  0  0  0  0  0
    3.8750    1.9500  -60.2430 C   0  0  0  0  0  0  0  0  0  0  0  0
    2.5530    1.8580  -61.0100 C   0  0  0  0  0  0  0  0  0  0  0  0
    2.6640    0.9670  -62.2370 C   0  0  0  0  0  0  0  0  0  0  0  0
    3.7110    1.4870  -63.2220 C   0  0  0  0  0  0  0  0  0  0  0  0
    4.8700    2.2290  -62.5520 C   0  0  0  0  0  0  0  0  0  0  0  0
    8.3780    2.9030  -57.7110 N   0  0  0  0  0  0  0  0  0  0  0  0
    9.5340    3.5830  -57.7380 N   0  0  0  0  0  0  0  0  0  0  0  0
   10.1070    4.0330  -56.4890 C   0  0  0  0  0  0  0  0  0  0  0  0
   10.0350    3.7760  -59.0010 C   0  0  0  0  0  0  0  0  0  0  0  0
   11.2830    4.4720  -59.2920 C   0  0  0  0  0  0  0  0  0  0  0  0
   12.5070    3.8140  -59.1320 C   0  0  0  0  0  0  0  0  0  0  0  0
   13.7040    4.4770  -59.4110 C   0  0  0  0  0  0  0  0  0  0  0  0
   13.6820    5.8020  -59.8460 C   0  0  0  0  0  0  0  0  0  0  0  0
   12.4660    6.4650  -60.0010 C   0  0  0  0  0  0  0  0  0  0  0  0
   11.2690    5.8030  -59.7220 C   0  0  0  0  0  0  0  0  0  0  0  0
    9.9283    2.2399  -61.5877 H   0  0  0  0  0  0  0  0  0  0  0  0
    8.2369    2.8217  -61.7525 H   0  0  0  0  0  0  0  0  0  0  0  0
    9.5951    3.9973  -61.7525 H   0  0  0  0  0  0  0  0  0  0  0  0
    6.6980    3.1670  -61.0150 H   0  0  0  0  0  0  0  0  0  0  0  0
    5.3114    0.6508  -61.1750 H   0  0  0  0  0  0  0  0  0  0  0  0
    3.8721    1.1854  -59.4521 H   0  0  0  0  0  0  0  0  0  0  0  0
    3.9426    2.9706  -59.8382 H   0  0  0  0  0  0  0  0  0  0  0  0
    1.7829    1.4462  -60.3412 H   0  0  0  0  0  0  0  0  0  0  0  0
    2.2874    2.8700  -61.3494 H   0  0  0  0  0  0  0  0  0  0  0  0
    2.9482   -0.0463  -61.9169 H   0  0  0  0  0  0  0  0  0  0  0  0
    1.6886    0.9614  -62.7454 H   0  0  0  0  0  0  0  0  0  0  0  0
    4.1214    0.6306  -63.7771 H   0  0  0  0  0  0  0  0  0  0  0  0
    3.2040    2.2087  -63.8794 H   0  0  0  0  0  0  0  0  0  0  0  0
    5.7831    2.0725  -63.1451 H   0  0  0  0  0  0  0  0  0  0  0  0
    4.6088    3.2964  -62.5018 H   0  0  0  0  0  0  0  0  0  0  0  0
    9.5478    3.5938  -55.6497 H   0  0  0  0  0  0  0  0  0  0  0  0
   11.1593    3.7174  -56.4336 H   0  0  0  0  0  0  0  0  0  0  0  0
   10.0498    5.1301  -56.4336 H   0  0  0  0  0  0  0  0  0  0  0  0
   12.5267    2.7703  -58.7851 H   0  0  0  0  0  0  0  0  0  0  0  0
   14.6640    3.9543  -59.2877 H   0  0  0  0  0  0  0  0  0  0  0  0
   14.6248    6.3239  -60.0668 H   0  0  0  0  0  0  0  0  0  0  0  0
   12.4494    7.5103  -60.3433 H   0  0  0  0  0  0  0  0  0  0  0  0
   10.3109    6.3302  -59.8408 H   0  0  0  0  0  0  0  0  0  0  0  0
  1  2  1  0
  2  3  1  0
  3  4  1  0
  4  5  2  0
  4  6  1  0
  6  7  1  0
  7  8  1  0
  8  9  1  0
  9 10  1  0
 10 11  1  0
 11 12  1  0
  3 13  2  0
 13 14  1  0
 14 15  1  0
 14 16  1  0
 16 17  1  0
 17 18  2  0
 18 19  1  0
 19 20  2  0
 20 21  1  0
 21 22  2  0
 16  2  2  0
 22 17  1  0
 12  7  1  0
  1 23  1  0
  1 24  1  0
  1 25  1  0
  6 26  1  0
  7 27  1  0
  8 28  1  0
  8 29  1  0
  9 30  1  0
  9 31  1  0
 10 32  1  0
 10 33  1  0
 11 34  1  0
 11 35  1  0
 12 36  1  0
 12 37  1  0
 15 38  1  0
 15 39  1  0
 15 40  1  0
 18 41  1  0
 19 42  1  0
 20 43  1  0
 21 44  1  0
 22 45  1  0
M  END
>  <meeko>  (109) 
{"is_sidechain": false}

$$$$

     RDKit          3D

 48 50  0  0  0  0  0  0  0  0999 V2000
    9.8520    3.3850  -61.4830 C   0  0  0  0  0  0  0  0  0  0  0  0
    8.3960    3.0100  -61.2620 C   0  0  0  0  0  0  0  0  0  0  0  0
    7.6950    4.0090  -60.3400 C   0  0  0  0  0  0  0  0  0  0  0  0
    7.3850    3.4250  -58.9980 C   0  0  0  0  0  0  0  0  0  0  0  0
    8.1170    3.6000  -57.7830 C   0  0  0  0  0  0  0  0  0  0  0  0
    9.3400    4.3960  -57.5590 C   0  0  0  0  0  0  0  0  0  0  0  0
    9.3890    5.3800  -56.8250 O   0  0  0  0  0  0  0  0  0  0  0  0
   10.4230    3.9280  -58.2740 N   0  0  0  0  0  0  0  0  0  0  0  0
   11.6620    4.6540  -58.3700 C   0  0  0  0  0  0  0  0  0  0  0  0
   11.5710    5.8580  -59.3060 C   0  0  0  0  0  0  0  0  0  0  0  0
   13.0040    6.1070  -59.7790 C   0  0  0  0  0  0  0  0  0  0  0  0
   13.8120    4.8750  -59.3760 C   0  0  0  0  0  0  0  0  0  0  0  0
   12.7820    3.8260  -58.9880 C   0  0  0  0  0  0  0  0  0  0  0  0
    7.5510    2.9090  -56.7700 N   0  0  0  0  0  0  0  0  0  0  0  0
    6.4750    2.3250  -57.3280 N   0  0  0  0  0  0  0  0  0  0  0  0
    5.6090    1.5140  -56.5020 C   0  0  0  0  0  0  0  0  0  0  0  0
    6.3300    2.5880  -58.6660 C   0  0  0  0  0  0  0  0  0  0  0  0
    5.2490    2.0580  -59.4890 C   0  0  0  0  0  0  0  0  0  0  0  0
    5.4570    0.9220  -60.2780 C   0  0  0  0  0  0  0  0  0  0  0  0
    4.4230    0.4160  -61.0680 C   0  0  0  0  0  0  0  0  0  0  0  0
    3.1780    1.0430  -61.0710 C   0  0  0  0  0  0  0  0  0  0  0  0
    2.9620    2.1720  -60.2820 C   0  0  0  0  0  0  0  0  0  0  0  0
    3.9950    2.6790  -59.4910 C   0  0  0  0  0  0  0  0  0  0  0  0
   10.3494    3.5131  -60.5103 H   0  0  0  0  0  0  0  0  0  0  0  0
   10.3543    2.5869  -62.0494 H   0  0  0  0  0  0  0  0  0  0  0  0
    9.9063    4.3264  -62.0494 H   0  0  0  0  0  0  0  0  0  0  0  0
    7.8790    2.9956  -62.2328 H   0  0  0  0  0  0  0  0  0  0  0  0
    8.3627    2.0186  -60.7866 H   0  0  0  0  0  0  0  0  0  0  0  0
    8.3493    4.8825  -60.2027 H   0  0  0  0  0  0  0  0  0  0  0  0
    6.7420    4.2900  -60.8121 H   0  0  0  0  0  0  0  0  0  0  0  0
   10.1940    3.1880  -58.9340 H   0  0  0  0  0  0  0  0  0  0  0  0
   11.8652    4.9387  -57.3271 H   0  0  0  0  0  0  0  0  0  0  0  0
   10.9161    5.6335  -60.1608 H   0  0  0  0  0  0  0  0  0  0  0  0
   11.1451    6.7387  -58.8030 H   0  0  0  0  0  0  0  0  0  0  0  0
   13.0270    6.2364  -60.8711 H   0  0  0  0  0  0  0  0  0  0  0  0
   13.4192    7.0207  -59.3287 H   0  0  0  0  0  0  0  0  0  0  0  0
   14.4220    4.5216  -60.2204 H   0  0  0  0  0  0  0  0  0  0  0  0
   14.5054    5.0926  -58.5503 H   0  0  0  0  0  0  0  0  0  0  0  0
   12.4255    3.2766  -59.8718 H   0  0  0  0  0  0  0  0  0  0  0  0
   13.1803    3.0600  -58.3064 H   0  0  0  0  0  0  0  0  0  0  0  0
    5.8219    1.7133  -55.4414 H   0  0  0  0  0  0  0  0  0  0  0  0
    4.5592    1.7613  -56.7181 H   0  0  0  0  0  0  0  0  0  0  0  0
    5.7870    0.4502  -56.7181 H   0  0  0  0  0  0  0  0  0  0  0  0
    6.4386    0.4255  -60.2761 H   0  0  0  0  0  0  0  0  0  0  0  0
    4.5907   -0.4771  -61.6878 H   0  0  0  0  0  0  0  0  0  0  0  0
    2.3648    0.6465  -61.6967 H   0  0  0  0  0  0  0  0  0  0  0  0
    1.9778    2.6634  -60.2826 H   0  0  0  0  0  0  0  0  0  0  0  0
    3.8226    3.5689  -58.8678 H   0  0  0  0  0  0  0  0  0  0  0  0
  1  2  1  0
  2  3  1  0
  3  4  1  0
  4  5  1  0
  5  6  1  0
  6  7  2  0
  6  8  1  0
  8  9  1  0
  9 10  1  0
 10 11  1  0
 11 12  1  0
 12 13  1  0
  5 14  2  0
 14 15  1  0
 15 16  1  0
 15 17  1  0
 17 18  1  0
 18 19  2  0
 19 20  1  0
 20 21  2  0
 21 22  1  0
 22 23  2  0
 17  4  2  0
 23 18  1  0
 13  9  1  0
  1 24  1  0
  1 25  1  0
  1 26  1  0
  2 27  1  0
  2 28  1  0
  3 29  1  0
  3 30  1  0
  8 31  1  0
  9 32  1  0
 10 33  1  0
 10 34  1  0
 11 35  1  0
 11 36  1  0
 12 37  1  0
 12 38  1  0
 13 39  1  0
 13 40  1  0
 16 41  1  0
 16 42  1  0
 16 43  1  0
 19 44  1  0
 20 45  1  0
 21 46  1  0
 22 47  1  0
 23 48  1  0
M  END
>  <meeko>  (110) 
{"is_sidechain": false}

$$$$

     RDKit          3D

 48 50  0  0  0  0  0  0  0  0999 V2000
   10.8630   -3.1760  -54.3900 C   0  0  0  0  0  0  0  0  0  0  0  0
   10.6870   -1.8190  -53.7230 C   0  0  0  0  0  0  0  0  0  0  0  0
    9.3520   -1.2020  -53.9960 C   0  0  0  0  0  0  0  0  0  0  0  0
    9.0370   -0.1480  -54.9170 C   0  0  0  0  0  0  0  0  0  0  0  0
    9.9330    0.5600  -55.8530 C   0  0  0  0  0  0  0  0  0  0  0  0
   10.9430    0.0520  -56.3330 O   0  0  0  0  0  0  0  0  0  0  0  0
    9.5520    1.8640  -56.1220 N   0  0  0  0  0  0  0  0  0  0  0  0
   10.3520    2.7420  -56.9680 C   0  0  0  0  0  0  0  0  0  0  0  0
    9.8700    2.6960  -58.4220 C   0  0  0  0  0  0  0  0  0  0  0  0
    8.4580    3.2610  -58.6030 C   0  0  0  0  0  0  0  0  0  0  0  0
    8.0980    4.3530  -57.5960 C   0  0  0  0  0  0  0  0  0  0  0  0
    9.3270    5.1050  -57.1090 C   0  0  0  0  0  0  0  0  0  0  0  0
   10.3450    4.1830  -56.4290 C   0  0  0  0  0  0  0  0  0  0  0  0
    7.7330    0.1680  -54.8530 N   0  0  0  0  0  0  0  0  0  0  0  0
    7.2300   -0.6380  -53.9080 N   0  0  0  0  0  0  0  0  0  0  0  0
    5.8340   -0.5130  -53.5540 C   0  0  0  0  0  0  0  0  0  0  0  0
    8.1480   -1.5060  -53.3720 C   0  0  0  0  0  0  0  0  0  0  0  0
    7.8380   -2.4800  -52.3330 C   0  0  0  0  0  0  0  0  0  0  0  0
    7.4290   -3.7750  -52.6780 C   0  0  0  0  0  0  0  0  0  0  0  0
    7.1320   -4.7060  -51.6810 C   0  0  0  0  0  0  0  0  0  0  0  0
    7.2410   -4.3500  -50.3370 C   0  0  0  0  0  0  0  0  0  0  0  0
    7.6520   -3.0640  -49.9880 C   0  0  0  0  0  0  0  0  0  0  0  0
    7.9500   -2.1320  -50.9830 C   0  0  0  0  0  0  0  0  0  0  0  0
   10.9638   -3.9535  -53.6184 H   0  0  0  0  0  0  0  0  0  0  0  0
    9.9855   -3.3931  -55.0168 H   0  0  0  0  0  0  0  0  0  0  0  0
   11.7669   -3.1620  -55.0168 H   0  0  0  0  0  0  0  0  0  0  0  0
   10.7989   -1.9456  -52.6361 H   0  0  0  0  0  0  0  0  0  0  0  0
   11.4515   -1.1464  -54.1391 H   0  0  0  0  0  0  0  0  0  0  0  0
    8.7840    2.2490  -55.5920 H   0  0  0  0  0  0  0  0  0  0  0  0
   11.3897    2.3778  -56.9461 H   0  0  0  0  0  0  0  0  0  0  0  0
   10.5645    3.2837  -59.0402 H   0  0  0  0  0  0  0  0  0  0  0  0
    9.8428    1.6392  -58.7262 H   0  0  0  0  0  0  0  0  0  0  0  0
    8.3805    3.6835  -59.6156 H   0  0  0  0  0  0  0  0  0  0  0  0
    7.7564    2.4298  -58.4395 H   0  0  0  0  0  0  0  0  0  0  0  0
    7.4118    5.0665  -58.0757 H   0  0  0  0  0  0  0  0  0  0  0  0
    7.6267    3.8718  -56.7263 H   0  0  0  0  0  0  0  0  0  0  0  0
    9.8094    5.5891  -57.9709 H   0  0  0  0  0  0  0  0  0  0  0  0
    8.9949    5.8442  -56.3652 H   0  0  0  0  0  0  0  0  0  0  0  0
   11.3481    4.6103  -56.5746 H   0  0  0  0  0  0  0  0  0  0  0  0
   10.0565    4.1219  -55.3693 H   0  0  0  0  0  0  0  0  0  0  0  0
    5.7329   -0.5039  -52.4587 H   0  0  0  0  0  0  0  0  0  0  0  0
    5.4335    0.4246  -53.9670 H   0  0  0  0  0  0  0  0  0  0  0  0
    5.2733   -1.3645  -53.9670 H   0  0  0  0  0  0  0  0  0  0  0  0
    7.3417   -4.0588  -53.7372 H   0  0  0  0  0  0  0  0  0  0  0  0
    6.8116   -5.7218  -51.9559 H   0  0  0  0  0  0  0  0  0  0  0  0
    7.0028   -5.0834  -49.5525 H   0  0  0  0  0  0  0  0  0  0  0  0
    7.7414   -2.7841  -48.9280 H   0  0  0  0  0  0  0  0  0  0  0  0
    8.2746   -1.1186  -50.7042 H   0  0  0  0  0  0  0  0  0  0  0  0
  1  2  1  0
  2  3  1  0
  3  4  1  0
  4  5  1  0
  5  6  2  0
  5  7  1  0
  7  8  1  0
  8  9  1  0
  9 10  1  0
 10 11  1  0
 11 12  1  0
 12 13  1  0
  4 14  2  0
 14 15  1  0
 15 16  1  0
 15 17  1  0
 17 18  1  0
 18 19  2  0
 19 20  1  0
 20 21  2  0
 21 22  1  0
 22 23  2  0
 17  3  2  0
 23 18  1  0
 13  8  1  0
  1 24  1  0
  1 25  1  0
  1 26  1  0
  2 27  1  0
  2 28  1  0
  7 29  1  0
  8 30  1  0
  9 31  1  0
  9 32  1  0
 10 33  1  0
 10 34  1  0
 11 35  1  0
 11 36  1  0
 12 37  1  0
 12 38  1  0
 13 39  1  0
 13 40  1  0
 16 41  1  0
 16 42  1  0
 16 43  1  0
 19 44  1  0
 20 45  1  0
 21 46  1  0
 22 47  1  0
 23 48  1  0
M  END
>  <meeko>  (111) 
{"is_sidechain": false}

$$$$

     RDKit          3D

 47 48  0  0  0  0  0  0  0  0999 V2000
   12.6750    7.0030  -60.3240 C   0  0  0  0  0  0  0  0  0  0  0  0
   12.0590    5.7280  -59.7710 C   0  0  0  0  0  0  0  0  0  0  0  0
   13.0610    4.8340  -59.0380 C   0  0  0  0  0  0  0  0  0  0  0  0
   12.6510    4.5190  -57.6010 C   0  0  0  0  0  0  0  0  0  0  0  0
   11.3130    3.9820  -57.5410 N   0  0  0  0  0  0  0  0  0  0  0  0
   11.0350    2.6740  -57.2080 C   0  0  0  0  0  0  0  0  0  0  0  0
   11.8940    1.8710  -56.8530 O   0  0  0  0  0  0  0  0  0  0  0  0
    9.6000    2.3430  -57.3340 C   0  0  0  0  0  0  0  0  0  0  0  0
    8.9530    1.7270  -56.3210 N   0  0  0  0  0  0  0  0  0  0  0  0
    7.6920    1.5880  -56.7650 N   0  0  0  0  0  0  0  0  0  0  0  0
    6.7080    0.9740  -55.9040 C   0  0  0  0  0  0  0  0  0  0  0  0
    7.4920    2.0740  -58.0320 C   0  0  0  0  0  0  0  0  0  0  0  0
    6.2110    2.0290  -58.7300 C   0  0  0  0  0  0  0  0  0  0  0  0
    5.1310    2.7920  -58.2730 C   0  0  0  0  0  0  0  0  0  0  0  0
    3.9080    2.7510  -58.9440 C   0  0  0  0  0  0  0  0  0  0  0  0
    3.7580    1.9470  -60.0740 C   0  0  0  0  0  0  0  0  0  0  0  0
    4.8300    1.1800  -60.5310 C   0  0  0  0  0  0  0  0  0  0  0  0
    6.0540    1.2200  -59.8600 C   0  0  0  0  0  0  0  0  0  0  0  0
    8.7190    2.5840  -58.4360 C   0  0  0  0  0  0  0  0  0  0  0  0
    9.0380    3.2370  -59.7450 C   0  0  0  0  0  0  0  0  0  0  0  0
    8.2530    4.5270  -60.0000 C   0  0  0  0  0  0  0  0  0  0  0  0
    8.3720    5.5420  -58.8720 C   0  0  0  0  0  0  0  0  0  0  0  0
   12.9877    7.6502  -59.4913 H   0  0  0  0  0  0  0  0  0  0  0  0
   13.5502    6.7500  -60.9404 H   0  0  0  0  0  0  0  0  0  0  0  0
   11.9328    7.5314  -60.9404 H   0  0  0  0  0  0  0  0  0  0  0  0
   11.2595    6.0042  -59.0678 H   0  0  0  0  0  0  0  0  0  0  0  0
   11.6800    5.1533  -60.6290 H   0  0  0  0  0  0  0  0  0  0  0  0
   13.1533    3.8872  -59.5903 H   0  0  0  0  0  0  0  0  0  0  0  0
   14.0138    5.3818  -58.9923 H   0  0  0  0  0  0  0  0  0  0  0  0
   13.3517    3.7816  -57.1824 H   0  0  0  0  0  0  0  0  0  0  0  0
   12.6753    5.4535  -57.0213 H   0  0  0  0  0  0  0  0  0  0  0  0
   10.5160    4.5140  -57.8840 H   0  0  0  0  0  0  0  0  0  0  0  0
    6.9827    1.1454  -54.8527 H   0  0  0  0  0  0  0  0  0  0  0  0
    5.7205    1.4165  -56.1018 H   0  0  0  0  0  0  0  0  0  0  0  0
    6.6715   -0.1075  -56.1018 H   0  0  0  0  0  0  0  0  0  0  0  0
    5.2462    3.4264  -57.3818 H   0  0  0  0  0  0  0  0  0  0  0  0
    3.0618    3.3531  -58.5816 H   0  0  0  0  0  0  0  0  0  0  0  0
    2.7948    1.9178  -60.6046 H   0  0  0  0  0  0  0  0  0  0  0  0
    4.7110    0.5435  -61.4202 H   0  0  0  0  0  0  0  0  0  0  0  0
    6.8974    0.6133  -60.2214 H   0  0  0  0  0  0  0  0  0  0  0  0
   10.1117    3.4756  -59.7610 H   0  0  0  0  0  0  0  0  0  0  0  0
    8.7526    2.5269  -60.5351 H   0  0  0  0  0  0  0  0  0  0  0  0
    8.6309    4.9878  -60.9246 H   0  0  0  0  0  0  0  0  0  0  0  0
    7.1911    4.2504  -60.0762 H   0  0  0  0  0  0  0  0  0  0  0  0
    8.3112    5.0232  -57.9040 H   0  0  0  0  0  0  0  0  0  0  0  0
    9.3374    6.0636  -58.9484 H   0  0  0  0  0  0  0  0  0  0  0  0
    7.5534    6.2728  -58.9484 H   0  0  0  0  0  0  0  0  0  0  0  0
  1  2  1  0
  2  3  1  0
  3  4  1  0
  4  5  1  0
  5  6  1  0
  6  7  2  0
  6  8  1  0
  8  9  2  0
  9 10  1  0
 10 11  1  0
 10 12  1  0
 12 13  1  0
 13 14  2  0
 14 15  1  0
 15 16  2  0
 16 17  1  0
 17 18  2  0
 12 19  2  0
 19 20  1  0
 20 21  1  0
 21 22  1  0
 19  8  1  0
 18 13  1  0
  1 23  1  0
  1 24  1  0
  1 25  1  0
  2 26  1  0
  2 27  1  0
  3 28  1  0
  3 29  1  0
  4 30  1  0
  4 31  1  0
  5 32  1  0
 11 33  1  0
 11 34  1  0
 11 35  1  0
 14 36  1  0
 15 37  1  0
 16 38  1  0
 17 39  1  0
 18 40  1  0
 20 41  1  0
 20 42  1  0
 21 43  1  0
 21 44  1  0
 22 45  1  0
 22 46  1  0
 22 47  1  0
M  END
>  <meeko>  (112) 
{"is_sidechain": false}

$$$$

     RDKit          3D

 42 44  0  0  0  0  0  0  0  0999 V2000
    5.7740    1.9050  -56.7820 C   0  0  0  0  0  0  0  0  0  0  0  0
    7.0230    1.4420  -56.2210 N   0  0  0  0  0  0  0  0  0  0  0  0
    7.0000    0.4130  -55.3480 N   0  0  0  0  0  0  0  0  0  0  0  0
    8.3010    0.1820  -55.0780 C   0  0  0  0  0  0  0  0  0  0  0  0
    8.7300   -0.8870  -54.1630 C   0  0  0  0  0  0  0  0  0  0  0  0
    9.9090   -1.1160  -53.9080 O   0  0  0  0  0  0  0  0  0  0  0  0
    7.6740   -1.5870  -53.6190 N   0  0  0  0  0  0  0  0  0  0  0  0
    7.8340   -2.5460  -52.5440 C   0  0  0  0  0  0  0  0  0  0  0  0
    7.7780   -1.8590  -51.1770 C   0  0  0  0  0  0  0  0  0  0  0  0
    8.0440   -2.8420  -50.0340 C   0  0  0  0  0  0  0  0  0  0  0  0
    7.6350   -4.2800  -50.3540 C   0  0  0  0  0  0  0  0  0  0  0  0
    6.4560   -4.3310  -51.3160 C   0  0  0  0  0  0  0  0  0  0  0  0
    6.7740   -3.6550  -52.6510 C   0  0  0  0  0  0  0  0  0  0  0  0
    9.1320    1.0940  -55.7730 C   0  0  0  0  0  0  0  0  0  0  0  0
    8.2860    1.9180  -56.4880 C   0  0  0  0  0  0  0  0  0  0  0  0
    8.5980    3.0340  -57.3730 C   0  0  0  0  0  0  0  0  0  0  0  0
    8.8970    2.7970  -58.7200 C   0  0  0  0  0  0  0  0  0  0  0  0
    9.1970    3.8600  -59.5750 C   0  0  0  0  0  0  0  0  0  0  0  0
    9.2090    5.1650  -59.0870 C   0  0  0  0  0  0  0  0  0  0  0  0
    8.9250    5.4100  -57.7450 C   0  0  0  0  0  0  0  0  0  0  0  0
    8.6230    4.3480  -56.8900 C   0  0  0  0  0  0  0  0  0  0  0  0
    5.0797    2.1624  -55.9685 H   0  0  0  0  0  0  0  0  0  0  0  0
    5.9580    2.7946  -57.4022 H   0  0  0  0  0  0  0  0  0  0  0  0
    5.3337    1.1104  -57.4022 H   0  0  0  0  0  0  0  0  0  0  0  0
    6.7610   -1.1900  -53.8290 H   0  0  0  0  0  0  0  0  0  0  0  0
    8.8274   -3.0084  -52.6410 H   0  0  0  0  0  0  0  0  0  0  0  0
    8.5378   -1.0642  -51.1468 H   0  0  0  0  0  0  0  0  0  0  0  0
    6.7673   -1.4459  -51.0437 H   0  0  0  0  0  0  0  0  0  0  0  0
    9.1204   -2.8290  -49.8079 H   0  0  0  0  0  0  0  0  0  0  0  0
    7.4324   -2.5158  -49.1799 H   0  0  0  0  0  0  0  0  0  0  0  0
    8.4899   -4.8003  -50.8105 H   0  0  0  0  0  0  0  0  0  0  0  0
    7.3319   -4.7666  -49.4152 H   0  0  0  0  0  0  0  0  0  0  0  0
    6.1967   -5.3833  -51.5040 H   0  0  0  0  0  0  0  0  0  0  0  0
    5.6172   -3.7902  -50.8534 H   0  0  0  0  0  0  0  0  0  0  0  0
    7.1418   -4.4210  -53.3495 H   0  0  0  0  0  0  0  0  0  0  0  0
    5.8454   -3.1802  -53.0007 H   0  0  0  0  0  0  0  0  0  0  0  0
   10.2309    1.1372  -55.7482 H   0  0  0  0  0  0  0  0  0  0  0  0
    8.8957    1.7675  -59.1074 H   0  0  0  0  0  0  0  0  0  0  0  0
    9.4238    3.6668  -60.6339 H   0  0  0  0  0  0  0  0  0  0  0  0
    9.4427    6.0021  -59.7613 H   0  0  0  0  0  0  0  0  0  0  0  0
    8.9387    6.4400  -57.3591 H   0  0  0  0  0  0  0  0  0  0  0  0
    8.4034    4.5450  -55.8303 H   0  0  0  0  0  0  0  0  0  0  0  0
  1  2  1  0
  2  3  1  0
  3  4  2  0
  4  5  1  0
  5  6  2  0
  5  7  1  0
  7  8  1  0
  8  9  1  0
  9 10  1  0
 10 11  1  0
 11 12  1  0
 12 13  1  0
  4 14  1  0
 14 15  2  0
 15 16  1  0
 16 17  2  0
 17 18  1  0
 18 19  2  0
 19 20  1  0
 20 21  2  0
 15  2  1  0
 21 16  1  0
 13  8  1  0
  1 22  1  0
  1 23  1  0
  1 24  1  0
  7 25  1  0
  8 26  1  0
  9 27  1  0
  9 28  1  0
 10 29  1  0
 10 30  1  0
 11 31  1  0
 11 32  1  0
 12 33  1  0
 12 34  1  0
 13 35  1  0
 13 36  1  0
 14 37  1  0
 17 38  1  0
 18 39  1  0
 19 40  1  0
 20 41  1  0
 21 42  1  0
M  END
>  <meeko>  (113) 
{"is_sidechain": false}

$$$$

     RDKit          3D

 42 44  0  0  0  0  0  0  0  0999 V2000
    9.6810    3.9080  -56.2530 C   0  0  0  0  0  0  0  0  0  0  0  0
    9.2550    3.4170  -57.5890 C   0  0  0  0  0  0  0  0  0  0  0  0
    8.0890    2.6460  -57.8820 C   0  0  0  0  0  0  0  0  0  0  0  0
    7.0610    2.1650  -56.9370 C   0  0  0  0  0  0  0  0  0  0  0  0
    5.9370    2.6530  -56.8550 O   0  0  0  0  0  0  0  0  0  0  0  0
    7.4950    1.1100  -56.1670 N   0  0  0  0  0  0  0  0  0  0  0  0
    6.6200    0.3520  -55.3150 C   0  0  0  0  0  0  0  0  0  0  0  0
    7.3800   -0.7140  -54.5700 C   0  0  0  0  0  0  0  0  0  0  0  0
    6.8020   -1.9670  -54.3230 C   0  0  0  0  0  0  0  0  0  0  0  0
    7.5040   -2.9430  -53.6140 C   0  0  0  0  0  0  0  0  0  0  0  0
    8.7860   -2.6750  -53.1400 C   0  0  0  0  0  0  0  0  0  0  0  0
    9.3670   -1.4290  -53.3680 C   0  0  0  0  0  0  0  0  0  0  0  0
    8.6670   -0.4510  -54.0770 C   0  0  0  0  0  0  0  0  0  0  0  0
    7.9990    2.3800  -59.2020 N   0  0  0  0  0  0  0  0  0  0  0  0
    9.0910    2.9600  -59.7310 N   0  0  0  0  0  0  0  0  0  0  0  0
    9.3260    2.8430  -61.1530 C   0  0  0  0  0  0  0  0  0  0  0  0
    9.8790    3.6100  -58.8130 C   0  0  0  0  0  0  0  0  0  0  0  0
   11.1080    4.3180  -59.1460 C   0  0  0  0  0  0  0  0  0  0  0  0
   11.0570    5.6350  -59.6150 C   0  0  0  0  0  0  0  0  0  0  0  0
   12.2340    6.3170  -59.9290 C   0  0  0  0  0  0  0  0  0  0  0  0
   13.4670    5.6850  -59.7790 C   0  0  0  0  0  0  0  0  0  0  0  0
   13.5260    4.3700  -59.3190 C   0  0  0  0  0  0  0  0  0  0  0  0
   12.3500    3.6860  -59.0040 C   0  0  0  0  0  0  0  0  0  0  0  0
    9.1750    3.3248  -55.4695 H   0  0  0  0  0  0  0  0  0  0  0  0
   10.7701    3.7928  -56.1502 H   0  0  0  0  0  0  0  0  0  0  0  0
    9.4133    4.9700  -56.1502 H   0  0  0  0  0  0  0  0  0  0  0  0
    8.4020    0.7370  -56.4320 H   0  0  0  0  0  0  0  0  0  0  0  0
    6.1481    1.0307  -54.5893 H   0  0  0  0  0  0  0  0  0  0  0  0
    5.8574   -0.1346  -55.9408 H   0  0  0  0  0  0  0  0  0  0  0  0
    5.7879   -2.1826  -54.6906 H   0  0  0  0  0  0  0  0  0  0  0  0
    7.0442   -3.9251  -53.4293 H   0  0  0  0  0  0  0  0  0  0  0  0
    9.3399   -3.4469  -52.5856 H   0  0  0  0  0  0  0  0  0  0  0  0
   10.3775   -1.2160  -52.9892 H   0  0  0  0  0  0  0  0  0  0  0  0
    9.1277    0.5327  -54.2503 H   0  0  0  0  0  0  0  0  0  0  0  0
   10.2986    2.3588  -61.3253 H   0  0  0  0  0  0  0  0  0  0  0  0
    8.5288    2.2366  -61.6077 H   0  0  0  0  0  0  0  0  0  0  0  0
    9.3294    3.8446  -61.6077 H   0  0  0  0  0  0  0  0  0  0  0  0
   10.0851    6.1355  -59.7369 H   0  0  0  0  0  0  0  0  0  0  0  0
   12.1882    7.3534  -60.2949 H   0  0  0  0  0  0  0  0  0  0  0  0
   14.3942    6.2239  -60.0236 H   0  0  0  0  0  0  0  0  0  0  0  0
   14.4996    3.8711  -59.2042 H   0  0  0  0  0  0  0  0  0  0  0  0
   12.3991    2.6480  -58.6433 H   0  0  0  0  0  0  0  0  0  0  0  0
  1  2  1  0
  2  3  1  0
  3  4  1  0
  4  5  2  0
  4  6  1  0
  6  7  1  0
  7  8  1  0
  8  9  2  0
  9 10  1  0
 10 11  2  0
 11 12  1  0
 12 13  2  0
  3 14  2  0
 14 15  1  0
 15 16  1  0
 15 17  1  0
 17 18  1  0
 18 19  2  0
 19 20  1  0
 20 21  2  0
 21 22  1  0
 22 23  2  0
 17  2  2  0
 23 18  1  0
 13  8  1  0
  1 24  1  0
  1 25  1  0
  1 26  1  0
  6 27  1  0
  7 28  1  0
  7 29  1  0
  9 30  1  0
 10 31  1  0
 11 32  1  0
 12 33  1  0
 13 34  1  0
 16 35  1  0
 16 36  1  0
 16 37  1  0
 19 38  1  0
 20 39  1  0
 21 40  1  0
 22 41  1  0
 23 42  1  0
M  END
>  <meeko>  (114) 
{"is_sidechain": false}

$$$$

     RDKit          3D

 45 47  0  0  0  0  0  0  0  0999 V2000
    9.0430    5.3190  -56.3410 C   0  0  0  0  0  0  0  0  0  0  0  0
    9.3020    3.8420  -56.5970 C   0  0  0  0  0  0  0  0  0  0  0  0
    8.9680    3.4350  -57.9960 C   0  0  0  0  0  0  0  0  0  0  0  0
    7.7990    2.7450  -58.4480 C   0  0  0  0  0  0  0  0  0  0  0  0
    6.6560    2.2610  -57.6470 C   0  0  0  0  0  0  0  0  0  0  0  0
    5.5040    2.6530  -57.8000 O   0  0  0  0  0  0  0  0  0  0  0  0
    7.0250    1.3290  -56.7020 N   0  0  0  0  0  0  0  0  0  0  0  0
    6.1330    0.8640  -55.6750 C   0  0  0  0  0  0  0  0  0  0  0  0
    6.8750    0.0710  -54.6310 C   0  0  0  0  0  0  0  0  0  0  0  0
    6.1810   -0.7140  -53.6990 C   0  0  0  0  0  0  0  0  0  0  0  0
    6.8770   -1.4620  -52.7470 C   0  0  0  0  0  0  0  0  0  0  0  0
    8.2700   -1.4390  -52.7220 C   0  0  0  0  0  0  0  0  0  0  0  0
    8.9700   -0.6710  -53.6500 C   0  0  0  0  0  0  0  0  0  0  0  0
    8.2780    0.0770  -54.6030 C   0  0  0  0  0  0  0  0  0  0  0  0
    7.8350    2.5500  -59.7830 N   0  0  0  0  0  0  0  0  0  0  0  0
    9.0030    3.0970  -60.1670 N   0  0  0  0  0  0  0  0  0  0  0  0
    9.3770    3.0460  -61.5630 C   0  0  0  0  0  0  0  0  0  0  0  0
    9.7220    3.6530  -59.1400 C   0  0  0  0  0  0  0  0  0  0  0  0
   11.0120    4.3090  -59.3110 C   0  0  0  0  0  0  0  0  0  0  0  0
   11.0710    5.6460  -59.7190 C   0  0  0  0  0  0  0  0  0  0  0  0
   12.3070    6.2770  -59.8790 C   0  0  0  0  0  0  0  0  0  0  0  0
   13.4860    5.5740  -59.6350 C   0  0  0  0  0  0  0  0  0  0  0  0
   13.4330    4.2400  -59.2340 C   0  0  0  0  0  0  0  0  0  0  0  0
   12.1990    3.6080  -59.0730 C   0  0  0  0  0  0  0  0  0  0  0  0
    9.0107    5.5031  -55.2570 H   0  0  0  0  0  0  0  0  0  0  0  0
    9.8501    5.9161  -56.7904 H   0  0  0  0  0  0  0  0  0  0  0  0
    8.0809    5.6058  -56.7904 H   0  0  0  0  0  0  0  0  0  0  0  0
   10.3665    3.6339  -56.4139 H   0  0  0  0  0  0  0  0  0  0  0  0
    8.6543    3.2672  -55.9187 H   0  0  0  0  0  0  0  0  0  0  0  0
    8.0270    1.1970  -56.6070 H   0  0  0  0  0  0  0  0  0  0  0  0
    5.6545    1.7305  -55.1952 H   0  0  0  0  0  0  0  0  0  0  0  0
    5.3772    0.2121  -56.1373 H   0  0  0  0  0  0  0  0  0  0  0  0
    5.0815   -0.7408  -53.7179 H   0  0  0  0  0  0  0  0  0  0  0  0
    6.3247   -2.0703  -52.0157 H   0  0  0  0  0  0  0  0  0  0  0  0
    8.8167   -2.0269  -51.9700 H   0  0  0  0  0  0  0  0  0  0  0  0
   10.0697   -0.6543  -53.6313 H   0  0  0  0  0  0  0  0  0  0  0  0
    8.8362    0.6758  -55.3377 H   0  0  0  0  0  0  0  0  0  0  0  0
   10.4638    2.8978  -61.6463 H   0  0  0  0  0  0  0  0  0  0  0  0
    8.8545    2.2108  -62.0523 H   0  0  0  0  0  0  0  0  0  0  0  0
    9.0972    3.9906  -62.0523 H   0  0  0  0  0  0  0  0  0  0  0  0
   10.1419    6.2016  -59.9142 H   0  0  0  0  0  0  0  0  0  0  0  0
   12.3501    7.3290  -60.1976 H   0  0  0  0  0  0  0  0  0  0  0  0
   14.4587    6.0724  -59.7590 H   0  0  0  0  0  0  0  0  0  0  0  0
   14.3638    3.6853  -59.0444 H   0  0  0  0  0  0  0  0  0  0  0  0
   12.1597    2.5549  -58.7578 H   0  0  0  0  0  0  0  0  0  0  0  0
  1  2  1  0
  2  3  1  0
  3  4  1  0
  4  5  1  0
  5  6  2  0
  5  7  1  0
  7  8  1  0
  8  9  1  0
  9 10  2  0
 10 11  1  0
 11 12  2  0
 12 13  1  0
 13 14  2  0
  4 15  2  0
 15 16  1  0
 16 17  1  0
 16 18  1  0
 18 19  1  0
 19 20  2  0
 20 21  1  0
 21 22  2  0
 22 23  1  0
 23 24  2  0
 18  3  2  0
 24 19  1  0
 14  9  1  0
  1 25  1  0
  1 26  1  0
  1 27  1  0
  2 28  1  0
  2 29  1  0
  7 30  1  0
  8 31  1  0
  8 32  1  0
 10 33  1  0
 11 34  1  0
 12 35  1  0
 13 36  1  0
 14 37  1  0
 17 38  1  0
 17 39  1  0
 17 40  1  0
 20 41  1  0
 21 42  1  0
 22 43  1  0
 23 44  1  0
 24 45  1  0
M  END
>  <meeko>  (115) 
{"is_sidechain": false}

$$$$

     RDKit          3D

 53 57  0  0  0  0  0  0  0  0999 V2000
    5.9070   -0.3040  -53.9350 C   0  0  0  0  0  0  0  0  0  0  0  0
    7.3670   -0.5300  -54.0880 C   0  0  0  0  0  0  0  0  0  0  0  0
    8.2450    0.1500  -54.9850 C   0  0  0  0  0  0  0  0  0  0  0  0
    7.9110    1.2230  -55.9440 C   0  0  0  0  0  0  0  0  0  0  0  0
    6.7620    1.5920  -56.1610 O   0  0  0  0  0  0  0  0  0  0  0  0
    9.0270    1.7530  -56.5540 N   0  0  0  0  0  0  0  0  0  0  0  0
    9.0470    2.8250  -57.5420 C   0  0  2  0  0  0  0  0  0  0  0  0
   10.4700    2.9050  -58.1550 C   0  0  0  0  0  0  0  0  0  0  0  0
   10.5550    4.0210  -59.2080 C   0  0  1  0  0  0  0  0  0  0  0  0
    9.5410    3.7360  -60.3270 C   0  0  0  0  0  0  0  0  0  0  0  0
    8.1200    3.6790  -59.7460 C   0  0  2  0  0  0  0  0  0  0  0  0
    7.7910    5.0240  -59.0760 C   0  0  0  0  0  0  0  0  0  0  0  0
    8.8000    5.3180  -57.9530 C   0  0  2  0  0  0  0  0  0  0  0  0
   10.2170    5.3660  -58.5460 C   0  0  0  0  0  0  0  0  0  0  0  0
    8.7260    4.1980  -56.9010 C   0  0  0  0  0  0  0  0  0  0  0  0
    8.0460    2.5580  -58.6940 C   0  0  0  0  0  0  0  0  0  0  0  0
    9.5100   -0.3100  -54.8720 N   0  0  0  0  0  0  0  0  0  0  0  0
    9.4340   -1.2510  -53.9140 N   0  0  0  0  0  0  0  0  0  0  0  0
   10.6410   -1.9400  -53.5120 C   0  0  0  0  0  0  0  0  0  0  0  0
    8.1690   -1.4390  -53.4140 C   0  0  0  0  0  0  0  0  0  0  0  0
    7.8360   -2.4060  -52.3750 C   0  0  0  0  0  0  0  0  0  0  0  0
    7.3980   -3.6890  -52.7240 C   0  0  0  0  0  0  0  0  0  0  0  0
    7.0720   -4.6150  -51.7310 C   0  0  0  0  0  0  0  0  0  0  0  0
    7.1860   -4.2650  -50.3850 C   0  0  0  0  0  0  0  0  0  0  0  0
    7.6280   -2.9910  -50.0310 C   0  0  0  0  0  0  0  0  0  0  0  0
    7.9540   -2.0630  -51.0230 C   0  0  0  0  0  0  0  0  0  0  0  0
    5.6522   -0.2646  -52.8657 H   0  0  0  0  0  0  0  0  0  0  0  0
    5.6312    0.6475  -54.4130 H   0  0  0  0  0  0  0  0  0  0  0  0
    5.3564   -1.1276  -54.4130 H   0  0  0  0  0  0  0  0  0  0  0  0
    9.8990    1.3250  -56.2450 H   0  0  0  0  0  0  0  0  0  0  0  0
   11.1955    3.1103  -57.3541 H   0  0  0  0  0  0  0  0  0  0  0  0
   10.6954    1.9453  -58.6430 H   0  0  0  0  0  0  0  0  0  0  0  0
   11.5704    4.0606  -59.6292 H   0  0  0  0  0  0  0  0  0  0  0  0
    9.5949    4.5361  -61.0800 H   0  0  0  0  0  0  0  0  0  0  0  0
    9.7798    2.7686  -60.7930 H   0  0  0  0  0  0  0  0  0  0  0  0
    7.3986    3.4797  -60.5521 H   0  0  0  0  0  0  0  0  0  0  0  0
    7.8396    5.8259  -59.8274 H   0  0  0  0  0  0  0  0  0  0  0  0
    6.7797    4.9734  -58.6462 H   0  0  0  0  0  0  0  0  0  0  0  0
    8.5630    6.2838  -57.4829 H   0  0  0  0  0  0  0  0  0  0  0  0
   10.2700    6.1662  -59.2989 H   0  0  0  0  0  0  0  0  0  0  0  0
   10.9393    5.5638  -57.7403 H   0  0  0  0  0  0  0  0  0  0  0  0
    9.4544    4.4033  -56.1027 H   0  0  0  0  0  0  0  0  0  0  0  0
    7.7070    4.1666  -56.4879 H   0  0  0  0  0  0  0  0  0  0  0  0
    7.0262    2.5137  -58.2839 H   0  0  0  0  0  0  0  0  0  0  0  0
    8.3045    1.6029  -59.1745 H   0  0  0  0  0  0  0  0  0  0  0  0
   10.6966   -1.9718  -52.4139 H   0  0  0  0  0  0  0  0  0  0  0  0
   10.6268   -2.9661  -53.9082 H   0  0  0  0  0  0  0  0  0  0  0  0
   11.5173   -1.4060  -53.9082 H   0  0  0  0  0  0  0  0  0  0  0  0
    7.3103   -3.9687  -53.7842 H   0  0  0  0  0  0  0  0  0  0  0  0
    6.7251   -5.6209  -52.0099 H   0  0  0  0  0  0  0  0  0  0  0  0
    6.9271   -4.9943  -49.6033 H   0  0  0  0  0  0  0  0  0  0  0  0
    7.7201   -2.7164  -48.9698 H   0  0  0  0  0  0  0  0  0  0  0  0
    8.3046   -1.0593  -50.7407 H   0  0  0  0  0  0  0  0  0  0  0  0
  1  2  1  0
  2  3  1  0
  3  4  1  0
  4  5  2  0
  4  6  1  0
  7  6  1  1
  7  8  1  0
  8  9  1  0
  9 10  1  0
 10 11  1  0
 11 12  1  0
 12 13  1  0
 13 14  1  0
 13 15  1  0
 11 16  1  0
  3 17  2  0
 17 18  1  0
 18 19  1  0
 18 20  1  0
 20 21  1  0
 21 22  2  0
 22 23  1  0
 23 24  2  0
 24 25  1  0
 25 26  2  0
 20  2  2  0
 26 21  1  0
 15  7  1  0
 16  7  1  0
 14  9  1  0
  1 27  1  0
  1 28  1  0
  1 29  1  0
  6 30  1  0
  8 31  1  0
  8 32  1  0
  9 33  1  6
 10 34  1  0
 10 35  1  0
 11 36  1  6
 12 37  1  0
 12 38  1  0
 13 39  1  1
 14 40  1  0
 14 41  1  0
 15 42  1  0
 15 43  1  0
 16 44  1  0
 16 45  1  0
 19 46  1  0
 19 47  1  0
 19 48  1  0
 22 49  1  0
 23 50  1  0
 24 51  1  0
 25 52  1  0
 26 53  1  0
M  END
>  <meeko>  (116) 
{"is_sidechain": false}

$$$$

     RDKit          3D

 56 60  0  0  0  0  0  0  0  0999 V2000
   11.1830   -3.7130  -54.5930 C   0  0  0  0  0  0  0  0  0  0  0  0
   10.0120   -2.8220  -54.9740 C   0  0  0  0  0  0  0  0  0  0  0  0
   10.0750   -1.4760  -54.2480 C   0  0  0  0  0  0  0  0  0  0  0  0
    8.7330   -0.8270  -54.1190 C   0  0  0  0  0  0  0  0  0  0  0  0
    8.2450    0.3080  -54.8460 C   0  0  0  0  0  0  0  0  0  0  0  0
    8.9450    1.1070  -55.8760 C   0  0  0  0  0  0  0  0  0  0  0  0
   10.1370    0.9770  -56.1330 O   0  0  0  0  0  0  0  0  0  0  0  0
    8.1080    2.0040  -56.5050 N   0  0  0  0  0  0  0  0  0  0  0  0
    8.4790    2.9350  -57.5650 C   0  0  2  0  0  0  0  0  0  0  0  0
    9.2330    4.1660  -57.0040 C   0  0  0  0  0  0  0  0  0  0  0  0
    9.5710    5.1540  -58.1340 C   0  0  1  0  0  0  0  0  0  0  0  0
   10.4460    4.4470  -59.1820 C   0  0  0  0  0  0  0  0  0  0  0  0
    9.6940    3.2410  -59.7720 C   0  0  2  0  0  0  0  0  0  0  0  0
    8.3910    3.7270  -60.4280 C   0  0  0  0  0  0  0  0  0  0  0  0
    7.5090    4.4290  -59.3830 C   0  0  2  0  0  0  0  0  0  0  0  0
    8.2680    5.6310  -58.7990 C   0  0  0  0  0  0  0  0  0  0  0  0
    7.1840    3.4400  -58.2520 C   0  0  0  0  0  0  0  0  0  0  0  0
    9.3560    2.2520  -58.6430 C   0  0  0  0  0  0  0  0  0  0  0  0
    6.9800    0.6100  -54.4830 N   0  0  0  0  0  0  0  0  0  0  0  0
    6.6770   -0.3130  -53.5600 N   0  0  0  0  0  0  0  0  0  0  0  0
    7.6790   -1.2060  -53.3010 C   0  0  0  0  0  0  0  0  0  0  0  0
    7.5270   -2.2840  -52.3330 C   0  0  0  0  0  0  0  0  0  0  0  0
    8.1130   -2.1850  -51.0650 C   0  0  0  0  0  0  0  0  0  0  0  0
    7.9740   -3.2200  -50.1400 C   0  0  0  0  0  0  0  0  0  0  0  0
    7.2510   -4.3640  -50.4740 C   0  0  0  0  0  0  0  0  0  0  0  0
    6.6640   -4.4720  -51.7340 C   0  0  0  0  0  0  0  0  0  0  0  0
    6.8010   -3.4350  -52.6600 C   0  0  0  0  0  0  0  0  0  0  0  0
   11.2586   -3.7705  -53.4971 H   0  0  0  0  0  0  0  0  0  0  0  0
   11.0251   -4.7214  -55.0031 H   0  0  0  0  0  0  0  0  0  0  0  0
   12.1128   -3.2919  -55.0031 H   0  0  0  0  0  0  0  0  0  0  0  0
   10.0355   -2.6447  -56.0594 H   0  0  0  0  0  0  0  0  0  0  0  0
    9.0811   -3.3298  -54.6815 H   0  0  0  0  0  0  0  0  0  0  0  0
   10.4859   -1.6383  -53.2406 H   0  0  0  0  0  0  0  0  0  0  0  0
   10.7124   -0.8062  -54.8439 H   0  0  0  0  0  0  0  0  0  0  0  0
    7.1480    1.9700  -56.1670 H   0  0  0  0  0  0  0  0  0  0  0  0
    8.5988    4.6705  -56.2601 H   0  0  0  0  0  0  0  0  0  0  0  0
   10.1695    3.8264  -56.5374 H   0  0  0  0  0  0  0  0  0  0  0  0
   10.1131    6.0172  -57.7205 H   0  0  0  0  0  0  0  0  0  0  0  0
   10.6900    5.1538  -59.9888 H   0  0  0  0  0  0  0  0  0  0  0  0
   11.3703    4.0947  -58.7008 H   0  0  0  0  0  0  0  0  0  0  0  0
   10.3239    2.7434  -60.5241 H   0  0  0  0  0  0  0  0  0  0  0  0
    8.6311    4.4334  -61.2363 H   0  0  0  0  0  0  0  0  0  0  0  0
    7.8480    2.8628  -60.8383 H   0  0  0  0  0  0  0  0  0  0  0  0
    6.5784    4.7746  -59.8568 H   0  0  0  0  0  0  0  0  0  0  0  0
    8.5082    6.3382  -59.6066 H   0  0  0  0  0  0  0  0  0  0  0  0
    7.6374    6.1268  -58.0463 H   0  0  0  0  0  0  0  0  0  0  0  0
    6.5532    3.9433  -57.5045 H   0  0  0  0  0  0  0  0  0  0  0  0
    6.6567    2.5762  -58.6831 H   0  0  0  0  0  0  0  0  0  0  0  0
    8.8094    1.3954  -59.0643 H   0  0  0  0  0  0  0  0  0  0  0  0
   10.2925    1.9132  -58.1760 H   0  0  0  0  0  0  0  0  0  0  0  0
    5.7590   -0.2830  -53.1280 H   0  0  0  0  0  0  0  0  0  0  0  0
    8.6865   -1.2855  -50.7967 H   0  0  0  0  0  0  0  0  0  0  0  0
    8.4357   -3.1332  -49.1454 H   0  0  0  0  0  0  0  0  0  0  0  0
    7.1437   -5.1803  -49.7446 H   0  0  0  0  0  0  0  0  0  0  0  0
    6.0929   -5.3740  -51.9990 H   0  0  0  0  0  0  0  0  0  0  0  0
    6.3352   -3.5237  -53.6526 H   0  0  0  0  0  0  0  0  0  0  0  0
  1  2  1  0
  2  3  1  0
  3  4  1  0
  4  5  1  0
  5  6  1  0
  6  7  2  0
  6  8  1  0
  9  8  1  1
  9 10  1  0
 10 11  1  0
 11 12  1  0
 12 13  1  0
 13 14  1  0
 14 15  1  0
 15 16  1  0
 15 17  1  0
 13 18  1  0
  5 19  2  0
 19 20  1  0
 20 21  1  0
 21 22  1  0
 22 23  2  0
 23 24  1  0
 24 25  2  0
 25 26  1  0
 26 27  2  0
 21  4  2  0
 27 22  1  0
 17  9  1  0
 18  9  1  0
 16 11  1  0
  1 28  1  0
  1 29  1  0
  1 30  1  0
  2 31  1  0
  2 32  1  0
  3 33  1  0
  3 34  1  0
  8 35  1  0
 10 36  1  0
 10 37  1  0
 11 38  1  1
 12 39  1  0
 12 40  1  0
 13 41  1  6
 14 42  1  0
 14 43  1  0
 15 44  1  6
 16 45  1  0
 16 46  1  0
 17 47  1  0
 17 48  1  0
 18 49  1  0
 18 50  1  0
 20 51  1  0
 23 52  1  0
 24 53  1  0
 25 54  1  0
 26 55  1  0
 27 56  1  0
M  END
>  <meeko>  (117) 
{"is_sidechain": false}

$$$$

     RDKit          3D

 56 60  0  0  0  0  0  0  0  0999 V2000
   11.1490   -2.7270  -52.6970 C   0  0  0  0  0  0  0  0  0  0  0  0
   10.9620   -1.5020  -53.5820 C   0  0  0  0  0  0  0  0  0  0  0  0
    9.8240   -1.6500  -54.5970 C   0  0  0  0  0  0  0  0  0  0  0  0
    8.6050   -0.8460  -54.2600 C   0  0  0  0  0  0  0  0  0  0  0  0
    7.6010   -1.1250  -53.2750 C   0  0  0  0  0  0  0  0  0  0  0  0
    7.5280   -2.2350  -52.3300 C   0  0  0  0  0  0  0  0  0  0  0  0
    7.1390   -3.5130  -52.7480 C   0  0  0  0  0  0  0  0  0  0  0  0
    7.0680   -4.5650  -51.8320 C   0  0  0  0  0  0  0  0  0  0  0  0
    7.3910   -4.3480  -50.4930 C   0  0  0  0  0  0  0  0  0  0  0  0
    7.7940   -3.0820  -50.0700 C   0  0  0  0  0  0  0  0  0  0  0  0
    7.8670   -2.0310  -50.9850 C   0  0  0  0  0  0  0  0  0  0  0  0
    6.6270   -0.2030  -53.3110 N   0  0  0  0  0  0  0  0  0  0  0  0
    7.0030    0.6410  -54.2750 N   0  0  0  0  0  0  0  0  0  0  0  0
    8.2080    0.3510  -54.8460 C   0  0  0  0  0  0  0  0  0  0  0  0
    8.8280    1.1350  -55.8880 C   0  0  0  0  0  0  0  0  0  0  0  0
   10.0320    1.1100  -56.1160 O   0  0  0  0  0  0  0  0  0  0  0  0
    7.9450    1.9410  -56.5830 N   0  0  0  0  0  0  0  0  0  0  0  0
    8.3460    2.8890  -57.6310 C   0  0  2  0  0  0  0  0  0  0  0  0
    9.2710    2.2330  -58.6900 C   0  0  0  0  0  0  0  0  0  0  0  0
    9.6230    3.2400  -59.8000 C   0  0  1  0  0  0  0  0  0  0  0  0
    8.3340    3.7010  -60.4950 C   0  0  0  0  0  0  0  0  0  0  0  0
    7.4020    4.3730  -59.4760 C   0  0  2  0  0  0  0  0  0  0  0  0
    8.1130    5.5870  -58.8580 C   0  0  0  0  0  0  0  0  0  0  0  0
    9.4020    5.1370  -58.1520 C   0  0  2  0  0  0  0  0  0  0  0  0
   10.3280    4.4560  -59.1760 C   0  0  0  0  0  0  0  0  0  0  0  0
    9.0500    4.1350  -57.0400 C   0  0  0  0  0  0  0  0  0  0  0  0
    7.0610    3.3670  -58.3640 C   0  0  0  0  0  0  0  0  0  0  0  0
   11.1031   -2.4261  -51.6399 H   0  0  0  0  0  0  0  0  0  0  0  0
   10.3516   -3.4554  -52.9059 H   0  0  0  0  0  0  0  0  0  0  0  0
   12.1274   -3.1844  -52.9059 H   0  0  0  0  0  0  0  0  0  0  0  0
   10.7441   -0.6372  -52.9381 H   0  0  0  0  0  0  0  0  0  0  0  0
   11.8919   -1.3715  -54.1549 H   0  0  0  0  0  0  0  0  0  0  0  0
   10.1926   -1.3252  -55.5812 H   0  0  0  0  0  0  0  0  0  0  0  0
    9.5226   -2.7079  -54.5886 H   0  0  0  0  0  0  0  0  0  0  0  0
    6.8877   -3.6899  -53.8042 H   0  0  0  0  0  0  0  0  0  0  0  0
    6.7570   -5.5655  -52.1672 H   0  0  0  0  0  0  0  0  0  0  0  0
    7.3279   -5.1752  -49.7707 H   0  0  0  0  0  0  0  0  0  0  0  0
    8.0544   -2.9117  -49.0149 H   0  0  0  0  0  0  0  0  0  0  0  0
    8.1928   -1.0356  -50.6487 H   0  0  0  0  0  0  0  0  0  0  0  0
    6.3780    1.4030  -54.5090 H   0  0  0  0  0  0  0  0  0  0  0  0
    7.0890    2.1690  -56.0970 H   0  0  0  0  0  0  0  0  0  0  0  0
   10.1969    1.8950  -58.2016 H   0  0  0  0  0  0  0  0  0  0  0  0
    8.7445    1.3785  -59.1402 H   0  0  0  0  0  0  0  0  0  0  0  0
   10.2881    2.7635  -60.5352 H   0  0  0  0  0  0  0  0  0  0  0  0
    8.5848    4.4196  -61.2891 H   0  0  0  0  0  0  0  0  0  0  0  0
    7.8253    2.8282  -60.9303 H   0  0  0  0  0  0  0  0  0  0  0  0
    6.4800    4.7011  -59.9782 H   0  0  0  0  0  0  0  0  0  0  0  0
    8.3642    6.3054  -59.6522 H   0  0  0  0  0  0  0  0  0  0  0  0
    7.4455    6.0616  -58.1237 H   0  0  0  0  0  0  0  0  0  0  0  0
    9.9095    6.0096  -57.7149 H   0  0  0  0  0  0  0  0  0  0  0  0
   10.5843    5.1742  -59.9687 H   0  0  0  0  0  0  0  0  0  0  0  0
   11.2425    4.1191  -58.6659 H   0  0  0  0  0  0  0  0  0  0  0  0
    9.9732    3.8210  -56.5310 H   0  0  0  0  0  0  0  0  0  0  0  0
    8.3686    4.6220  -56.3269 H   0  0  0  0  0  0  0  0  0  0  0  0
    6.3903    3.8482  -57.6370 H   0  0  0  0  0  0  0  0  0  0  0  0
    6.5724    2.4933  -58.8200 H   0  0  0  0  0  0  0  0  0  0  0  0
  1  2  1  0
  2  3  1  0
  3  4  1  0
  4  5  1  0
  5  6  1  0
  6  7  2  0
  7  8  1  0
  8  9  2  0
  9 10  1  0
 10 11  2  0
  5 12  2  0
 12 13  1  0
 13 14  1  0
 14 15  1  0
 15 16  2  0
 15 17  1  0
 18 17  1  1
 18 19  1  0
 19 20  1  0
 20 21  1  0
 21 22  1  0
 22 23  1  0
 23 24  1  0
 24 25  1  0
 24 26  1  0
 22 27  1  0
 14  4  2  0
 26 18  1  0
 11  6  1  0
 27 18  1  0
 25 20  1  0
  1 28  1  0
  1 29  1  0
  1 30  1  0
  2 31  1  0
  2 32  1  0
  3 33  1  0
  3 34  1  0
  7 35  1  0
  8 36  1  0
  9 37  1  0
 10 38  1  0
 11 39  1  0
 13 40  1  0
 17 41  1  0
 19 42  1  0
 19 43  1  0
 20 44  1  6
 21 45  1  0
 21 46  1  0
 22 47  1  6
 23 48  1  0
 23 49  1  0
 24 50  1  1
 25 51  1  0
 25 52  1  0
 26 53  1  0
 26 54  1  0
 27 55  1  0
 27 56  1  0
M  END
>  <meeko>  (118) 
{"is_sidechain": false}

$$$$

     RDKit          3D

 50 54  0  0  0  0  0  0  0  0999 V2000
    6.5380    0.3440  -53.0300 C   0  0  0  0  0  0  0  0  0  0  0  0
    7.5890   -0.6410  -52.9540 N   0  0  0  0  0  0  0  0  0  0  0  0
    8.4870   -0.7240  -53.9580 N   0  0  0  0  0  0  0  0  0  0  0  0
    9.3220   -1.7240  -53.5850 C   0  0  0  0  0  0  0  0  0  0  0  0
   10.4560   -2.1350  -54.4340 C   0  0  0  0  0  0  0  0  0  0  0  0
   11.4990   -1.4980  -54.5100 O   0  0  0  0  0  0  0  0  0  0  0  0
   10.2050   -3.3050  -55.1170 N   0  0  0  0  0  0  0  0  0  0  0  0
   11.1180   -3.9900  -56.0250 C   0  0  2  0  0  0  0  0  0  0  0  0
   11.7980   -3.0000  -57.0040 C   0  0  0  0  0  0  0  0  0  0  0  0
   12.7190   -3.7530  -57.9800 C   0  0  1  0  0  0  0  0  0  0  0  0
   13.7930   -4.5100  -57.1820 C   0  0  0  0  0  0  0  0  0  0  0  0
   13.1310   -5.5220  -56.2310 C   0  0  2  0  0  0  0  0  0  0  0  0
   12.2970   -6.5170  -57.0520 C   0  0  0  0  0  0  0  0  0  0  0  0
   11.2160   -5.7660  -57.8460 C   0  0  2  0  0  0  0  0  0  0  0  0
   11.8870   -4.7590  -58.7910 C   0  0  0  0  0  0  0  0  0  0  0  0
   10.3050   -5.0100  -56.8660 C   0  0  0  0  0  0  0  0  0  0  0  0
   12.2110   -4.7700  -55.2540 C   0  0  0  0  0  0  0  0  0  0  0  0
    8.9300   -2.2610  -52.3330 C   0  0  0  0  0  0  0  0  0  0  0  0
    7.8060   -1.5540  -51.9670 C   0  0  0  0  0  0  0  0  0  0  0  0
    7.0180   -1.7460  -50.7210 C   0  0  0  0  0  0  0  0  0  0  0  0
    7.3960   -3.0940  -50.0760 C   0  0  0  0  0  0  0  0  0  0  0  0
    8.9170   -3.3440  -50.0850 C   0  0  0  0  0  0  0  0  0  0  0  0
    9.4980   -3.3660  -51.5140 C   0  0  0  0  0  0  0  0  0  0  0  0
    6.2310    0.6318  -52.0137 H   0  0  0  0  0  0  0  0  0  0  0  0
    6.9049    1.2310  -53.5671 H   0  0  0  0  0  0  0  0  0  0  0  0
    5.6766   -0.0796  -53.5671 H   0  0  0  0  0  0  0  0  0  0  0  0
    9.2870   -3.7010  -54.9200 H   0  0  0  0  0  0  0  0  0  0  0  0
   11.0238   -2.4669  -57.5754 H   0  0  0  0  0  0  0  0  0  0  0  0
   12.4018   -2.2858  -56.4249 H   0  0  0  0  0  0  0  0  0  0  0  0
   13.1999   -3.0363  -58.6619 H   0  0  0  0  0  0  0  0  0  0  0  0
   14.4545   -5.0451  -57.8792 H   0  0  0  0  0  0  0  0  0  0  0  0
   14.3765   -3.7891  -56.5905 H   0  0  0  0  0  0  0  0  0  0  0  0
   13.9044   -6.0649  -55.6678 H   0  0  0  0  0  0  0  0  0  0  0  0
   12.9549   -7.0546  -57.7507 H   0  0  0  0  0  0  0  0  0  0  0  0
   11.8135   -7.2322  -56.3703 H   0  0  0  0  0  0  0  0  0  0  0  0
   10.6210   -6.4824  -58.4314 H   0  0  0  0  0  0  0  0  0  0  0  0
   12.5449   -5.2970  -59.4894 H   0  0  0  0  0  0  0  0  0  0  0  0
   11.1113   -4.2175  -59.3523 H   0  0  0  0  0  0  0  0  0  0  0  0
    9.5323   -4.4723  -57.4350 H   0  0  0  0  0  0  0  0  0  0  0  0
    9.8437   -5.7386  -56.1831 H   0  0  0  0  0  0  0  0  0  0  0  0
   11.7306   -5.4943  -54.5798 H   0  0  0  0  0  0  0  0  0  0  0  0
   12.8157   -4.0554  -54.6764 H   0  0  0  0  0  0  0  0  0  0  0  0
    7.2383   -0.9288  -50.0184 H   0  0  0  0  0  0  0  0  0  0  0  0
    5.9447   -1.7433  -50.9621 H   0  0  0  0  0  0  0  0  0  0  0  0
    7.0435   -3.0982  -49.0340 H   0  0  0  0  0  0  0  0  0  0  0  0
    6.9215   -3.8924  -50.6653 H   0  0  0  0  0  0  0  0  0  0  0  0
    9.4105   -2.5433  -49.5147 H   0  0  0  0  0  0  0  0  0  0  0  0
    9.0988   -4.3300  -49.6325 H   0  0  0  0  0  0  0  0  0  0  0  0
   10.5906   -3.2504  -51.4608 H   0  0  0  0  0  0  0  0  0  0  0  0
    9.2366   -4.3246  -51.9859 H   0  0  0  0  0  0  0  0  0  0  0  0
  1  2  1  0
  2  3  1  0
  3  4  2  0
  4  5  1  0
  5  6  2  0
  5  7  1  0
  8  7  1  1
  8  9  1  0
  9 10  1  0
 10 11  1  0
 11 12  1  0
 12 13  1  0
 13 14  1  0
 14 15  1  0
 14 16  1  0
 12 17  1  0
  4 18  1  0
 18 19  2  0
 19 20  1  0
 20 21  1  0
 21 22  1  0
 22 23  1  0
 19  2  1  0
 16  8  1  0
 23 18  1  0
 17  8  1  0
 15 10  1  0
  1 24  1  0
  1 25  1  0
  1 26  1  0
  7 27  1  0
  9 28  1  0
  9 29  1  0
 10 30  1  6
 11 31  1  0
 11 32  1  0
 12 33  1  1
 13 34  1  0
 13 35  1  0
 14 36  1  6
 15 37  1  0
 15 38  1  0
 16 39  1  0
 16 40  1  0
 17 41  1  0
 17 42  1  0
 20 43  1  0
 20 44  1  0
 21 45  1  0
 21 46  1  0
 22 47  1  0
 22 48  1  0
 23 49  1  0
 23 50  1  0
M  END
>  <meeko>  (119) 
{"is_sidechain": false}

$$$$

     RDKit          3D

 50 54  0  0  0  0  0  0  0  0999 V2000
   10.7700   -2.1000  -53.6560 C   0  0  0  0  0  0  0  0  0  0  0  0
    9.5850   -1.3330  -53.9740 N   0  0  0  0  0  0  0  0  0  0  0  0
    9.6700   -0.3670  -54.9130 N   0  0  0  0  0  0  0  0  0  0  0  0
    8.4100    0.1000  -55.0200 C   0  0  0  0  0  0  0  0  0  0  0  0
    8.0520    1.1720  -55.9640 C   0  0  0  0  0  0  0  0  0  0  0  0
    6.8990    1.5620  -56.1150 O   0  0  0  0  0  0  0  0  0  0  0  0
    9.1440    1.6720  -56.6380 N   0  0  0  0  0  0  0  0  0  0  0  0
    9.1310    2.7350  -57.6360 C   0  0  2  0  0  0  0  0  0  0  0  0
    8.0590    2.4820  -58.7260 C   0  0  0  0  0  0  0  0  0  0  0  0
    8.0980    3.5920  -59.7920 C   0  0  1  0  0  0  0  0  0  0  0  0
    7.8360    4.9490  -59.1170 C   0  0  0  0  0  0  0  0  0  0  0  0
    8.9140    5.2300  -58.0560 C   0  0  2  0  0  0  0  0  0  0  0  0
   10.2950    5.2420  -58.7280 C   0  0  0  0  0  0  0  0  0  0  0  0
   10.5660    3.8850  -59.3960 C   0  0  2  0  0  0  0  0  0  0  0  0
    9.4840    3.6130  -60.4530 C   0  0  0  0  0  0  0  0  0  0  0  0
   10.5180    2.7800  -58.3300 C   0  0  0  0  0  0  0  0  0  0  0  0
    8.8750    4.1200  -56.9900 C   0  0  0  0  0  0  0  0  0  0  0  0
    7.5430   -0.5750  -54.1270 C   0  0  0  0  0  0  0  0  0  0  0  0
    8.3270   -1.4810  -53.4400 C   0  0  0  0  0  0  0  0  0  0  0  0
    7.9580   -2.4320  -52.3990 C   0  0  0  0  0  0  0  0  0  0  0  0
    7.3710   -3.6560  -52.7430 C   0  0  0  0  0  0  0  0  0  0  0  0
    7.0140   -4.5720  -51.7520 C   0  0  0  0  0  0  0  0  0  0  0  0
    7.2340   -4.2690  -50.4100 C   0  0  0  0  0  0  0  0  0  0  0  0
    7.8060   -3.0490  -50.0560 C   0  0  0  0  0  0  0  0  0  0  0  0
    8.1640   -2.1320  -51.0470 C   0  0  0  0  0  0  0  0  0  0  0  0
   10.8789   -2.1705  -52.5637 H   0  0  0  0  0  0  0  0  0  0  0  0
   10.6779   -3.1103  -54.0813 H   0  0  0  0  0  0  0  0  0  0  0  0
   11.6540   -1.6023  -54.0813 H   0  0  0  0  0  0  0  0  0  0  0  0
   10.0220    1.2250  -56.3810 H   0  0  0  0  0  0  0  0  0  0  0  0
    8.2541    1.5120  -59.2067 H   0  0  0  0  0  0  0  0  0  0  0  0
    7.0659    2.4792  -58.2530 H   0  0  0  0  0  0  0  0  0  0  0  0
    7.3287    3.4016  -60.5548 H   0  0  0  0  0  0  0  0  0  0  0  0
    7.8583    5.7436  -59.8773 H   0  0  0  0  0  0  0  0  0  0  0  0
    6.8501    4.9238  -58.6299 H   0  0  0  0  0  0  0  0  0  0  0  0
    8.7256    6.2050  -57.5828 H   0  0  0  0  0  0  0  0  0  0  0  0
   10.3226    6.0350  -59.4898 H   0  0  0  0  0  0  0  0  0  0  0  0
   11.0658    5.4298  -57.9660 H   0  0  0  0  0  0  0  0  0  0  0  0
   11.5562    3.8993  -59.8749 H   0  0  0  0  0  0  0  0  0  0  0  0
    9.5121    4.4054  -61.2154 H   0  0  0  0  0  0  0  0  0  0  0  0
    9.6751    2.6368  -60.9226 H   0  0  0  0  0  0  0  0  0  0  0  0
   10.7117    1.8092  -58.8096 H   0  0  0  0  0  0  0  0  0  0  0  0
   11.2831    2.9942  -57.5693 H   0  0  0  0  0  0  0  0  0  0  0  0
    9.6509    4.3160  -56.2353 H   0  0  0  0  0  0  0  0  0  0  0  0
    7.8804    4.1140  -56.5201 H   0  0  0  0  0  0  0  0  0  0  0  0
    6.4622   -0.4108  -54.0049 H   0  0  0  0  0  0  0  0  0  0  0  0
    7.1901   -3.8972  -53.8009 H   0  0  0  0  0  0  0  0  0  0  0  0
    6.5587   -5.5337  -52.0308 H   0  0  0  0  0  0  0  0  0  0  0  0
    6.9561   -4.9931  -49.6300 H   0  0  0  0  0  0  0  0  0  0  0  0
    7.9757   -2.8079  -48.9962 H   0  0  0  0  0  0  0  0  0  0  0  0
    8.6108   -1.1677  -50.7633 H   0  0  0  0  0  0  0  0  0  0  0  0
  1  2  1  0
  2  3  1  0
  3  4  2  0
  4  5  1  0
  5  6  2  0
  5  7  1  0
  8  7  1  1
  8  9  1  0
  9 10  1  0
 10 11  1  0
 11 12  1  0
 12 13  1  0
 13 14  1  0
 14 15  1  0
 14 16  1  0
 12 17  1  0
  4 18  1  0
 18 19  2  0
 19 20  1  0
 20 21  2  0
 21 22  1  0
 22 23  2  0
 23 24  1  0
 24 25  2  0
 19  2  1  0
 25 20  1  0
 16  8  1  0
 17  8  1  0
 15 10  1  0
  1 26  1  0
  1 27  1  0
  1 28  1  0
  7 29  1  0
  9 30  1  0
  9 31  1  0
 10 32  1  6
 11 33  1  0
 11 34  1  0
 12 35  1  1
 13 36  1  0
 13 37  1  0
 14 38  1  6
 15 39  1  0
 15 40  1  0
 16 41  1  0
 16 42  1  0
 17 43  1  0
 17 44  1  0
 18 45  1  0
 21 46  1  0
 22 47  1  0
 23 48  1  0
 24 49  1  0
 25 50  1  0
M  END
>  <meeko>  (120) 
{"is_sidechain": false}

$$$$

     RDKit          3D

 46 50  0  0  0  0  0  0  0  0999 V2000
    6.3260    0.0380  -53.1310 C   0  0  0  0  0  0  0  0  0  0  0  0
    7.4510   -0.8600  -53.0180 N   0  0  0  0  0  0  0  0  0  0  0  0
    8.3120   -0.9650  -54.0430 N   0  0  0  0  0  0  0  0  0  0  0  0
    9.2310   -1.8530  -53.6210 C   0  0  0  0  0  0  0  0  0  0  0  0
   10.3580   -2.2530  -54.4860 C   0  0  0  0  0  0  0  0  0  0  0  0
   11.3160   -1.5200  -54.7130 O   0  0  0  0  0  0  0  0  0  0  0  0
   10.2180   -3.5140  -55.0440 N   0  0  0  0  0  0  0  0  0  0  0  0
   11.1380   -4.0990  -56.0230 C   0  0  2  0  0  0  0  0  0  0  0  0
   10.3490   -5.1350  -56.8690 C   0  0  0  0  0  0  0  0  0  0  0  0
   11.2510   -5.7880  -57.9280 C   0  0  1  0  0  0  0  0  0  0  0  0
   11.8100   -4.6980  -58.8560 C   0  0  0  0  0  0  0  0  0  0  0  0
   12.6190   -3.6780  -58.0390 C   0  0  2  0  0  0  0  0  0  0  0  0
   13.7770   -4.4010  -57.3290 C   0  0  0  0  0  0  0  0  0  0  0  0
   13.2270   -5.4950  -56.3990 C   0  0  2  0  0  0  0  0  0  0  0  0
   12.4150   -6.5040  -57.2240 C   0  0  0  0  0  0  0  0  0  0  0  0
   12.3130   -4.8470  -55.3420 C   0  0  0  0  0  0  0  0  0  0  0  0
   11.7050   -3.0280  -56.9860 C   0  0  0  0  0  0  0  0  0  0  0  0
    8.9300   -2.3100  -52.2980 C   0  0  0  0  0  0  0  0  0  0  0  0
    9.5250   -3.1830  -51.3630 C   0  0  0  0  0  0  0  0  0  0  0  0
    8.9060   -3.3860  -50.1230 C   0  0  0  0  0  0  0  0  0  0  0  0
    7.7210   -2.7290  -49.8050 C   0  0  0  0  0  0  0  0  0  0  0  0
    7.1210   -1.8450  -50.7070 C   0  0  0  0  0  0  0  0  0  0  0  0
    7.7540   -1.6530  -51.9430 C   0  0  0  0  0  0  0  0  0  0  0  0
    5.9769    0.3167  -52.1258 H   0  0  0  0  0  0  0  0  0  0  0  0
    6.6323    0.9427  -53.6767 H   0  0  0  0  0  0  0  0  0  0  0  0
    5.5117   -0.4612  -53.6767 H   0  0  0  0  0  0  0  0  0  0  0  0
    9.2870   -3.9080  -54.9950 H   0  0  0  0  0  0  0  0  0  0  0  0
    9.9538   -5.9161  -56.2029 H   0  0  0  0  0  0  0  0  0  0  0  0
    9.5285   -4.6132  -57.3833 H   0  0  0  0  0  0  0  0  0  0  0  0
   10.6714   -6.5135  -58.5176 H   0  0  0  0  0  0  0  0  0  0  0  0
   12.4631   -5.1612  -59.6102 H   0  0  0  0  0  0  0  0  0  0  0  0
   10.9747   -4.1826  -59.3527 H   0  0  0  0  0  0  0  0  0  0  0  0
   13.0201   -2.9030  -58.7087 H   0  0  0  0  0  0  0  0  0  0  0  0
   14.4349   -4.8603  -58.0815 H   0  0  0  0  0  0  0  0  0  0  0  0
   14.3435   -3.6719  -56.7310 H   0  0  0  0  0  0  0  0  0  0  0  0
   14.0605   -6.0130  -55.9020 H   0  0  0  0  0  0  0  0  0  0  0  0
   13.0677   -6.9676  -57.9783 H   0  0  0  0  0  0  0  0  0  0  0  0
   12.0121   -7.2783  -56.5545 H   0  0  0  0  0  0  0  0  0  0  0  0
   11.9099   -5.6303  -54.6833 H   0  0  0  0  0  0  0  0  0  0  0  0
   12.9023   -4.1252  -54.7575 H   0  0  0  0  0  0  0  0  0  0  0  0
   12.2844   -2.2927  -56.4085 H   0  0  0  0  0  0  0  0  0  0  0  0
   10.8675   -2.5331  -57.4995 H   0  0  0  0  0  0  0  0  0  0  0  0
   10.4657   -3.6991  -51.6054 H   0  0  0  0  0  0  0  0  0  0  0  0
    9.3611   -4.0717  -49.3931 H   0  0  0  0  0  0  0  0  0  0  0  0
    7.2486   -2.9081  -48.8279 H   0  0  0  0  0  0  0  0  0  0  0  0
    6.1875   -1.3200  -50.4562 H   0  0  0  0  0  0  0  0  0  0  0  0
  1  2  1  0
  2  3  1  0
  3  4  2  0
  4  5  1  0
  5  6  2  0
  5  7  1  0
  8  7  1  1
  8  9  1  0
  9 10  1  0
 10 11  1  0
 11 12  1  0
 12 13  1  0
 13 14  1  0
 14 15  1  0
 14 16  1  0
 12 17  1  0
  4 18  1  0
 18 19  2  0
 19 20  1  0
 20 21  2  0
 21 22  1  0
 22 23  2  0
 23  2  1  0
 16  8  1  0
 23 18  1  0
 17  8  1  0
 15 10  1  0
  1 24  1  0
  1 25  1  0
  1 26  1  0
  7 27  1  0
  9 28  1  0
  9 29  1  0
 10 30  1  6
 11 31  1  0
 11 32  1  0
 12 33  1  6
 13 34  1  0
 13 35  1  0
 14 36  1  1
 15 37  1  0
 15 38  1  0
 16 39  1  0
 16 40  1  0
 17 41  1  0
 17 42  1  0
 19 43  1  0
 20 44  1  0
 21 45  1  0
 22 46  1  0
M  END
>  <meeko>  (121) 
{"is_sidechain": false}

$$$$

     RDKit          3D

 47 51  0  0  0  0  0  0  0  0999 V2000
    6.3320   -0.0270  -53.0300 C   0  0  0  0  0  0  0  0  0  0  0  0
    7.4460   -0.9310  -52.8920 N   0  0  0  0  0  0  0  0  0  0  0  0
    8.3610   -1.0340  -53.8910 N   0  0  0  0  0  0  0  0  0  0  0  0
    9.2570   -1.9590  -53.4450 C   0  0  0  0  0  0  0  0  0  0  0  0
   10.4240   -2.3670  -54.2440 C   0  0  0  0  0  0  0  0  0  0  0  0
   11.5210   -1.8300  -54.1420 O   0  0  0  0  0  0  0  0  0  0  0  0
   10.1370   -3.4070  -55.1020 N   0  0  0  0  0  0  0  0  0  0  0  0
   11.0660   -4.0450  -56.0270 C   0  0  2  0  0  0  0  0  0  0  0  0
   11.7220   -3.0140  -56.9790 C   0  0  0  0  0  0  0  0  0  0  0  0
   12.6600   -3.7180  -57.9750 C   0  0  1  0  0  0  0  0  0  0  0  0
   13.7540   -4.4700  -57.1970 C   0  0  0  0  0  0  0  0  0  0  0  0
   13.1170   -5.5210  -56.2730 C   0  0  2  0  0  0  0  0  0  0  0  0
   12.3060   -6.5150  -57.1190 C   0  0  0  0  0  0  0  0  0  0  0  0
   11.2070   -5.7710  -57.8920 C   0  0  2  0  0  0  0  0  0  0  0  0
   11.8520   -4.7220  -58.8120 C   0  0  0  0  0  0  0  0  0  0  0  0
   10.2780   -5.0620  -56.8930 C   0  0  0  0  0  0  0  0  0  0  0  0
   12.1790   -4.8180  -55.2760 C   0  0  0  0  0  0  0  0  0  0  0  0
    8.8820   -2.4130  -52.1740 C   0  0  0  0  0  0  0  0  0  0  0  0
    7.7380   -1.7440  -51.8590 C   0  0  0  0  0  0  0  0  0  0  0  0
    7.1630   -2.0730  -50.5490 C   0  0  0  0  0  0  0  0  0  0  0  0
    8.3470   -2.8980  -49.9270 C   0  0  0  0  0  0  0  0  0  0  0  0
    9.2910   -3.3370  -51.1050 C   0  0  0  0  0  0  0  0  0  0  0  0
    5.9715    0.2656  -52.0328 H   0  0  0  0  0  0  0  0  0  0  0  0
    6.6531    0.8691  -53.5813 H   0  0  0  0  0  0  0  0  0  0  0  0
    5.5212   -0.5257  -53.5813 H   0  0  0  0  0  0  0  0  0  0  0  0
    9.1710   -3.7240  -55.0450 H   0  0  0  0  0  0  0  0  0  0  0  0
   10.9351   -2.4842  -57.5359 H   0  0  0  0  0  0  0  0  0  0  0  0
   12.3094   -2.3020  -56.3807 H   0  0  0  0  0  0  0  0  0  0  0  0
   13.1226   -2.9720  -58.6379 H   0  0  0  0  0  0  0  0  0  0  0  0
   14.4273   -4.9709  -57.9082 H   0  0  0  0  0  0  0  0  0  0  0  0
   14.3214   -3.7512  -56.5876 H   0  0  0  0  0  0  0  0  0  0  0  0
   13.9045   -6.0586  -55.7245 H   0  0  0  0  0  0  0  0  0  0  0  0
   12.9758   -7.0184  -57.8317 H   0  0  0  0  0  0  0  0  0  0  0  0
   11.8409   -7.2590  -56.4556 H   0  0  0  0  0  0  0  0  0  0  0  0
   10.6299   -6.4876  -58.4949 H   0  0  0  0  0  0  0  0  0  0  0  0
   12.5219   -5.2248  -59.5250 H   0  0  0  0  0  0  0  0  0  0  0  0
   11.0625   -4.1852  -59.3584 H   0  0  0  0  0  0  0  0  0  0  0  0
    9.4923   -4.5289  -57.4484 H   0  0  0  0  0  0  0  0  0  0  0  0
    9.8346   -5.8186  -56.2289 H   0  0  0  0  0  0  0  0  0  0  0  0
   11.7171   -5.5716  -54.6212 H   0  0  0  0  0  0  0  0  0  0  0  0
   12.7660   -4.1042  -54.6795 H   0  0  0  0  0  0  0  0  0  0  0  0
    6.9431   -1.1693  -49.9617 H   0  0  0  0  0  0  0  0  0  0  0  0
    6.2001   -2.6034  -50.5870 H   0  0  0  0  0  0  0  0  0  0  0  0
    8.9041   -2.2742  -49.2125 H   0  0  0  0  0  0  0  0  0  0  0  0
    7.9641   -3.7785  -49.3902 H   0  0  0  0  0  0  0  0  0  0  0  0
   10.3504   -3.2019  -50.8417 H   0  0  0  0  0  0  0  0  0  0  0  0
    9.2037   -4.3997  -51.3753 H   0  0  0  0  0  0  0  0  0  0  0  0
  1  2  1  0
  2  3  1  0
  3  4  2  0
  4  5  1  0
  5  6  2  0
  5  7  1  0
  8  7  1  1
  8  9  1  0
  9 10  1  0
 10 11  1  0
 11 12  1  0
 12 13  1  0
 13 14  1  0
 14 15  1  0
 14 16  1  0
 12 17  1  0
  4 18  1  0
 18 19  2  0
 19 20  1  0
 20 21  1  0
 21 22  1  0
 19  2  1  0
 16  8  1  0
 22 18  1  0
 17  8  1  0
 15 10  1  0
  1 23  1  0
  1 24  1  0
  1 25  1  0
  7 26  1  0
  9 27  1  0
  9 28  1  0
 10 29  1  6
 11 30  1  0
 11 31  1  0
 12 32  1  1
 13 33  1  0
 13 34  1  0
 14 35  1  6
 15 36  1  0
 15 37  1  0
 16 38  1  0
 16 39  1  0
 17 40  1  0
 17 41  1  0
 20 42  1  0
 20 43  1  0
 21 44  1  0
 21 45  1  0
 22 46  1  0
 22 47  1  0
M  END
>  <meeko>  (122) 
{"is_sidechain": false}

$$$$

     RDKit          3D

 49 52  0  0  0  0  0  0  0  0999 V2000
    7.4400   -4.6130  -50.5360 C   0  0  0  0  0  0  0  0  0  0  0  0
    8.2510   -3.3900  -50.1420 C   0  0  0  0  0  0  0  0  0  0  0  0
    9.2300   -2.9870  -51.2450 C   0  0  0  0  0  0  0  0  0  0  0  0
    8.5940   -2.1170  -52.2780 C   0  0  0  0  0  0  0  0  0  0  0  0
    7.4140   -1.4100  -52.1590 C   0  0  0  0  0  0  0  0  0  0  0  0
    7.2310   -0.7650  -53.3410 N   0  0  0  0  0  0  0  0  0  0  0  0
    6.1320    0.1010  -53.6940 C   0  0  0  0  0  0  0  0  0  0  0  0
    8.2060   -0.9920  -54.2380 N   0  0  0  0  0  0  0  0  0  0  0  0
    9.0580   -1.8250  -53.5990 C   0  0  0  0  0  0  0  0  0  0  0  0
   10.2840   -2.3110  -54.2660 C   0  0  0  0  0  0  0  0  0  0  0  0
   11.4040   -1.8820  -54.0090 O   0  0  0  0  0  0  0  0  0  0  0  0
   10.0220   -3.2890  -55.2020 N   0  0  0  0  0  0  0  0  0  0  0  0
   11.0030   -3.9670  -56.0410 C   0  0  2  0  0  0  0  0  0  0  0  0
   10.2620   -5.0100  -56.9180 C   0  0  0  0  0  0  0  0  0  0  0  0
   11.2460   -5.7610  -57.8310 C   0  0  1  0  0  0  0  0  0  0  0  0
   11.9570   -4.7510  -58.7440 C   0  0  0  0  0  0  0  0  0  0  0  0
   12.7200   -3.7210  -57.8950 C   0  0  2  0  0  0  0  0  0  0  0  0
   13.7550   -4.4510  -57.0220 C   0  0  0  0  0  0  0  0  0  0  0  0
   13.0520   -5.4640  -56.1020 C   0  0  2  0  0  0  0  0  0  0  0  0
   12.2870   -6.4840  -56.9620 C   0  0  0  0  0  0  0  0  0  0  0  0
   12.0590   -4.7190  -55.1930 C   0  0  0  0  0  0  0  0  0  0  0  0
   11.7260   -2.9760  -56.9870 C   0  0  0  0  0  0  0  0  0  0  0  0
    7.0957   -5.1323  -49.6295 H   0  0  0  0  0  0  0  0  0  0  0  0
    6.5701   -4.2997  -51.1319 H   0  0  0  0  0  0  0  0  0  0  0  0
    8.0671   -5.2924  -51.1319 H   0  0  0  0  0  0  0  0  0  0  0  0
    7.5642   -2.5524  -49.9503 H   0  0  0  0  0  0  0  0  0  0  0  0
    8.8302   -3.6363  -49.2398 H   0  0  0  0  0  0  0  0  0  0  0  0
   10.0693   -2.4403  -50.7904 H   0  0  0  0  0  0  0  0  0  0  0  0
    9.5716   -3.9061  -51.7436 H   0  0  0  0  0  0  0  0  0  0  0  0
    6.7526   -1.3756  -51.2807 H   0  0  0  0  0  0  0  0  0  0  0  0
    5.6535    0.4781  -52.7781 H   0  0  0  0  0  0  0  0  0  0  0  0
    6.5083    0.9480  -54.2865 H   0  0  0  0  0  0  0  0  0  0  0  0
    5.3965   -0.4629  -54.2865 H   0  0  0  0  0  0  0  0  0  0  0  0
    9.0330   -3.5130  -55.2870 H   0  0  0  0  0  0  0  0  0  0  0  0
    9.7540   -5.7340  -56.2640 H   0  0  0  0  0  0  0  0  0  0  0  0
    9.5318   -4.4820  -57.5489 H   0  0  0  0  0  0  0  0  0  0  0  0
   10.7023   -6.4946  -58.4443 H   0  0  0  0  0  0  0  0  0  0  0  0
   12.6662   -5.2841  -59.3943 H   0  0  0  0  0  0  0  0  0  0  0  0
   11.2079   -4.2292  -59.3576 H   0  0  0  0  0  0  0  0  0  0  0  0
   13.2306   -3.0029  -58.5535 H   0  0  0  0  0  0  0  0  0  0  0  0
   14.4676   -4.9820  -57.6702 H   0  0  0  0  0  0  0  0  0  0  0  0
   14.2881   -3.7136  -56.4039 H   0  0  0  0  0  0  0  0  0  0  0  0
   13.7986   -5.9859  -55.4854 H   0  0  0  0  0  0  0  0  0  0  0  0
   12.9963   -7.0180  -57.6114 H   0  0  0  0  0  0  0  0  0  0  0  0
   11.7737   -7.1998  -56.3031 H   0  0  0  0  0  0  0  0  0  0  0  0
   11.5498   -5.4450  -54.5421 H   0  0  0  0  0  0  0  0  0  0  0  0
   12.6132   -3.9877  -54.5863 H   0  0  0  0  0  0  0  0  0  0  0  0
   12.2720   -2.2347  -56.3850 H   0  0  0  0  0  0  0  0  0  0  0  0
   10.9758   -2.4763  -57.6175 H   0  0  0  0  0  0  0  0  0  0  0  0
  1  2  1  0
  2  3  1  0
  3  4  1  0
  4  5  2  0
  5  6  1  0
  6  7  1  0
  6  8  1  0
  8  9  2  0
  9 10  1  0
 10 11  2  0
 10 12  1  0
 13 12  1  1
 13 14  1  0
 14 15  1  0
 15 16  1  0
 16 17  1  0
 17 18  1  0
 18 19  1  0
 19 20  1  0
 19 21  1  0
 17 22  1  0
  9  4  1  0
 21 13  1  0
 22 13  1  0
 20 15  1  0
  1 23  1  0
  1 24  1  0
  1 25  1  0
  2 26  1  0
  2 27  1  0
  3 28  1  0
  3 29  1  0
  5 30  1  0
  7 31  1  0
  7 32  1  0
  7 33  1  0
 12 34  1  0
 14 35  1  0
 14 36  1  0
 15 37  1  6
 16 38  1  0
 16 39  1  0
 17 40  1  6
 18 41  1  0
 18 42  1  0
 19 43  1  1
 20 44  1  0
 20 45  1  0
 21 46  1  0
 21 47  1  0
 22 48  1  0
 22 49  1  0
M  END
>  <meeko>  (123) 
{"is_sidechain": false}

$$$$

     RDKit          3D

 56 60  0  0  0  0  0  0  0  0999 V2000
    5.9160    0.4900  -52.7170 C   0  0  0  0  0  0  0  0  0  0  0  0
    6.2240   -0.3360  -53.9570 C   0  0  0  0  0  0  0  0  0  0  0  0
    7.6850   -0.6100  -54.1140 C   0  0  0  0  0  0  0  0  0  0  0  0
    8.6040    0.0430  -54.9940 C   0  0  0  0  0  0  0  0  0  0  0  0
    8.3340    1.1280  -55.9600 C   0  0  0  0  0  0  0  0  0  0  0  0
    7.2040    1.5040  -56.2530 O   0  0  0  0  0  0  0  0  0  0  0  0
    9.4900    1.6620  -56.4890 N   0  0  0  0  0  0  0  0  0  0  0  0
    9.5770    2.7330  -57.4750 C   0  0  2  0  0  0  0  0  0  0  0  0
    8.7800    2.3940  -58.7580 C   0  0  0  0  0  0  0  0  0  0  0  0
    8.9260    3.5170  -59.8000 C   0  0  1  0  0  0  0  0  0  0  0  0
    8.4040    4.8330  -59.2010 C   0  0  0  0  0  0  0  0  0  0  0  0
    9.2120    5.2010  -57.9440 C   0  0  2  0  0  0  0  0  0  0  0  0
   10.6940    5.3530  -58.3210 C   0  0  0  0  0  0  0  0  0  0  0  0
   11.2230    4.0390  -58.9120 C   0  0  2  0  0  0  0  0  0  0  0  0
   10.4100    3.6800  -60.1650 C   0  0  0  0  0  0  0  0  0  0  0  0
   11.0660    2.9180  -57.8710 C   0  0  0  0  0  0  0  0  0  0  0  0
    9.0650    4.0780  -56.9020 C   0  0  0  0  0  0  0  0  0  0  0  0
    9.8500   -0.4610  -54.8570 N   0  0  0  0  0  0  0  0  0  0  0  0
    9.7210   -1.4160  -53.9180 N   0  0  0  0  0  0  0  0  0  0  0  0
   10.8830   -2.1840  -53.5330 C   0  0  0  0  0  0  0  0  0  0  0  0
    8.4470   -1.5450  -53.4270 C   0  0  0  0  0  0  0  0  0  0  0  0
    8.0630   -2.5040  -52.3990 C   0  0  0  0  0  0  0  0  0  0  0  0
    7.5980   -3.7730  -52.7590 C   0  0  0  0  0  0  0  0  0  0  0  0
    7.2350   -4.6940  -51.7740 C   0  0  0  0  0  0  0  0  0  0  0  0
    7.3330   -4.3490  -50.4270 C   0  0  0  0  0  0  0  0  0  0  0  0
    7.7910   -3.0850  -50.0620 C   0  0  0  0  0  0  0  0  0  0  0  0
    8.1550   -2.1630  -51.0450 C   0  0  0  0  0  0  0  0  0  0  0  0
    6.1371   -0.1029  -51.8172 H   0  0  0  0  0  0  0  0  0  0  0  0
    6.5357    1.3989  -52.7186 H   0  0  0  0  0  0  0  0  0  0  0  0
    4.8526    0.7713  -52.7186 H   0  0  0  0  0  0  0  0  0  0  0  0
    5.6911   -1.2955  -53.8830 H   0  0  0  0  0  0  0  0  0  0  0  0
    5.8963    0.2422  -54.8336 H   0  0  0  0  0  0  0  0  0  0  0  0
   10.3380    1.2200  -56.1360 H   0  0  0  0  0  0  0  0  0  0  0  0
    9.1625    1.4544  -59.1833 H   0  0  0  0  0  0  0  0  0  0  0  0
    7.7166    2.2889  -58.4971 H   0  0  0  0  0  0  0  0  0  0  0  0
    8.3486    3.2644  -60.7015 H   0  0  0  0  0  0  0  0  0  0  0  0
    8.5042    5.6364  -59.9457 H   0  0  0  0  0  0  0  0  0  0  0  0
    7.3467    4.7076  -58.9246 H   0  0  0  0  0  0  0  0  0  0  0  0
    8.8381    6.1470  -57.5253 H   0  0  0  0  0  0  0  0  0  0  0  0
   10.8000    6.1559  -59.0654 H   0  0  0  0  0  0  0  0  0  0  0  0
   11.2723    5.6017  -57.4189 H   0  0  0  0  0  0  0  0  0  0  0  0
   12.2836    4.1548  -59.1797 H   0  0  0  0  0  0  0  0  0  0  0  0
   10.5159    4.4823  -60.9101 H   0  0  0  0  0  0  0  0  0  0  0  0
   10.7858    2.7332  -60.5802 H   0  0  0  0  0  0  0  0  0  0  0  0
   11.4451    1.9768  -58.2957 H   0  0  0  0  0  0  0  0  0  0  0  0
   11.6369    3.1918  -56.9715 H   0  0  0  0  0  0  0  0  0  0  0  0
    9.6504    4.3361  -56.0072 H   0  0  0  0  0  0  0  0  0  0  0  0
    8.0013    3.9714  -56.6428 H   0  0  0  0  0  0  0  0  0  0  0  0
   10.9473   -2.2265  -52.4357 H   0  0  0  0  0  0  0  0  0  0  0  0
   10.7979   -3.2043  -53.9351 H   0  0  0  0  0  0  0  0  0  0  0  0
   11.7883   -1.7058  -53.9351 H   0  0  0  0  0  0  0  0  0  0  0  0
    7.5180   -4.0465  -53.8214 H   0  0  0  0  0  0  0  0  0  0  0  0
    6.8717   -5.6918  -52.0611 H   0  0  0  0  0  0  0  0  0  0  0  0
    7.0484   -5.0755  -49.6516 H   0  0  0  0  0  0  0  0  0  0  0  0
    7.8659   -2.8133  -48.9987 H   0  0  0  0  0  0  0  0  0  0  0  0
    8.5153   -1.1652  -50.7542 H   0  0  0  0  0  0  0  0  0  0  0  0
  1  2  1  0
  2  3  1  0
  3  4  1  0
  4  5  1  0
  5  6  2  0
  5  7  1  0
  8  7  1  1
  8  9  1  0
  9 10  1  0
 10 11  1  0
 11 12  1  0
 12 13  1  0
 13 14  1  0
 14 15  1  0
 14 16  1  0
 12 17  1  0
  4 18  2  0
 18 19  1  0
 19 20  1  0
 19 21  1  0
 21 22  1  0
 22 23  2  0
 23 24  1  0
 24 25  2  0
 25 26  1  0
 26 27  2  0
 21  3  2  0
 27 22  1  0
 16  8  1  0
 17  8  1  0
 15 10  1  0
  1 28  1  0
  1 29  1  0
  1 30  1  0
  2 31  1  0
  2 32  1  0
  7 33  1  0
  9 34  1  0
  9 35  1  0
 10 36  1  6
 11 37  1  0
 11 38  1  0
 12 39  1  1
 13 40  1  0
 13 41  1  0
 14 42  1  6
 15 43  1  0
 15 44  1  0
 16 45  1  0
 16 46  1  0
 17 47  1  0
 17 48  1  0
 20 49  1  0
 20 50  1  0
 20 51  1  0
 23 52  1  0
 24 53  1  0
 25 54  1  0
 26 55  1  0
 27 56  1  0
M  END
>  <meeko>  (124) 
{"is_sidechain": false}

$$$$

     RDKit          3D

 65 69  0  0  0  0  0  0  0  0999 V2000
   11.0680   -3.9480  -54.9530 C   0  0  0  0  0  0  0  0  0  0  0  0
   10.8740   -2.5690  -55.5620 C   0  0  0  0  0  0  0  0  0  0  0  0
   10.7560   -1.4920  -54.4810 C   0  0  0  0  0  0  0  0  0  0  0  0
    9.3750   -0.9190  -54.4040 C   0  0  0  0  0  0  0  0  0  0  0  0
    8.8500    0.1610  -55.1740 C   0  0  0  0  0  0  0  0  0  0  0  0
    9.5320    0.9750  -56.2050 C   0  0  0  0  0  0  0  0  0  0  0  0
   10.7160    0.8440  -56.4930 O   0  0  0  0  0  0  0  0  0  0  0  0
    8.6870    1.8930  -56.7920 N   0  0  0  0  0  0  0  0  0  0  0  0
    9.0480    2.8710  -57.8110 C   0  0  2  0  0  0  0  0  0  0  0  0
    9.8110    4.0740  -57.2020 C   0  0  0  0  0  0  0  0  0  0  0  0
   10.1360    5.1140  -58.2880 C   0  0  1  0  0  0  0  0  0  0  0  0
   10.9980    4.4550  -59.3790 C   0  0  0  0  0  0  0  0  0  0  0  0
   10.2370    3.2800  -60.0160 C   0  0  2  0  0  0  0  0  0  0  0  0
    8.9280    3.7980  -60.6320 C   0  0  0  0  0  0  0  0  0  0  0  0
    8.0600    4.4510  -59.5460 C   0  0  2  0  0  0  0  0  0  0  0  0
    8.8270    5.6220  -58.9150 C   0  0  0  0  0  0  0  0  0  0  0  0
    7.7450    3.4100  -58.4600 C   0  0  0  0  0  0  0  0  0  0  0  0
    9.9110    2.2390  -58.9310 C   0  0  0  0  0  0  0  0  0  0  0  0
    7.5660    0.4040  -54.8480 N   0  0  0  0  0  0  0  0  0  0  0  0
    7.2770   -0.5010  -53.8950 N   0  0  0  0  0  0  0  0  0  0  0  0
    5.9390   -0.4820  -53.3500 C   0  0  0  0  0  0  0  0  0  0  0  0
    8.3370   -1.3090  -53.5620 C   0  0  0  0  0  0  0  0  0  0  0  0
    8.3340   -2.3820  -52.5020 C   0  0  0  0  0  0  0  0  0  0  0  0
    7.8380   -1.8970  -51.1340 C   0  0  0  0  0  0  0  0  0  0  0  0
    8.0420   -2.9640  -50.0540 C   0  0  0  0  0  0  0  0  0  0  0  0
    7.8780   -4.3970  -50.5660 C   0  0  0  0  0  0  0  0  0  0  0  0
    7.0130   -4.4690  -51.8170 C   0  0  0  0  0  0  0  0  0  0  0  0
    7.6180   -3.6630  -52.9690 C   0  0  0  0  0  0  0  0  0  0  0  0
   11.0569   -3.8692  -53.8559 H   0  0  0  0  0  0  0  0  0  0  0  0
   10.2544   -4.6115  -55.2812 H   0  0  0  0  0  0  0  0  0  0  0  0
   12.0331   -4.3613  -55.2812 H   0  0  0  0  0  0  0  0  0  0  0  0
   11.7358   -2.3375  -56.2052 H   0  0  0  0  0  0  0  0  0  0  0  0
    9.9417   -2.5767  -56.1458 H   0  0  0  0  0  0  0  0  0  0  0  0
   11.0098   -1.9373  -53.5077 H   0  0  0  0  0  0  0  0  0  0  0  0
   11.4469   -0.6760  -54.7395 H   0  0  0  0  0  0  0  0  0  0  0  0
    7.7460    1.8800  -56.4050 H   0  0  0  0  0  0  0  0  0  0  0  0
    9.1870    4.5432  -56.4271 H   0  0  0  0  0  0  0  0  0  0  0  0
   10.7529    3.7120  -56.7640 H   0  0  0  0  0  0  0  0  0  0  0  0
   10.6830    5.9569  -57.8405 H   0  0  0  0  0  0  0  0  0  0  0  0
   11.2344    5.1985  -60.1544 H   0  0  0  0  0  0  0  0  0  0  0  0
   11.9269    4.0788  -58.9256 H   0  0  0  0  0  0  0  0  0  0  0  0
   10.8566    2.8177  -60.7985 H   0  0  0  0  0  0  0  0  0  0  0  0
    9.1599    4.5413  -61.4090 H   0  0  0  0  0  0  0  0  0  0  0  0
    8.3785    2.9546  -61.0754 H   0  0  0  0  0  0  0  0  0  0  0  0
    7.1251    4.8206  -59.9924 H   0  0  0  0  0  0  0  0  0  0  0  0
    9.0592    6.3662  -59.6911 H   0  0  0  0  0  0  0  0  0  0  0  0
    8.2056    6.0818  -58.1325 H   0  0  0  0  0  0  0  0  0  0  0  0
    7.1230    3.8780  -57.6828 H   0  0  0  0  0  0  0  0  0  0  0  0
    7.2115    2.5683  -58.9258 H   0  0  0  0  0  0  0  0  0  0  0  0
    9.3580    1.4039  -59.3858 H   0  0  0  0  0  0  0  0  0  0  0  0
   10.8526    1.8776  -58.4919 H   0  0  0  0  0  0  0  0  0  0  0  0
    5.9906   -0.4827  -52.2512 H   0  0  0  0  0  0  0  0  0  0  0  0
    5.4166    0.4237  -53.6919 H   0  0  0  0  0  0  0  0  0  0  0  0
    5.3911   -1.3725  -53.6919 H   0  0  0  0  0  0  0  0  0  0  0  0
    9.3910   -2.6452  -52.3486 H   0  0  0  0  0  0  0  0  0  0  0  0
    8.3952   -0.9914  -50.8520 H   0  0  0  0  0  0  0  0  0  0  0  0
    6.7614   -1.6851  -51.2118 H   0  0  0  0  0  0  0  0  0  0  0  0
    9.0576   -2.8552  -49.6458 H   0  0  0  0  0  0  0  0  0  0  0  0
    7.2643   -2.8037  -49.2928 H   0  0  0  0  0  0  0  0  0  0  0  0
    8.8724   -4.8050  -50.7997 H   0  0  0  0  0  0  0  0  0  0  0  0
    7.3790   -4.9804  -49.7782 H   0  0  0  0  0  0  0  0  0  0  0  0
    6.9209   -5.5204  -52.1270 H   0  0  0  0  0  0  0  0  0  0  0  0
    6.0280   -4.0413  -51.5786 H   0  0  0  0  0  0  0  0  0  0  0  0
    8.3455   -4.2980  -53.4959 H   0  0  0  0  0  0  0  0  0  0  0  0
    6.7892   -3.3546  -53.6231 H   0  0  0  0  0  0  0  0  0  0  0  0
  1  2  1  0
  2  3  1  0
  3  4  1  0
  4  5  1  0
  5  6  1  0
  6  7  2  0
  6  8  1  0
  9  8  1  1
  9 10  1  0
 10 11  1  0
 11 12  1  0
 12 13  1  0
 13 14  1  0
 14 15  1  0
 15 16  1  0
 15 17  1  0
 13 18  1  0
  5 19  2  0
 19 20  1  0
 20 21  1  0
 20 22  1  0
 22 23  1  0
 23 24  1  0
 24 25  1  0
 25 26  1  0
 26 27  1  0
 27 28  1  0
 22  4  2  0
 28 23  1  0
 17  9  1  0
 18  9  1  0
 16 11  1  0
  1 29  1  0
  1 30  1  0
  1 31  1  0
  2 32  1  0
  2 33  1  0
  3 34  1  0
  3 35  1  0
  8 36  1  0
 10 37  1  0
 10 38  1  0
 11 39  1  1
 12 40  1  0
 12 41  1  0
 13 42  1  6
 14 43  1  0
 14 44  1  0
 15 45  1  6
 16 46  1  0
 16 47  1  0
 17 48  1  0
 17 49  1  0
 18 50  1  0
 18 51  1  0
 21 52  1  0
 21 53  1  0
 21 54  1  0
 23 55  1  0
 24 56  1  0
 24 57  1  0
 25 58  1  0
 25 59  1  0
 26 60  1  0
 26 61  1  0
 27 62  1  0
 27 63  1  0
 28 64  1  0
 28 65  1  0
M  END
>  <meeko>  (125) 
{"is_sidechain": false}

$$$$

     RDKit          3D

 53 57  0  0  0  0  0  0  0  0999 V2000
   10.0580   -2.8240  -54.9180 C   0  0  0  0  0  0  0  0  0  0  0  0
   10.0580   -1.4720  -54.2210 C   0  0  0  0  0  0  0  0  0  0  0  0
    8.6940   -0.8620  -54.1370 C   0  0  0  0  0  0  0  0  0  0  0  0
    8.2020    0.2660  -54.8700 C   0  0  0  0  0  0  0  0  0  0  0  0
    8.9080    1.0820  -55.8820 C   0  0  0  0  0  0  0  0  0  0  0  0
   10.1130    0.9920  -56.0970 O   0  0  0  0  0  0  0  0  0  0  0  0
    8.0640    1.9450  -56.5470 N   0  0  0  0  0  0  0  0  0  0  0  0
    8.4400    2.8860  -57.5960 C   0  0  2  0  0  0  0  0  0  0  0  0
    7.1500    3.3640  -58.3150 C   0  0  0  0  0  0  0  0  0  0  0  0
    7.4810    4.3620  -59.4360 C   0  0  1  0  0  0  0  0  0  0  0  0
    8.2010    5.5780  -58.8320 C   0  0  0  0  0  0  0  0  0  0  0  0
    9.4960    5.1300  -58.1380 C   0  0  2  0  0  0  0  0  0  0  0  0
   10.4120    4.4410  -59.1650 C   0  0  0  0  0  0  0  0  0  0  0  0
    9.7000    3.2220  -59.7750 C   0  0  2  0  0  0  0  0  0  0  0  0
    8.4040    3.6810  -60.4590 C   0  0  0  0  0  0  0  0  0  0  0  0
    9.3570    2.2240  -58.6550 C   0  0  0  0  0  0  0  0  0  0  0  0
    9.1540    4.1320  -57.0170 C   0  0  0  0  0  0  0  0  0  0  0  0
    6.9270    0.5510  -54.5270 N   0  0  0  0  0  0  0  0  0  0  0  0
    6.6280   -0.3670  -53.5980 N   0  0  0  0  0  0  0  0  0  0  0  0
    7.6430   -1.2390  -53.3150 C   0  0  0  0  0  0  0  0  0  0  0  0
    7.5000   -2.2990  -52.3270 C   0  0  0  0  0  0  0  0  0  0  0  0
    8.1090   -2.1880  -51.0720 C   0  0  0  0  0  0  0  0  0  0  0  0
    7.9780   -3.2110  -50.1300 C   0  0  0  0  0  0  0  0  0  0  0  0
    7.2380   -4.3510  -50.4350 C   0  0  0  0  0  0  0  0  0  0  0  0
    6.6250   -4.4690  -51.6810 C   0  0  0  0  0  0  0  0  0  0  0  0
    6.7550   -3.4480  -52.6250 C   0  0  0  0  0  0  0  0  0  0  0  0
   11.0951   -3.1499  -55.0860 H   0  0  0  0  0  0  0  0  0  0  0  0
    9.5395   -3.5615  -54.2877 H   0  0  0  0  0  0  0  0  0  0  0  0
    9.5395   -2.7384  -55.8843 H   0  0  0  0  0  0  0  0  0  0  0  0
   10.4478   -1.6027  -53.2007 H   0  0  0  0  0  0  0  0  0  0  0  0
   10.6878   -0.7935  -54.8151 H   0  0  0  0  0  0  0  0  0  0  0  0
    7.0970    1.8890  -56.2340 H   0  0  0  0  0  0  0  0  0  0  0  0
    6.6364    2.4933  -58.7488 H   0  0  0  0  0  0  0  0  0  0  0  0
    6.5043    3.8655  -57.5791 H   0  0  0  0  0  0  0  0  0  0  0  0
    6.5549    4.6887  -59.9315 H   0  0  0  0  0  0  0  0  0  0  0  0
    8.4449    6.2918  -59.6327 H   0  0  0  0  0  0  0  0  0  0  0  0
    7.5423    6.0574  -58.0929 H   0  0  0  0  0  0  0  0  0  0  0  0
   10.0078    6.0057  -57.7124 H   0  0  0  0  0  0  0  0  0  0  0  0
   10.6626    5.1536  -59.9646 H   0  0  0  0  0  0  0  0  0  0  0  0
   11.3303    4.1061  -58.6604 H   0  0  0  0  0  0  0  0  0  0  0  0
   10.3571    2.7400  -60.5139 H   0  0  0  0  0  0  0  0  0  0  0  0
    8.6481    4.3939  -61.2603 H   0  0  0  0  0  0  0  0  0  0  0  0
    7.8898    2.8053  -60.8818 H   0  0  0  0  0  0  0  0  0  0  0  0
    8.8391    1.3565  -59.0900 H   0  0  0  0  0  0  0  0  0  0  0  0
   10.2896    1.9051  -58.1666 H   0  0  0  0  0  0  0  0  0  0  0  0
   10.0822    3.8173  -56.5175 H   0  0  0  0  0  0  0  0  0  0  0  0
    8.4825    4.6232  -56.2975 H   0  0  0  0  0  0  0  0  0  0  0  0
    5.6990   -0.3580  -53.1900 H   0  0  0  0  0  0  0  0  0  0  0  0
    8.6944   -1.2898  -50.8259 H   0  0  0  0  0  0  0  0  0  0  0  0
    8.4600   -3.1162  -49.1458 H   0  0  0  0  0  0  0  0  0  0  0  0
    7.1376   -5.1571  -49.6933 H   0  0  0  0  0  0  0  0  0  0  0  0
    6.0379   -5.3676  -51.9213 H   0  0  0  0  0  0  0  0  0  0  0  0
    6.2701   -3.5462  -53.6075 H   0  0  0  0  0  0  0  0  0  0  0  0
  1  2  1  0
  2  3  1  0
  3  4  1  0
  4  5  1  0
  5  6  2  0
  5  7  1  0
  8  7  1  1
  8  9  1  0
  9 10  1  0
 10 11  1  0
 11 12  1  0
 12 13  1  0
 13 14  1  0
 14 15  1  0
 14 16  1  0
 12 17  1  0
  4 18  2  0
 18 19  1  0
 19 20  1  0
 20 21  1  0
 21 22  2  0
 22 23  1  0
 23 24  2  0
 24 25  1  0
 25 26  2  0
 20  3  2  0
 26 21  1  0
 16  8  1  0
 17  8  1  0
 15 10  1  0
  1 27  1  0
  1 28  1  0
  1 29  1  0
  2 30  1  0
  2 31  1  0
  7 32  1  0
  9 33  1  0
  9 34  1  0
 10 35  1  6
 11 36  1  0
 11 37  1  0
 12 38  1  1
 13 39  1  0
 13 40  1  0
 14 41  1  6
 15 42  1  0
 15 43  1  0
 16 44  1  0
 16 45  1  0
 17 46  1  0
 17 47  1  0
 19 48  1  0
 22 49  1  0
 23 50  1  0
 24 51  1  0
 25 52  1  0
 26 53  1  0
M  END
>  <meeko>  (126) 
{"is_sidechain": false}

$$$$

     RDKit          3D

 53 57  0  0  0  0  0  0  0  0999 V2000
   10.1980   -2.4990  -54.9240 C   0  0  0  0  0  0  0  0  0  0  0  0
   10.0260   -1.2440  -54.0820 C   0  0  0  0  0  0  0  0  0  0  0  0
    8.6220   -0.7260  -54.1140 C   0  0  0  0  0  0  0  0  0  0  0  0
    7.4980   -1.1720  -53.3460 C   0  0  0  0  0  0  0  0  0  0  0  0
    7.4310   -2.2550  -52.3690 C   0  0  0  0  0  0  0  0  0  0  0  0
    6.9470   -3.5190  -52.7290 C   0  0  0  0  0  0  0  0  0  0  0  0
    6.8930   -4.5490  -51.7860 C   0  0  0  0  0  0  0  0  0  0  0  0
    7.3150   -4.3200  -50.4770 C   0  0  0  0  0  0  0  0  0  0  0  0
    7.7850   -3.0610  -50.1060 C   0  0  0  0  0  0  0  0  0  0  0  0
    7.8390   -2.0310  -51.0480 C   0  0  0  0  0  0  0  0  0  0  0  0
    6.4150   -0.4240  -53.6030 N   0  0  0  0  0  0  0  0  0  0  0  0
    6.8340    0.4680  -54.5040 N   0  0  0  0  0  0  0  0  0  0  0  0
    8.1350    0.3190  -54.8890 C   0  0  0  0  0  0  0  0  0  0  0  0
    8.8050    1.1680  -55.8450 C   0  0  0  0  0  0  0  0  0  0  0  0
    9.9950    1.0570  -56.1140 O   0  0  0  0  0  0  0  0  0  0  0  0
    7.9760    2.0950  -56.4470 N   0  0  0  0  0  0  0  0  0  0  0  0
    8.4030    3.0140  -57.5110 C   0  0  2  0  0  0  0  0  0  0  0  0
    9.2590    2.2930  -58.5810 C   0  0  0  0  0  0  0  0  0  0  0  0
    9.6390    3.2630  -59.7140 C   0  0  1  0  0  0  0  0  0  0  0  0
    8.3600    3.7940  -60.3790 C   0  0  0  0  0  0  0  0  0  0  0  0
    7.4990    4.5360  -59.3450 C   0  0  2  0  0  0  0  0  0  0  0  0
    8.2990    5.7110  -58.7650 C   0  0  0  0  0  0  0  0  0  0  0  0
    9.5770    5.1920  -58.0890 C   0  0  2  0  0  0  0  0  0  0  0  0
   10.4320    4.4440  -59.1260 C   0  0  0  0  0  0  0  0  0  0  0  0
    9.1960    4.2250  -56.9540 C   0  0  0  0  0  0  0  0  0  0  0  0
    7.1300    3.5690  -58.2090 C   0  0  0  0  0  0  0  0  0  0  0  0
   10.3174   -3.3703  -54.2633 H   0  0  0  0  0  0  0  0  0  0  0  0
    9.3107   -2.6391  -55.5588 H   0  0  0  0  0  0  0  0  0  0  0  0
   11.0903   -2.3952  -55.5588 H   0  0  0  0  0  0  0  0  0  0  0  0
   10.2933   -1.4773  -53.0408 H   0  0  0  0  0  0  0  0  0  0  0  0
   10.6812   -0.4658  -54.5004 H   0  0  0  0  0  0  0  0  0  0  0  0
    6.6076   -3.7020  -53.7592 H   0  0  0  0  0  0  0  0  0  0  0  0
    6.5173   -5.5411  -52.0767 H   0  0  0  0  0  0  0  0  0  0  0  0
    7.2771   -5.1329  -49.7369 H   0  0  0  0  0  0  0  0  0  0  0  0
    8.1131   -2.8788  -49.0720 H   0  0  0  0  0  0  0  0  0  0  0  0
    8.2045   -1.0371  -50.7503 H   0  0  0  0  0  0  0  0  0  0  0  0
    6.1790    1.1810  -54.8070 H   0  0  0  0  0  0  0  0  0  0  0  0
    6.9910    1.8690  -56.4380 H   0  0  0  0  0  0  0  0  0  0  0  0
   10.1764    1.9085  -58.1113 H   0  0  0  0  0  0  0  0  0  0  0  0
    8.6728    1.4644  -59.0050 H   0  0  0  0  0  0  0  0  0  0  0  0
   10.2533    2.7375  -60.4600 H   0  0  0  0  0  0  0  0  0  0  0  0
    8.6314    4.4854  -61.1904 H   0  0  0  0  0  0  0  0  0  0  0  0
    7.7866    2.9480  -60.7858 H   0  0  0  0  0  0  0  0  0  0  0  0
    6.5850    4.9127  -59.8274 H   0  0  0  0  0  0  0  0  0  0  0  0
    8.5708    6.4026  -59.5761 H   0  0  0  0  0  0  0  0  0  0  0  0
    7.6828    6.2350  -58.0195 H   0  0  0  0  0  0  0  0  0  0  0  0
   10.1475    6.0382  -57.6786 H   0  0  0  0  0  0  0  0  0  0  0  0
   10.7088    5.1352  -59.9357 H   0  0  0  0  0  0  0  0  0  0  0  0
   11.3383    4.0597  -58.6350 H   0  0  0  0  0  0  0  0  0  0  0  0
   10.1123    3.8629  -56.4649 H   0  0  0  0  0  0  0  0  0  0  0  0
    8.5638    4.7599  -56.2300 H   0  0  0  0  0  0  0  0  0  0  0  0
    6.5175    4.1029  -57.4675 H   0  0  0  0  0  0  0  0  0  0  0  0
    6.5700    2.7245  -58.6371 H   0  0  0  0  0  0  0  0  0  0  0  0
  1  2  1  0
  2  3  1  0
  3  4  1  0
  4  5  1  0
  5  6  2  0
  6  7  1  0
  7  8  2  0
  8  9  1  0
  9 10  2  0
  4 11  2  0
 11 12  1  0
 12 13  1  0
 13 14  1  0
 14 15  2  0
 14 16  1  0
 17 16  1  1
 17 18  1  0
 18 19  1  0
 19 20  1  0
 20 21  1  0
 21 22  1  0
 22 23  1  0
 23 24  1  0
 23 25  1  0
 21 26  1  0
 13  3  2  0
 25 17  1  0
 10  5  1  0
 26 17  1  0
 24 19  1  0
  1 27  1  0
  1 28  1  0
  1 29  1  0
  2 30  1  0
  2 31  1  0
  6 32  1  0
  7 33  1  0
  8 34  1  0
  9 35  1  0
 10 36  1  0
 12 37  1  0
 16 38  1  0
 18 39  1  0
 18 40  1  0
 19 41  1  6
 20 42  1  0
 20 43  1  0
 21 44  1  6
 22 45  1  0
 22 46  1  0
 23 47  1  1
 24 48  1  0
 24 49  1  0
 25 50  1  0
 25 51  1  0
 26 52  1  0
 26 53  1  0
M  END
>  <meeko>  (127) 
{"is_sidechain": false}

$$$$
