
     RDKit          3D

 50 54  0  0  0  0  0  0  0  0999 V2000
    3.6853   -1.9215   -1.3698 C   0  0  0  0  0  0  0  0  0  0  0  0
    3.0193   -0.8223   -0.7078 N   0  0  0  0  0  0  0  0  0  0  0  0
    1.6709   -0.8265   -0.6414 N   0  0  0  0  0  0  0  0  0  0  0  0
    1.3742    0.2725    0.0827 C   0  0  0  0  0  0  0  0  0  0  0  0
   -0.0136    0.6408    0.4090 C   0  0  0  0  0  0  0  0  0  0  0  0
   -0.2952    1.6339    1.0703 O   0  0  0  0  0  0  0  0  0  0  0  0
   -0.9331   -0.2462   -0.1064 N   0  0  0  0  0  0  0  0  0  0  0  0
   -2.3828   -0.1670    0.0358 C   0  0  2  0  0  0  0  0  0  0  0  0
   -3.0175   -1.3741   -0.7047 C   0  0  0  0  0  0  0  0  0  0  0  0
   -4.5500   -1.3466   -0.5907 C   0  0  1  0  0  0  0  0  0  0  0  0
   -4.9461   -1.4025    0.8931 C   0  0  0  0  0  0  0  0  0  0  0  0
   -4.3487   -0.2004    1.6414 C   0  0  2  0  0  0  0  0  0  0  0  0
   -4.8742    1.1011    1.0121 C   0  0  0  0  0  0  0  0  0  0  0  0
   -4.4815    1.1670   -0.4737 C   0  0  2  0  0  0  0  0  0  0  0  0
   -5.0781   -0.0430   -1.2098 C   0  0  0  0  0  0  0  0  0  0  0  0
   -2.9477    1.1302   -0.5941 C   0  0  0  0  0  0  0  0  0  0  0  0
   -2.8149   -0.2375    1.5214 C   0  0  0  0  0  0  0  0  0  0  0  0
    2.5507    0.9680    0.4519 C   0  0  0  0  0  0  0  0  0  0  0  0
    3.6036    0.2581   -0.0904 C   0  0  0  0  0  0  0  0  0  0  0  0
    5.0365    0.5223   -0.0280 C   0  0  0  0  0  0  0  0  0  0  0  0
    5.7831    0.7097   -1.1979 C   0  0  0  0  0  0  0  0  0  0  0  0
    7.1548    0.9634   -1.1279 C   0  0  0  0  0  0  0  0  0  0  0  0
    7.7883    1.0370    0.1114 C   0  0  0  0  0  0  0  0  0  0  0  0
    7.0512    0.8628    1.2815 C   0  0  0  0  0  0  0  0  0  0  0  0
    5.6795    0.6101    1.2124 C   0  0  0  0  0  0  0  0  0  0  0  0
    3.9307   -1.6078   -2.3870 H   0  0  0  0  0  0  0  0  0  0  0  0
    4.5880   -2.1847   -0.8137 H   0  0  0  0  0  0  0  0  0  0  0  0
    3.0147   -2.7848   -1.3949 H   0  0  0  0  0  0  0  0  0  0  0  0
   -0.5132   -1.0120   -0.6295 H   0  0  0  0  0  0  0  0  0  0  0  0
   -2.7251   -1.3637   -1.7633 H   0  0  0  0  0  0  0  0  0  0  0  0
   -2.6326   -2.3158   -0.2906 H   0  0  0  0  0  0  0  0  0  0  0  0
   -4.9761   -2.2063   -1.1197 H   0  0  0  0  0  0  0  0  0  0  0  0
   -4.5899   -2.3380    1.3415 H   0  0  0  0  0  0  0  0  0  0  0  0
   -6.0388   -1.3989    0.9897 H   0  0  0  0  0  0  0  0  0  0  0  0
   -4.6371   -0.2428    2.6976 H   0  0  0  0  0  0  0  0  0  0  0  0
   -4.4656    1.9675    1.5465 H   0  0  0  0  0  0  0  0  0  0  0  0
   -5.9654    1.1508    1.1127 H   0  0  0  0  0  0  0  0  0  0  0  0
   -4.8640    2.0935   -0.9163 H   0  0  0  0  0  0  0  0  0  0  0  0
   -4.8169   -0.0004   -2.2743 H   0  0  0  0  0  0  0  0  0  0  0  0
   -6.1731   -0.0160   -1.1494 H   0  0  0  0  0  0  0  0  0  0  0  0
   -2.5291    2.0173   -0.1041 H   0  0  0  0  0  0  0  0  0  0  0  0
   -2.6543    1.1959   -1.6501 H   0  0  0  0  0  0  0  0  0  0  0  0
   -2.3913    0.5976    2.0919 H   0  0  0  0  0  0  0  0  0  0  0  0
   -2.4262   -1.1540    1.9846 H   0  0  0  0  0  0  0  0  0  0  0  0
    2.6088    1.8820    1.0276 H   0  0  0  0  0  0  0  0  0  0  0  0
    5.3008    0.6776   -2.1719 H   0  0  0  0  0  0  0  0  0  0  0  0
    7.7270    1.1123   -2.0400 H   0  0  0  0  0  0  0  0  0  0  0  0
    8.8553    1.2379    0.1661 H   0  0  0  0  0  0  0  0  0  0  0  0
    7.5426    0.9268    2.2490 H   0  0  0  0  0  0  0  0  0  0  0  0
    5.1168    0.4770    2.1339 H   0  0  0  0  0  0  0  0  0  0  0  0
  1  2  1  0
  2  3  1  0
  3  4  2  0
  4  5  1  0
  5  6  2  0
  5  7  1  0
  8  7  1  1
  8  9  1  0
  9 10  1  0
 10 11  1  0
 11 12  1  0
 12 13  1  0
 13 14  1  0
 14 15  1  0
 14 16  1  0
 12 17  1  0
  4 18  1  0
 18 19  2  0
 19 20  1  0
 20 21  2  0
 21 22  1  0
 22 23  2  0
 23 24  1  0
 24 25  2  0
 19  2  1  0
 25 20  1  0
 16  8  1  0
 17  8  1  0
 15 10  1  0
  1 26  1  0
  1 27  1  0
  1 28  1  0
  7 29  1  0
  9 30  1  0
  9 31  1  0
 10 32  1  6
 11 33  1  0
 11 34  1  0
 12 35  1  1
 13 36  1  0
 13 37  1  0
 14 38  1  6
 15 39  1  0
 15 40  1  0
 16 41  1  0
 16 42  1  0
 17 43  1  0
 17 44  1  0
 18 45  1  0
 21 46  1  0
 22 47  1  0
 23 48  1  0
 24 49  1  0
 25 50  1  0
M  END
>  <_SMILES>  (1) 
Cn1nc(C(=O)N[C@]23C[C@H]4C[C@H](C[C@H](C4)C2)C3)cc1-c1ccccc1

$$$$

     RDKit          3D

 63 68  0  0  0  0  0  0  0  0999 V2000
    1.4091    1.6482   -0.8545 O   0  0  0  0  0  0  0  0  0  0  0  0
    1.0953    0.5429   -0.4221 C   0  0  0  0  0  0  0  0  0  0  0  0
    2.0321   -0.4234   -0.0847 N   0  0  0  0  0  0  0  0  0  0  0  0
    3.4847   -0.2299   -0.1383 C   0  0  2  0  0  0  0  0  0  0  0  0
    3.9502    0.8822    0.8337 C   0  0  0  0  0  0  0  0  0  0  0  0
    5.4824    1.0231    0.8011 C   0  0  1  0  0  0  0  0  0  0  0  0
    6.1243   -0.3063    1.2282 C   0  0  0  0  0  0  0  0  0  0  0  0
    5.6978   -1.4275    0.2677 C   0  0  2  0  0  0  0  0  0  0  0  0
    6.1496   -1.0761   -1.1580 C   0  0  0  0  0  0  0  0  0  0  0  0
    5.5071    0.2479   -1.5992 C   0  0  2  0  0  0  0  0  0  0  0  0
    5.9298    1.3655   -0.6303 C   0  0  0  0  0  0  0  0  0  0  0  0
    3.9748    0.1055   -1.5700 C   0  0  0  0  0  0  0  0  0  0  0  0
    4.1667   -1.5577    0.2932 C   0  0  0  0  0  0  0  0  0  0  0  0
   -0.3111    0.1362   -0.2008 C   0  0  0  0  0  0  0  0  0  0  0  0
   -0.8351   -1.1714   -0.0056 C   0  0  0  0  0  0  0  0  0  0  0  0
   -2.2004   -1.0279    0.1391 C   0  0  0  0  0  0  0  0  0  0  0  0
   -3.2217   -2.0446    0.3407 C   0  0  0  0  0  0  0  0  0  0  0  0
   -3.3613   -2.6629    1.5878 C   0  0  0  0  0  0  0  0  0  0  0  0
   -4.3431   -3.6361    1.7835 C   0  0  0  0  0  0  0  0  0  0  0  0
   -5.1855   -3.9987    0.7332 C   0  0  0  0  0  0  0  0  0  0  0  0
   -5.0464   -3.3917   -0.5143 C   0  0  0  0  0  0  0  0  0  0  0  0
   -4.0657   -2.4181   -0.7116 C   0  0  0  0  0  0  0  0  0  0  0  0
   -2.4287    0.3246    0.0474 N   0  0  0  0  0  0  0  0  0  0  0  0
   -3.7062    1.0271    0.1612 C   0  0  0  0  0  0  0  0  0  0  0  0
   -4.1327    1.6339   -1.1836 C   0  0  0  0  0  0  0  0  0  0  0  0
   -5.4706    2.3608   -1.0672 C   0  0  0  0  0  0  0  0  0  0  0  0
   -5.4479    3.4108    0.0402 C   0  0  0  0  0  0  0  0  0  0  0  0
   -5.0241    2.8116    1.3784 C   0  0  0  0  0  0  0  0  0  0  0  0
   -3.6825    2.0897    1.2720 C   0  0  0  0  0  0  0  0  0  0  0  0
   -1.3072    1.0385   -0.1715 N   0  0  0  0  0  0  0  0  0  0  0  0
    1.6968   -1.2133    0.4466 H   0  0  0  0  0  0  0  0  0  0  0  0
    3.6178    0.6540    1.8550 H   0  0  0  0  0  0  0  0  0  0  0  0
    3.4970    1.8457    0.5724 H   0  0  0  0  0  0  0  0  0  0  0  0
    5.7937    1.8198    1.4860 H   0  0  0  0  0  0  0  0  0  0  0  0
    5.8235   -0.5557    2.2532 H   0  0  0  0  0  0  0  0  0  0  0  0
    7.2171   -0.2110    1.2314 H   0  0  0  0  0  0  0  0  0  0  0  0
    6.1551   -2.3737    0.5777 H   0  0  0  0  0  0  0  0  0  0  0  0
    7.2428   -0.9934   -1.1954 H   0  0  0  0  0  0  0  0  0  0  0  0
    5.8671   -1.8790   -1.8499 H   0  0  0  0  0  0  0  0  0  0  0  0
    5.8348    0.4962   -2.6150 H   0  0  0  0  0  0  0  0  0  0  0  0
    7.0188    1.4939   -0.6605 H   0  0  0  0  0  0  0  0  0  0  0  0
    5.4880    2.3196   -0.9429 H   0  0  0  0  0  0  0  0  0  0  0  0
    3.6587   -0.6789   -2.2702 H   0  0  0  0  0  0  0  0  0  0  0  0
    3.5281    1.0378   -1.9331 H   0  0  0  0  0  0  0  0  0  0  0  0
    3.8386   -1.8397    1.3027 H   0  0  0  0  0  0  0  0  0  0  0  0
    3.8529   -2.3754   -0.3696 H   0  0  0  0  0  0  0  0  0  0  0  0
   -0.2987   -2.1092   -0.0021 H   0  0  0  0  0  0  0  0  0  0  0  0
   -2.7111   -2.3867    2.4146 H   0  0  0  0  0  0  0  0  0  0  0  0
   -4.4502   -4.1116    2.7551 H   0  0  0  0  0  0  0  0  0  0  0  0
   -5.9488   -4.7577    0.8860 H   0  0  0  0  0  0  0  0  0  0  0  0
   -5.6992   -3.6790   -1.3347 H   0  0  0  0  0  0  0  0  0  0  0  0
   -3.9605   -1.9576   -1.6915 H   0  0  0  0  0  0  0  0  0  0  0  0
   -4.4558    0.2792    0.4461 H   0  0  0  0  0  0  0  0  0  0  0  0
   -4.2100    0.8476   -1.9445 H   0  0  0  0  0  0  0  0  0  0  0  0
   -3.3713    2.3391   -1.5412 H   0  0  0  0  0  0  0  0  0  0  0  0
   -6.2645    1.6319   -0.8626 H   0  0  0  0  0  0  0  0  0  0  0  0
   -5.7145    2.8384   -2.0228 H   0  0  0  0  0  0  0  0  0  0  0  0
   -6.4407    3.8643    0.1379 H   0  0  0  0  0  0  0  0  0  0  0  0
   -4.7546    4.2152   -0.2347 H   0  0  0  0  0  0  0  0  0  0  0  0
   -5.7912    2.1071    1.7226 H   0  0  0  0  0  0  0  0  0  0  0  0
   -4.9570    3.6040    2.1323 H   0  0  0  0  0  0  0  0  0  0  0  0
   -2.8953    2.8297    1.0784 H   0  0  0  0  0  0  0  0  0  0  0  0
   -3.4411    1.6216    2.2342 H   0  0  0  0  0  0  0  0  0  0  0  0
  1  2  2  0
  2  3  1  0
  4  3  1  6
  4  5  1  0
  5  6  1  0
  6  7  1  0
  7  8  1  0
  8  9  1  0
  9 10  1  0
 10 11  1  0
 10 12  1  0
  8 13  1  0
  2 14  1  0
 14 15  1  0
 15 16  2  0
 16 17  1  0
 17 18  2  0
 18 19  1  0
 19 20  2  0
 20 21  1  0
 21 22  2  0
 16 23  1  0
 23 24  1  0
 24 25  1  0
 25 26  1  0
 26 27  1  0
 27 28  1  0
 28 29  1  0
 23 30  1  0
 12  4  1  0
 30 14  2  0
 13  4  1  0
 22 17  1  0
 29 24  1  0
 11  6  1  0
  3 31  1  0
  5 32  1  0
  5 33  1  0
  6 34  1  1
  7 35  1  0
  7 36  1  0
  8 37  1  1
  9 38  1  0
  9 39  1  0
 10 40  1  6
 11 41  1  0
 11 42  1  0
 12 43  1  0
 12 44  1  0
 13 45  1  0
 13 46  1  0
 15 47  1  0
 18 48  1  0
 19 49  1  0
 20 50  1  0
 21 51  1  0
 22 52  1  0
 24 53  1  0
 25 54  1  0
 25 55  1  0
 26 56  1  0
 26 57  1  0
 27 58  1  0
 27 59  1  0
 28 60  1  0
 28 61  1  0
 29 62  1  0
 29 63  1  0
M  END
>  <_SMILES>  (2) 
O=C(N[C@]12C[C@H]3C[C@H](C[C@H](C3)C1)C2)c1cc(-c2ccccc2)n(C2CCCCC2)n1

$$$$

     RDKit          3D

 46 49  0  0  0  0  0  0  0  0999 V2000
    2.1107    0.4701    2.7025 O   0  0  0  0  0  0  0  0  0  0  0  0
    1.7428   -0.2693    1.7923 C   0  0  0  0  0  0  0  0  0  0  0  0
    2.5752   -1.2327    1.2490 N   0  0  0  0  0  0  0  0  0  0  0  0
    3.9689   -1.3148    1.6200 C   0  0  0  0  0  0  0  0  0  0  0  0
    4.8358   -0.6713    0.5689 C   0  0  0  0  0  0  0  0  0  0  0  0
    5.4810   -1.4475   -0.4044 C   0  0  0  0  0  0  0  0  0  0  0  0
    6.2629   -0.8400   -1.3886 C   0  0  0  0  0  0  0  0  0  0  0  0
    6.4022    0.5467   -1.4135 C   0  0  0  0  0  0  0  0  0  0  0  0
    5.7592    1.3284   -0.4558 C   0  0  0  0  0  0  0  0  0  0  0  0
    4.9780    0.7235    0.5295 C   0  0  0  0  0  0  0  0  0  0  0  0
    0.3951   -0.1958    1.1875 C   0  0  0  0  0  0  0  0  0  0  0  0
   -0.2238   -1.0951    0.2904 C   0  0  0  0  0  0  0  0  0  0  0  0
   -1.4661   -0.5646   -0.0077 C   0  0  0  0  0  0  0  0  0  0  0  0
   -2.4056   -1.0632   -1.0062 C   0  0  0  0  0  0  0  0  0  0  0  0
   -2.6752   -0.3185   -2.1620 C   0  0  0  0  0  0  0  0  0  0  0  0
   -3.5585   -0.8089   -3.1257 C   0  0  0  0  0  0  0  0  0  0  0  0
   -4.1687   -2.0494   -2.9461 C   0  0  0  0  0  0  0  0  0  0  0  0
   -3.8939   -2.8036   -1.8062 C   0  0  0  0  0  0  0  0  0  0  0  0
   -3.0108   -2.3155   -0.8411 C   0  0  0  0  0  0  0  0  0  0  0  0
   -1.5898    0.5743    0.7890 N   0  0  0  0  0  0  0  0  0  0  0  0
   -2.7037    1.4476    1.0095 C   0  0  0  0  0  0  0  0  0  0  0  0
   -2.4845    2.6701    1.6708 C   0  0  0  0  0  0  0  0  0  0  0  0
   -3.5398    3.5545    1.9088 C   0  0  0  0  0  0  0  0  0  0  0  0
   -4.8286    3.2260    1.5006 C   0  0  0  0  0  0  0  0  0  0  0  0
   -5.0632    2.0100    0.8638 C   0  0  0  0  0  0  0  0  0  0  0  0
   -4.0092    1.1207    0.6233 C   0  0  0  0  0  0  0  0  0  0  0  0
   -0.4260    0.8310    1.4455 N   0  0  0  0  0  0  0  0  0  0  0  0
    2.3123   -1.6648    0.3774 H   0  0  0  0  0  0  0  0  0  0  0  0
    4.2137   -2.3784    1.7159 H   0  0  0  0  0  0  0  0  0  0  0  0
    4.1496   -0.8531    2.5970 H   0  0  0  0  0  0  0  0  0  0  0  0
    5.3824   -2.5305   -0.4014 H   0  0  0  0  0  0  0  0  0  0  0  0
    6.7644   -1.4481   -2.1371 H   0  0  0  0  0  0  0  0  0  0  0  0
    7.0109    1.0192   -2.1798 H   0  0  0  0  0  0  0  0  0  0  0  0
    5.8632    2.4102   -0.4752 H   0  0  0  0  0  0  0  0  0  0  0  0
    4.4747    1.3453    1.2693 H   0  0  0  0  0  0  0  0  0  0  0  0
    0.1857   -2.0008   -0.1337 H   0  0  0  0  0  0  0  0  0  0  0  0
   -2.2008    0.6480   -2.3193 H   0  0  0  0  0  0  0  0  0  0  0  0
   -3.7677   -0.2234   -4.0174 H   0  0  0  0  0  0  0  0  0  0  0  0
   -4.8559   -2.4304   -3.6976 H   0  0  0  0  0  0  0  0  0  0  0  0
   -4.3667   -3.7729   -1.6691 H   0  0  0  0  0  0  0  0  0  0  0  0
   -2.8061   -2.9143    0.0436 H   0  0  0  0  0  0  0  0  0  0  0  0
   -1.4871    2.9556    2.0036 H   0  0  0  0  0  0  0  0  0  0  0  0
   -3.3504    4.4971    2.4159 H   0  0  0  0  0  0  0  0  0  0  0  0
   -5.6506    3.9117    1.6879 H   0  0  0  0  0  0  0  0  0  0  0  0
   -6.0731    1.7440    0.5608 H   0  0  0  0  0  0  0  0  0  0  0  0
   -4.2631    0.1727    0.1648 H   0  0  0  0  0  0  0  0  0  0  0  0
  1  2  2  0
  2  3  1  0
  3  4  1  0
  4  5  1  0
  5  6  2  0
  6  7  1  0
  7  8  2  0
  8  9  1  0
  9 10  2  0
  2 11  1  0
 11 12  1  0
 12 13  2  0
 13 14  1  0
 14 15  2  0
 15 16  1  0
 16 17  2  0
 17 18  1  0
 18 19  2  0
 13 20  1  0
 20 21  1  0
 21 22  2  0
 22 23  1  0
 23 24  2  0
 24 25  1  0
 25 26  2  0
 20 27  1  0
 10  5  1  0
 27 11  2  0
 19 14  1  0
 26 21  1  0
  3 28  1  0
  4 29  1  0
  4 30  1  0
  6 31  1  0
  7 32  1  0
  8 33  1  0
  9 34  1  0
 10 35  1  0
 12 36  1  0
 15 37  1  0
 16 38  1  0
 17 39  1  0
 18 40  1  0
 19 41  1  0
 22 42  1  0
 23 43  1  0
 24 44  1  0
 25 45  1  0
 26 46  1  0
M  END
>  <_SMILES>  (3) 
O=C(NCc1ccccc1)c1cc(-c2ccccc2)n(-c2ccccc2)n1

$$$$

     RDKit          3D

 49 52  0  0  0  0  0  0  0  0999 V2000
    1.9190    0.5685    2.1913 O   0  0  0  0  0  0  0  0  0  0  0  0
    1.5259    0.4616    1.0321 C   0  0  0  0  0  0  0  0  0  0  0  0
    2.4050    0.4283   -0.0417 N   0  0  0  0  0  0  0  0  0  0  0  0
    3.8450    0.3911    0.1655 C   0  0  0  0  0  0  0  0  0  0  0  0
    4.3068   -1.0218    0.5650 C   0  0  0  0  0  0  0  0  0  0  0  0
    5.7560   -1.3256    0.1768 C   0  0  0  0  0  0  0  0  0  0  0  0
    6.6129   -0.0680    0.1480 C   0  0  0  0  0  0  0  0  0  0  0  0
    6.0916    0.9516   -0.8660 C   0  0  0  0  0  0  0  0  0  0  0  0
    4.5786    0.8800   -1.0840 C   0  0  0  0  0  0  0  0  0  0  0  0
    0.0983    0.3421    0.6681 C   0  0  0  0  0  0  0  0  0  0  0  0
   -0.5036    0.4972   -0.6008 C   0  0  0  0  0  0  0  0  0  0  0  0
   -1.8542    0.2519   -0.4299 C   0  0  0  0  0  0  0  0  0  0  0  0
   -2.8580    0.1468   -1.4836 C   0  0  0  0  0  0  0  0  0  0  0  0
   -3.4802   -1.0794   -1.7526 C   0  0  0  0  0  0  0  0  0  0  0  0
   -4.4244   -1.1807   -2.7760 C   0  0  0  0  0  0  0  0  0  0  0  0
   -4.7446   -0.0617   -3.5433 C   0  0  0  0  0  0  0  0  0  0  0  0
   -4.1188    1.1585   -3.2923 C   0  0  0  0  0  0  0  0  0  0  0  0
   -3.1741    1.2623   -2.2694 C   0  0  0  0  0  0  0  0  0  0  0  0
   -2.0310    0.0619    0.9414 N   0  0  0  0  0  0  0  0  0  0  0  0
   -3.2238   -0.0832    1.7211 C   0  0  0  0  0  0  0  0  0  0  0  0
   -3.1121   -0.5172    3.0549 C   0  0  0  0  0  0  0  0  0  0  0  0
   -4.2474   -0.6732    3.8541 C   0  0  0  0  0  0  0  0  0  0  0  0
   -5.5071   -0.3876    3.3371 C   0  0  0  0  0  0  0  0  0  0  0  0
   -5.6300    0.0634    2.0253 C   0  0  0  0  0  0  0  0  0  0  0  0
   -4.4955    0.2214    1.2208 C   0  0  0  0  0  0  0  0  0  0  0  0
   -0.8305    0.0302    1.5816 N   0  0  0  0  0  0  0  0  0  0  0  0
    2.0521    0.0955   -0.9270 H   0  0  0  0  0  0  0  0  0  0  0  0
    4.0758    1.0785    0.9904 H   0  0  0  0  0  0  0  0  0  0  0  0
    4.1890   -1.1349    1.6504 H   0  0  0  0  0  0  0  0  0  0  0  0
    3.6602   -1.7867    0.1156 H   0  0  0  0  0  0  0  0  0  0  0  0
    6.1777   -2.0570    0.8756 H   0  0  0  0  0  0  0  0  0  0  0  0
    5.7747   -1.7952   -0.8148 H   0  0  0  0  0  0  0  0  0  0  0  0
    7.6529   -0.3212   -0.0869 H   0  0  0  0  0  0  0  0  0  0  0  0
    6.6204    0.3845    1.1477 H   0  0  0  0  0  0  0  0  0  0  0  0
    6.5921    0.8050   -1.8309 H   0  0  0  0  0  0  0  0  0  0  0  0
    6.3707    1.9569   -0.5278 H   0  0  0  0  0  0  0  0  0  0  0  0
    4.2074    1.8651   -1.3922 H   0  0  0  0  0  0  0  0  0  0  0  0
    4.3648    0.2022   -1.9215 H   0  0  0  0  0  0  0  0  0  0  0  0
   -0.0213    0.7205   -1.5419 H   0  0  0  0  0  0  0  0  0  0  0  0
   -3.2357   -1.9631   -1.1666 H   0  0  0  0  0  0  0  0  0  0  0  0
   -4.9080   -2.1338   -2.9754 H   0  0  0  0  0  0  0  0  0  0  0  0
   -5.4797   -0.1419   -4.3404 H   0  0  0  0  0  0  0  0  0  0  0  0
   -4.3657    2.0297   -3.8940 H   0  0  0  0  0  0  0  0  0  0  0  0
   -2.6944    2.2209   -2.0843 H   0  0  0  0  0  0  0  0  0  0  0  0
   -2.1397   -0.7471    3.4893 H   0  0  0  0  0  0  0  0  0  0  0  0
   -4.1424   -1.0149    4.8807 H   0  0  0  0  0  0  0  0  0  0  0  0
   -6.3905   -0.5054    3.9590 H   0  0  0  0  0  0  0  0  0  0  0  0
   -6.6123    0.3053    1.6263 H   0  0  0  0  0  0  0  0  0  0  0  0
   -4.6520    0.6189    0.2253 H   0  0  0  0  0  0  0  0  0  0  0  0
  1  2  2  0
  2  3  1  0
  3  4  1  0
  4  5  1  0
  5  6  1  0
  6  7  1  0
  7  8  1  0
  8  9  1  0
  2 10  1  0
 10 11  1  0
 11 12  2  0
 12 13  1  0
 13 14  2  0
 14 15  1  0
 15 16  2  0
 16 17  1  0
 17 18  2  0
 12 19  1  0
 19 20  1  0
 20 21  2  0
 21 22  1  0
 22 23  2  0
 23 24  1  0
 24 25  2  0
 19 26  1  0
  9  4  1  0
 26 10  2  0
 18 13  1  0
 25 20  1  0
  3 27  1  0
  4 28  1  0
  5 29  1  0
  5 30  1  0
  6 31  1  0
  6 32  1  0
  7 33  1  0
  7 34  1  0
  8 35  1  0
  8 36  1  0
  9 37  1  0
  9 38  1  0
 11 39  1  0
 14 40  1  0
 15 41  1  0
 16 42  1  0
 17 43  1  0
 18 44  1  0
 21 45  1  0
 22 46  1  0
 23 47  1  0
 24 48  1  0
 25 49  1  0
M  END
>  <_SMILES>  (4) 
O=C(NC1CCCCC1)c1cc(-c2ccccc2)n(-c2ccccc2)n1

$$$$

     RDKit          3D

 52 55  0  0  0  0  0  0  0  0999 V2000
    1.8530   -2.5279    0.9589 O   0  0  0  0  0  0  0  0  0  0  0  0
    1.6804   -1.4235    0.4479 C   0  0  0  0  0  0  0  0  0  0  0  0
    2.7013   -0.7535   -0.2125 N   0  0  0  0  0  0  0  0  0  0  0  0
    4.0644   -1.2703   -0.2225 C   0  0  0  0  0  0  0  0  0  0  0  0
    4.8417   -0.7050   -1.4235 C   0  0  0  0  0  0  0  0  0  0  0  0
    5.6078    0.5619   -1.0592 C   0  0  0  0  0  0  0  0  0  0  0  0
    6.6385    0.3060    0.0424 C   0  0  0  0  0  0  0  0  0  0  0  0
    6.2616   -0.8457    0.9758 C   0  0  0  0  0  0  0  0  0  0  0  0
    4.7517   -0.9785    1.1245 C   0  0  0  0  0  0  0  0  0  0  0  0
    0.3935   -0.6966    0.4978 C   0  0  0  0  0  0  0  0  0  0  0  0
   -0.0152    0.4324   -0.2658 C   0  0  0  0  0  0  0  0  0  0  0  0
   -1.2953    0.7403    0.1473 C   0  0  0  0  0  0  0  0  0  0  0  0
   -2.1922    1.7925   -0.3030 C   0  0  0  0  0  0  0  0  0  0  0  0
   -2.9417    1.6245   -1.4720 C   0  0  0  0  0  0  0  0  0  0  0  0
   -3.8101    2.6299   -1.9005 C   0  0  0  0  0  0  0  0  0  0  0  0
   -3.9278    3.8094   -1.1665 C   0  0  0  0  0  0  0  0  0  0  0  0
   -3.1770    3.9862   -0.0048 C   0  0  0  0  0  0  0  0  0  0  0  0
   -2.3094    2.9809    0.4261 C   0  0  0  0  0  0  0  0  0  0  0  0
   -1.6074   -0.2162    1.0838 N   0  0  0  0  0  0  0  0  0  0  0  0
   -2.8587   -0.3719    1.8199 C   0  0  0  0  0  0  0  0  0  0  0  0
   -3.9243   -1.0497    0.9933 C   0  0  0  0  0  0  0  0  0  0  0  0
   -3.7713   -2.3847    0.5885 C   0  0  0  0  0  0  0  0  0  0  0  0
   -4.7570   -3.0119   -0.1744 C   0  0  0  0  0  0  0  0  0  0  0  0
   -5.9067   -2.3143   -0.5387 C   0  0  0  0  0  0  0  0  0  0  0  0
   -6.0725   -0.9893   -0.1402 C   0  0  0  0  0  0  0  0  0  0  0  0
   -5.0884   -0.3598    0.6238 C   0  0  0  0  0  0  0  0  0  0  0  0
   -0.5903   -1.0664    1.3372 N   0  0  0  0  0  0  0  0  0  0  0  0
    2.5718    0.2300   -0.3993 H   0  0  0  0  0  0  0  0  0  0  0  0
    3.9965   -2.3578   -0.3544 H   0  0  0  0  0  0  0  0  0  0  0  0
    4.1689   -0.5080   -2.2668 H   0  0  0  0  0  0  0  0  0  0  0  0
    5.5621   -1.4578   -1.7694 H   0  0  0  0  0  0  0  0  0  0  0  0
    6.1108    0.9686   -1.9439 H   0  0  0  0  0  0  0  0  0  0  0  0
    4.8992    1.3296   -0.7239 H   0  0  0  0  0  0  0  0  0  0  0  0
    6.7682    1.2277    0.6225 H   0  0  0  0  0  0  0  0  0  0  0  0
    7.6155    0.0884   -0.4061 H   0  0  0  0  0  0  0  0  0  0  0  0
    6.7284   -0.6924    1.9554 H   0  0  0  0  0  0  0  0  0  0  0  0
    6.6686   -1.7848    0.5801 H   0  0  0  0  0  0  0  0  0  0  0  0
    4.3576   -0.0520    1.5635 H   0  0  0  0  0  0  0  0  0  0  0  0
    4.5151   -1.7771    1.8378 H   0  0  0  0  0  0  0  0  0  0  0  0
    0.5408    0.9547   -1.0309 H   0  0  0  0  0  0  0  0  0  0  0  0
   -2.8641    0.7037   -2.0467 H   0  0  0  0  0  0  0  0  0  0  0  0
   -4.3950    2.4903   -2.8060 H   0  0  0  0  0  0  0  0  0  0  0  0
   -4.6030    4.5926   -1.5022 H   0  0  0  0  0  0  0  0  0  0  0  0
   -3.2651    4.9084    0.5639 H   0  0  0  0  0  0  0  0  0  0  0  0
   -1.7245    3.1318    1.3304 H   0  0  0  0  0  0  0  0  0  0  0  0
   -2.6534   -0.9607    2.7221 H   0  0  0  0  0  0  0  0  0  0  0  0
   -3.1714    0.6238    2.1528 H   0  0  0  0  0  0  0  0  0  0  0  0
   -2.8753   -2.9415    0.8627 H   0  0  0  0  0  0  0  0  0  0  0  0
   -4.6248   -4.0453   -0.4846 H   0  0  0  0  0  0  0  0  0  0  0  0
   -6.6732   -2.8040   -1.1334 H   0  0  0  0  0  0  0  0  0  0  0  0
   -6.9687   -0.4447   -0.4258 H   0  0  0  0  0  0  0  0  0  0  0  0
   -5.2336    0.6776    0.9188 H   0  0  0  0  0  0  0  0  0  0  0  0
  1  2  2  0
  2  3  1  0
  3  4  1  0
  4  5  1  0
  5  6  1  0
  6  7  1  0
  7  8  1  0
  8  9  1  0
  2 10  1  0
 10 11  1  0
 11 12  2  0
 12 13  1  0
 13 14  2  0
 14 15  1  0
 15 16  2  0
 16 17  1  0
 17 18  2  0
 12 19  1  0
 19 20  1  0
 20 21  1  0
 21 22  2  0
 22 23  1  0
 23 24  2  0
 24 25  1  0
 25 26  2  0
 19 27  1  0
  9  4  1  0
 27 10  2  0
 18 13  1  0
 26 21  1  0
  3 28  1  0
  4 29  1  0
  5 30  1  0
  5 31  1  0
  6 32  1  0
  6 33  1  0
  7 34  1  0
  7 35  1  0
  8 36  1  0
  8 37  1  0
  9 38  1  0
  9 39  1  0
 11 40  1  0
 14 41  1  0
 15 42  1  0
 16 43  1  0
 17 44  1  0
 18 45  1  0
 20 46  1  0
 20 47  1  0
 22 48  1  0
 23 49  1  0
 24 50  1  0
 25 51  1  0
 26 52  1  0
M  END
>  <_SMILES>  (5) 
O=C(NC1CCCCC1)c1cc(-c2ccccc2)n(Cc2ccccc2)n1

$$$$

     RDKit          3D

 50 53  0  0  0  0  0  0  0  0999 V2000
    7.0591    2.0297   -1.8134 C   0  0  0  0  0  0  0  0  0  0  0  0
    6.6436    0.7648   -1.3147 O   0  0  0  0  0  0  0  0  0  0  0  0
    5.7283    0.7715   -0.2984 C   0  0  0  0  0  0  0  0  0  0  0  0
    5.1675    1.9025    0.2948 C   0  0  0  0  0  0  0  0  0  0  0  0
    4.2365    1.7665    1.3315 C   0  0  0  0  0  0  0  0  0  0  0  0
    3.8601    0.4984    1.7935 C   0  0  0  0  0  0  0  0  0  0  0  0
    2.8401    0.3481    2.8917 C   0  0  0  0  0  0  0  0  0  0  0  0
    1.5172    0.2014    2.3476 N   0  0  0  0  0  0  0  0  0  0  0  0
    0.9300   -1.0251    2.1389 C   0  0  0  0  0  0  0  0  0  0  0  0
    1.4001   -2.0883    2.5310 O   0  0  0  0  0  0  0  0  0  0  0  0
   -0.3271   -0.9409    1.3796 C   0  0  0  0  0  0  0  0  0  0  0  0
   -1.1708   -2.0072    1.0182 C   0  0  0  0  0  0  0  0  0  0  0  0
   -2.2388   -1.4452    0.3438 C   0  0  0  0  0  0  0  0  0  0  0  0
   -3.4519   -2.1315   -0.0911 C   0  0  0  0  0  0  0  0  0  0  0  0
   -3.3761   -3.1655   -1.0329 C   0  0  0  0  0  0  0  0  0  0  0  0
   -4.5317   -3.8361   -1.4386 C   0  0  0  0  0  0  0  0  0  0  0  0
   -5.7681   -3.4859   -0.8981 C   0  0  0  0  0  0  0  0  0  0  0  0
   -5.8508   -2.4696    0.0524 C   0  0  0  0  0  0  0  0  0  0  0  0
   -4.6965   -1.7978    0.4596 C   0  0  0  0  0  0  0  0  0  0  0  0
   -1.9452   -0.0839    0.2383 N   0  0  0  0  0  0  0  0  0  0  0  0
   -2.6049    0.9589   -0.4883 C   0  0  0  0  0  0  0  0  0  0  0  0
   -3.5320    0.6962   -1.5040 C   0  0  0  0  0  0  0  0  0  0  0  0
   -4.1485    1.7489   -2.1895 C   0  0  0  0  0  0  0  0  0  0  0  0
   -3.8390    3.0703   -1.8771 C   0  0  0  0  0  0  0  0  0  0  0  0
   -2.9038    3.3452   -0.8841 C   0  0  0  0  0  0  0  0  0  0  0  0
   -2.2850    2.2975   -0.1972 C   0  0  0  0  0  0  0  0  0  0  0  0
   -0.8237    0.2324    0.9538 N   0  0  0  0  0  0  0  0  0  0  0  0
    4.4185   -0.6329    1.1864 C   0  0  0  0  0  0  0  0  0  0  0  0
    5.3470   -0.4938    0.1524 C   0  0  0  0  0  0  0  0  0  0  0  0
    6.2164    2.5808   -2.2438 H   0  0  0  0  0  0  0  0  0  0  0  0
    7.5599    2.6157   -1.0357 H   0  0  0  0  0  0  0  0  0  0  0  0
    7.7836    1.8518   -2.6140 H   0  0  0  0  0  0  0  0  0  0  0  0
    5.4293    2.9050   -0.0259 H   0  0  0  0  0  0  0  0  0  0  0  0
    3.8060    2.6615    1.7755 H   0  0  0  0  0  0  0  0  0  0  0  0
    2.8356    1.2381    3.5306 H   0  0  0  0  0  0  0  0  0  0  0  0
    3.0910   -0.5071    3.5295 H   0  0  0  0  0  0  0  0  0  0  0  0
    1.0791    0.9768    1.8600 H   0  0  0  0  0  0  0  0  0  0  0  0
   -1.0403   -3.0511    1.2717 H   0  0  0  0  0  0  0  0  0  0  0  0
   -2.4178   -3.4519   -1.4608 H   0  0  0  0  0  0  0  0  0  0  0  0
   -4.4660   -4.6346   -2.1734 H   0  0  0  0  0  0  0  0  0  0  0  0
   -6.6669   -4.0107   -1.2122 H   0  0  0  0  0  0  0  0  0  0  0  0
   -6.8133   -2.2028    0.4813 H   0  0  0  0  0  0  0  0  0  0  0  0
   -4.7762   -1.0145    1.2104 H   0  0  0  0  0  0  0  0  0  0  0  0
   -3.7781   -0.3103   -1.8228 H   0  0  0  0  0  0  0  0  0  0  0  0
   -4.8656    1.5324   -2.9779 H   0  0  0  0  0  0  0  0  0  0  0  0
   -4.3193    3.8841   -2.4141 H   0  0  0  0  0  0  0  0  0  0  0  0
   -2.6527    4.3747   -0.6422 H   0  0  0  0  0  0  0  0  0  0  0  0
   -1.5609    2.5450    0.5766 H   0  0  0  0  0  0  0  0  0  0  0  0
    4.1284   -1.6303    1.5128 H   0  0  0  0  0  0  0  0  0  0  0  0
    5.7737   -1.3813   -0.3086 H   0  0  0  0  0  0  0  0  0  0  0  0
  1  2  1  0
  2  3  1  0
  3  4  1  0
  4  5  2  0
  5  6  1  0
  6  7  1  0
  7  8  1  0
  8  9  1  0
  9 10  2  0
  9 11  1  0
 11 12  1  0
 12 13  2  0
 13 14  1  0
 14 15  2  0
 15 16  1  0
 16 17  2  0
 17 18  1  0
 18 19  2  0
 13 20  1  0
 20 21  1  0
 21 22  2  0
 22 23  1  0
 23 24  2  0
 24 25  1  0
 25 26  2  0
 20 27  1  0
  6 28  2  0
 28 29  1  0
 29  3  2  0
 27 11  2  0
 19 14  1  0
 26 21  1  0
  1 30  1  0
  1 31  1  0
  1 32  1  0
  4 33  1  0
  5 34  1  0
  7 35  1  0
  7 36  1  0
  8 37  1  0
 12 38  1  0
 15 39  1  0
 16 40  1  0
 17 41  1  0
 18 42  1  0
 19 43  1  0
 22 44  1  0
 23 45  1  0
 24 46  1  0
 25 47  1  0
 26 48  1  0
 28 49  1  0
 29 50  1  0
M  END
>  <_SMILES>  (6) 
COc1ccc(CNC(=O)c2cc(-c3ccccc3)n(-c3ccccc3)n2)cc1

$$$$

     RDKit          3D

 49 52  0  0  0  0  0  0  0  0999 V2000
    2.5936   -2.1446   -0.9878 O   0  0  0  0  0  0  0  0  0  0  0  0
    2.2200   -0.9836   -0.8325 C   0  0  0  0  0  0  0  0  0  0  0  0
    3.0610    0.0922   -1.0603 N   0  0  0  0  0  0  0  0  0  0  0  0
    4.4633   -0.0976   -1.3472 C   0  0  0  0  0  0  0  0  0  0  0  0
    5.2949    0.1478   -0.1149 C   0  0  0  0  0  0  0  0  0  0  0  0
    5.9351    1.3788    0.0870 C   0  0  0  0  0  0  0  0  0  0  0  0
    6.6849    1.6043    1.2430 C   0  0  0  0  0  0  0  0  0  0  0  0
    6.7965    0.6061    2.2094 C   0  0  0  0  0  0  0  0  0  0  0  0
    6.1579   -0.6183    2.0229 C   0  0  0  0  0  0  0  0  0  0  0  0
    5.4089   -0.8463    0.8679 C   0  0  0  0  0  0  0  0  0  0  0  0
    0.8571   -0.6253   -0.3813 C   0  0  0  0  0  0  0  0  0  0  0  0
    0.2398    0.6564   -0.3474 C   0  0  0  0  0  0  0  0  0  0  0  0
   -1.0310    0.4647    0.1551 C   0  0  0  0  0  0  0  0  0  0  0  0
   -2.0915    1.4289    0.3990 C   0  0  0  0  0  0  0  0  0  0  0  0
   -2.2464    2.0016    1.6659 C   0  0  0  0  0  0  0  0  0  0  0  0
   -3.2697    2.9221    1.8997 C   0  0  0  0  0  0  0  0  0  0  0  0
   -4.1390    3.2761    0.8684 C   0  0  0  0  0  0  0  0  0  0  0  0
   -3.9849    2.7134   -0.3979 C   0  0  0  0  0  0  0  0  0  0  0  0
   -2.9613    1.7942   -0.6337 C   0  0  0  0  0  0  0  0  0  0  0  0
   -1.1319   -0.8896    0.3637 N   0  0  0  0  0  0  0  0  0  0  0  0
   -2.2775   -1.6310    0.8835 C   0  0  0  0  0  0  0  0  0  0  0  0
   -3.3193   -1.8888   -0.1780 C   0  0  0  0  0  0  0  0  0  0  0  0
   -3.0277   -2.7055   -1.2813 C   0  0  0  0  0  0  0  0  0  0  0  0
   -3.9922   -2.9460   -2.2606 C   0  0  0  0  0  0  0  0  0  0  0  0
   -5.2590   -2.3770   -2.1469 C   0  0  0  0  0  0  0  0  0  0  0  0
   -5.5630   -1.5679   -1.0538 C   0  0  0  0  0  0  0  0  0  0  0  0
   -4.6001   -1.3265   -0.0725 C   0  0  0  0  0  0  0  0  0  0  0  0
    0.0036   -1.5596    0.0756 N   0  0  0  0  0  0  0  0  0  0  0  0
    2.7818    1.0029   -0.7313 H   0  0  0  0  0  0  0  0  0  0  0  0
    4.6574   -1.1005   -1.7432 H   0  0  0  0  0  0  0  0  0  0  0  0
    4.7298    0.6167   -2.1342 H   0  0  0  0  0  0  0  0  0  0  0  0
    5.8575    2.1695   -0.6556 H   0  0  0  0  0  0  0  0  0  0  0  0
    7.1827    2.5592    1.3905 H   0  0  0  0  0  0  0  0  0  0  0  0
    7.3803    0.7821    3.1090 H   0  0  0  0  0  0  0  0  0  0  0  0
    6.2403   -1.3970    2.7767 H   0  0  0  0  0  0  0  0  0  0  0  0
    4.9083   -1.8051    0.7357 H   0  0  0  0  0  0  0  0  0  0  0  0
    0.6546    1.6052   -0.6548 H   0  0  0  0  0  0  0  0  0  0  0  0
   -1.5708    1.7364    2.4760 H   0  0  0  0  0  0  0  0  0  0  0  0
   -3.3868    3.3652    2.8854 H   0  0  0  0  0  0  0  0  0  0  0  0
   -4.9354    3.9934    1.0507 H   0  0  0  0  0  0  0  0  0  0  0  0
   -4.6617    2.9883   -1.2029 H   0  0  0  0  0  0  0  0  0  0  0  0
   -2.8544    1.3546   -1.6234 H   0  0  0  0  0  0  0  0  0  0  0  0
   -1.9131   -2.5824    1.2893 H   0  0  0  0  0  0  0  0  0  0  0  0
   -2.6846   -1.0595    1.7249 H   0  0  0  0  0  0  0  0  0  0  0  0
   -2.0403   -3.1552   -1.3849 H   0  0  0  0  0  0  0  0  0  0  0  0
   -3.7526   -3.5777   -3.1121 H   0  0  0  0  0  0  0  0  0  0  0  0
   -6.0091   -2.5651   -2.9104 H   0  0  0  0  0  0  0  0  0  0  0  0
   -6.5509   -1.1235   -0.9654 H   0  0  0  0  0  0  0  0  0  0  0  0
   -4.8553   -0.6868    0.7701 H   0  0  0  0  0  0  0  0  0  0  0  0
  1  2  2  0
  2  3  1  0
  3  4  1  0
  4  5  1  0
  5  6  2  0
  6  7  1  0
  7  8  2  0
  8  9  1  0
  9 10  2  0
  2 11  1  0
 11 12  1  0
 12 13  2  0
 13 14  1  0
 14 15  2  0
 15 16  1  0
 16 17  2  0
 17 18  1  0
 18 19  2  0
 13 20  1  0
 20 21  1  0
 21 22  1  0
 22 23  2  0
 23 24  1  0
 24 25  2  0
 25 26  1  0
 26 27  2  0
 20 28  1  0
 10  5  1  0
 28 11  2  0
 19 14  1  0
 27 22  1  0
  3 29  1  0
  4 30  1  0
  4 31  1  0
  6 32  1  0
  7 33  1  0
  8 34  1  0
  9 35  1  0
 10 36  1  0
 12 37  1  0
 15 38  1  0
 16 39  1  0
 17 40  1  0
 18 41  1  0
 19 42  1  0
 21 43  1  0
 21 44  1  0
 23 45  1  0
 24 46  1  0
 25 47  1  0
 26 48  1  0
 27 49  1  0
M  END
>  <_SMILES>  (7) 
O=C(NCc1ccccc1)c1cc(-c2ccccc2)n(Cc2ccccc2)n1

$$$$

     RDKit          3D

 43 46  0  0  0  0  0  0  0  0999 V2000
    2.7705    1.9616    0.4891 O   0  0  0  0  0  0  0  0  0  0  0  0
    2.3324    0.8349    0.2783 C   0  0  0  0  0  0  0  0  0  0  0  0
    3.1082   -0.3125    0.1655 N   0  0  0  0  0  0  0  0  0  0  0  0
    4.5151   -0.4113    0.2080 C   0  0  0  0  0  0  0  0  0  0  0  0
    5.3772    0.6828    0.2972 C   0  0  0  0  0  0  0  0  0  0  0  0
    6.7631    0.4934    0.3276 C   0  0  0  0  0  0  0  0  0  0  0  0
    7.2991   -0.7904    0.2669 C   0  0  0  0  0  0  0  0  0  0  0  0
    6.4494   -1.8885    0.1747 C   0  0  0  0  0  0  0  0  0  0  0  0
    5.0650   -1.6995    0.1444 C   0  0  0  0  0  0  0  0  0  0  0  0
    0.8770    0.5827    0.1339 C   0  0  0  0  0  0  0  0  0  0  0  0
    0.2229   -0.5193   -0.4630 C   0  0  0  0  0  0  0  0  0  0  0  0
   -1.1351   -0.3002   -0.3158 C   0  0  0  0  0  0  0  0  0  0  0  0
   -2.2057   -1.2359   -0.6429 C   0  0  0  0  0  0  0  0  0  0  0  0
   -2.4289   -1.6145   -1.9728 C   0  0  0  0  0  0  0  0  0  0  0  0
   -3.4385   -2.5270   -2.2853 C   0  0  0  0  0  0  0  0  0  0  0  0
   -4.2230   -3.0744   -1.2712 C   0  0  0  0  0  0  0  0  0  0  0  0
   -3.9974   -2.7146    0.0566 C   0  0  0  0  0  0  0  0  0  0  0  0
   -2.9886   -1.8023    0.3717 C   0  0  0  0  0  0  0  0  0  0  0  0
   -1.2519    0.9631    0.2655 N   0  0  0  0  0  0  0  0  0  0  0  0
   -2.4041    1.7744    0.5219 C   0  0  0  0  0  0  0  0  0  0  0  0
   -2.2660    2.9039    1.3496 C   0  0  0  0  0  0  0  0  0  0  0  0
   -3.3614    3.7252    1.6284 C   0  0  0  0  0  0  0  0  0  0  0  0
   -4.6055    3.4372    1.0762 C   0  0  0  0  0  0  0  0  0  0  0  0
   -4.7514    2.3347    0.2381 C   0  0  0  0  0  0  0  0  0  0  0  0
   -3.6569    1.5090   -0.0442 C   0  0  0  0  0  0  0  0  0  0  0  0
   -0.0282    1.4474    0.6113 N   0  0  0  0  0  0  0  0  0  0  0  0
    2.6145   -1.1905    0.1056 H   0  0  0  0  0  0  0  0  0  0  0  0
    5.0083    1.7027    0.3431 H   0  0  0  0  0  0  0  0  0  0  0  0
    7.4215    1.3558    0.3990 H   0  0  0  0  0  0  0  0  0  0  0  0
    8.3763   -0.9322    0.2915 H   0  0  0  0  0  0  0  0  0  0  0  0
    6.8631   -2.8925    0.1271 H   0  0  0  0  0  0  0  0  0  0  0  0
    4.4268   -2.5761    0.0728 H   0  0  0  0  0  0  0  0  0  0  0  0
    0.6668   -1.3935   -0.9182 H   0  0  0  0  0  0  0  0  0  0  0  0
   -1.8256   -1.1946   -2.7746 H   0  0  0  0  0  0  0  0  0  0  0  0
   -3.6125   -2.8111   -3.3201 H   0  0  0  0  0  0  0  0  0  0  0  0
   -5.0088   -3.7851   -1.5153 H   0  0  0  0  0  0  0  0  0  0  0  0
   -4.6056   -3.1455    0.8480 H   0  0  0  0  0  0  0  0  0  0  0  0
   -2.8203   -1.5362    1.4133 H   0  0  0  0  0  0  0  0  0  0  0  0
   -1.3048    3.1573    1.7956 H   0  0  0  0  0  0  0  0  0  0  0  0
   -3.2371    4.5905    2.2745 H   0  0  0  0  0  0  0  0  0  0  0  0
   -5.4574    4.0773    1.2897 H   0  0  0  0  0  0  0  0  0  0  0  0
   -5.7190    2.1197   -0.2092 H   0  0  0  0  0  0  0  0  0  0  0  0
   -3.8240    0.6946   -0.7386 H   0  0  0  0  0  0  0  0  0  0  0  0
  1  2  2  0
  2  3  1  0
  3  4  1  0
  4  5  2  0
  5  6  1  0
  6  7  2  0
  7  8  1  0
  8  9  2  0
  2 10  1  0
 10 11  1  0
 11 12  2  0
 12 13  1  0
 13 14  2  0
 14 15  1  0
 15 16  2  0
 16 17  1  0
 17 18  2  0
 12 19  1  0
 19 20  1  0
 20 21  2  0
 21 22  1  0
 22 23  2  0
 23 24  1  0
 24 25  2  0
 19 26  1  0
  9  4  1  0
 26 10  2  0
 18 13  1  0
 25 20  1  0
  3 27  1  0
  5 28  1  0
  6 29  1  0
  7 30  1  0
  8 31  1  0
  9 32  1  0
 11 33  1  0
 14 34  1  0
 15 35  1  0
 16 36  1  0
 17 37  1  0
 18 38  1  0
 21 39  1  0
 22 40  1  0
 23 41  1  0
 24 42  1  0
 25 43  1  0
M  END
>  <_SMILES>  (8) 
O=C(Nc1ccccc1)c1cc(-c2ccccc2)n(-c2ccccc2)n1

$$$$

     RDKit          3D

 54 58  0  0  0  0  0  0  0  0999 V2000
   -4.8467   -3.8495    0.5056 C   0  0  0  0  0  0  0  0  0  0  0  0
   -4.8107   -2.5712    0.1051 C   0  0  0  0  0  0  0  0  0  0  0  0
   -4.1835   -2.0984   -1.1783 C   0  0  0  0  0  0  0  0  0  0  0  0
   -3.0425   -1.2132   -0.9535 N   0  0  0  0  0  0  0  0  0  0  0  0
   -1.7970   -1.7113   -1.0925 N   0  0  0  0  0  0  0  0  0  0  0  0
   -0.9735   -0.6876   -0.8069 C   0  0  0  0  0  0  0  0  0  0  0  0
    0.4982   -0.8438   -0.8419 C   0  0  0  0  0  0  0  0  0  0  0  0
    1.0560   -1.7806   -1.4063 O   0  0  0  0  0  0  0  0  0  0  0  0
    1.1952    0.1500   -0.1696 N   0  0  0  0  0  0  0  0  0  0  0  0
    2.6504    0.1704    0.0095 C   0  0  2  0  0  0  0  0  0  0  0  0
    3.4034    0.2081   -1.3449 C   0  0  0  0  0  0  0  0  0  0  0  0
    4.9240    0.2838   -1.1181 C   0  0  1  0  0  0  0  0  0  0  0  0
    5.2584    1.5624   -0.3348 C   0  0  0  0  0  0  0  0  0  0  0  0
    4.5410    1.5468    1.0235 C   0  0  2  0  0  0  0  0  0  0  0  0
    4.9985    0.3195    1.8273 C   0  0  0  0  0  0  0  0  0  0  0  0
    4.6634   -0.9673    1.0567 C   0  0  2  0  0  0  0  0  0  0  0  0
    5.3759   -0.9422   -0.3063 C   0  0  0  0  0  0  0  0  0  0  0  0
    3.1427   -1.0452    0.8330 C   0  0  0  0  0  0  0  0  0  0  0  0
    3.0243    1.4602    0.7911 C   0  0  0  0  0  0  0  0  0  0  0  0
   -1.7319    0.4774   -0.5036 C   0  0  0  0  0  0  0  0  0  0  0  0
   -3.0606    0.1215   -0.6216 C   0  0  0  0  0  0  0  0  0  0  0  0
   -4.2577    0.9267   -0.4295 C   0  0  0  0  0  0  0  0  0  0  0  0
   -5.0190    1.3417   -1.5279 C   0  0  0  0  0  0  0  0  0  0  0  0
   -6.1660    2.1146   -1.3372 C   0  0  0  0  0  0  0  0  0  0  0  0
   -6.5544    2.4808   -0.0492 C   0  0  0  0  0  0  0  0  0  0  0  0
   -5.7950    2.0794    1.0488 C   0  0  0  0  0  0  0  0  0  0  0  0
   -4.6473    1.3073    0.8595 C   0  0  0  0  0  0  0  0  0  0  0  0
   -4.3954   -4.6445   -0.0815 H   0  0  0  0  0  0  0  0  0  0  0  0
   -5.3187   -4.1264    1.4434 H   0  0  0  0  0  0  0  0  0  0  0  0
   -5.2734   -1.8119    0.7312 H   0  0  0  0  0  0  0  0  0  0  0  0
   -4.9167   -1.5527   -1.7801 H   0  0  0  0  0  0  0  0  0  0  0  0
   -3.8296   -2.9387   -1.7877 H   0  0  0  0  0  0  0  0  0  0  0  0
    0.6534    0.7492    0.4356 H   0  0  0  0  0  0  0  0  0  0  0  0
    3.1816   -0.6808   -1.9461 H   0  0  0  0  0  0  0  0  0  0  0  0
    3.0702    1.0700   -1.9376 H   0  0  0  0  0  0  0  0  0  0  0  0
    5.4404    0.2978   -2.0845 H   0  0  0  0  0  0  0  0  0  0  0  0
    6.3425    1.6383   -0.1856 H   0  0  0  0  0  0  0  0  0  0  0  0
    4.9537    2.4453   -0.9101 H   0  0  0  0  0  0  0  0  0  0  0  0
    4.7790    2.4614    1.5779 H   0  0  0  0  0  0  0  0  0  0  0  0
    4.5067    0.3084    2.8077 H   0  0  0  0  0  0  0  0  0  0  0  0
    6.0781    0.3746    2.0134 H   0  0  0  0  0  0  0  0  0  0  0  0
    4.9963   -1.8387    1.6317 H   0  0  0  0  0  0  0  0  0  0  0  0
    6.4626   -0.9128   -0.1592 H   0  0  0  0  0  0  0  0  0  0  0  0
    5.1548   -1.8619   -0.8618 H   0  0  0  0  0  0  0  0  0  0  0  0
    2.9041   -1.9861    0.3232 H   0  0  0  0  0  0  0  0  0  0  0  0
    2.6243   -1.0805    1.8002 H   0  0  0  0  0  0  0  0  0  0  0  0
    2.5027    1.4803    1.7575 H   0  0  0  0  0  0  0  0  0  0  0  0
    2.6821    2.3470    0.2409 H   0  0  0  0  0  0  0  0  0  0  0  0
   -1.3643    1.4638   -0.2599 H   0  0  0  0  0  0  0  0  0  0  0  0
   -4.7201    1.0731   -2.5387 H   0  0  0  0  0  0  0  0  0  0  0  0
   -6.7538    2.4346   -2.1939 H   0  0  0  0  0  0  0  0  0  0  0  0
   -7.4471    3.0837    0.0984 H   0  0  0  0  0  0  0  0  0  0  0  0
   -6.0956    2.3685    2.0526 H   0  0  0  0  0  0  0  0  0  0  0  0
   -4.0633    0.9991    1.7238 H   0  0  0  0  0  0  0  0  0  0  0  0
  1  2  2  0
  2  3  1  0
  3  4  1  0
  4  5  1  0
  5  6  2  0
  6  7  1  0
  7  8  2  0
  7  9  1  0
 10  9  1  6
 10 11  1  0
 11 12  1  0
 12 13  1  0
 13 14  1  0
 14 15  1  0
 15 16  1  0
 16 17  1  0
 16 18  1  0
 14 19  1  0
  6 20  1  0
 20 21  2  0
 21 22  1  0
 22 23  2  0
 23 24  1  0
 24 25  2  0
 25 26  1  0
 26 27  2  0
 21  4  1  0
 27 22  1  0
 18 10  1  0
 19 10  1  0
 17 12  1  0
  1 28  1  0
  1 29  1  0
  2 30  1  0
  3 31  1  0
  3 32  1  0
  9 33  1  0
 11 34  1  0
 11 35  1  0
 12 36  1  6
 13 37  1  0
 13 38  1  0
 14 39  1  1
 15 40  1  0
 15 41  1  0
 16 42  1  1
 17 43  1  0
 17 44  1  0
 18 45  1  0
 18 46  1  0
 19 47  1  0
 19 48  1  0
 20 49  1  0
 23 50  1  0
 24 51  1  0
 25 52  1  0
 26 53  1  0
 27 54  1  0
M  END
>  <_SMILES>  (9) 
C=CCn1nc(C(=O)N[C@]23C[C@H]4C[C@H](C[C@H](C4)C2)C3)cc1-c1ccccc1

$$$$

     RDKit          3D

 47 51  0  0  0  0  0  0  0  0999 V2000
    0.0574   -1.4653    1.0462 O   0  0  0  0  0  0  0  0  0  0  0  0
    0.2643   -0.4920    0.3302 C   0  0  0  0  0  0  0  0  0  0  0  0
   -0.7130    0.3511   -0.1513 N   0  0  0  0  0  0  0  0  0  0  0  0
   -2.1465    0.2409    0.0969 C   0  0  2  0  0  0  0  0  0  0  0  0
   -2.8652    1.4022   -0.6402 C   0  0  0  0  0  0  0  0  0  0  0  0
   -4.3845    1.3405   -0.4162 C   0  0  1  0  0  0  0  0  0  0  0  0
   -4.9183    0.0011   -0.9478 C   0  0  0  0  0  0  0  0  0  0  0  0
   -4.2379   -1.1641   -0.2122 C   0  0  2  0  0  0  0  0  0  0  0  0
   -4.5268   -1.0509    1.2944 C   0  0  0  0  0  0  0  0  0  0  0  0
   -3.9948    0.2868    1.8364 C   0  0  2  0  0  0  0  0  0  0  0  0
   -4.6767    1.4436    1.0890 C   0  0  0  0  0  0  0  0  0  0  0  0
   -2.4749    0.3579    1.6060 C   0  0  0  0  0  0  0  0  0  0  0  0
   -2.7180   -1.0934   -0.4431 C   0  0  0  0  0  0  0  0  0  0  0  0
    1.6158   -0.1046   -0.1086 C   0  0  0  0  0  0  0  0  0  0  0  0
    2.8351   -0.7540    0.2100 C   0  0  0  0  0  0  0  0  0  0  0  0
    3.8324   -0.0319   -0.4152 C   0  0  0  0  0  0  0  0  0  0  0  0
    5.2810   -0.2190   -0.4641 C   0  0  0  0  0  0  0  0  0  0  0  0
    5.8285   -1.5070   -0.3832 C   0  0  0  0  0  0  0  0  0  0  0  0
    7.2115   -1.7010   -0.4330 C   0  0  0  0  0  0  0  0  0  0  0  0
    8.0650   -0.6082   -0.5599 C   0  0  0  0  0  0  0  0  0  0  0  0
    7.5368    0.6783   -0.6341 C   0  0  0  0  0  0  0  0  0  0  0  0
    6.1532    0.8726   -0.5857 C   0  0  0  0  0  0  0  0  0  0  0  0
    3.1677    0.9710   -1.0726 N   0  0  0  0  0  0  0  0  0  0  0  0
    1.8337    0.9651   -0.9015 N   0  0  0  0  0  0  0  0  0  0  0  0
   -0.3539    1.1050   -0.7333 H   0  0  0  0  0  0  0  0  0  0  0  0
   -2.4785    2.3685   -0.2894 H   0  0  0  0  0  0  0  0  0  0  0  0
   -2.6478    1.3583   -1.7159 H   0  0  0  0  0  0  0  0  0  0  0  0
   -4.8706    2.1682   -0.9447 H   0  0  0  0  0  0  0  0  0  0  0  0
   -6.0051   -0.0511   -0.8084 H   0  0  0  0  0  0  0  0  0  0  0  0
   -4.7316   -0.0759   -2.0259 H   0  0  0  0  0  0  0  0  0  0  0  0
   -4.6246   -2.1164   -0.5920 H   0  0  0  0  0  0  0  0  0  0  0  0
   -4.0576   -1.8854    1.8298 H   0  0  0  0  0  0  0  0  0  0  0  0
   -5.6064   -1.1242    1.4744 H   0  0  0  0  0  0  0  0  0  0  0  0
   -4.2092    0.3627    2.9082 H   0  0  0  0  0  0  0  0  0  0  0  0
   -5.7593    1.4163    1.2634 H   0  0  0  0  0  0  0  0  0  0  0  0
   -4.3160    2.4045    1.4762 H   0  0  0  0  0  0  0  0  0  0  0  0
   -1.9891   -0.4436    2.1752 H   0  0  0  0  0  0  0  0  0  0  0  0
   -2.0802    1.3010    2.0062 H   0  0  0  0  0  0  0  0  0  0  0  0
   -2.2415   -1.9501    0.0481 H   0  0  0  0  0  0  0  0  0  0  0  0
   -2.4980   -1.1923   -1.5142 H   0  0  0  0  0  0  0  0  0  0  0  0
    2.9518   -1.6323    0.8306 H   0  0  0  0  0  0  0  0  0  0  0  0
    5.1827   -2.3774   -0.2905 H   0  0  0  0  0  0  0  0  0  0  0  0
    7.6199   -2.7067   -0.3723 H   0  0  0  0  0  0  0  0  0  0  0  0
    9.1409   -0.7591   -0.5958 H   0  0  0  0  0  0  0  0  0  0  0  0
    8.2028    1.5331   -0.7224 H   0  0  0  0  0  0  0  0  0  0  0  0
    5.7756    1.8911   -0.6216 H   0  0  0  0  0  0  0  0  0  0  0  0
    3.5699    1.6863   -1.6679 H   0  0  0  0  0  0  0  0  0  0  0  0
  1  2  2  0
  2  3  1  0
  4  3  1  1
  4  5  1  0
  5  6  1  0
  6  7  1  0
  7  8  1  0
  8  9  1  0
  9 10  1  0
 10 11  1  0
 10 12  1  0
  8 13  1  0
  2 14  1  0
 14 15  1  0
 15 16  2  0
 16 17  1  0
 17 18  2  0
 18 19  1  0
 19 20  2  0
 20 21  1  0
 21 22  2  0
 16 23  1  0
 23 24  1  0
 12  4  1  0
 24 14  2  0
 13  4  1  0
 22 17  1  0
 11  6  1  0
  3 25  1  0
  5 26  1  0
  5 27  1  0
  6 28  1  6
  7 29  1  0
  7 30  1  0
  8 31  1  6
  9 32  1  0
  9 33  1  0
 10 34  1  1
 11 35  1  0
 11 36  1  0
 12 37  1  0
 12 38  1  0
 13 39  1  0
 13 40  1  0
 15 41  1  0
 18 42  1  0
 19 43  1  0
 20 44  1  0
 21 45  1  0
 22 46  1  0
 23 47  1  0
M  END
>  <_SMILES>  (10) 
O=C(N[C@]12C[C@H]3C[C@H](C[C@H](C3)C1)C2)c1cc(-c2ccccc2)[nH]n1

$$$$

     RDKit          3D

 47 51  0  0  0  0  0  0  0  0999 V2000
    0.0403   -1.6943   -0.5469 O   0  0  0  0  0  0  0  0  0  0  0  0
    0.3023   -0.6059   -0.0502 C   0  0  0  0  0  0  0  0  0  0  0  0
   -0.6602    0.3259    0.2894 N   0  0  0  0  0  0  0  0  0  0  0  0
   -2.1002    0.1433    0.0581 C   0  0  2  0  0  0  0  0  0  0  0  0
   -2.8404    1.3880    0.6214 C   0  0  0  0  0  0  0  0  0  0  0  0
   -4.3580    1.2734    0.4078 C   0  0  1  0  0  0  0  0  0  0  0  0
   -4.6473    1.1513   -1.0966 C   0  0  0  0  0  0  0  0  0  0  0  0
   -3.9470   -0.0922   -1.6668 C   0  0  2  0  0  0  0  0  0  0  0  0
   -4.4602   -1.3437   -0.9341 C   0  0  0  0  0  0  0  0  0  0  0  0
   -4.1748   -1.2298    0.5732 C   0  0  2  0  0  0  0  0  0  0  0  0
   -4.8747    0.0196    1.1293 C   0  0  0  0  0  0  0  0  0  0  0  0
   -2.6565   -1.1036    0.7925 C   0  0  0  0  0  0  0  0  0  0  0  0
   -2.4285    0.0350   -1.4514 C   0  0  0  0  0  0  0  0  0  0  0  0
    1.6551   -0.1788    0.1976 C   0  0  0  0  0  0  0  0  0  0  0  0
    2.8310   -0.6355   -0.3648 C   0  0  0  0  0  0  0  0  0  0  0  0
    3.8831    0.1134    0.2307 C   0  0  0  0  0  0  0  0  0  0  0  0
    5.3261    0.0301   -0.0324 C   0  0  0  0  0  0  0  0  0  0  0  0
    5.8512   -0.9154   -0.9265 C   0  0  0  0  0  0  0  0  0  0  0  0
    7.2272   -0.9838   -1.1695 C   0  0  0  0  0  0  0  0  0  0  0  0
    8.0967   -0.1090   -0.5225 C   0  0  0  0  0  0  0  0  0  0  0  0
    7.5930    0.8346    0.3686 C   0  0  0  0  0  0  0  0  0  0  0  0
    6.2182    0.9028    0.6115 C   0  0  0  0  0  0  0  0  0  0  0  0
    3.3759    0.9756    1.1292 N   0  0  0  0  0  0  0  0  0  0  0  0
    2.0572    0.7445    1.1170 N   0  0  0  0  0  0  0  0  0  0  0  0
   -0.3482    1.2854    0.3345 H   0  0  0  0  0  0  0  0  0  0  0  0
   -2.6235    1.5030    1.6919 H   0  0  0  0  0  0  0  0  0  0  0  0
   -2.4693    2.3002    0.1349 H   0  0  0  0  0  0  0  0  0  0  0  0
   -4.8566    2.1628    0.8091 H   0  0  0  0  0  0  0  0  0  0  0  0
   -4.2995    2.0505   -1.6198 H   0  0  0  0  0  0  0  0  0  0  0  0
   -5.7290    1.0830   -1.2658 H   0  0  0  0  0  0  0  0  0  0  0  0
   -4.1612   -0.1774   -2.7381 H   0  0  0  0  0  0  0  0  0  0  0  0
   -3.9767   -2.2405   -1.3405 H   0  0  0  0  0  0  0  0  0  0  0  0
   -5.5380   -1.4593   -1.1024 H   0  0  0  0  0  0  0  0  0  0  0  0
   -4.5486   -2.1218    1.0883 H   0  0  0  0  0  0  0  0  0  0  0  0
   -4.6905    0.1042    2.2074 H   0  0  0  0  0  0  0  0  0  0  0  0
   -5.9601   -0.0685    0.9977 H   0  0  0  0  0  0  0  0  0  0  0  0
   -2.4377   -1.0374    1.8664 H   0  0  0  0  0  0  0  0  0  0  0  0
   -2.1737   -2.0210    0.4379 H   0  0  0  0  0  0  0  0  0  0  0  0
   -2.0483    0.9165   -1.9842 H   0  0  0  0  0  0  0  0  0  0  0  0
   -1.9295   -0.8324   -1.8994 H   0  0  0  0  0  0  0  0  0  0  0  0
    2.9019   -1.4063   -1.1198 H   0  0  0  0  0  0  0  0  0  0  0  0
    5.2041   -1.6160   -1.4464 H   0  0  0  0  0  0  0  0  0  0  0  0
    7.6184   -1.7227   -1.8642 H   0  0  0  0  0  0  0  0  0  0  0  0
    9.1655   -0.1633   -0.7114 H   0  0  0  0  0  0  0  0  0  0  0  0
    8.2662    1.5192    0.8777 H   0  0  0  0  0  0  0  0  0  0  0  0
    5.8442    1.6470    1.3121 H   0  0  0  0  0  0  0  0  0  0  0  0
    1.4807    1.2491    1.7808 H   0  0  0  0  0  0  0  0  0  0  0  0
  1  2  2  0
  2  3  1  0
  4  3  1  6
  4  5  1  0
  5  6  1  0
  6  7  1  0
  7  8  1  0
  8  9  1  0
  9 10  1  0
 10 11  1  0
 10 12  1  0
  8 13  1  0
  2 14  1  0
 14 15  2  0
 15 16  1  0
 16 17  1  0
 17 18  2  0
 18 19  1  0
 19 20  2  0
 20 21  1  0
 21 22  2  0
 16 23  2  0
 23 24  1  0
 12  4  1  0
 24 14  1  0
 13  4  1  0
 22 17  1  0
 11  6  1  0
  3 25  1  0
  5 26  1  0
  5 27  1  0
  6 28  1  1
  7 29  1  0
  7 30  1  0
  8 31  1  6
  9 32  1  0
  9 33  1  0
 10 34  1  1
 11 35  1  0
 11 36  1  0
 12 37  1  0
 12 38  1  0
 13 39  1  0
 13 40  1  0
 15 41  1  0
 18 42  1  0
 19 43  1  0
 20 44  1  0
 21 45  1  0
 22 46  1  0
 24 47  1  0
M  END
>  <_SMILES>  (11) 
O=C(N[C@]12C[C@H]3C[C@H](C[C@H](C3)C1)C2)c1cc(-c2ccccc2)n[nH]1

$$$$

     RDKit          3D

 53 57  0  0  0  0  0  0  0  0999 V2000
    4.5226   -2.7370    2.0891 C   0  0  0  0  0  0  0  0  0  0  0  0
    4.0771   -1.3178    2.3939 C   0  0  0  0  0  0  0  0  0  0  0  0
    3.0256   -0.8684    1.4982 N   0  0  0  0  0  0  0  0  0  0  0  0
    1.7461   -1.0971    1.8457 N   0  0  0  0  0  0  0  0  0  0  0  0
    1.0140   -0.6285    0.8194 C   0  0  0  0  0  0  0  0  0  0  0  0
   -0.4640   -0.7116    0.8190 C   0  0  0  0  0  0  0  0  0  0  0  0
   -1.0903   -1.4510    1.5728 O   0  0  0  0  0  0  0  0  0  0  0  0
   -1.0842    0.1289   -0.0945 N   0  0  0  0  0  0  0  0  0  0  0  0
   -2.5357    0.2897   -0.2254 C   0  0  2  0  0  0  0  0  0  0  0  0
   -3.1672    0.8603    1.0684 C   0  0  0  0  0  0  0  0  0  0  0  0
   -4.6799    1.0751    0.8832 C   0  0  1  0  0  0  0  0  0  0  0  0
   -4.9152    2.0721   -0.2624 C   0  0  0  0  0  0  0  0  0  0  0  0
   -4.3178    1.5228   -1.5673 C   0  0  2  0  0  0  0  0  0  0  0  0
   -4.9872    0.1831   -1.9097 C   0  0  0  0  0  0  0  0  0  0  0  0
   -4.7514   -0.8250   -0.7745 C   0  0  2  0  0  0  0  0  0  0  0  0
   -5.3434   -0.2674    0.5313 C   0  0  0  0  0  0  0  0  0  0  0  0
   -3.2386   -1.0423   -0.5920 C   0  0  0  0  0  0  0  0  0  0  0  0
   -2.8097    1.2978   -1.3757 C   0  0  0  0  0  0  0  0  0  0  0  0
    1.8700   -0.0934   -0.1837 C   0  0  0  0  0  0  0  0  0  0  0  0
    3.1604   -0.2423    0.2839 C   0  0  0  0  0  0  0  0  0  0  0  0
    4.4236    0.1152   -0.3433 C   0  0  0  0  0  0  0  0  0  0  0  0
    4.9224   -0.6498   -1.4032 C   0  0  0  0  0  0  0  0  0  0  0  0
    6.1334   -0.3084   -2.0083 C   0  0  0  0  0  0  0  0  0  0  0  0
    6.8481    0.8021   -1.5611 C   0  0  0  0  0  0  0  0  0  0  0  0
    6.3523    1.5740   -0.5112 C   0  0  0  0  0  0  0  0  0  0  0  0
    5.1418    1.2334    0.0953 C   0  0  0  0  0  0  0  0  0  0  0  0
    4.9220   -2.8186    1.0730 H   0  0  0  0  0  0  0  0  0  0  0  0
    3.6875   -3.4402    2.1762 H   0  0  0  0  0  0  0  0  0  0  0  0
    5.3047   -3.0477    2.7886 H   0  0  0  0  0  0  0  0  0  0  0  0
    4.9181   -0.6225    2.3190 H   0  0  0  0  0  0  0  0  0  0  0  0
    3.6903   -1.2501    3.4173 H   0  0  0  0  0  0  0  0  0  0  0  0
   -0.5073    0.8450   -0.5110 H   0  0  0  0  0  0  0  0  0  0  0  0
   -2.6854    1.8097    1.3365 H   0  0  0  0  0  0  0  0  0  0  0  0
   -3.0032    0.1838    1.9155 H   0  0  0  0  0  0  0  0  0  0  0  0
   -5.1122    1.4692    1.8098 H   0  0  0  0  0  0  0  0  0  0  0  0
   -4.4579    3.0388   -0.0181 H   0  0  0  0  0  0  0  0  0  0  0  0
   -5.9900    2.2513   -0.3885 H   0  0  0  0  0  0  0  0  0  0  0  0
   -4.4851    2.2380   -2.3803 H   0  0  0  0  0  0  0  0  0  0  0  0
   -6.0633    0.3300   -2.0635 H   0  0  0  0  0  0  0  0  0  0  0  0
   -4.5818   -0.2096   -2.8502 H   0  0  0  0  0  0  0  0  0  0  0  0
   -5.2334   -1.7776   -1.0214 H   0  0  0  0  0  0  0  0  0  0  0  0
   -6.4265   -0.1314    0.4222 H   0  0  0  0  0  0  0  0  0  0  0  0
   -5.1934   -0.9849    1.3473 H   0  0  0  0  0  0  0  0  0  0  0  0
   -3.0835   -1.7988    0.1854 H   0  0  0  0  0  0  0  0  0  0  0  0
   -2.8063   -1.4557   -1.5127 H   0  0  0  0  0  0  0  0  0  0  0  0
   -2.3674    0.9309   -2.3117 H   0  0  0  0  0  0  0  0  0  0  0  0
   -2.3193    2.2570   -1.1615 H   0  0  0  0  0  0  0  0  0  0  0  0
    1.5913    0.3362   -1.1351 H   0  0  0  0  0  0  0  0  0  0  0  0
    4.3735   -1.5185   -1.7601 H   0  0  0  0  0  0  0  0  0  0  0  0
    6.5181   -0.9085   -2.8290 H   0  0  0  0  0  0  0  0  0  0  0  0
    7.7903    1.0681   -2.0337 H   0  0  0  0  0  0  0  0  0  0  0  0
    6.9068    2.4433   -0.1668 H   0  0  0  0  0  0  0  0  0  0  0  0
    4.7610    1.8481    0.9078 H   0  0  0  0  0  0  0  0  0  0  0  0
  1  2  1  0
  2  3  1  0
  3  4  1  0
  4  5  2  0
  5  6  1  0
  6  7  2  0
  6  8  1  0
  9  8  1  1
  9 10  1  0
 10 11  1  0
 11 12  1  0
 12 13  1  0
 13 14  1  0
 14 15  1  0
 15 16  1  0
 15 17  1  0
 13 18  1  0
  5 19  1  0
 19 20  2  0
 20 21  1  0
 21 22  2  0
 22 23  1  0
 23 24  2  0
 24 25  1  0
 25 26  2  0
 20  3  1  0
 26 21  1  0
 17  9  1  0
 18  9  1  0
 16 11  1  0
  1 27  1  0
  1 28  1  0
  1 29  1  0
  2 30  1  0
  2 31  1  0
  8 32  1  0
 10 33  1  0
 10 34  1  0
 11 35  1  1
 12 36  1  0
 12 37  1  0
 13 38  1  6
 14 39  1  0
 14 40  1  0
 15 41  1  6
 16 42  1  0
 16 43  1  0
 17 44  1  0
 17 45  1  0
 18 46  1  0
 18 47  1  0
 19 48  1  0
 22 49  1  0
 23 50  1  0
 24 51  1  0
 25 52  1  0
 26 53  1  0
M  END
>  <_SMILES>  (12) 
CCn1nc(C(=O)N[C@]23C[C@H]4C[C@H](C[C@H](C4)C2)C3)cc1-c1ccccc1

$$$$

     RDKit          3D

 50 54  0  0  0  0  0  0  0  0999 V2000
   -0.3686    2.0211   -0.3470 O   0  0  0  0  0  0  0  0  0  0  0  0
   -0.1119    0.8754   -0.7054 C   0  0  0  0  0  0  0  0  0  0  0  0
   -1.0473   -0.1491   -0.6755 N   0  0  0  0  0  0  0  0  0  0  0  0
   -2.4113   -0.0152   -0.1542 C   0  0  2  0  0  0  0  0  0  0  0  0
   -2.4153    0.3362    1.3540 C   0  0  0  0  0  0  0  0  0  0  0  0
   -3.8567    0.4114    1.8883 C   0  0  1  0  0  0  0  0  0  0  0  0
   -4.6328    1.4835    1.1046 C   0  0  0  0  0  0  0  0  0  0  0  0
   -4.6694    1.1244   -0.3908 C   0  0  2  0  0  0  0  0  0  0  0  0
   -5.3499   -0.2416   -0.5681 C   0  0  0  0  0  0  0  0  0  0  0  0
   -4.5726   -1.3178    0.2048 C   0  0  2  0  0  0  0  0  0  0  0  0
   -4.5414   -0.9511    1.6968 C   0  0  0  0  0  0  0  0  0  0  0  0
   -3.1328   -1.3802   -0.3290 C   0  0  0  0  0  0  0  0  0  0  0  0
   -3.2291    1.0498   -0.9286 C   0  0  0  0  0  0  0  0  0  0  0  0
    1.2266    0.4650   -1.1878 C   0  0  0  0  0  0  0  0  0  0  0  0
    1.5800   -0.6933   -1.9408 C   0  0  0  0  0  0  0  0  0  0  0  0
    2.9375   -0.6129   -2.1366 C   0  0  0  0  0  0  0  0  0  0  0  0
    3.3363    0.5344   -1.5146 N   0  0  0  0  0  0  0  0  0  0  0  0
    4.6890    1.0752   -1.4656 C   0  0  0  0  0  0  0  0  0  0  0  0
    5.5561    0.3217   -0.4874 C   0  0  0  0  0  0  0  0  0  0  0  0
    6.6153   -0.4799   -0.9379 C   0  0  0  0  0  0  0  0  0  0  0  0
    7.4139   -1.1737   -0.0269 C   0  0  0  0  0  0  0  0  0  0  0  0
    7.1635   -1.0736    1.3405 C   0  0  0  0  0  0  0  0  0  0  0  0
    6.1146   -0.2799    1.8001 C   0  0  0  0  0  0  0  0  0  0  0  0
    5.3151    0.4151    0.8921 C   0  0  0  0  0  0  0  0  0  0  0  0
    2.3210    1.2134   -0.9505 N   0  0  0  0  0  0  0  0  0  0  0  0
   -0.6870   -1.0873   -0.7722 H   0  0  0  0  0  0  0  0  0  0  0  0
   -1.8468   -0.4149    1.9179 H   0  0  0  0  0  0  0  0  0  0  0  0
   -1.9168    1.2960    1.5337 H   0  0  0  0  0  0  0  0  0  0  0  0
   -3.8418    0.6703    2.9530 H   0  0  0  0  0  0  0  0  0  0  0  0
   -5.6551    1.5643    1.4943 H   0  0  0  0  0  0  0  0  0  0  0  0
   -4.1611    2.4641    1.2432 H   0  0  0  0  0  0  0  0  0  0  0  0
   -5.2290    1.8892   -0.9408 H   0  0  0  0  0  0  0  0  0  0  0  0
   -5.3951   -0.5028   -1.6325 H   0  0  0  0  0  0  0  0  0  0  0  0
   -6.3849   -0.1947   -0.2076 H   0  0  0  0  0  0  0  0  0  0  0  0
   -5.0587   -2.2909    0.0734 H   0  0  0  0  0  0  0  0  0  0  0  0
   -4.0048   -1.7232    2.2618 H   0  0  0  0  0  0  0  0  0  0  0  0
   -5.5627   -0.9167    2.0957 H   0  0  0  0  0  0  0  0  0  0  0  0
   -3.1421   -1.6687   -1.3887 H   0  0  0  0  0  0  0  0  0  0  0  0
   -2.5796   -2.1696    0.1975 H   0  0  0  0  0  0  0  0  0  0  0  0
   -3.2418    0.8099   -1.9999 H   0  0  0  0  0  0  0  0  0  0  0  0
   -2.7702    2.0411   -0.8425 H   0  0  0  0  0  0  0  0  0  0  0  0
    0.9292   -1.4733   -2.3082 H   0  0  0  0  0  0  0  0  0  0  0  0
    3.6371   -1.2585   -2.6486 H   0  0  0  0  0  0  0  0  0  0  0  0
    5.0903    1.0232   -2.4844 H   0  0  0  0  0  0  0  0  0  0  0  0
    4.6309    2.1342   -1.1884 H   0  0  0  0  0  0  0  0  0  0  0  0
    6.8287   -0.5708   -2.0006 H   0  0  0  0  0  0  0  0  0  0  0  0
    8.2334   -1.7926   -0.3833 H   0  0  0  0  0  0  0  0  0  0  0  0
    7.7859   -1.6140    2.0489 H   0  0  0  0  0  0  0  0  0  0  0  0
    5.9170   -0.2015    2.8661 H   0  0  0  0  0  0  0  0  0  0  0  0
    4.4953    1.0289    1.2647 H   0  0  0  0  0  0  0  0  0  0  0  0
  1  2  2  0
  2  3  1  0
  4  3  1  6
  4  5  1  0
  5  6  1  0
  6  7  1  0
  7  8  1  0
  8  9  1  0
  9 10  1  0
 10 11  1  0
 10 12  1  0
  8 13  1  0
  2 14  1  0
 14 15  1  0
 15 16  2  0
 16 17  1  0
 17 18  1  0
 18 19  1  0
 19 20  2  0
 20 21  1  0
 21 22  2  0
 22 23  1  0
 23 24  2  0
 17 25  1  0
 12  4  1  0
 25 14  2  0
 13  4  1  0
 24 19  1  0
 11  6  1  0
  3 26  1  0
  5 27  1  0
  5 28  1  0
  6 29  1  1
  7 30  1  0
  7 31  1  0
  8 32  1  6
  9 33  1  0
  9 34  1  0
 10 35  1  1
 11 36  1  0
 11 37  1  0
 12 38  1  0
 12 39  1  0
 13 40  1  0
 13 41  1  0
 15 42  1  0
 16 43  1  0
 18 44  1  0
 18 45  1  0
 20 46  1  0
 21 47  1  0
 22 48  1  0
 23 49  1  0
 24 50  1  0
M  END
>  <_SMILES>  (13) 
O=C(N[C@]12C[C@H]3C[C@H](C[C@H](C3)C1)C2)c1ccn(Cc2ccccc2)n1

$$$$

     RDKit          3D

 56 60  0  0  0  0  0  0  0  0999 V2000
   -4.3480   -1.8059   -1.4934 C   0  0  0  0  0  0  0  0  0  0  0  0
   -3.4260   -1.0578   -2.4451 C   0  0  0  0  0  0  0  0  0  0  0  0
   -3.2451    0.4140   -2.0718 C   0  0  0  0  0  0  0  0  0  0  0  0
   -2.5264    0.6145   -0.8248 N   0  0  0  0  0  0  0  0  0  0  0  0
   -1.2008    0.3485   -0.7993 N   0  0  0  0  0  0  0  0  0  0  0  0
   -0.8415    0.5787    0.4802 C   0  0  0  0  0  0  0  0  0  0  0  0
    0.5415    0.3871    0.9478 C   0  0  0  0  0  0  0  0  0  0  0  0
    0.8806    0.5899    2.1083 O   0  0  0  0  0  0  0  0  0  0  0  0
    1.3856   -0.0389   -0.0541 N   0  0  0  0  0  0  0  0  0  0  0  0
    2.8104   -0.3216    0.0792 C   0  0  2  0  0  0  0  0  0  0  0  0
    3.3549   -0.7722   -1.3024 C   0  0  0  0  0  0  0  0  0  0  0  0
    4.8576   -1.0860   -1.2267 C   0  0  1  0  0  0  0  0  0  0  0  0
    5.6133    0.1736   -0.7752 C   0  0  0  0  0  0  0  0  0  0  0  0
    5.1072    0.6230    0.6046 C   0  0  2  0  0  0  0  0  0  0  0  0
    5.3315   -0.5097    1.6208 C   0  0  0  0  0  0  0  0  0  0  0  0
    4.5776   -1.7752    1.1780 C   0  0  2  0  0  0  0  0  0  0  0  0
    5.0868   -2.2108   -0.2050 C   0  0  0  0  0  0  0  0  0  0  0  0
    3.0730   -1.4640    1.0914 C   0  0  0  0  0  0  0  0  0  0  0  0
    3.6027    0.9348    0.5178 C   0  0  0  0  0  0  0  0  0  0  0  0
   -1.9497    1.0087    1.2476 C   0  0  0  0  0  0  0  0  0  0  0  0
   -3.0240    1.0472    0.3819 C   0  0  0  0  0  0  0  0  0  0  0  0
   -4.4071    1.4200    0.6425 C   0  0  0  0  0  0  0  0  0  0  0  0
   -4.9235    2.6240    0.1495 C   0  0  0  0  0  0  0  0  0  0  0  0
   -6.2505    2.9769    0.4026 C   0  0  0  0  0  0  0  0  0  0  0  0
   -7.0658    2.1319    1.1543 C   0  0  0  0  0  0  0  0  0  0  0  0
   -6.5546    0.9368    1.6583 C   0  0  0  0  0  0  0  0  0  0  0  0
   -5.2276    0.5832    1.4068 C   0  0  0  0  0  0  0  0  0  0  0  0
   -3.9223   -1.8623   -0.4871 H   0  0  0  0  0  0  0  0  0  0  0  0
   -5.3264   -1.3193   -1.4302 H   0  0  0  0  0  0  0  0  0  0  0  0
   -4.5021   -2.8303   -1.8472 H   0  0  0  0  0  0  0  0  0  0  0  0
   -2.4556   -1.5666   -2.4803 H   0  0  0  0  0  0  0  0  0  0  0  0
   -3.8504   -1.1110   -3.4547 H   0  0  0  0  0  0  0  0  0  0  0  0
   -4.2144    0.9167   -2.0144 H   0  0  0  0  0  0  0  0  0  0  0  0
   -2.6643    0.9259   -2.8486 H   0  0  0  0  0  0  0  0  0  0  0  0
    0.9251   -0.1534   -0.9548 H   0  0  0  0  0  0  0  0  0  0  0  0
    3.1778    0.0111   -2.0516 H   0  0  0  0  0  0  0  0  0  0  0  0
    2.8090   -1.6588   -1.6523 H   0  0  0  0  0  0  0  0  0  0  0  0
    5.2200   -1.4015   -2.2115 H   0  0  0  0  0  0  0  0  0  0  0  0
    6.6901   -0.0309   -0.7312 H   0  0  0  0  0  0  0  0  0  0  0  0
    5.4718    0.9786   -1.5069 H   0  0  0  0  0  0  0  0  0  0  0  0
    5.6516    1.5188    0.9236 H   0  0  0  0  0  0  0  0  0  0  0  0
    6.4035   -0.7252    1.7096 H   0  0  0  0  0  0  0  0  0  0  0  0
    4.9867   -0.1961    2.6138 H   0  0  0  0  0  0  0  0  0  0  0  0
    4.7467   -2.5789    1.9034 H   0  0  0  0  0  0  0  0  0  0  0  0
    4.5665   -3.1214   -0.5265 H   0  0  0  0  0  0  0  0  0  0  0  0
    6.1545   -2.4564   -0.1512 H   0  0  0  0  0  0  0  0  0  0  0  0
    2.5215   -2.3658    0.7944 H   0  0  0  0  0  0  0  0  0  0  0  0
    2.7055   -1.1948    2.0888 H   0  0  0  0  0  0  0  0  0  0  0  0
    3.4316    1.7555   -0.1911 H   0  0  0  0  0  0  0  0  0  0  0  0
    3.2553    1.2952    1.4934 H   0  0  0  0  0  0  0  0  0  0  0  0
   -1.9502    1.2674    2.2980 H   0  0  0  0  0  0  0  0  0  0  0  0
   -4.2935    3.2981   -0.4262 H   0  0  0  0  0  0  0  0  0  0  0  0
   -6.6459    3.9141    0.0192 H   0  0  0  0  0  0  0  0  0  0  0  0
   -8.0979    2.4085    1.3543 H   0  0  0  0  0  0  0  0  0  0  0  0
   -7.1875    0.2814    2.2512 H   0  0  0  0  0  0  0  0  0  0  0  0
   -4.8387   -0.3498    1.8085 H   0  0  0  0  0  0  0  0  0  0  0  0
  1  2  1  0
  2  3  1  0
  3  4  1  0
  4  5  1  0
  5  6  2  0
  6  7  1  0
  7  8  2  0
  7  9  1  0
 10  9  1  6
 10 11  1  0
 11 12  1  0
 12 13  1  0
 13 14  1  0
 14 15  1  0
 15 16  1  0
 16 17  1  0
 16 18  1  0
 14 19  1  0
  6 20  1  0
 20 21  2  0
 21 22  1  0
 22 23  2  0
 23 24  1  0
 24 25  2  0
 25 26  1  0
 26 27  2  0
 21  4  1  0
 27 22  1  0
 18 10  1  0
 19 10  1  0
 17 12  1  0
  1 28  1  0
  1 29  1  0
  1 30  1  0
  2 31  1  0
  2 32  1  0
  3 33  1  0
  3 34  1  0
  9 35  1  0
 11 36  1  0
 11 37  1  0
 12 38  1  6
 13 39  1  0
 13 40  1  0
 14 41  1  1
 15 42  1  0
 15 43  1  0
 16 44  1  1
 17 45  1  0
 17 46  1  0
 18 47  1  0
 18 48  1  0
 19 49  1  0
 19 50  1  0
 20 51  1  0
 23 52  1  0
 24 53  1  0
 25 54  1  0
 26 55  1  0
 27 56  1  0
M  END
>  <_SMILES>  (14) 
CCCn1nc(C(=O)N[C@]23C[C@H]4C[C@H](C[C@H](C4)C2)C3)cc1-c1ccccc1

$$$$

     RDKit          3D

 59 63  0  0  0  0  0  0  0  0999 V2000
    4.1742    3.3816   -0.4272 C   0  0  0  0  0  0  0  0  0  0  0  0
    3.2661    2.2356   -0.8460 C   0  0  0  0  0  0  0  0  0  0  0  0
    4.0764    1.0156   -1.2894 C   0  0  0  0  0  0  0  0  0  0  0  0
    3.2017   -0.1295   -1.8029 C   0  0  0  0  0  0  0  0  0  0  0  0
    2.3533   -0.7255   -0.7850 N   0  0  0  0  0  0  0  0  0  0  0  0
    1.0494   -0.3716   -0.7437 N   0  0  0  0  0  0  0  0  0  0  0  0
    0.5590   -1.0394    0.3207 C   0  0  0  0  0  0  0  0  0  0  0  0
   -0.8479   -0.9161    0.7370 C   0  0  0  0  0  0  0  0  0  0  0  0
   -1.3057   -1.5144    1.7041 O   0  0  0  0  0  0  0  0  0  0  0  0
   -1.5673   -0.0646   -0.0726 N   0  0  0  0  0  0  0  0  0  0  0  0
   -2.9778    0.2781    0.0717 C   0  0  2  0  0  0  0  0  0  0  0  0
   -3.8847   -0.9706   -0.0580 C   0  0  0  0  0  0  0  0  0  0  0  0
   -5.3682   -0.5758    0.0500 C   0  0  1  0  0  0  0  0  0  0  0  0
   -5.6139    0.1019    1.4088 C   0  0  0  0  0  0  0  0  0  0  0  0
   -4.7441    1.3642    1.5359 C   0  0  2  0  0  0  0  0  0  0  0  0
   -5.0947    2.3378    0.3997 C   0  0  0  0  0  0  0  0  0  0  0  0
   -4.8432    1.6690   -0.9609 C   0  0  2  0  0  0  0  0  0  0  0  0
   -5.7152    0.4090   -1.0777 C   0  0  0  0  0  0  0  0  0  0  0  0
   -3.3626    1.2683   -1.0595 C   0  0  0  0  0  0  0  0  0  0  0  0
   -3.2605    0.9698    1.4283 C   0  0  0  0  0  0  0  0  0  0  0  0
    1.5637   -1.8270    0.9310 C   0  0  0  0  0  0  0  0  0  0  0  0
    2.7107   -1.6281    0.1893 C   0  0  0  0  0  0  0  0  0  0  0  0
    4.0426   -2.1867    0.3765 C   0  0  0  0  0  0  0  0  0  0  0  0
    4.8112   -1.8090    1.4834 C   0  0  0  0  0  0  0  0  0  0  0  0
    6.0890   -2.3403    1.6687 C   0  0  0  0  0  0  0  0  0  0  0  0
    6.6023   -3.2581    0.7535 C   0  0  0  0  0  0  0  0  0  0  0  0
    5.8376   -3.6494   -0.3445 C   0  0  0  0  0  0  0  0  0  0  0  0
    4.5599   -3.1180   -0.5313 C   0  0  0  0  0  0  0  0  0  0  0  0
    4.8154    3.0877    0.4101 H   0  0  0  0  0  0  0  0  0  0  0  0
    3.5767    4.2426   -0.1118 H   0  0  0  0  0  0  0  0  0  0  0  0
    4.8147    3.6983   -1.2565 H   0  0  0  0  0  0  0  0  0  0  0  0
    2.6184    2.5708   -1.6642 H   0  0  0  0  0  0  0  0  0  0  0  0
    2.6181    1.9750   -0.0019 H   0  0  0  0  0  0  0  0  0  0  0  0
    4.7576    1.3134   -2.0962 H   0  0  0  0  0  0  0  0  0  0  0  0
    4.7029    0.6725   -0.4581 H   0  0  0  0  0  0  0  0  0  0  0  0
    2.5534    0.2173   -2.6168 H   0  0  0  0  0  0  0  0  0  0  0  0
    3.8272   -0.9262   -2.2181 H   0  0  0  0  0  0  0  0  0  0  0  0
   -1.0176    0.3443   -0.8256 H   0  0  0  0  0  0  0  0  0  0  0  0
   -3.7007   -1.4729   -1.0168 H   0  0  0  0  0  0  0  0  0  0  0  0
   -3.6525   -1.7053    0.7223 H   0  0  0  0  0  0  0  0  0  0  0  0
   -5.9950   -1.4704   -0.0355 H   0  0  0  0  0  0  0  0  0  0  0  0
   -6.6738    0.3669    1.5080 H   0  0  0  0  0  0  0  0  0  0  0  0
   -5.3828   -0.5960    2.2230 H   0  0  0  0  0  0  0  0  0  0  0  0
   -4.9287    1.8443    2.5034 H   0  0  0  0  0  0  0  0  0  0  0  0
   -4.4906    3.2492    0.4871 H   0  0  0  0  0  0  0  0  0  0  0  0
   -6.1452    2.6434    0.4786 H   0  0  0  0  0  0  0  0  0  0  0  0
   -5.0923    2.3672   -1.7677 H   0  0  0  0  0  0  0  0  0  0  0  0
   -5.5575   -0.0673   -2.0532 H   0  0  0  0  0  0  0  0  0  0  0  0
   -6.7764    0.6814   -1.0242 H   0  0  0  0  0  0  0  0  0  0  0  0
   -2.7321    2.1660   -1.0060 H   0  0  0  0  0  0  0  0  0  0  0  0
   -3.1665    0.8151   -2.0406 H   0  0  0  0  0  0  0  0  0  0  0  0
   -3.0045    0.3088    2.2649 H   0  0  0  0  0  0  0  0  0  0  0  0
   -2.6283    1.8609    1.5367 H   0  0  0  0  0  0  0  0  0  0  0  0
    1.4509   -2.4644    1.7978 H   0  0  0  0  0  0  0  0  0  0  0  0
    4.4204   -1.0957    2.2057 H   0  0  0  0  0  0  0  0  0  0  0  0
    6.6814   -2.0406    2.5294 H   0  0  0  0  0  0  0  0  0  0  0  0
    7.5955   -3.6747    0.9007 H   0  0  0  0  0  0  0  0  0  0  0  0
    6.2329   -4.3742   -1.0515 H   0  0  0  0  0  0  0  0  0  0  0  0
    3.9673   -3.4445   -1.3827 H   0  0  0  0  0  0  0  0  0  0  0  0
  1  2  1  0
  2  3  1  0
  3  4  1  0
  4  5  1  0
  5  6  1  0
  6  7  2  0
  7  8  1  0
  8  9  2  0
  8 10  1  0
 11 10  1  1
 11 12  1  0
 12 13  1  0
 13 14  1  0
 14 15  1  0
 15 16  1  0
 16 17  1  0
 17 18  1  0
 17 19  1  0
 15 20  1  0
  7 21  1  0
 21 22  2  0
 22 23  1  0
 23 24  2  0
 24 25  1  0
 25 26  2  0
 26 27  1  0
 27 28  2  0
 22  5  1  0
 28 23  1  0
 19 11  1  0
 20 11  1  0
 18 13  1  0
  1 29  1  0
  1 30  1  0
  1 31  1  0
  2 32  1  0
  2 33  1  0
  3 34  1  0
  3 35  1  0
  4 36  1  0
  4 37  1  0
 10 38  1  0
 12 39  1  0
 12 40  1  0
 13 41  1  6
 14 42  1  0
 14 43  1  0
 15 44  1  1
 16 45  1  0
 16 46  1  0
 17 47  1  6
 18 48  1  0
 18 49  1  0
 19 50  1  0
 19 51  1  0
 20 52  1  0
 20 53  1  0
 21 54  1  0
 24 55  1  0
 25 56  1  0
 26 57  1  0
 27 58  1  0
 28 59  1  0
M  END
>  <_SMILES>  (15) 
CCCCn1nc(C(=O)N[C@]23C[C@H]4C[C@H](C[C@H](C4)C2)C3)cc1-c1ccccc1

$$$$

     RDKit          3D

 50 54  0  0  0  0  0  0  0  0999 V2000
    3.8921   -3.0084   -0.2776 C   0  0  0  0  0  0  0  0  0  0  0  0
    3.1101   -1.7699   -0.0462 C   0  0  0  0  0  0  0  0  0  0  0  0
    1.7393   -1.6695    0.0953 C   0  0  0  0  0  0  0  0  0  0  0  0
    1.4477   -0.2917    0.2021 C   0  0  0  0  0  0  0  0  0  0  0  0
    0.1314    0.3676    0.3559 C   0  0  0  0  0  0  0  0  0  0  0  0
    0.0106    1.5311    0.7281 O   0  0  0  0  0  0  0  0  0  0  0  0
   -0.9537   -0.4328    0.0287 N   0  0  0  0  0  0  0  0  0  0  0  0
   -2.3485    0.0207    0.0197 C   0  0  2  0  0  0  0  0  0  0  0  0
   -2.5779    1.1453   -1.0198 C   0  0  0  0  0  0  0  0  0  0  0  0
   -4.0598    1.5599   -1.0506 C   0  0  1  0  0  0  0  0  0  0  0  0
   -4.9192    0.3463   -1.4384 C   0  0  0  0  0  0  0  0  0  0  0  0
   -4.7295   -0.7809   -0.4112 C   0  0  2  0  0  0  0  0  0  0  0  0
   -5.1501   -0.2795    0.9786 C   0  0  0  0  0  0  0  0  0  0  0  0
   -4.2915    0.9294    1.3809 C   0  0  2  0  0  0  0  0  0  0  0  0
   -4.4778    2.0518    0.3456 C   0  0  0  0  0  0  0  0  0  0  0  0
   -2.8099    0.5134    1.4151 C   0  0  0  0  0  0  0  0  0  0  0  0
   -3.2470   -1.1844   -0.3738 C   0  0  0  0  0  0  0  0  0  0  0  0
    2.5798    0.4197    0.1360 N   0  0  0  0  0  0  0  0  0  0  0  0
    3.6037   -0.4701    0.0429 N   0  0  0  0  0  0  0  0  0  0  0  0
    4.9446    0.0377    0.0432 C   0  0  0  0  0  0  0  0  0  0  0  0
    5.1361    1.4303   -0.0471 C   0  0  0  0  0  0  0  0  0  0  0  0
    6.4197    1.9827   -0.0538 C   0  0  0  0  0  0  0  0  0  0  0  0
    7.5327    1.1548    0.0381 C   0  0  0  0  0  0  0  0  0  0  0  0
    7.3602   -0.2226    0.1439 C   0  0  0  0  0  0  0  0  0  0  0  0
    6.0749   -0.7802    0.1503 C   0  0  0  0  0  0  0  0  0  0  0  0
    4.5861   -2.8946   -1.1155 H   0  0  0  0  0  0  0  0  0  0  0  0
    4.4344   -3.3043    0.6252 H   0  0  0  0  0  0  0  0  0  0  0  0
    3.2248   -3.8392   -0.5345 H   0  0  0  0  0  0  0  0  0  0  0  0
    1.0452   -2.4980    0.1077 H   0  0  0  0  0  0  0  0  0  0  0  0
   -0.7507   -1.2866   -0.4696 H   0  0  0  0  0  0  0  0  0  0  0  0
   -1.9655    2.0245   -0.7873 H   0  0  0  0  0  0  0  0  0  0  0  0
   -2.2639    0.8078   -2.0163 H   0  0  0  0  0  0  0  0  0  0  0  0
   -4.2027    2.3622   -1.7831 H   0  0  0  0  0  0  0  0  0  0  0  0
   -4.6398   -0.0067   -2.4387 H   0  0  0  0  0  0  0  0  0  0  0  0
   -5.9762    0.6355   -1.4865 H   0  0  0  0  0  0  0  0  0  0  0  0
   -5.3414   -1.6449   -0.6933 H   0  0  0  0  0  0  0  0  0  0  0  0
   -6.2109   -0.0006    0.9716 H   0  0  0  0  0  0  0  0  0  0  0  0
   -5.0369   -1.0824    1.7174 H   0  0  0  0  0  0  0  0  0  0  0  0
   -4.5972    1.2855    2.3710 H   0  0  0  0  0  0  0  0  0  0  0  0
   -3.8799    2.9266    0.6294 H   0  0  0  0  0  0  0  0  0  0  0  0
   -5.5261    2.3747    0.3295 H   0  0  0  0  0  0  0  0  0  0  0  0
   -2.6604   -0.2769    2.1624 H   0  0  0  0  0  0  0  0  0  0  0  0
   -2.2126    1.3686    1.7505 H   0  0  0  0  0  0  0  0  0  0  0  0
   -3.1048   -2.0089    0.3377 H   0  0  0  0  0  0  0  0  0  0  0  0
   -2.9473   -1.5736   -1.3562 H   0  0  0  0  0  0  0  0  0  0  0  0
    4.2863    2.1088   -0.1195 H   0  0  0  0  0  0  0  0  0  0  0  0
    6.5432    3.0601   -0.1283 H   0  0  0  0  0  0  0  0  0  0  0  0
    8.5317    1.5826    0.0361 H   0  0  0  0  0  0  0  0  0  0  0  0
    8.2304   -0.8689    0.2315 H   0  0  0  0  0  0  0  0  0  0  0  0
    6.0164   -1.8520    0.2727 H   0  0  0  0  0  0  0  0  0  0  0  0
  1  2  1  0
  2  3  2  0
  3  4  1  0
  4  5  1  0
  5  6  2  0
  5  7  1  0
  8  7  1  1
  8  9  1  0
  9 10  1  0
 10 11  1  0
 11 12  1  0
 12 13  1  0
 13 14  1  0
 14 15  1  0
 14 16  1  0
 12 17  1  0
  4 18  2  0
 18 19  1  0
 19 20  1  0
 20 21  2  0
 21 22  1  0
 22 23  2  0
 23 24  1  0
 24 25  2  0
 19  2  1  0
 25 20  1  0
 16  8  1  0
 17  8  1  0
 15 10  1  0
  1 26  1  0
  1 27  1  0
  1 28  1  0
  3 29  1  0
  7 30  1  0
  9 31  1  0
  9 32  1  0
 10 33  1  6
 11 34  1  0
 11 35  1  0
 12 36  1  6
 13 37  1  0
 13 38  1  0
 14 39  1  1
 15 40  1  0
 15 41  1  0
 16 42  1  0
 16 43  1  0
 17 44  1  0
 17 45  1  0
 21 46  1  0
 22 47  1  0
 23 48  1  0
 24 49  1  0
 25 50  1  0
M  END
>  <_SMILES>  (16) 
Cc1cc(C(=O)N[C@]23C[C@H]4C[C@H](C[C@H](C4)C2)C3)nn1-c1ccccc1

$$$$

     RDKit          3D

 60 65  0  0  0  0  0  0  0  0999 V2000
   -1.7807   -0.8316    1.7753 O   0  0  0  0  0  0  0  0  0  0  0  0
   -1.2008   -0.1725    0.9172 C   0  0  0  0  0  0  0  0  0  0  0  0
   -1.8431    0.3310   -0.2048 N   0  0  0  0  0  0  0  0  0  0  0  0
   -3.2500    0.0869   -0.5384 C   0  0  2  0  0  0  0  0  0  0  0  0
   -3.5752    0.8478   -1.8535 C   0  0  0  0  0  0  0  0  0  0  0  0
   -5.0383    0.6314   -2.2710 C   0  0  1  0  0  0  0  0  0  0  0  0
   -5.2849   -0.8705   -2.4832 C   0  0  0  0  0  0  0  0  0  0  0  0
   -4.9963   -1.6386   -1.1837 C   0  0  2  0  0  0  0  0  0  0  0  0
   -5.9160   -1.1122   -0.0687 C   0  0  0  0  0  0  0  0  0  0  0  0
   -5.6760    0.3914    0.1506 C   0  0  2  0  0  0  0  0  0  0  0  0
   -5.9615    1.1467   -1.1565 C   0  0  0  0  0  0  0  0  0  0  0  0
   -4.2089    0.6155    0.5587 C   0  0  0  0  0  0  0  0  0  0  0  0
   -3.5284   -1.4177   -0.7772 C   0  0  0  0  0  0  0  0  0  0  0  0
    0.2457    0.1355    0.9826 C   0  0  0  0  0  0  0  0  0  0  0  0
    0.9704    1.1311    0.2697 C   0  0  0  0  0  0  0  0  0  0  0  0
    2.2850    1.0214    0.6744 C   0  0  0  0  0  0  0  0  0  0  0  0
    3.4492    1.7945    0.2737 C   0  0  0  0  0  0  0  0  0  0  0  0
    3.7627    2.9879    0.9328 C   0  0  0  0  0  0  0  0  0  0  0  0
    4.8835    3.7274    0.5505 C   0  0  0  0  0  0  0  0  0  0  0  0
    5.6921    3.2797   -0.4937 C   0  0  0  0  0  0  0  0  0  0  0  0
    5.3800    2.0948   -1.1590 C   0  0  0  0  0  0  0  0  0  0  0  0
    4.2590    1.3551   -0.7788 C   0  0  0  0  0  0  0  0  0  0  0  0
    2.2949   -0.0105    1.5821 N   0  0  0  0  0  0  0  0  0  0  0  0
    3.4310   -0.5168    2.3475 C   0  0  0  0  0  0  0  0  0  0  0  0
    4.2701   -1.4875    1.5521 C   0  0  0  0  0  0  0  0  0  0  0  0
    5.6095   -1.1946    1.2549 C   0  0  0  0  0  0  0  0  0  0  0  0
    6.3866   -2.0946    0.5237 C   0  0  0  0  0  0  0  0  0  0  0  0
    5.8370   -3.2986    0.0879 C   0  0  0  0  0  0  0  0  0  0  0  0
    4.5104   -3.6052    0.3832 C   0  0  0  0  0  0  0  0  0  0  0  0
    3.7312   -2.7068    1.1133 C   0  0  0  0  0  0  0  0  0  0  0  0
    1.0733   -0.5432    1.7971 N   0  0  0  0  0  0  0  0  0  0  0  0
   -1.2505    0.6673   -0.9498 H   0  0  0  0  0  0  0  0  0  0  0  0
   -3.3807    1.9212   -1.7259 H   0  0  0  0  0  0  0  0  0  0  0  0
   -2.9094    0.5104   -2.6592 H   0  0  0  0  0  0  0  0  0  0  0  0
   -5.2423    1.1744   -3.2006 H   0  0  0  0  0  0  0  0  0  0  0  0
   -4.6442   -1.2456   -3.2907 H   0  0  0  0  0  0  0  0  0  0  0  0
   -6.3227   -1.0394   -2.7958 H   0  0  0  0  0  0  0  0  0  0  0  0
   -5.1786   -2.7078   -1.3390 H   0  0  0  0  0  0  0  0  0  0  0  0
   -6.9653   -1.2878   -0.3360 H   0  0  0  0  0  0  0  0  0  0  0  0
   -5.7286   -1.6614    0.8622 H   0  0  0  0  0  0  0  0  0  0  0  0
   -6.3389    0.7598    0.9415 H   0  0  0  0  0  0  0  0  0  0  0  0
   -5.8076    2.2228   -1.0092 H   0  0  0  0  0  0  0  0  0  0  0  0
   -7.0108    1.0119   -1.4462 H   0  0  0  0  0  0  0  0  0  0  0  0
   -4.0300    0.1138    1.5163 H   0  0  0  0  0  0  0  0  0  0  0  0
   -4.0285    1.6842    0.7341 H   0  0  0  0  0  0  0  0  0  0  0  0
   -2.8621   -1.8052   -1.5591 H   0  0  0  0  0  0  0  0  0  0  0  0
   -3.3152   -2.0034    0.1247 H   0  0  0  0  0  0  0  0  0  0  0  0
    0.5884    1.8533   -0.4373 H   0  0  0  0  0  0  0  0  0  0  0  0
    3.1366    3.3481    1.7460 H   0  0  0  0  0  0  0  0  0  0  0  0
    5.1240    4.6540    1.0655 H   0  0  0  0  0  0  0  0  0  0  0  0
    6.5642    3.8564   -0.7916 H   0  0  0  0  0  0  0  0  0  0  0  0
    6.0086    1.7451   -1.9739 H   0  0  0  0  0  0  0  0  0  0  0  0
    4.0272    0.4291   -1.3014 H   0  0  0  0  0  0  0  0  0  0  0  0
    3.0437   -1.0078    3.2484 H   0  0  0  0  0  0  0  0  0  0  0  0
    4.0143    0.3490    2.6802 H   0  0  0  0  0  0  0  0  0  0  0  0
    6.0562   -0.2579    1.5828 H   0  0  0  0  0  0  0  0  0  0  0  0
    7.4220   -1.8561    0.2949 H   0  0  0  0  0  0  0  0  0  0  0  0
    6.4429   -3.9997   -0.4799 H   0  0  0  0  0  0  0  0  0  0  0  0
    4.0802   -4.5452    0.0470 H   0  0  0  0  0  0  0  0  0  0  0  0
    2.6954   -2.9606    1.3374 H   0  0  0  0  0  0  0  0  0  0  0  0
  1  2  2  0
  2  3  1  0
  4  3  1  1
  4  5  1  0
  5  6  1  0
  6  7  1  0
  7  8  1  0
  8  9  1  0
  9 10  1  0
 10 11  1  0
 10 12  1  0
  8 13  1  0
  2 14  1  0
 14 15  1  0
 15 16  2  0
 16 17  1  0
 17 18  2  0
 18 19  1  0
 19 20  2  0
 20 21  1  0
 21 22  2  0
 16 23  1  0
 23 24  1  0
 24 25  1  0
 25 26  2  0
 26 27  1  0
 27 28  2  0
 28 29  1  0
 29 30  2  0
 23 31  1  0
 12  4  1  0
 31 14  2  0
 13  4  1  0
 22 17  1  0
 30 25  1  0
 11  6  1  0
  3 32  1  0
  5 33  1  0
  5 34  1  0
  6 35  1  6
  7 36  1  0
  7 37  1  0
  8 38  1  6
  9 39  1  0
  9 40  1  0
 10 41  1  1
 11 42  1  0
 11 43  1  0
 12 44  1  0
 12 45  1  0
 13 46  1  0
 13 47  1  0
 15 48  1  0
 18 49  1  0
 19 50  1  0
 20 51  1  0
 21 52  1  0
 22 53  1  0
 24 54  1  0
 24 55  1  0
 26 56  1  0
 27 57  1  0
 28 58  1  0
 29 59  1  0
 30 60  1  0
M  END
>  <_SMILES>  (17) 
O=C(N[C@]12C[C@H]3C[C@H](C[C@H](C3)C1)C2)c1cc(-c2ccccc2)n(Cc2ccccc2)n1

$$$$

     RDKit          3D

 53 57  0  0  0  0  0  0  0  0999 V2000
    4.2903    1.9864    2.3355 C   0  0  0  0  0  0  0  0  0  0  0  0
    2.9980    1.4373    1.8590 C   0  0  0  0  0  0  0  0  0  0  0  0
    1.7465    2.0124    1.8164 C   0  0  0  0  0  0  0  0  0  0  0  0
    0.8881    1.0350    1.2583 C   0  0  0  0  0  0  0  0  0  0  0  0
   -0.5568    1.1640    1.0026 C   0  0  0  0  0  0  0  0  0  0  0  0
   -1.1865    2.1830    1.2640 O   0  0  0  0  0  0  0  0  0  0  0  0
   -1.1005    0.0261    0.4476 N   0  0  0  0  0  0  0  0  0  0  0  0
   -2.4979   -0.1721    0.0793 C   0  0  2  0  0  0  0  0  0  0  0  0
   -2.6549   -1.5997   -0.5087 C   0  0  0  0  0  0  0  0  0  0  0  0
   -4.1117   -1.8701   -0.9174 C   0  0  1  0  0  0  0  0  0  0  0  0
   -5.0153   -1.7332    0.3180 C   0  0  0  0  0  0  0  0  0  0  0  0
   -4.8949   -0.3167    0.9019 C   0  0  2  0  0  0  0  0  0  0  0  0
   -5.3143    0.7091   -0.1648 C   0  0  0  0  0  0  0  0  0  0  0  0
   -4.4142    0.5806   -1.4056 C   0  0  2  0  0  0  0  0  0  0  0  0
   -4.5374   -0.8410   -1.9762 C   0  0  0  0  0  0  0  0  0  0  0  0
   -2.9527    0.8412   -1.0001 C   0  0  0  0  0  0  0  0  0  0  0  0
   -3.4335   -0.0563    1.3080 C   0  0  0  0  0  0  0  0  0  0  0  0
    1.5664   -0.0954    0.9700 N   0  0  0  0  0  0  0  0  0  0  0  0
    2.8427    0.1800    1.3274 N   0  0  0  0  0  0  0  0  0  0  0  0
    3.8598   -0.8581    1.1719 C   0  0  0  0  0  0  0  0  0  0  0  0
    4.8007   -0.5812    0.0245 C   0  0  0  0  0  0  0  0  0  0  0  0
    4.3148   -0.4154   -1.2818 C   0  0  0  0  0  0  0  0  0  0  0  0
    5.1915   -0.1749   -2.3406 C   0  0  0  0  0  0  0  0  0  0  0  0
    6.5634   -0.1062   -2.1086 C   0  0  0  0  0  0  0  0  0  0  0  0
    7.0606   -0.2805   -0.8188 C   0  0  0  0  0  0  0  0  0  0  0  0
    6.1856   -0.5205    0.2423 C   0  0  0  0  0  0  0  0  0  0  0  0
    4.9670    2.1670    1.4949 H   0  0  0  0  0  0  0  0  0  0  0  0
    4.7756    1.3022    3.0383 H   0  0  0  0  0  0  0  0  0  0  0  0
    4.1392    2.9396    2.8529 H   0  0  0  0  0  0  0  0  0  0  0  0
    1.4707    3.0071    2.1403 H   0  0  0  0  0  0  0  0  0  0  0  0
   -0.4249   -0.7221    0.3072 H   0  0  0  0  0  0  0  0  0  0  0  0
   -1.9972   -1.7235   -1.3796 H   0  0  0  0  0  0  0  0  0  0  0  0
   -2.3320   -2.3485    0.2270 H   0  0  0  0  0  0  0  0  0  0  0  0
   -4.1989   -2.8818   -1.3290 H   0  0  0  0  0  0  0  0  0  0  0  0
   -4.7323   -2.4757    1.0742 H   0  0  0  0  0  0  0  0  0  0  0  0
   -6.0576   -1.9386    0.0446 H   0  0  0  0  0  0  0  0  0  0  0  0
   -5.5438   -0.2230    1.7799 H   0  0  0  0  0  0  0  0  0  0  0  0
   -5.2459    1.7246    0.2443 H   0  0  0  0  0  0  0  0  0  0  0  0
   -6.3626    0.5491   -0.4455 H   0  0  0  0  0  0  0  0  0  0  0  0
   -4.7224    1.3102   -2.1628 H   0  0  0  0  0  0  0  0  0  0  0  0
   -3.9105   -0.9417   -2.8707 H   0  0  0  0  0  0  0  0  0  0  0  0
   -5.5715   -1.0311   -2.2891 H   0  0  0  0  0  0  0  0  0  0  0  0
   -2.3023    0.7710   -1.8818 H   0  0  0  0  0  0  0  0  0  0  0  0
   -2.8616    1.8705   -0.6333 H   0  0  0  0  0  0  0  0  0  0  0  0
   -3.1284   -0.7710    2.0836 H   0  0  0  0  0  0  0  0  0  0  0  0
   -3.3605    0.9389    1.7626 H   0  0  0  0  0  0  0  0  0  0  0  0
    4.3910   -0.9260    2.1278 H   0  0  0  0  0  0  0  0  0  0  0  0
    3.3506   -1.8159    1.0119 H   0  0  0  0  0  0  0  0  0  0  0  0
    3.2453   -0.4675   -1.4820 H   0  0  0  0  0  0  0  0  0  0  0  0
    4.8024   -0.0411   -3.3468 H   0  0  0  0  0  0  0  0  0  0  0  0
    7.2451    0.0814   -2.9342 H   0  0  0  0  0  0  0  0  0  0  0  0
    8.1317   -0.2307   -0.6400 H   0  0  0  0  0  0  0  0  0  0  0  0
    6.5963   -0.6574    1.2404 H   0  0  0  0  0  0  0  0  0  0  0  0
  1  2  1  0
  2  3  2  0
  3  4  1  0
  4  5  1  0
  5  6  2  0
  5  7  1  0
  8  7  1  1
  8  9  1  0
  9 10  1  0
 10 11  1  0
 11 12  1  0
 12 13  1  0
 13 14  1  0
 14 15  1  0
 14 16  1  0
 12 17  1  0
  4 18  2  0
 18 19  1  0
 19 20  1  0
 20 21  1  0
 21 22  2  0
 22 23  1  0
 23 24  2  0
 24 25  1  0
 25 26  2  0
 19  2  1  0
 26 21  1  0
 16  8  1  0
 17  8  1  0
 15 10  1  0
  1 27  1  0
  1 28  1  0
  1 29  1  0
  3 30  1  0
  7 31  1  0
  9 32  1  0
  9 33  1  0
 10 34  1  6
 11 35  1  0
 11 36  1  0
 12 37  1  1
 13 38  1  0
 13 39  1  0
 14 40  1  6
 15 41  1  0
 15 42  1  0
 16 43  1  0
 16 44  1  0
 17 45  1  0
 17 46  1  0
 20 47  1  0
 20 48  1  0
 22 49  1  0
 23 50  1  0
 24 51  1  0
 25 52  1  0
 26 53  1  0
M  END
>  <_SMILES>  (18) 
Cc1cc(C(=O)N[C@]23C[C@H]4C[C@H](C[C@H](C4)C2)C3)nn1Cc1ccccc1

$$$$

     RDKit          3D

 49 52  0  0  0  0  0  0  0  0999 V2000
    2.6763   -1.2818   -2.7157 O   0  0  0  0  0  0  0  0  0  0  0  0
    2.3396   -0.5007   -1.8213 C   0  0  0  0  0  0  0  0  0  0  0  0
    0.9211   -0.4687   -1.3948 C   0  0  0  0  0  0  0  0  0  0  0  0
    0.0003   -1.5396   -1.5586 C   0  0  0  0  0  0  0  0  0  0  0  0
   -1.2123   -1.0920   -1.0797 C   0  0  0  0  0  0  0  0  0  0  0  0
   -2.4937   -1.7753   -1.0062 C   0  0  0  0  0  0  0  0  0  0  0  0
   -2.9096   -2.3704    0.1894 C   0  0  0  0  0  0  0  0  0  0  0  0
   -4.1437   -3.0190    0.2601 C   0  0  0  0  0  0  0  0  0  0  0  0
   -4.9637   -3.0823   -0.8657 C   0  0  0  0  0  0  0  0  0  0  0  0
   -4.5496   -2.5009   -2.0636 C   0  0  0  0  0  0  0  0  0  0  0  0
   -3.3161   -1.8509   -2.1353 C   0  0  0  0  0  0  0  0  0  0  0  0
   -0.9801    0.2017   -0.6779 N   0  0  0  0  0  0  0  0  0  0  0  0
   -1.9530    1.1608   -0.1604 C   0  0  0  0  0  0  0  0  0  0  0  0
   -2.1807    1.0082    1.3242 C   0  0  0  0  0  0  0  0  0  0  0  0
   -3.4579    0.7027    1.8182 C   0  0  0  0  0  0  0  0  0  0  0  0
   -3.6745    0.5690    3.1907 C   0  0  0  0  0  0  0  0  0  0  0  0
   -2.6206    0.7461    4.0846 C   0  0  0  0  0  0  0  0  0  0  0  0
   -1.3494    1.0590    3.6082 C   0  0  0  0  0  0  0  0  0  0  0  0
   -1.1305    1.1929    2.2364 C   0  0  0  0  0  0  0  0  0  0  0  0
    0.2939    0.6092   -0.8860 N   0  0  0  0  0  0  0  0  0  0  0  0
    3.2913    0.3429   -1.2103 N   0  0  0  0  0  0  0  0  0  0  0  0
    4.5054    0.6123   -1.9776 C   0  0  0  0  0  0  0  0  0  0  0  0
    5.7095    0.9298   -1.0994 C   0  0  0  0  0  0  0  0  0  0  0  0
    5.3847    2.0337   -0.1029 C   0  0  0  0  0  0  0  0  0  0  0  0
    4.1783    1.6316    0.7328 C   0  0  0  0  0  0  0  0  0  0  0  0
    2.9711    1.2856   -0.1375 C   0  0  0  0  0  0  0  0  0  0  0  0
    0.2128   -2.5145   -1.9769 H   0  0  0  0  0  0  0  0  0  0  0  0
   -2.2761   -2.3295    1.0733 H   0  0  0  0  0  0  0  0  0  0  0  0
   -4.4615   -3.4775    1.1929 H   0  0  0  0  0  0  0  0  0  0  0  0
   -5.9225   -3.5916   -0.8115 H   0  0  0  0  0  0  0  0  0  0  0  0
   -5.1846   -2.5583   -2.9440 H   0  0  0  0  0  0  0  0  0  0  0  0
   -2.9995   -1.4068   -3.0763 H   0  0  0  0  0  0  0  0  0  0  0  0
   -2.8791    1.0285   -0.7309 H   0  0  0  0  0  0  0  0  0  0  0  0
   -1.5835    2.1701   -0.3787 H   0  0  0  0  0  0  0  0  0  0  0  0
   -4.2937    0.5556    1.1366 H   0  0  0  0  0  0  0  0  0  0  0  0
   -4.6666    0.3257    3.5623 H   0  0  0  0  0  0  0  0  0  0  0  0
   -2.7901    0.6416    5.1531 H   0  0  0  0  0  0  0  0  0  0  0  0
   -0.5268    1.1991    4.3047 H   0  0  0  0  0  0  0  0  0  0  0  0
   -0.1312    1.4384    1.8802 H   0  0  0  0  0  0  0  0  0  0  0  0
    4.2837    1.4630   -2.6341 H   0  0  0  0  0  0  0  0  0  0  0  0
    4.7526   -0.2345   -2.6264 H   0  0  0  0  0  0  0  0  0  0  0  0
    6.0120    0.0266   -0.5548 H   0  0  0  0  0  0  0  0  0  0  0  0
    6.5575    1.2287   -1.7255 H   0  0  0  0  0  0  0  0  0  0  0  0
    5.1762    2.9697   -0.6348 H   0  0  0  0  0  0  0  0  0  0  0  0
    6.2467    2.2143    0.5485 H   0  0  0  0  0  0  0  0  0  0  0  0
    3.9154    2.4381    1.4263 H   0  0  0  0  0  0  0  0  0  0  0  0
    4.4427    0.7586    1.3432 H   0  0  0  0  0  0  0  0  0  0  0  0
    2.2129    0.8587    0.5237 H   0  0  0  0  0  0  0  0  0  0  0  0
    2.5664    2.1919   -0.6026 H   0  0  0  0  0  0  0  0  0  0  0  0
  1  2  2  0
  2  3  1  0
  3  4  1  0
  4  5  2  0
  5  6  1  0
  6  7  2  0
  7  8  1  0
  8  9  2  0
  9 10  1  0
 10 11  2  0
  5 12  1  0
 12 13  1  0
 13 14  1  0
 14 15  2  0
 15 16  1  0
 16 17  2  0
 17 18  1  0
 18 19  2  0
 12 20  1  0
  2 21  1  0
 21 22  1  0
 22 23  1  0
 23 24  1  0
 24 25  1  0
 25 26  1  0
 20  3  2  0
 26 21  1  0
 11  6  1  0
 19 14  1  0
  4 27  1  0
  7 28  1  0
  8 29  1  0
  9 30  1  0
 10 31  1  0
 11 32  1  0
 13 33  1  0
 13 34  1  0
 15 35  1  0
 16 36  1  0
 17 37  1  0
 18 38  1  0
 19 39  1  0
 22 40  1  0
 22 41  1  0
 23 42  1  0
 23 43  1  0
 24 44  1  0
 24 45  1  0
 25 46  1  0
 25 47  1  0
 26 48  1  0
 26 49  1  0
M  END
>  <_SMILES>  (19) 
O=C(c1cc(-c2ccccc2)n(Cc2ccccc2)n1)N1CCCCC1

$$$$

     RDKit          3D

 49 52  0  0  0  0  0  0  0  0999 V2000
    2.6665    0.7169    2.8068 O   0  0  0  0  0  0  0  0  0  0  0  0
    2.3693    0.6601    1.6178 C   0  0  0  0  0  0  0  0  0  0  0  0
    3.2684    0.3738    0.6125 N   0  0  0  0  0  0  0  0  0  0  0  0
    4.6211   -0.0697    0.8768 C   0  0  0  0  0  0  0  0  0  0  0  0
    5.5012    0.0564   -0.3623 C   0  0  0  0  0  0  0  0  0  0  0  0
    5.2136   -1.2010   -1.1811 C   0  0  0  0  0  0  0  0  0  0  0  0
    4.6390   -2.2268   -0.2038 C   0  0  0  0  0  0  0  0  0  0  0  0
    4.6790   -1.5667    1.1714 C   0  0  0  0  0  0  0  0  0  0  0  0
    1.0014    0.8745    1.1203 C   0  0  0  0  0  0  0  0  0  0  0  0
   -0.1400    1.2138    1.8855 C   0  0  0  0  0  0  0  0  0  0  0  0
   -1.1866    1.3021    0.9918 C   0  0  0  0  0  0  0  0  0  0  0  0
   -2.5854    1.6226    1.2270 C   0  0  0  0  0  0  0  0  0  0  0  0
   -3.0205    2.9514    1.1848 C   0  0  0  0  0  0  0  0  0  0  0  0
   -4.3655    3.2569    1.4016 C   0  0  0  0  0  0  0  0  0  0  0  0
   -5.2791    2.2369    1.6652 C   0  0  0  0  0  0  0  0  0  0  0  0
   -4.8493    0.9116    1.7170 C   0  0  0  0  0  0  0  0  0  0  0  0
   -3.5046    0.6048    1.5020 C   0  0  0  0  0  0  0  0  0  0  0  0
   -0.6419    0.9992   -0.2351 N   0  0  0  0  0  0  0  0  0  0  0  0
   -1.3209    0.9780   -1.5282 C   0  0  0  0  0  0  0  0  0  0  0  0
   -2.0628   -0.3147   -1.7660 C   0  0  0  0  0  0  0  0  0  0  0  0
   -1.3726   -1.5334   -1.8531 C   0  0  0  0  0  0  0  0  0  0  0  0
   -2.0625   -2.7254   -2.0786 C   0  0  0  0  0  0  0  0  0  0  0  0
   -3.4480   -2.7128   -2.2247 C   0  0  0  0  0  0  0  0  0  0  0  0
   -4.1450   -1.5090   -2.1467 C   0  0  0  0  0  0  0  0  0  0  0  0
   -3.4571   -0.3154   -1.9217 C   0  0  0  0  0  0  0  0  0  0  0  0
    0.6909    0.7542   -0.1872 N   0  0  0  0  0  0  0  0  0  0  0  0
    2.8437    0.2428   -0.3027 H   0  0  0  0  0  0  0  0  0  0  0  0
    5.0176    0.5136    1.7147 H   0  0  0  0  0  0  0  0  0  0  0  0
    6.5572    0.0564   -0.0650 H   0  0  0  0  0  0  0  0  0  0  0  0
    5.3145    0.9696   -0.9364 H   0  0  0  0  0  0  0  0  0  0  0  0
    6.1223   -1.5702   -1.6677 H   0  0  0  0  0  0  0  0  0  0  0  0
    4.4836   -0.9882   -1.9705 H   0  0  0  0  0  0  0  0  0  0  0  0
    5.2042   -3.1641   -0.2155 H   0  0  0  0  0  0  0  0  0  0  0  0
    3.6051   -2.4638   -0.4815 H   0  0  0  0  0  0  0  0  0  0  0  0
    5.6299   -1.8099    1.6614 H   0  0  0  0  0  0  0  0  0  0  0  0
    3.8680   -1.9194    1.8162 H   0  0  0  0  0  0  0  0  0  0  0  0
   -0.1816    1.3730    2.9547 H   0  0  0  0  0  0  0  0  0  0  0  0
   -2.3147    3.7552    0.9883 H   0  0  0  0  0  0  0  0  0  0  0  0
   -4.6991    4.2909    1.3706 H   0  0  0  0  0  0  0  0  0  0  0  0
   -6.3257    2.4755    1.8374 H   0  0  0  0  0  0  0  0  0  0  0  0
   -5.5590    0.1157    1.9273 H   0  0  0  0  0  0  0  0  0  0  0  0
   -3.1795   -0.4329    1.5429 H   0  0  0  0  0  0  0  0  0  0  0  0
   -1.9894    1.8454   -1.5625 H   0  0  0  0  0  0  0  0  0  0  0  0
   -0.5662    1.1246   -2.3103 H   0  0  0  0  0  0  0  0  0  0  0  0
   -0.2899   -1.5609   -1.7388 H   0  0  0  0  0  0  0  0  0  0  0  0
   -1.5177   -3.6640   -2.1389 H   0  0  0  0  0  0  0  0  0  0  0  0
   -3.9844   -3.6418   -2.3990 H   0  0  0  0  0  0  0  0  0  0  0  0
   -5.2261   -1.4992   -2.2593 H   0  0  0  0  0  0  0  0  0  0  0  0
   -4.0214    0.6131   -1.8573 H   0  0  0  0  0  0  0  0  0  0  0  0
  1  2  2  0
  2  3  1  0
  3  4  1  0
  4  5  1  0
  5  6  1  0
  6  7  1  0
  7  8  1  0
  2  9  1  0
  9 10  1  0
 10 11  2  0
 11 12  1  0
 12 13  2  0
 13 14  1  0
 14 15  2  0
 15 16  1  0
 16 17  2  0
 11 18  1  0
 18 19  1  0
 19 20  1  0
 20 21  2  0
 21 22  1  0
 22 23  2  0
 23 24  1  0
 24 25  2  0
 18 26  1  0
  8  4  1  0
 26  9  2  0
 17 12  1  0
 25 20  1  0
  3 27  1  0
  4 28  1  0
  5 29  1  0
  5 30  1  0
  6 31  1  0
  6 32  1  0
  7 33  1  0
  7 34  1  0
  8 35  1  0
  8 36  1  0
 10 37  1  0
 13 38  1  0
 14 39  1  0
 15 40  1  0
 16 41  1  0
 17 42  1  0
 19 43  1  0
 19 44  1  0
 21 45  1  0
 22 46  1  0
 23 47  1  0
 24 48  1  0
 25 49  1  0
M  END
>  <_SMILES>  (20) 
O=C(NC1CCCC1)c1cc(-c2ccccc2)n(Cc2ccccc2)n1

$$$$

     RDKit          3D

 59 63  0  0  0  0  0  0  0  0999 V2000
    3.1281    1.2569   -2.2676 C   0  0  0  0  0  0  0  0  0  0  0  0
    4.0731    0.3244   -1.5066 C   0  0  0  0  0  0  0  0  0  0  0  0
    5.1694   -0.1826   -2.4453 C   0  0  0  0  0  0  0  0  0  0  0  0
    3.3281   -0.8694   -0.8863 C   0  0  0  0  0  0  0  0  0  0  0  0
    2.3988   -0.4982    0.1694 N   0  0  0  0  0  0  0  0  0  0  0  0
    1.0813   -0.4287   -0.1243 N   0  0  0  0  0  0  0  0  0  0  0  0
    0.5076   -0.0189    1.0255 C   0  0  0  0  0  0  0  0  0  0  0  0
   -0.9433    0.2069    1.1348 C   0  0  0  0  0  0  0  0  0  0  0  0
   -1.4773    0.5824    2.1724 O   0  0  0  0  0  0  0  0  0  0  0  0
   -1.6093   -0.0471   -0.0442 N   0  0  0  0  0  0  0  0  0  0  0  0
   -3.0443    0.0842   -0.2709 C   0  0  2  0  0  0  0  0  0  0  0  0
   -3.5250    1.5403   -0.0537 C   0  0  0  0  0  0  0  0  0  0  0  0
   -5.0311    1.6623   -0.3454 C   0  0  1  0  0  0  0  0  0  0  0  0
   -5.2998    1.2634   -1.8051 C   0  0  0  0  0  0  0  0  0  0  0  0
   -4.8508   -0.1868   -2.0439 C   0  0  2  0  0  0  0  0  0  0  0  0
   -5.6291   -1.1218   -1.1050 C   0  0  0  0  0  0  0  0  0  0  0  0
   -5.3623   -0.7367    0.3587 C   0  0  2  0  0  0  0  0  0  0  0  0
   -5.8058    0.7180    0.5895 C   0  0  0  0  0  0  0  0  0  0  0  0
   -3.8563   -0.8593    0.6506 C   0  0  0  0  0  0  0  0  0  0  0  0
   -3.3485   -0.3056   -1.7419 C   0  0  0  0  0  0  0  0  0  0  0  0
    1.4762    0.1476    2.0436 C   0  0  0  0  0  0  0  0  0  0  0  0
    2.6893   -0.1888    1.4778 C   0  0  0  0  0  0  0  0  0  0  0  0
    4.0196   -0.1907    2.0711 C   0  0  0  0  0  0  0  0  0  0  0  0
    4.6304    1.0178    2.4248 C   0  0  0  0  0  0  0  0  0  0  0  0
    5.9062    1.0233    2.9919 C   0  0  0  0  0  0  0  0  0  0  0  0
    6.5750   -0.1790    3.2163 C   0  0  0  0  0  0  0  0  0  0  0  0
    5.9678   -1.3877    2.8791 C   0  0  0  0  0  0  0  0  0  0  0  0
    4.6922   -1.3943    2.3112 C   0  0  0  0  0  0  0  0  0  0  0  0
    2.5867    0.7195   -3.0537 H   0  0  0  0  0  0  0  0  0  0  0  0
    2.3927    1.7108   -1.5960 H   0  0  0  0  0  0  0  0  0  0  0  0
    3.6859    2.0729   -2.7395 H   0  0  0  0  0  0  0  0  0  0  0  0
    4.5552    0.9083   -0.7136 H   0  0  0  0  0  0  0  0  0  0  0  0
    5.8809   -0.8162   -1.9051 H   0  0  0  0  0  0  0  0  0  0  0  0
    5.7298    0.6534   -2.8772 H   0  0  0  0  0  0  0  0  0  0  0  0
    4.7482   -0.7699   -3.2684 H   0  0  0  0  0  0  0  0  0  0  0  0
    4.0331   -1.5887   -0.4560 H   0  0  0  0  0  0  0  0  0  0  0  0
    2.7584   -1.4117   -1.6516 H   0  0  0  0  0  0  0  0  0  0  0  0
   -0.9989   -0.3482   -0.8012 H   0  0  0  0  0  0  0  0  0  0  0  0
   -3.3325    1.8661    0.9755 H   0  0  0  0  0  0  0  0  0  0  0  0
   -2.9623    2.2244   -0.7024 H   0  0  0  0  0  0  0  0  0  0  0  0
   -5.3563    2.6954   -0.1794 H   0  0  0  0  0  0  0  0  0  0  0  0
   -6.3680    1.3671   -2.0315 H   0  0  0  0  0  0  0  0  0  0  0  0
   -4.7636    1.9386   -2.4831 H   0  0  0  0  0  0  0  0  0  0  0  0
   -5.0422   -0.4662   -3.0860 H   0  0  0  0  0  0  0  0  0  0  0  0
   -6.7031   -1.0592   -1.3193 H   0  0  0  0  0  0  0  0  0  0  0  0
   -5.3299   -2.1627   -1.2794 H   0  0  0  0  0  0  0  0  0  0  0  0
   -5.9222   -1.4037    1.0237 H   0  0  0  0  0  0  0  0  0  0  0  0
   -6.8834    0.8134    0.4077 H   0  0  0  0  0  0  0  0  0  0  0  0
   -5.6332    1.0010    1.6351 H   0  0  0  0  0  0  0  0  0  0  0  0
   -3.5314   -1.8983    0.5076 H   0  0  0  0  0  0  0  0  0  0  0  0
   -3.6765   -0.6246    1.7065 H   0  0  0  0  0  0  0  0  0  0  0  0
   -3.0119   -1.3326   -1.9376 H   0  0  0  0  0  0  0  0  0  0  0  0
   -2.7812    0.3378   -2.4279 H   0  0  0  0  0  0  0  0  0  0  0  0
    1.2981    0.4638    3.0627 H   0  0  0  0  0  0  0  0  0  0  0  0
    4.1175    1.9622    2.2567 H   0  0  0  0  0  0  0  0  0  0  0  0
    6.3756    1.9658    3.2618 H   0  0  0  0  0  0  0  0  0  0  0  0
    7.5667   -0.1742    3.6617 H   0  0  0  0  0  0  0  0  0  0  0  0
    6.4843   -2.3259    3.0653 H   0  0  0  0  0  0  0  0  0  0  0  0
    4.2232   -2.3450    2.0684 H   0  0  0  0  0  0  0  0  0  0  0  0
  1  2  1  0
  2  3  1  0
  2  4  1  0
  4  5  1  0
  5  6  1  0
  6  7  2  0
  7  8  1  0
  8  9  2  0
  8 10  1  0
 11 10  1  1
 11 12  1  0
 12 13  1  0
 13 14  1  0
 14 15  1  0
 15 16  1  0
 16 17  1  0
 17 18  1  0
 17 19  1  0
 15 20  1  0
  7 21  1  0
 21 22  2  0
 22 23  1  0
 23 24  2  0
 24 25  1  0
 25 26  2  0
 26 27  1  0
 27 28  2  0
 22  5  1  0
 28 23  1  0
 19 11  1  0
 20 11  1  0
 18 13  1  0
  1 29  1  0
  1 30  1  0
  1 31  1  0
  2 32  1  0
  3 33  1  0
  3 34  1  0
  3 35  1  0
  4 36  1  0
  4 37  1  0
 10 38  1  0
 12 39  1  0
 12 40  1  0
 13 41  1  6
 14 42  1  0
 14 43  1  0
 15 44  1  6
 16 45  1  0
 16 46  1  0
 17 47  1  1
 18 48  1  0
 18 49  1  0
 19 50  1  0
 19 51  1  0
 20 52  1  0
 20 53  1  0
 21 54  1  0
 24 55  1  0
 25 56  1  0
 26 57  1  0
 27 58  1  0
 28 59  1  0
M  END
>  <_SMILES>  (21) 
CC(C)Cn1nc(C(=O)N[C@]23C[C@H]4C[C@H](C[C@H](C4)C2)C3)cc1-c1ccccc1

$$$$

     RDKit          3D

 48 52  0  0  0  0  0  0  0  0999 V2000
   -0.4358    2.1840   -0.7058 O   0  0  0  0  0  0  0  0  0  0  0  0
   -0.0267    1.0701   -0.4001 C   0  0  0  0  0  0  0  0  0  0  0  0
   -0.8316   -0.0057   -0.0832 N   0  0  0  0  0  0  0  0  0  0  0  0
   -2.2949    0.0028   -0.0570 C   0  0  2  0  0  0  0  0  0  0  0  0
   -2.8413    1.0138    0.9814 C   0  0  0  0  0  0  0  0  0  0  0  0
   -4.3791    0.9684    1.0235 C   0  0  1  0  0  0  0  0  0  0  0  0
   -4.9339    1.3082   -0.3703 C   0  0  0  0  0  0  0  0  0  0  0  0
   -4.4267    0.2893   -1.4051 C   0  0  2  0  0  0  0  0  0  0  0  0
   -4.8824   -1.1198   -0.9945 C   0  0  0  0  0  0  0  0  0  0  0  0
   -4.3238   -1.4681    0.3940 C   0  0  2  0  0  0  0  0  0  0  0  0
   -4.8351   -0.4447    1.4199 C   0  0  0  0  0  0  0  0  0  0  0  0
   -2.7885   -1.4120    0.3482 C   0  0  0  0  0  0  0  0  0  0  0  0
   -2.8890    0.3343   -1.4485 C   0  0  0  0  0  0  0  0  0  0  0  0
    1.4383    0.7936   -0.3480 C   0  0  0  0  0  0  0  0  0  0  0  0
    2.3640    1.7774   -0.6412 C   0  0  0  0  0  0  0  0  0  0  0  0
    3.7172    1.4503   -0.5724 C   0  0  0  0  0  0  0  0  0  0  0  0
    4.0947    0.1586   -0.2119 C   0  0  0  0  0  0  0  0  0  0  0  0
    5.4984   -0.2862   -0.1120 C   0  0  0  0  0  0  0  0  0  0  0  0
    6.5365    0.5897    0.2583 C   0  0  0  0  0  0  0  0  0  0  0  0
    7.8630    0.1527    0.3440 C   0  0  0  0  0  0  0  0  0  0  0  0
    8.1813   -1.1726    0.0643 C   0  0  0  0  0  0  0  0  0  0  0  0
    7.1747   -2.0623   -0.2961 C   0  0  0  0  0  0  0  0  0  0  0  0
    5.8499   -1.6231   -0.3803 C   0  0  0  0  0  0  0  0  0  0  0  0
    3.1469   -0.7744    0.0597 N   0  0  0  0  0  0  0  0  0  0  0  0
    1.8095   -0.4613   -0.0050 N   0  0  0  0  0  0  0  0  0  0  0  0
   -0.3467   -0.8678    0.1537 H   0  0  0  0  0  0  0  0  0  0  0  0
   -2.4336    0.7907    1.9761 H   0  0  0  0  0  0  0  0  0  0  0  0
   -2.5207    2.0343    0.7406 H   0  0  0  0  0  0  0  0  0  0  0  0
   -4.7494    1.6946    1.7558 H   0  0  0  0  0  0  0  0  0  0  0  0
   -6.0306    1.3030   -0.3474 H   0  0  0  0  0  0  0  0  0  0  0  0
   -4.6265    2.3207   -0.6595 H   0  0  0  0  0  0  0  0  0  0  0  0
   -4.8307    0.5343   -2.3937 H   0  0  0  0  0  0  0  0  0  0  0  0
   -4.5387   -1.8549   -1.7325 H   0  0  0  0  0  0  0  0  0  0  0  0
   -5.9781   -1.1704   -0.9812 H   0  0  0  0  0  0  0  0  0  0  0  0
   -4.6490   -2.4741    0.6817 H   0  0  0  0  0  0  0  0  0  0  0  0
   -5.9299   -0.4837    1.4747 H   0  0  0  0  0  0  0  0  0  0  0  0
   -4.4572   -0.6941    2.4191 H   0  0  0  0  0  0  0  0  0  0  0  0
   -2.3789   -1.6879    1.3292 H   0  0  0  0  0  0  0  0  0  0  0  0
   -2.4120   -2.1607   -0.3618 H   0  0  0  0  0  0  0  0  0  0  0  0
   -2.5154   -0.3763   -2.1974 H   0  0  0  0  0  0  0  0  0  0  0  0
   -2.5703    1.3285   -1.7836 H   0  0  0  0  0  0  0  0  0  0  0  0
    2.0440    2.7757   -0.9217 H   0  0  0  0  0  0  0  0  0  0  0  0
    4.4576    2.2045   -0.8183 H   0  0  0  0  0  0  0  0  0  0  0  0
    6.3263    1.6278    0.5062 H   0  0  0  0  0  0  0  0  0  0  0  0
    8.6459    0.8483    0.6360 H   0  0  0  0  0  0  0  0  0  0  0  0
    9.2111   -1.5133    0.1328 H   0  0  0  0  0  0  0  0  0  0  0  0
    7.4153   -3.1005   -0.5107 H   0  0  0  0  0  0  0  0  0  0  0  0
    5.0821   -2.3420   -0.6649 H   0  0  0  0  0  0  0  0  0  0  0  0
  1  2  2  0
  2  3  1  0
  4  3  1  6
  4  5  1  0
  5  6  1  0
  6  7  1  0
  7  8  1  0
  8  9  1  0
  9 10  1  0
 10 11  1  0
 10 12  1  0
  8 13  1  0
  2 14  1  0
 14 15  2  0
 15 16  1  0
 16 17  2  0
 17 18  1  0
 18 19  2  0
 19 20  1  0
 20 21  2  0
 21 22  1  0
 22 23  2  0
 17 24  1  0
 24 25  2  0
 12  4  1  0
 25 14  1  0
 13  4  1  0
 23 18  1  0
 11  6  1  0
  3 26  1  0
  5 27  1  0
  5 28  1  0
  6 29  1  1
  7 30  1  0
  7 31  1  0
  8 32  1  6
  9 33  1  0
  9 34  1  0
 10 35  1  1
 11 36  1  0
 11 37  1  0
 12 38  1  0
 12 39  1  0
 13 40  1  0
 13 41  1  0
 15 42  1  0
 16 43  1  0
 19 44  1  0
 20 45  1  0
 21 46  1  0
 22 47  1  0
 23 48  1  0
M  END
>  <_SMILES>  (22) 
O=C(N[C@]12C[C@H]3C[C@H](C[C@H](C3)C1)C2)c1ccc(-c2ccccc2)nn1

$$$$

     RDKit          3D

 49 53  0  0  0  0  0  0  0  0999 V2000
   -0.5949    1.9550   -1.1889 O   0  0  0  0  0  0  0  0  0  0  0  0
   -0.1515    0.9704   -0.6112 C   0  0  0  0  0  0  0  0  0  0  0  0
   -0.9155   -0.0375   -0.0622 N   0  0  0  0  0  0  0  0  0  0  0  0
   -2.3747   -0.1097   -0.0675 C   0  0  2  0  0  0  0  0  0  0  0  0
   -2.8068   -1.4114    0.6586 C   0  0  0  0  0  0  0  0  0  0  0  0
   -4.3378   -1.5447    0.6860 C   0  0  1  0  0  0  0  0  0  0  0  0
   -4.9358   -0.3358    1.4226 C   0  0  0  0  0  0  0  0  0  0  0  0
   -4.5411    0.9643    0.7044 C   0  0  2  0  0  0  0  0  0  0  0  0
   -5.0660    0.9249   -0.7409 C   0  0  0  0  0  0  0  0  0  0  0  0
   -4.4718   -0.2817   -1.4874 C   0  0  2  0  0  0  0  0  0  0  0  0
   -4.8669   -1.5746   -0.7565 C   0  0  0  0  0  0  0  0  0  0  0  0
   -2.9379   -0.1581   -1.5094 C   0  0  0  0  0  0  0  0  0  0  0  0
   -3.0073    1.0882    0.6829 C   0  0  0  0  0  0  0  0  0  0  0  0
    1.3260    0.7695   -0.4443 C   0  0  0  0  0  0  0  0  0  0  0  0
    2.2151    1.7076   -0.9487 C   0  0  0  0  0  0  0  0  0  0  0  0
    3.5801    1.4829   -0.7727 C   0  0  0  0  0  0  0  0  0  0  0  0
    4.0301    0.3366   -0.1030 C   0  0  0  0  0  0  0  0  0  0  0  0
    5.4613    0.0697    0.0981 C   0  0  0  0  0  0  0  0  0  0  0  0
    6.3037    1.0359    0.6740 C   0  0  0  0  0  0  0  0  0  0  0  0
    7.6643    0.7828    0.8682 C   0  0  0  0  0  0  0  0  0  0  0  0
    8.2070   -0.4416    0.4879 C   0  0  0  0  0  0  0  0  0  0  0  0
    7.3910   -1.4125   -0.0864 C   0  0  0  0  0  0  0  0  0  0  0  0
    6.0302   -1.1588   -0.2791 C   0  0  0  0  0  0  0  0  0  0  0  0
    3.0453   -0.5383    0.3645 C   0  0  0  0  0  0  0  0  0  0  0  0
    1.7097   -0.3600    0.2146 N   0  0  0  0  0  0  0  0  0  0  0  0
   -0.3787   -0.7786    0.3843 H   0  0  0  0  0  0  0  0  0  0  0  0
   -2.3681   -2.2857    0.1591 H   0  0  0  0  0  0  0  0  0  0  0  0
   -2.4165   -1.4182    1.6852 H   0  0  0  0  0  0  0  0  0  0  0  0
   -4.6197   -2.4690    1.2024 H   0  0  0  0  0  0  0  0  0  0  0  0
   -4.5792   -0.3144    2.4597 H   0  0  0  0  0  0  0  0  0  0  0  0
   -6.0284   -0.4248    1.4634 H   0  0  0  0  0  0  0  0  0  0  0  0
   -4.9730    1.8226    1.2311 H   0  0  0  0  0  0  0  0  0  0  0  0
   -6.1611    0.8608   -0.7392 H   0  0  0  0  0  0  0  0  0  0  0  0
   -4.8025    1.8542   -1.2609 H   0  0  0  0  0  0  0  0  0  0  0  0
   -4.8545   -0.3063   -2.5138 H   0  0  0  0  0  0  0  0  0  0  0  0
   -4.4606   -2.4444   -1.2872 H   0  0  0  0  0  0  0  0  0  0  0  0
   -5.9582   -1.6848   -0.7532 H   0  0  0  0  0  0  0  0  0  0  0  0
   -2.5028   -1.0047   -2.0565 H   0  0  0  0  0  0  0  0  0  0  0  0
   -2.6600    0.7434   -2.0683 H   0  0  0  0  0  0  0  0  0  0  0  0
   -2.6220    1.1364    1.7099 H   0  0  0  0  0  0  0  0  0  0  0  0
   -2.7318    2.0371    0.2074 H   0  0  0  0  0  0  0  0  0  0  0  0
    1.8568    2.5901   -1.4690 H   0  0  0  0  0  0  0  0  0  0  0  0
    4.2910    2.2027   -1.1732 H   0  0  0  0  0  0  0  0  0  0  0  0
    5.9015    1.9968    0.9897 H   0  0  0  0  0  0  0  0  0  0  0  0
    8.2985    1.5422    1.3187 H   0  0  0  0  0  0  0  0  0  0  0  0
    9.2655   -0.6384    0.6379 H   0  0  0  0  0  0  0  0  0  0  0  0
    7.8132   -2.3675   -0.3888 H   0  0  0  0  0  0  0  0  0  0  0  0
    5.4179   -1.9298   -0.7434 H   0  0  0  0  0  0  0  0  0  0  0  0
    3.3171   -1.4426    0.9055 H   0  0  0  0  0  0  0  0  0  0  0  0
  1  2  2  0
  2  3  1  0
  4  3  1  6
  4  5  1  0
  5  6  1  0
  6  7  1  0
  7  8  1  0
  8  9  1  0
  9 10  1  0
 10 11  1  0
 10 12  1  0
  8 13  1  0
  2 14  1  0
 14 15  2  0
 15 16  1  0
 16 17  2  0
 17 18  1  0
 18 19  2  0
 19 20  1  0
 20 21  2  0
 21 22  1  0
 22 23  2  0
 17 24  1  0
 24 25  2  0
 12  4  1  0
 25 14  1  0
 13  4  1  0
 23 18  1  0
 11  6  1  0
  3 26  1  0
  5 27  1  0
  5 28  1  0
  6 29  1  1
  7 30  1  0
  7 31  1  0
  8 32  1  1
  9 33  1  0
  9 34  1  0
 10 35  1  6
 11 36  1  0
 11 37  1  0
 12 38  1  0
 12 39  1  0
 13 40  1  0
 13 41  1  0
 15 42  1  0
 16 43  1  0
 19 44  1  0
 20 45  1  0
 21 46  1  0
 22 47  1  0
 23 48  1  0
 24 49  1  0
M  END
>  <_SMILES>  (23) 
O=C(N[C@]12C[C@H]3C[C@H](C[C@H](C3)C1)C2)c1ccc(-c2ccccc2)cn1

$$$$

     RDKit          3D

 43 47  0  0  0  0  0  0  0  0999 V2000
    0.7412   -1.6036    1.4341 O   0  0  0  0  0  0  0  0  0  0  0  0
    1.1396   -0.7098    0.6982 C   0  0  0  0  0  0  0  0  0  0  0  0
    0.3243    0.0888   -0.0782 N   0  0  0  0  0  0  0  0  0  0  0  0
   -1.1411    0.0052   -0.0991 C   0  0  2  0  0  0  0  0  0  0  0  0
   -1.6734    1.0412   -1.1268 C   0  0  0  0  0  0  0  0  0  0  0  0
   -3.2085    1.0129   -1.1956 C   0  0  1  0  0  0  0  0  0  0  0  0
   -3.6678   -0.3905   -1.6193 C   0  0  0  0  0  0  0  0  0  0  0  0
   -3.1735   -1.4321   -0.6037 C   0  0  2  0  0  0  0  0  0  0  0  0
   -3.7427   -1.0970    0.7856 C   0  0  0  0  0  0  0  0  0  0  0  0
   -3.2884    0.3071    1.2197 C   0  0  2  0  0  0  0  0  0  0  0  0
   -3.7813    1.3389    0.1927 C   0  0  0  0  0  0  0  0  0  0  0  0
   -1.7512    0.3460    1.2827 C   0  0  0  0  0  0  0  0  0  0  0  0
   -1.6361   -1.3949   -0.5431 C   0  0  0  0  0  0  0  0  0  0  0  0
    2.5970   -0.4069    0.6380 C   0  0  0  0  0  0  0  0  0  0  0  0
    3.3861   -0.6981    1.7738 C   0  0  0  0  0  0  0  0  0  0  0  0
    4.7603   -0.4381    1.7764 C   0  0  0  0  0  0  0  0  0  0  0  0
    5.3096    0.0996    0.6333 C   0  0  0  0  0  0  0  0  0  0  0  0
    4.5471    0.3709   -0.4794 C   0  0  0  0  0  0  0  0  0  0  0  0
    3.1900    0.1266   -0.5153 C   0  0  0  0  0  0  0  0  0  0  0  0
    5.2849    0.8855   -1.4998 O   0  0  0  0  0  0  0  0  0  0  0  0
    6.5999    0.9017   -0.9044 C   0  0  0  0  0  0  0  0  0  0  0  0
    6.6200    0.4127    0.4526 O   0  0  0  0  0  0  0  0  0  0  0  0
    0.7315    0.9342   -0.4547 H   0  0  0  0  0  0  0  0  0  0  0  0
   -1.2534    0.8363   -2.1207 H   0  0  0  0  0  0  0  0  0  0  0  0
   -1.3361    2.0504   -0.8547 H   0  0  0  0  0  0  0  0  0  0  0  0
   -3.5602    1.7525   -1.9235 H   0  0  0  0  0  0  0  0  0  0  0  0
   -4.7622   -0.4225   -1.6869 H   0  0  0  0  0  0  0  0  0  0  0  0
   -3.2801   -0.6269   -2.6178 H   0  0  0  0  0  0  0  0  0  0  0  0
   -3.5063   -2.4308   -0.9082 H   0  0  0  0  0  0  0  0  0  0  0  0
   -3.4079   -1.8422    1.5176 H   0  0  0  0  0  0  0  0  0  0  0  0
   -4.8384   -1.1444    0.7617 H   0  0  0  0  0  0  0  0  0  0  0  0
   -3.7037    0.5412    2.2063 H   0  0  0  0  0  0  0  0  0  0  0  0
   -4.8776    1.3367    0.1558 H   0  0  0  0  0  0  0  0  0  0  0  0
   -3.4750    2.3471    0.4977 H   0  0  0  0  0  0  0  0  0  0  0  0
   -1.4060   -0.3600    2.0474 H   0  0  0  0  0  0  0  0  0  0  0  0
   -1.4159    1.3393    1.6086 H   0  0  0  0  0  0  0  0  0  0  0  0
   -1.2166   -1.6491   -1.5254 H   0  0  0  0  0  0  0  0  0  0  0  0
   -1.2917   -2.1730    0.1476 H   0  0  0  0  0  0  0  0  0  0  0  0
    2.9206   -1.1299    2.6588 H   0  0  0  0  0  0  0  0  0  0  0  0
    5.3721   -0.6566    2.6445 H   0  0  0  0  0  0  0  0  0  0  0  0
    2.6287    0.3203   -1.4212 H   0  0  0  0  0  0  0  0  0  0  0  0
    6.9748    1.9317   -0.9116 H   0  0  0  0  0  0  0  0  0  0  0  0
    7.2675    0.2798   -1.5118 H   0  0  0  0  0  0  0  0  0  0  0  0
  1  2  2  0
  2  3  1  0
  4  3  1  1
  4  5  1  0
  5  6  1  0
  6  7  1  0
  7  8  1  0
  8  9  1  0
  9 10  1  0
 10 11  1  0
 10 12  1  0
  8 13  1  0
  2 14  1  0
 14 15  1  0
 15 16  2  0
 16 17  1  0
 17 18  2  0
 18 19  1  0
 18 20  1  0
 20 21  1  0
 21 22  1  0
 12  4  1  0
 19 14  2  0
 13  4  1  0
 22 17  1  0
 11  6  1  0
  3 23  1  0
  5 24  1  0
  5 25  1  0
  6 26  1  6
  7 27  1  0
  7 28  1  0
  8 29  1  6
  9 30  1  0
  9 31  1  0
 10 32  1  1
 11 33  1  0
 11 34  1  0
 12 35  1  0
 12 36  1  0
 13 37  1  0
 13 38  1  0
 15 39  1  0
 16 40  1  0
 19 41  1  0
 21 42  1  0
 21 43  1  0
M  END
>  <_SMILES>  (24) 
O=C(N[C@]12C[C@H]3C[C@H](C[C@H](C3)C1)C2)c1ccc2c(c1)OCO2

$$$$

     RDKit          3D

 44 47  0  0  0  0  0  0  0  0999 V2000
    0.3972   -0.3099    2.3959 O   0  0  0  0  0  0  0  0  0  0  0  0
    0.8151   -0.1182    1.2618 C   0  0  0  0  0  0  0  0  0  0  0  0
    2.2771   -0.0108    1.0311 C   0  0  0  0  0  0  0  0  0  0  0  0
    2.8862   -0.4481   -0.0824 C   0  0  0  0  0  0  0  0  0  0  0  0
    4.3378   -0.3731   -0.2996 C   0  0  0  0  0  0  0  0  0  0  0  0
    5.2625   -0.6017    0.7281 C   0  0  0  0  0  0  0  0  0  0  0  0
    6.6356   -0.5484    0.4736 C   0  0  0  0  0  0  0  0  0  0  0  0
    7.0980   -0.2767   -0.8120 C   0  0  0  0  0  0  0  0  0  0  0  0
    6.1887   -0.0642   -1.8457 C   0  0  0  0  0  0  0  0  0  0  0  0
    4.8157   -0.1180   -1.5919 C   0  0  0  0  0  0  0  0  0  0  0  0
    0.0396    0.0817    0.1476 N   0  0  0  0  0  0  0  0  0  0  0  0
   -1.4264    0.1203    0.1500 C   0  0  2  0  0  0  0  0  0  0  0  0
   -1.9639    1.2966    1.0018 C   0  0  0  0  0  0  0  0  0  0  0  0
   -3.5010    1.3486    0.9437 C   0  0  1  0  0  0  0  0  0  0  0  0
   -3.9480    1.5470   -0.5134 C   0  0  0  0  0  0  0  0  0  0  0  0
   -3.4467    0.3809   -1.3798 C   0  0  2  0  0  0  0  0  0  0  0  0
   -4.0235   -0.9377   -0.8423 C   0  0  0  0  0  0  0  0  0  0  0  0
   -3.5763   -1.1508    0.6121 C   0  0  2  0  0  0  0  0  0  0  0  0
   -4.0734    0.0228    1.4735 C   0  0  0  0  0  0  0  0  0  0  0  0
   -2.0392   -1.2051    0.6696 C   0  0  0  0  0  0  0  0  0  0  0  0
   -1.9124    0.3250   -1.3108 C   0  0  0  0  0  0  0  0  0  0  0  0
    2.8247    0.3978    1.8735 H   0  0  0  0  0  0  0  0  0  0  0  0
    2.3166   -0.8959   -0.8926 H   0  0  0  0  0  0  0  0  0  0  0  0
    4.9286   -0.8368    1.7360 H   0  0  0  0  0  0  0  0  0  0  0  0
    7.3431   -0.7256    1.2797 H   0  0  0  0  0  0  0  0  0  0  0  0
    8.1662   -0.2367   -1.0091 H   0  0  0  0  0  0  0  0  0  0  0  0
    6.5475    0.1417   -2.8508 H   0  0  0  0  0  0  0  0  0  0  0  0
    4.1241    0.0493   -2.4143 H   0  0  0  0  0  0  0  0  0  0  0  0
    0.5053    0.4314   -0.6785 H   0  0  0  0  0  0  0  0  0  0  0  0
   -1.5444    2.2454    0.6423 H   0  0  0  0  0  0  0  0  0  0  0  0
   -1.6479    1.1983    2.0472 H   0  0  0  0  0  0  0  0  0  0  0  0
   -3.8650    2.1799    1.5577 H   0  0  0  0  0  0  0  0  0  0  0  0
   -3.5572    2.4964   -0.8995 H   0  0  0  0  0  0  0  0  0  0  0  0
   -5.0420    1.6086   -0.5647 H   0  0  0  0  0  0  0  0  0  0  0  0
   -3.7655    0.5280   -2.4178 H   0  0  0  0  0  0  0  0  0  0  0  0
   -5.1188   -0.9186   -0.8989 H   0  0  0  0  0  0  0  0  0  0  0  0
   -3.6871   -1.7759   -1.4648 H   0  0  0  0  0  0  0  0  0  0  0  0
   -3.9927   -2.0904    0.9922 H   0  0  0  0  0  0  0  0  0  0  0  0
   -5.1697    0.0575    1.4605 H   0  0  0  0  0  0  0  0  0  0  0  0
   -3.7721   -0.1248    2.5179 H   0  0  0  0  0  0  0  0  0  0  0  0
   -1.6722   -2.0500    0.0722 H   0  0  0  0  0  0  0  0  0  0  0  0
   -1.7310   -1.4035    1.7025 H   0  0  0  0  0  0  0  0  0  0  0  0
   -1.5416   -0.4884   -1.9489 H   0  0  0  0  0  0  0  0  0  0  0  0
   -1.4914    1.2523   -1.7222 H   0  0  0  0  0  0  0  0  0  0  0  0
  1  2  2  0
  2  3  1  0
  3  4  2  0
  4  5  1  0
  5  6  2  0
  6  7  1  0
  7  8  2  0
  8  9  1  0
  9 10  2  0
  2 11  1  0
 12 11  1  6
 12 13  1  0
 13 14  1  0
 14 15  1  0
 15 16  1  0
 16 17  1  0
 17 18  1  0
 18 19  1  0
 18 20  1  0
 16 21  1  0
 10  5  1  0
 20 12  1  0
 21 12  1  0
 19 14  1  0
  3 22  1  0
  4 23  1  0
  6 24  1  0
  7 25  1  0
  8 26  1  0
  9 27  1  0
 10 28  1  0
 11 29  1  0
 13 30  1  0
 13 31  1  0
 14 32  1  1
 15 33  1  0
 15 34  1  0
 16 35  1  6
 17 36  1  0
 17 37  1  0
 18 38  1  1
 19 39  1  0
 19 40  1  0
 20 41  1  0
 20 42  1  0
 21 43  1  0
 21 44  1  0
M  END
>  <_SMILES>  (25) 
O=C(/C=C/c1ccccc1)N[C@]12C[C@H]3C[C@H](C[C@H](C3)C1)C2

$$$$

     RDKit          3D

 52 56  0  0  0  0  0  0  0  0999 V2000
    3.2677   -1.3712   -1.3577 C   0  0  0  0  0  0  0  0  0  0  0  0
    2.8500   -0.4065   -0.2825 C   0  0  0  0  0  0  0  0  0  0  0  0
    1.5097   -0.2195   -0.1498 N   0  0  0  0  0  0  0  0  0  0  0  0
    1.0936    0.6487    0.8155 C   0  0  0  0  0  0  0  0  0  0  0  0
   -0.3899    0.8360    0.9400 C   0  0  0  0  0  0  0  0  0  0  0  0
   -0.8650    1.5942    1.7763 O   0  0  0  0  0  0  0  0  0  0  0  0
   -1.1213    0.0875    0.0423 N   0  0  0  0  0  0  0  0  0  0  0  0
   -2.5774    0.0638   -0.0723 C   0  0  2  0  0  0  0  0  0  0  0  0
   -2.9665   -0.9149   -1.2120 C   0  0  0  0  0  0  0  0  0  0  0  0
   -4.4925   -0.9835   -1.3820 C   0  0  1  0  0  0  0  0  0  0  0  0
   -5.1249   -1.4662   -0.0671 C   0  0  0  0  0  0  0  0  0  0  0  0
   -4.7730   -0.4960    1.0717 C   0  0  2  0  0  0  0  0  0  0  0  0
   -5.3016    0.9063    0.7250 C   0  0  0  0  0  0  0  0  0  0  0  0
   -4.6731    1.3990   -0.5897 C   0  0  2  0  0  0  0  0  0  0  0  0
   -5.0256    0.4179   -1.7189 C   0  0  0  0  0  0  0  0  0  0  0  0
   -3.1439    1.4605   -0.4280 C   0  0  0  0  0  0  0  0  0  0  0  0
   -3.2438   -0.4349    1.2337 C   0  0  0  0  0  0  0  0  0  0  0  0
    1.9522    1.3392    1.6546 C   0  0  0  0  0  0  0  0  0  0  0  0
    3.3196    1.1324    1.5010 C   0  0  0  0  0  0  0  0  0  0  0  0
    3.7993    0.2487    0.5219 C   0  0  0  0  0  0  0  0  0  0  0  0
    5.2438    0.0446    0.3759 C   0  0  0  0  0  0  0  0  0  0  0  0
    5.9980    0.8544   -0.4869 C   0  0  0  0  0  0  0  0  0  0  0  0
    7.3742    0.6606   -0.6249 C   0  0  0  0  0  0  0  0  0  0  0  0
    8.0132   -0.3430    0.1003 C   0  0  0  0  0  0  0  0  0  0  0  0
    7.2786   -1.1523    0.9645 C   0  0  0  0  0  0  0  0  0  0  0  0
    5.9025   -0.9588    1.1028 C   0  0  0  0  0  0  0  0  0  0  0  0
    3.8895   -0.8686   -2.1048 H   0  0  0  0  0  0  0  0  0  0  0  0
    2.3910   -1.7772   -1.8735 H   0  0  0  0  0  0  0  0  0  0  0  0
    3.8187   -2.2125   -0.9265 H   0  0  0  0  0  0  0  0  0  0  0  0
   -0.5594   -0.4889   -0.5814 H   0  0  0  0  0  0  0  0  0  0  0  0
   -2.5029   -0.5983   -2.1560 H   0  0  0  0  0  0  0  0  0  0  0  0
   -2.5725   -1.9178   -0.9992 H   0  0  0  0  0  0  0  0  0  0  0  0
   -4.7441   -1.6790   -2.1904 H   0  0  0  0  0  0  0  0  0  0  0  0
   -4.7654   -2.4740    0.1743 H   0  0  0  0  0  0  0  0  0  0  0  0
   -6.2140   -1.5348   -0.1781 H   0  0  0  0  0  0  0  0  0  0  0  0
   -5.2292   -0.8424    2.0057 H   0  0  0  0  0  0  0  0  0  0  0  0
   -6.3942    0.8810    0.6304 H   0  0  0  0  0  0  0  0  0  0  0  0
   -5.0687    1.6060    1.5371 H   0  0  0  0  0  0  0  0  0  0  0  0
   -5.0586    2.3954   -0.8329 H   0  0  0  0  0  0  0  0  0  0  0  0
   -4.5947    0.7656   -2.6658 H   0  0  0  0  0  0  0  0  0  0  0  0
   -6.1130    0.3817   -1.8583 H   0  0  0  0  0  0  0  0  0  0  0  0
   -2.6849    1.8293   -1.3548 H   0  0  0  0  0  0  0  0  0  0  0  0
   -2.8957    2.1928    0.3494 H   0  0  0  0  0  0  0  0  0  0  0  0
   -2.9994    0.2254    2.0743 H   0  0  0  0  0  0  0  0  0  0  0  0
   -2.8565   -1.4271    1.5002 H   0  0  0  0  0  0  0  0  0  0  0  0
    1.5693    2.0198    2.4080 H   0  0  0  0  0  0  0  0  0  0  0  0
    4.0157    1.6629    2.1479 H   0  0  0  0  0  0  0  0  0  0  0  0
    5.5139    1.6439   -1.0585 H   0  0  0  0  0  0  0  0  0  0  0  0
    7.9469    1.2943   -1.2973 H   0  0  0  0  0  0  0  0  0  0  0  0
    9.0845   -0.4931   -0.0066 H   0  0  0  0  0  0  0  0  0  0  0  0
    7.7767   -1.9337    1.5328 H   0  0  0  0  0  0  0  0  0  0  0  0
    5.3431   -1.5977    1.7835 H   0  0  0  0  0  0  0  0  0  0  0  0
  1  2  1  0
  2  3  1  0
  3  4  2  0
  4  5  1  0
  5  6  2  0
  5  7  1  0
  8  7  1  1
  8  9  1  0
  9 10  1  0
 10 11  1  0
 11 12  1  0
 12 13  1  0
 13 14  1  0
 14 15  1  0
 14 16  1  0
 12 17  1  0
  4 18  1  0
 18 19  2  0
 19 20  1  0
 20 21  1  0
 21 22  2  0
 22 23  1  0
 23 24  2  0
 24 25  1  0
 25 26  2  0
 20  2  2  0
 26 21  1  0
 16  8  1  0
 17  8  1  0
 15 10  1  0
  1 27  1  0
  1 28  1  0
  1 29  1  0
  7 30  1  0
  9 31  1  0
  9 32  1  0
 10 33  1  6
 11 34  1  0
 11 35  1  0
 12 36  1  1
 13 37  1  0
 13 38  1  0
 14 39  1  6
 15 40  1  0
 15 41  1  0
 16 42  1  0
 16 43  1  0
 17 44  1  0
 17 45  1  0
 18 46  1  0
 19 47  1  0
 22 48  1  0
 23 49  1  0
 24 50  1  0
 25 51  1  0
 26 52  1  0
M  END
>  <_SMILES>  (26) 
Cc1nc(C(=O)N[C@]23C[C@H]4C[C@H](C[C@H](C4)C2)C3)ccc1-c1ccccc1

$$$$

     RDKit          3D

 49 53  0  0  0  0  0  0  0  0999 V2000
   -0.4864   -1.0996   -1.8638 O   0  0  0  0  0  0  0  0  0  0  0  0
   -0.0791   -0.5466   -0.8499 C   0  0  0  0  0  0  0  0  0  0  0  0
   -0.8898   -0.0272    0.1402 N   0  0  0  0  0  0  0  0  0  0  0  0
   -2.3583   -0.0361    0.0943 C   0  0  2  0  0  0  0  0  0  0  0  0
   -2.8967    0.8015   -1.0916 C   0  0  0  0  0  0  0  0  0  0  0  0
   -4.4356    0.8235   -1.0835 C   0  0  1  0  0  0  0  0  0  0  0  0
   -4.9639   -0.6175   -1.1857 C   0  0  0  0  0  0  0  0  0  0  0  0
   -4.4666   -1.4502    0.0084 C   0  0  2  0  0  0  0  0  0  0  0  0
   -4.9596   -0.8090    1.3146 C   0  0  0  0  0  0  0  0  0  0  0  0
   -4.4266    0.6275    1.4264 C   0  0  2  0  0  0  0  0  0  0  0  0
   -4.9280    1.4516    0.2300 C   0  0  0  0  0  0  0  0  0  0  0  0
   -2.8901    0.5975    1.4092 C   0  0  0  0  0  0  0  0  0  0  0  0
   -2.9276   -1.4748    0.0021 C   0  0  0  0  0  0  0  0  0  0  0  0
    1.3797   -0.3722   -0.6625 C   0  0  0  0  0  0  0  0  0  0  0  0
    2.2162   -0.2803   -1.7723 C   0  0  0  0  0  0  0  0  0  0  0  0
    3.5911   -0.1212   -1.5871 C   0  0  0  0  0  0  0  0  0  0  0  0
    4.1099   -0.0656   -0.2918 C   0  0  0  0  0  0  0  0  0  0  0  0
    5.5513    0.1041   -0.0080 C   0  0  0  0  0  0  0  0  0  0  0  0
    5.9799    0.7751    1.1531 C   0  0  0  0  0  0  0  0  0  0  0  0
    7.3372    0.9527    1.4380 C   0  0  0  0  0  0  0  0  0  0  0  0
    8.3014    0.4562    0.5670 C   0  0  0  0  0  0  0  0  0  0  0  0
    7.9084   -0.2209   -0.5835 C   0  0  0  0  0  0  0  0  0  0  0  0
    6.5490   -0.3962   -0.8658 C   0  0  0  0  0  0  0  0  0  0  0  0
    3.2996   -0.1598    0.7967 N   0  0  0  0  0  0  0  0  0  0  0  0
    1.9691   -0.3261    0.5900 C   0  0  0  0  0  0  0  0  0  0  0  0
   -0.4715    0.6259    0.7898 H   0  0  0  0  0  0  0  0  0  0  0  0
   -2.5083    1.8269   -1.0364 H   0  0  0  0  0  0  0  0  0  0  0  0
   -2.5494    0.3935   -2.0482 H   0  0  0  0  0  0  0  0  0  0  0  0
   -4.8001    1.4118   -1.9330 H   0  0  0  0  0  0  0  0  0  0  0  0
   -6.0606   -0.6127   -1.2067 H   0  0  0  0  0  0  0  0  0  0  0  0
   -4.6297   -1.0734   -2.1257 H   0  0  0  0  0  0  0  0  0  0  0  0
   -4.8518   -2.4731   -0.0686 H   0  0  0  0  0  0  0  0  0  0  0  0
   -6.0563   -0.8051    1.3400 H   0  0  0  0  0  0  0  0  0  0  0  0
   -4.6233   -1.4021    2.1739 H   0  0  0  0  0  0  0  0  0  0  0  0
   -4.7776    1.0805    2.3603 H   0  0  0  0  0  0  0  0  0  0  0  0
   -6.0241    1.4941    0.2373 H   0  0  0  0  0  0  0  0  0  0  0  0
   -4.5688    2.4850    0.3093 H   0  0  0  0  0  0  0  0  0  0  0  0
   -2.5014    1.6187    1.5203 H   0  0  0  0  0  0  0  0  0  0  0  0
   -2.5200    0.0336    2.2759 H   0  0  0  0  0  0  0  0  0  0  0  0
   -2.5873   -1.9769   -0.9106 H   0  0  0  0  0  0  0  0  0  0  0  0
   -2.5596   -2.0804    0.8407 H   0  0  0  0  0  0  0  0  0  0  0  0
    1.8034   -0.3275   -2.7775 H   0  0  0  0  0  0  0  0  0  0  0  0
    4.2347   -0.0277   -2.4558 H   0  0  0  0  0  0  0  0  0  0  0  0
    5.2430    1.1697    1.8514 H   0  0  0  0  0  0  0  0  0  0  0  0
    7.6359    1.4761    2.3424 H   0  0  0  0  0  0  0  0  0  0  0  0
    9.3568    0.5902    0.7882 H   0  0  0  0  0  0  0  0  0  0  0  0
    8.6587   -0.6208   -1.2608 H   0  0  0  0  0  0  0  0  0  0  0  0
    6.2820   -0.9513   -1.7621 H   0  0  0  0  0  0  0  0  0  0  0  0
    1.3907   -0.4413    1.5016 H   0  0  0  0  0  0  0  0  0  0  0  0
  1  2  2  0
  2  3  1  0
  4  3  1  1
  4  5  1  0
  5  6  1  0
  6  7  1  0
  7  8  1  0
  8  9  1  0
  9 10  1  0
 10 11  1  0
 10 12  1  0
  8 13  1  0
  2 14  1  0
 14 15  2  0
 15 16  1  0
 16 17  2  0
 17 18  1  0
 18 19  2  0
 19 20  1  0
 20 21  2  0
 21 22  1  0
 22 23  2  0
 17 24  1  0
 24 25  2  0
 12  4  1  0
 25 14  1  0
 13  4  1  0
 23 18  1  0
 11  6  1  0
  3 26  1  0
  5 27  1  0
  5 28  1  0
  6 29  1  6
  7 30  1  0
  7 31  1  0
  8 32  1  6
  9 33  1  0
  9 34  1  0
 10 35  1  1
 11 36  1  0
 11 37  1  0
 12 38  1  0
 12 39  1  0
 13 40  1  0
 13 41  1  0
 15 42  1  0
 16 43  1  0
 19 44  1  0
 20 45  1  0
 21 46  1  0
 22 47  1  0
 23 48  1  0
 25 49  1  0
M  END
>  <_SMILES>  (27) 
O=C(N[C@]12C[C@H]3C[C@H](C[C@H](C3)C1)C2)c1ccc(-c2ccccc2)nc1

$$$$

     RDKit          3D

 52 56  0  0  0  0  0  0  0  0999 V2000
    4.4554   -1.5561   -1.7806 C   0  0  0  0  0  0  0  0  0  0  0  0
    3.4106   -0.8421   -0.9672 C   0  0  0  0  0  0  0  0  0  0  0  0
    2.0546   -1.0839   -1.2268 C   0  0  0  0  0  0  0  0  0  0  0  0
    1.0969   -0.4185   -0.4715 C   0  0  0  0  0  0  0  0  0  0  0  0
   -0.3618   -0.6617   -0.7280 C   0  0  0  0  0  0  0  0  0  0  0  0
   -0.7311   -1.4413   -1.5972 O   0  0  0  0  0  0  0  0  0  0  0  0
   -1.1992    0.0636    0.0932 N   0  0  0  0  0  0  0  0  0  0  0  0
   -2.6596    0.0335    0.0738 C   0  0  2  0  0  0  0  0  0  0  0  0
   -3.2213    0.5009   -1.2918 C   0  0  0  0  0  0  0  0  0  0  0  0
   -4.7601    0.5057   -1.2709 C   0  0  1  0  0  0  0  0  0  0  0  0
   -5.2665   -0.9137   -0.9627 C   0  0  0  0  0  0  0  0  0  0  0  0
   -4.7437   -1.3764    0.4080 C   0  0  2  0  0  0  0  0  0  0  0  0
   -5.2341   -0.4038    1.4921 C   0  0  0  0  0  0  0  0  0  0  0  0
   -4.7241    1.0149    1.1941 C   0  0  2  0  0  0  0  0  0  0  0  0
   -5.2504    1.4674   -0.1770 C   0  0  0  0  0  0  0  0  0  0  0  0
   -3.1875    1.0024    1.1651 C   0  0  0  0  0  0  0  0  0  0  0  0
   -3.2049   -1.3817    0.3875 C   0  0  0  0  0  0  0  0  0  0  0  0
    1.3923    0.4685    0.5180 N   0  0  0  0  0  0  0  0  0  0  0  0
    2.7093    0.6863    0.7425 C   0  0  0  0  0  0  0  0  0  0  0  0
    3.7570    0.0748    0.0448 C   0  0  0  0  0  0  0  0  0  0  0  0
    5.1453    0.4020    0.3832 C   0  0  0  0  0  0  0  0  0  0  0  0
    5.7874   -0.2285    1.4601 C   0  0  0  0  0  0  0  0  0  0  0  0
    7.1083    0.0869    1.7863 C   0  0  0  0  0  0  0  0  0  0  0  0
    7.8026    1.0377    1.0411 C   0  0  0  0  0  0  0  0  0  0  0  0
    7.1784    1.6737   -0.0299 C   0  0  0  0  0  0  0  0  0  0  0  0
    5.8576    1.3583   -0.3565 C   0  0  0  0  0  0  0  0  0  0  0  0
    5.1559   -2.0868   -1.1279 H   0  0  0  0  0  0  0  0  0  0  0  0
    5.0034   -0.8438   -2.4051 H   0  0  0  0  0  0  0  0  0  0  0  0
    4.0041   -2.3014   -2.4444 H   0  0  0  0  0  0  0  0  0  0  0  0
    1.7442   -1.7790   -2.0020 H   0  0  0  0  0  0  0  0  0  0  0  0
   -0.7189    0.6648    0.7600 H   0  0  0  0  0  0  0  0  0  0  0  0
   -2.8478    1.5056   -1.5297 H   0  0  0  0  0  0  0  0  0  0  0  0
   -2.8767   -0.1537   -2.1011 H   0  0  0  0  0  0  0  0  0  0  0  0
   -5.1410    0.8304   -2.2456 H   0  0  0  0  0  0  0  0  0  0  0  0
   -4.9345   -1.6081   -1.7443 H   0  0  0  0  0  0  0  0  0  0  0  0
   -6.3633   -0.9287   -0.9688 H   0  0  0  0  0  0  0  0  0  0  0  0
   -5.1131   -2.3854    0.6229 H   0  0  0  0  0  0  0  0  0  0  0  0
   -4.8795   -0.7307    2.4773 H   0  0  0  0  0  0  0  0  0  0  0  0
   -6.3304   -0.4076    1.5310 H   0  0  0  0  0  0  0  0  0  0  0  0
   -5.0742    1.7043    1.9704 H   0  0  0  0  0  0  0  0  0  0  0  0
   -4.9075    2.4868   -0.3927 H   0  0  0  0  0  0  0  0  0  0  0  0
   -6.3469    1.4959   -0.1669 H   0  0  0  0  0  0  0  0  0  0  0  0
   -2.8127    2.0183    0.9812 H   0  0  0  0  0  0  0  0  0  0  0  0
   -2.8013    0.7078    2.1502 H   0  0  0  0  0  0  0  0  0  0  0  0
   -2.8597   -2.1079   -0.3579 H   0  0  0  0  0  0  0  0  0  0  0  0
   -2.8197   -1.7287    1.3554 H   0  0  0  0  0  0  0  0  0  0  0  0
    2.9187    1.4028    1.5348 H   0  0  0  0  0  0  0  0  0  0  0  0
    5.2604   -0.9761    2.0498 H   0  0  0  0  0  0  0  0  0  0  0  0
    7.5948   -0.4106    2.6214 H   0  0  0  0  0  0  0  0  0  0  0  0
    8.8308    1.2829    1.2949 H   0  0  0  0  0  0  0  0  0  0  0  0
    7.7191    2.4157   -0.6119 H   0  0  0  0  0  0  0  0  0  0  0  0
    5.3840    1.8643   -1.1957 H   0  0  0  0  0  0  0  0  0  0  0  0
  1  2  1  0
  2  3  1  0
  3  4  2  0
  4  5  1  0
  5  6  2  0
  5  7  1  0
  8  7  1  6
  8  9  1  0
  9 10  1  0
 10 11  1  0
 11 12  1  0
 12 13  1  0
 13 14  1  0
 14 15  1  0
 14 16  1  0
 12 17  1  0
  4 18  1  0
 18 19  2  0
 19 20  1  0
 20 21  1  0
 21 22  2  0
 22 23  1  0
 23 24  2  0
 24 25  1  0
 25 26  2  0
 20  2  2  0
 26 21  1  0
 16  8  1  0
 17  8  1  0
 15 10  1  0
  1 27  1  0
  1 28  1  0
  1 29  1  0
  3 30  1  0
  7 31  1  0
  9 32  1  0
  9 33  1  0
 10 34  1  6
 11 35  1  0
 11 36  1  0
 12 37  1  1
 13 38  1  0
 13 39  1  0
 14 40  1  1
 15 41  1  0
 15 42  1  0
 16 43  1  0
 16 44  1  0
 17 45  1  0
 17 46  1  0
 19 47  1  0
 22 48  1  0
 23 49  1  0
 24 50  1  0
 25 51  1  0
 26 52  1  0
M  END
>  <_SMILES>  (28) 
Cc1cc(C(=O)N[C@]23C[C@H]4C[C@H](C[C@H](C4)C2)C3)ncc1-c1ccccc1

$$$$

     RDKit          3D

 48 52  0  0  0  0  0  0  0  0999 V2000
   -0.4658   -2.0871   -0.8434 O   0  0  0  0  0  0  0  0  0  0  0  0
   -0.0439   -1.0263   -0.3980 C   0  0  0  0  0  0  0  0  0  0  0  0
   -0.8361    0.0189    0.0325 N   0  0  0  0  0  0  0  0  0  0  0  0
   -2.2997    0.0357    0.0316 C   0  0  2  0  0  0  0  0  0  0  0  0
   -2.7770    1.4006    0.5963 C   0  0  0  0  0  0  0  0  0  0  0  0
   -4.3116    1.4805    0.6215 C   0  0  1  0  0  0  0  0  0  0  0  0
   -4.8485    1.3131   -0.8086 C   0  0  0  0  0  0  0  0  0  0  0  0
   -4.4089   -0.0447   -1.3785 C   0  0  2  0  0  0  0  0  0  0  0  0
   -4.9539   -1.1710   -0.4838 C   0  0  0  0  0  0  0  0  0  0  0  0
   -4.4211   -1.0126    0.9505 C   0  0  2  0  0  0  0  0  0  0  0  0
   -4.8606    0.3509    1.5069 C   0  0  0  0  0  0  0  0  0  0  0  0
   -2.8838   -1.0823    0.9303 C   0  0  0  0  0  0  0  0  0  0  0  0
   -2.8716   -0.1140   -1.4000 C   0  0  0  0  0  0  0  0  0  0  0  0
    1.4243   -0.7874   -0.2874 C   0  0  0  0  0  0  0  0  0  0  0  0
    2.3381   -1.7472   -0.6813 C   0  0  0  0  0  0  0  0  0  0  0  0
    3.6955   -1.4583   -0.5502 C   0  0  0  0  0  0  0  0  0  0  0  0
    4.0884   -0.2273   -0.0297 C   0  0  0  0  0  0  0  0  0  0  0  0
    5.4975    0.1758    0.1488 C   0  0  0  0  0  0  0  0  0  0  0  0
    6.5140   -0.7603    0.4280 C   0  0  0  0  0  0  0  0  0  0  0  0
    7.8447   -0.3602    0.5921 C   0  0  0  0  0  0  0  0  0  0  0  0
    8.1766    0.9826    0.4827 C   0  0  0  0  0  0  0  0  0  0  0  0
    9.4505    1.3639    0.6402 F   0  0  0  0  0  0  0  0  0  0  0  0
    7.2035    1.9338    0.2162 C   0  0  0  0  0  0  0  0  0  0  0  0
    5.8742    1.5319    0.0532 C   0  0  0  0  0  0  0  0  0  0  0  0
    3.1528    0.6850    0.3364 N   0  0  0  0  0  0  0  0  0  0  0  0
    1.8117    0.4091    0.2112 N   0  0  0  0  0  0  0  0  0  0  0  0
   -0.3418    0.8368    0.3805 H   0  0  0  0  0  0  0  0  0  0  0  0
   -2.3823    1.5482    1.6105 H   0  0  0  0  0  0  0  0  0  0  0  0
   -2.3737    2.2220   -0.0112 H   0  0  0  0  0  0  0  0  0  0  0  0
   -4.6253    2.4506    1.0229 H   0  0  0  0  0  0  0  0  0  0  0  0
   -5.9432    1.3830   -0.8086 H   0  0  0  0  0  0  0  0  0  0  0  0
   -4.4777    2.1251   -1.4461 H   0  0  0  0  0  0  0  0  0  0  0  0
   -4.7974   -0.1608   -2.3965 H   0  0  0  0  0  0  0  0  0  0  0  0
   -6.0506   -1.1473   -0.4797 H   0  0  0  0  0  0  0  0  0  0  0  0
   -4.6582   -2.1470   -0.8878 H   0  0  0  0  0  0  0  0  0  0  0  0
   -4.8182   -1.8145    1.5829 H   0  0  0  0  0  0  0  0  0  0  0  0
   -4.4985    0.4706    2.5354 H   0  0  0  0  0  0  0  0  0  0  0  0
   -5.9555    0.4042    1.5466 H   0  0  0  0  0  0  0  0  0  0  0  0
   -2.4921   -0.9888    1.9517 H   0  0  0  0  0  0  0  0  0  0  0  0
   -2.5760   -2.0723    0.5735 H   0  0  0  0  0  0  0  0  0  0  0  0
   -2.4711    0.6745   -2.0507 H   0  0  0  0  0  0  0  0  0  0  0  0
   -2.5634   -1.0664   -1.8472 H   0  0  0  0  0  0  0  0  0  0  0  0
    2.0054   -2.6977   -1.0859 H   0  0  0  0  0  0  0  0  0  0  0  0
    4.4261   -2.1930   -0.8727 H   0  0  0  0  0  0  0  0  0  0  0  0
    6.2821   -1.8171    0.5419 H   0  0  0  0  0  0  0  0  0  0  0  0
    8.6201   -1.0879    0.8105 H   0  0  0  0  0  0  0  0  0  0  0  0
    7.4789    2.9807    0.1382 H   0  0  0  0  0  0  0  0  0  0  0  0
    5.1232    2.2937   -0.1553 H   0  0  0  0  0  0  0  0  0  0  0  0
  1  2  2  0
  2  3  1  0
  4  3  1  6
  4  5  1  0
  5  6  1  0
  6  7  1  0
  7  8  1  0
  8  9  1  0
  9 10  1  0
 10 11  1  0
 10 12  1  0
  8 13  1  0
  2 14  1  0
 14 15  2  0
 15 16  1  0
 16 17  2  0
 17 18  1  0
 18 19  1  0
 19 20  2  0
 20 21  1  0
 21 22  1  0
 21 23  2  0
 23 24  1  0
 17 25  1  0
 25 26  2  0
 12  4  1  0
 26 14  1  0
 13  4  1  0
 24 18  2  0
 11  6  1  0
  3 27  1  0
  5 28  1  0
  5 29  1  0
  6 30  1  1
  7 31  1  0
  7 32  1  0
  8 33  1  6
  9 34  1  0
  9 35  1  0
 10 36  1  1
 11 37  1  0
 11 38  1  0
 12 39  1  0
 12 40  1  0
 13 41  1  0
 13 42  1  0
 15 43  1  0
 16 44  1  0
 19 45  1  0
 20 46  1  0
 23 47  1  0
 24 48  1  0
M  END
>  <_SMILES>  (29) 
O=C(N[C@]12C[C@H]3C[C@H](C[C@H](C3)C1)C2)c1ccc(-c2ccc(F)cc2)nn1

$$$$

     RDKit          3D

 42 46  0  0  0  0  0  0  0  0999 V2000
    0.8158   -0.9306   -2.0713 O   0  0  0  0  0  0  0  0  0  0  0  0
    1.2221   -0.5109   -0.9951 C   0  0  0  0  0  0  0  0  0  0  0  0
    0.4260   -0.0250    0.0199 N   0  0  0  0  0  0  0  0  0  0  0  0
   -1.0314    0.0760   -0.0049 C   0  0  2  0  0  0  0  0  0  0  0  0
   -1.6962   -1.3131   -0.1695 C   0  0  0  0  0  0  0  0  0  0  0  0
   -3.2296   -1.1854   -0.1451 C   0  0  1  0  0  0  0  0  0  0  0  0
   -3.6679   -0.5814    1.1984 C   0  0  0  0  0  0  0  0  0  0  0  0
   -3.0384    0.8089    1.3790 C   0  0  2  0  0  0  0  0  0  0  0  0
   -3.4917    1.7258    0.2321 C   0  0  0  0  0  0  0  0  0  0  0  0
   -3.0524    1.1352   -1.1170 C   0  0  2  0  0  0  0  0  0  0  0  0
   -3.6786   -0.2593   -1.2883 C   0  0  0  0  0  0  0  0  0  0  0  0
   -1.5189    1.0081   -1.1416 C   0  0  0  0  0  0  0  0  0  0  0  0
   -1.5074    0.6774    1.3442 C   0  0  0  0  0  0  0  0  0  0  0  0
    2.6882   -0.4900   -0.6779 C   0  0  0  0  0  0  0  0  0  0  0  0
    3.6112   -0.9575   -1.6259 C   0  0  0  0  0  0  0  0  0  0  0  0
    4.9719   -0.9307   -1.3137 C   0  0  0  0  0  0  0  0  0  0  0  0
    5.3187   -0.4394   -0.0776 C   0  0  0  0  0  0  0  0  0  0  0  0
    4.3438   -0.0047    0.7827 C   0  0  0  0  0  0  0  0  0  0  0  0
    3.0261   -0.0006    0.5522 N   0  0  0  0  0  0  0  0  0  0  0  0
    4.8658    0.4523    1.9689 O   0  0  0  0  0  0  0  0  0  0  0  0
    6.2712    0.2450    1.7302 C   0  0  0  0  0  0  0  0  0  0  0  0
    6.5674   -0.3205    0.4339 O   0  0  0  0  0  0  0  0  0  0  0  0
    0.9338    0.2830    0.8477 H   0  0  0  0  0  0  0  0  0  0  0  0
   -1.3647   -1.9875    0.6311 H   0  0  0  0  0  0  0  0  0  0  0  0
   -1.3915   -1.7832   -1.1120 H   0  0  0  0  0  0  0  0  0  0  0  0
   -3.6840   -2.1746   -0.2707 H   0  0  0  0  0  0  0  0  0  0  0  0
   -4.7615   -0.5054    1.2364 H   0  0  0  0  0  0  0  0  0  0  0  0
   -3.3657   -1.2399    2.0220 H   0  0  0  0  0  0  0  0  0  0  0  0
   -3.3517    1.2347    2.3387 H   0  0  0  0  0  0  0  0  0  0  0  0
   -4.5823    1.8415    0.2534 H   0  0  0  0  0  0  0  0  0  0  0  0
   -3.0627    2.7272    0.3605 H   0  0  0  0  0  0  0  0  0  0  0  0
   -3.3812    1.7905   -1.9313 H   0  0  0  0  0  0  0  0  0  0  0  0
   -4.7727   -0.1792   -1.2965 H   0  0  0  0  0  0  0  0  0  0  0  0
   -3.3836   -0.6866   -2.2545 H   0  0  0  0  0  0  0  0  0  0  0  0
   -1.2074    0.6261   -2.1211 H   0  0  0  0  0  0  0  0  0  0  0  0
   -1.0601    2.0003   -1.0391 H   0  0  0  0  0  0  0  0  0  0  0  0
   -1.1712    0.0466    2.1782 H   0  0  0  0  0  0  0  0  0  0  0  0
   -1.0478    1.6624    1.5014 H   0  0  0  0  0  0  0  0  0  0  0  0
    3.2694   -1.3336   -2.5861 H   0  0  0  0  0  0  0  0  0  0  0  0
    5.7209   -1.2813   -2.0143 H   0  0  0  0  0  0  0  0  0  0  0  0
    6.6617   -0.4292    2.5013 H   0  0  0  0  0  0  0  0  0  0  0  0
    6.7867    1.2086    1.8154 H   0  0  0  0  0  0  0  0  0  0  0  0
  1  2  2  0
  2  3  1  0
  4  3  1  1
  4  5  1  0
  5  6  1  0
  6  7  1  0
  7  8  1  0
  8  9  1  0
  9 10  1  0
 10 11  1  0
 10 12  1  0
  8 13  1  0
  2 14  1  0
 14 15  2  0
 15 16  1  0
 16 17  2  0
 17 18  1  0
 18 19  2  0
 18 20  1  0
 20 21  1  0
 21 22  1  0
 12  4  1  0
 19 14  1  0
 13  4  1  0
 22 17  1  0
 11  6  1  0
  3 23  1  0
  5 24  1  0
  5 25  1  0
  6 26  1  6
  7 27  1  0
  7 28  1  0
  8 29  1  1
  9 30  1  0
  9 31  1  0
 10 32  1  6
 11 33  1  0
 11 34  1  0
 12 35  1  0
 12 36  1  0
 13 37  1  0
 13 38  1  0
 15 39  1  0
 16 40  1  0
 21 41  1  0
 21 42  1  0
M  END
>  <_SMILES>  (30) 
O=C(N[C@]12C[C@H]3C[C@H](C[C@H](C3)C1)C2)c1ccc2c(n1)OCO2

$$$$

     RDKit          3D

 45 48  0  0  0  0  0  0  0  0999 V2000
   -5.9841   -1.6083   -0.4256 C   0  0  0  0  0  0  0  0  0  0  0  0
   -4.8134   -0.7105   -0.1615 C   0  0  0  0  0  0  0  0  0  0  0  0
   -5.0000    0.6505    0.1001 C   0  0  0  0  0  0  0  0  0  0  0  0
   -3.8904    1.4689    0.3107 C   0  0  0  0  0  0  0  0  0  0  0  0
   -4.0804    2.9285    0.5986 C   0  0  0  0  0  0  0  0  0  0  0  0
   -2.6208    1.0056    0.2643 N   0  0  0  0  0  0  0  0  0  0  0  0
   -2.4603   -0.3221   -0.0069 C   0  0  0  0  0  0  0  0  0  0  0  0
   -1.0440   -0.8158   -0.0637 C   0  0  0  0  0  0  0  0  0  0  0  0
   -0.7896   -1.9898   -0.3021 O   0  0  0  0  0  0  0  0  0  0  0  0
   -0.1047    0.1655    0.1738 N   0  0  0  0  0  0  0  0  0  0  0  0
    1.3446   -0.0155    0.1838 C   0  0  2  0  0  0  0  0  0  0  0  0
    2.0102    1.3519    0.4934 C   0  0  0  0  0  0  0  0  0  0  0  0
    3.5418    1.2260    0.5178 C   0  0  1  0  0  0  0  0  0  0  0  0
    3.9470    0.2131    1.6002 C   0  0  0  0  0  0  0  0  0  0  0  0
    3.3188   -1.1567    1.2988 C   0  0  2  0  0  0  0  0  0  0  0  0
    3.8029   -1.6452   -0.0771 C   0  0  0  0  0  0  0  0  0  0  0  0
    3.4007   -0.6381   -1.1681 C   0  0  2  0  0  0  0  0  0  0  0  0
    4.0285    0.7287   -0.8525 C   0  0  0  0  0  0  0  0  0  0  0  0
    1.8680   -0.5010   -1.1905 C   0  0  0  0  0  0  0  0  0  0  0  0
    1.7861   -1.0198    1.2770 C   0  0  0  0  0  0  0  0  0  0  0  0
   -3.5103   -1.2032   -0.2281 C   0  0  0  0  0  0  0  0  0  0  0  0
   -6.8640   -1.2775    0.1360 H   0  0  0  0  0  0  0  0  0  0  0  0
   -6.2242   -1.6061   -1.4933 H   0  0  0  0  0  0  0  0  0  0  0  0
   -5.7670   -2.6354   -0.1137 H   0  0  0  0  0  0  0  0  0  0  0  0
   -6.0013    1.0710    0.1404 H   0  0  0  0  0  0  0  0  0  0  0  0
   -3.1156    3.4255    0.7430 H   0  0  0  0  0  0  0  0  0  0  0  0
   -4.6714    3.0603    1.5101 H   0  0  0  0  0  0  0  0  0  0  0  0
   -4.5929    3.4149   -0.2371 H   0  0  0  0  0  0  0  0  0  0  0  0
   -0.4975    1.0874    0.3545 H   0  0  0  0  0  0  0  0  0  0  0  0
    1.7120    2.0955   -0.2579 H   0  0  0  0  0  0  0  0  0  0  0  0
    1.6549    1.7344    1.4597 H   0  0  0  0  0  0  0  0  0  0  0  0
    3.9900    2.2013    0.7377 H   0  0  0  0  0  0  0  0  0  0  0  0
    5.0396    0.1239    1.6398 H   0  0  0  0  0  0  0  0  0  0  0  0
    3.6206    0.5667    2.5859 H   0  0  0  0  0  0  0  0  0  0  0  0
    3.6138   -1.8759    2.0710 H   0  0  0  0  0  0  0  0  0  0  0  0
    4.8927   -1.7699   -0.0672 H   0  0  0  0  0  0  0  0  0  0  0  0
    3.3720   -2.6294   -0.2984 H   0  0  0  0  0  0  0  0  0  0  0  0
    3.7537   -0.9898   -2.1440 H   0  0  0  0  0  0  0  0  0  0  0  0
    5.1225    0.6484   -0.8551 H   0  0  0  0  0  0  0  0  0  0  0  0
    3.7606    1.4532   -1.6313 H   0  0  0  0  0  0  0  0  0  0  0  0
    1.5673    0.2016   -1.9787 H   0  0  0  0  0  0  0  0  0  0  0  0
    1.4264   -1.4685   -1.4575 H   0  0  0  0  0  0  0  0  0  0  0  0
    1.3413   -2.0069    1.1037 H   0  0  0  0  0  0  0  0  0  0  0  0
    1.4266   -0.6896    2.2604 H   0  0  0  0  0  0  0  0  0  0  0  0
   -3.3106   -2.2480   -0.4462 H   0  0  0  0  0  0  0  0  0  0  0  0
  1  2  1  0
  2  3  1  0
  3  4  2  0
  4  5  1  0
  4  6  1  0
  6  7  2  0
  7  8  1  0
  8  9  2  0
  8 10  1  0
 11 10  1  6
 11 12  1  0
 12 13  1  0
 13 14  1  0
 14 15  1  0
 15 16  1  0
 16 17  1  0
 17 18  1  0
 17 19  1  0
 15 20  1  0
  7 21  1  0
 21  2  2  0
 19 11  1  0
 20 11  1  0
 18 13  1  0
  1 22  1  0
  1 23  1  0
  1 24  1  0
  3 25  1  0
  5 26  1  0
  5 27  1  0
  5 28  1  0
 10 29  1  0
 12 30  1  0
 12 31  1  0
 13 32  1  1
 14 33  1  0
 14 34  1  0
 15 35  1  1
 16 36  1  0
 16 37  1  0
 17 38  1  6
 18 39  1  0
 18 40  1  0
 19 41  1  0
 19 42  1  0
 20 43  1  0
 20 44  1  0
 21 45  1  0
M  END
>  <_SMILES>  (31) 
Cc1cc(C)nc(C(=O)N[C@]23C[C@H]4C[C@H](C[C@H](C4)C2)C3)c1

$$$$

     RDKit          3D

 50 54  0  0  0  0  0  0  0  0999 V2000
   -0.6070   -1.9997    0.6023 O   0  0  0  0  0  0  0  0  0  0  0  0
   -0.1891   -0.9244    0.1918 C   0  0  0  0  0  0  0  0  0  0  0  0
   -0.9892    0.1311   -0.1982 N   0  0  0  0  0  0  0  0  0  0  0  0
   -2.4553    0.1284   -0.1308 C   0  0  2  0  0  0  0  0  0  0  0  0
   -2.9710    1.4797   -0.6972 C   0  0  0  0  0  0  0  0  0  0  0  0
   -4.5055    1.5492   -0.6500 C   0  0  1  0  0  0  0  0  0  0  0  0
   -5.0877    0.4023   -1.4902 C   0  0  0  0  0  0  0  0  0  0  0  0
   -4.6109   -0.9484   -0.9342 C   0  0  2  0  0  0  0  0  0  0  0  0
   -5.0733   -1.0882    0.5263 C   0  0  0  0  0  0  0  0  0  0  0  0
   -4.4956    0.0560    1.3769 C   0  0  2  0  0  0  0  0  0  0  0  0
   -4.9722    1.4013    0.8067 C   0  0  0  0  0  0  0  0  0  0  0  0
   -2.9585   -0.0017    1.3279 C   0  0  0  0  0  0  0  0  0  0  0  0
   -3.0738   -1.0067   -0.9860 C   0  0  0  0  0  0  0  0  0  0  0  0
    1.2794   -0.6820    0.1307 C   0  0  0  0  0  0  0  0  0  0  0  0
    1.8500    0.1751   -0.8161 C   0  0  0  0  0  0  0  0  0  0  0  0
    3.2359    0.3710   -0.8377 C   0  0  0  0  0  0  0  0  0  0  0  0
    4.0783   -0.2878    0.0742 C   0  0  0  0  0  0  0  0  0  0  0  0
    5.5355   -0.0806    0.0448 C   0  0  0  0  0  0  0  0  0  0  0  0
    6.0850    1.2107    0.1126 C   0  0  0  0  0  0  0  0  0  0  0  0
    7.4684    1.4079    0.0847 C   0  0  0  0  0  0  0  0  0  0  0  0
    8.3265    0.3157   -0.0128 C   0  0  0  0  0  0  0  0  0  0  0  0
    7.8029   -0.9727   -0.0817 C   0  0  0  0  0  0  0  0  0  0  0  0
    6.4194   -1.1683   -0.0525 C   0  0  0  0  0  0  0  0  0  0  0  0
    3.4898   -1.1577    1.0069 C   0  0  0  0  0  0  0  0  0  0  0  0
    2.1058   -1.3578    1.0334 C   0  0  0  0  0  0  0  0  0  0  0  0
   -0.5437    1.0352   -0.2769 H   0  0  0  0  0  0  0  0  0  0  0  0
   -2.5474    2.3155   -0.1242 H   0  0  0  0  0  0  0  0  0  0  0  0
   -2.6249    1.6117   -1.7312 H   0  0  0  0  0  0  0  0  0  0  0  0
   -4.8451    2.5106   -1.0512 H   0  0  0  0  0  0  0  0  0  0  0  0
   -4.7763    0.5080   -2.5367 H   0  0  0  0  0  0  0  0  0  0  0  0
   -6.1836    0.4472   -1.4780 H   0  0  0  0  0  0  0  0  0  0  0  0
   -5.0311   -1.7632   -1.5343 H   0  0  0  0  0  0  0  0  0  0  0  0
   -4.7507   -2.0555    0.9307 H   0  0  0  0  0  0  0  0  0  0  0  0
   -6.1691   -1.0728    0.5743 H   0  0  0  0  0  0  0  0  0  0  0  0
   -4.8353   -0.0465    2.4136 H   0  0  0  0  0  0  0  0  0  0  0  0
   -4.5776    2.2262    1.4127 H   0  0  0  0  0  0  0  0  0  0  0  0
   -6.0662    1.4637    0.8580 H   0  0  0  0  0  0  0  0  0  0  0  0
   -2.5348    0.8006    1.9462 H   0  0  0  0  0  0  0  0  0  0  0  0
   -2.6207   -0.9440    1.7753 H   0  0  0  0  0  0  0  0  0  0  0  0
   -2.7466   -1.9910   -0.6324 H   0  0  0  0  0  0  0  0  0  0  0  0
   -2.7311   -0.9248   -2.0258 H   0  0  0  0  0  0  0  0  0  0  0  0
    1.2387    0.6725   -1.5637 H   0  0  0  0  0  0  0  0  0  0  0  0
    3.6624    1.0296   -1.5926 H   0  0  0  0  0  0  0  0  0  0  0  0
    5.4338    2.0778    0.2011 H   0  0  0  0  0  0  0  0  0  0  0  0
    7.8740    2.4146    0.1424 H   0  0  0  0  0  0  0  0  0  0  0  0
    9.4024    0.4681   -0.0346 H   0  0  0  0  0  0  0  0  0  0  0  0
    8.4695   -1.8277   -0.1606 H   0  0  0  0  0  0  0  0  0  0  0  0
    6.0319   -2.1832   -0.1188 H   0  0  0  0  0  0  0  0  0  0  0  0
    4.1093   -1.6848    1.7304 H   0  0  0  0  0  0  0  0  0  0  0  0
    1.6744   -2.0400    1.7636 H   0  0  0  0  0  0  0  0  0  0  0  0
  1  2  2  0
  2  3  1  0
  4  3  1  1
  4  5  1  0
  5  6  1  0
  6  7  1  0
  7  8  1  0
  8  9  1  0
  9 10  1  0
 10 11  1  0
 10 12  1  0
  8 13  1  0
  2 14  1  0
 14 15  1  0
 15 16  2  0
 16 17  1  0
 17 18  1  0
 18 19  2  0
 19 20  1  0
 20 21  2  0
 21 22  1  0
 22 23  2  0
 17 24  2  0
 24 25  1  0
 12  4  1  0
 25 14  2  0
 13  4  1  0
 23 18  1  0
 11  6  1  0
  3 26  1  0
  5 27  1  0
  5 28  1  0
  6 29  1  6
  7 30  1  0
  7 31  1  0
  8 32  1  6
  9 33  1  0
  9 34  1  0
 10 35  1  1
 11 36  1  0
 11 37  1  0
 12 38  1  0
 12 39  1  0
 13 40  1  0
 13 41  1  0
 15 42  1  0
 16 43  1  0
 19 44  1  0
 20 45  1  0
 21 46  1  0
 22 47  1  0
 23 48  1  0
 24 49  1  0
 25 50  1  0
M  END
>  <_SMILES>  (32) 
O=C(N[C@]12C[C@H]3C[C@H](C[C@H](C3)C1)C2)c1ccc(-c2ccccc2)cc1

$$$$

     RDKit          3D

 45 48  0  0  0  0  0  0  0  0999 V2000
    6.4533    0.0481   -0.1767 C   0  0  0  0  0  0  0  0  0  0  0  0
    4.9948    0.3202    0.0499 C   0  0  0  0  0  0  0  0  0  0  0  0
    4.5985    1.4654    0.7525 C   0  0  0  0  0  0  0  0  0  0  0  0
    3.2483    1.7200    0.9640 C   0  0  0  0  0  0  0  0  0  0  0  0
    2.3310    0.8127    0.4612 C   0  0  0  0  0  0  0  0  0  0  0  0
    0.8617    1.0413    0.6622 C   0  0  0  0  0  0  0  0  0  0  0  0
    0.4489    2.0227    1.2675 O   0  0  0  0  0  0  0  0  0  0  0  0
    0.0668    0.0594    0.1094 N   0  0  0  0  0  0  0  0  0  0  0  0
   -1.3926    0.0128    0.1453 C   0  0  2  0  0  0  0  0  0  0  0  0
   -2.0198    1.2376   -0.5654 C   0  0  0  0  0  0  0  0  0  0  0  0
   -3.5557    1.1409   -0.5557 C   0  0  1  0  0  0  0  0  0  0  0  0
   -3.9890   -0.1362   -1.2925 C   0  0  0  0  0  0  0  0  0  0  0  0
   -3.3969   -1.3710   -0.5951 C   0  0  2  0  0  0  0  0  0  0  0  0
   -3.8950   -1.4229    0.8577 C   0  0  0  0  0  0  0  0  0  0  0  0
   -3.4611   -0.1532    1.6070 C   0  0  2  0  0  0  0  0  0  0  0  0
   -4.0498    1.0794    0.8997 C   0  0  0  0  0  0  0  0  0  0  0  0
   -1.9252   -0.0569    1.5979 C   0  0  0  0  0  0  0  0  0  0  0  0
   -1.8636   -1.2651   -0.5988 C   0  0  0  0  0  0  0  0  0  0  0  0
    2.6740   -0.3131   -0.2276 N   0  0  0  0  0  0  0  0  0  0  0  0
    3.9961   -0.5433   -0.4231 C   0  0  0  0  0  0  0  0  0  0  0  0
    4.3363   -1.7922   -1.1854 C   0  0  0  0  0  0  0  0  0  0  0  0
    7.0806    0.8303    0.2640 H   0  0  0  0  0  0  0  0  0  0  0  0
    6.6729    0.0151   -1.2485 H   0  0  0  0  0  0  0  0  0  0  0  0
    6.7399   -0.9024    0.2844 H   0  0  0  0  0  0  0  0  0  0  0  0
    5.3372    2.1643    1.1385 H   0  0  0  0  0  0  0  0  0  0  0  0
    2.9214    2.6014    1.5057 H   0  0  0  0  0  0  0  0  0  0  0  0
    0.5823   -0.6840   -0.3580 H   0  0  0  0  0  0  0  0  0  0  0  0
   -1.6560    1.3013   -1.5994 H   0  0  0  0  0  0  0  0  0  0  0  0
   -1.7171    2.1710   -0.0760 H   0  0  0  0  0  0  0  0  0  0  0  0
   -3.9834    2.0178   -1.0544 H   0  0  0  0  0  0  0  0  0  0  0  0
   -3.6546   -0.0986   -2.3366 H   0  0  0  0  0  0  0  0  0  0  0  0
   -5.0836   -0.2052   -1.3111 H   0  0  0  0  0  0  0  0  0  0  0  0
   -3.7065   -2.2788   -1.1248 H   0  0  0  0  0  0  0  0  0  0  0  0
   -4.9880   -1.5140    0.8762 H   0  0  0  0  0  0  0  0  0  0  0  0
   -3.4930   -2.3109    1.3607 H   0  0  0  0  0  0  0  0  0  0  0  0
   -3.8219   -0.1934    2.6409 H   0  0  0  0  0  0  0  0  0  0  0  0
   -5.1456    1.0345    0.9207 H   0  0  0  0  0  0  0  0  0  0  0  0
   -3.7584    1.9925    1.4333 H   0  0  0  0  0  0  0  0  0  0  0  0
   -1.4936   -0.9226    2.1171 H   0  0  0  0  0  0  0  0  0  0  0  0
   -1.6190    0.8274    2.1694 H   0  0  0  0  0  0  0  0  0  0  0  0
   -1.4958   -1.2564   -1.6337 H   0  0  0  0  0  0  0  0  0  0  0  0
   -1.4299   -2.1575   -0.1278 H   0  0  0  0  0  0  0  0  0  0  0  0
    4.8784   -1.5442   -2.1029 H   0  0  0  0  0  0  0  0  0  0  0  0
    3.4273   -2.3330   -1.4693 H   0  0  0  0  0  0  0  0  0  0  0  0
    4.9454   -2.4614   -0.5701 H   0  0  0  0  0  0  0  0  0  0  0  0
  1  2  1  0
  2  3  1  0
  3  4  2  0
  4  5  1  0
  5  6  1  0
  6  7  2  0
  6  8  1  0
  9  8  1  1
  9 10  1  0
 10 11  1  0
 11 12  1  0
 12 13  1  0
 13 14  1  0
 14 15  1  0
 15 16  1  0
 15 17  1  0
 13 18  1  0
  5 19  2  0
 19 20  1  0
 20 21  1  0
 20  2  2  0
 17  9  1  0
 18  9  1  0
 16 11  1  0
  1 22  1  0
  1 23  1  0
  1 24  1  0
  3 25  1  0
  4 26  1  0
  8 27  1  0
 10 28  1  0
 10 29  1  0
 11 30  1  6
 12 31  1  0
 12 32  1  0
 13 33  1  6
 14 34  1  0
 14 35  1  0
 15 36  1  1
 16 37  1  0
 16 38  1  0
 17 39  1  0
 17 40  1  0
 18 41  1  0
 18 42  1  0
 21 43  1  0
 21 44  1  0
 21 45  1  0
M  END
>  <_SMILES>  (33) 
Cc1ccc(C(=O)N[C@]23C[C@H]4C[C@H](C[C@H](C4)C2)C3)nc1C

$$$$

     RDKit          3D

 49 53  0  0  0  0  0  0  0  0999 V2000
    0.0496   -1.2696   -0.4544 O   0  0  0  0  0  0  0  0  0  0  0  0
    0.1894   -0.1420    0.0023 C   0  0  0  0  0  0  0  0  0  0  0  0
   -0.8378    0.7424    0.2559 N   0  0  0  0  0  0  0  0  0  0  0  0
   -2.2595    0.4967    0.0259 C   0  0  2  0  0  0  0  0  0  0  0  0
   -2.7752   -0.6975    0.8664 C   0  0  0  0  0  0  0  0  0  0  0  0
   -4.2835   -0.9054    0.6427 C   0  0  1  0  0  0  0  0  0  0  0  0
   -5.0397    0.3635    1.0670 C   0  0  0  0  0  0  0  0  0  0  0  0
   -4.5620    1.5626    0.2332 C   0  0  2  0  0  0  0  0  0  0  0  0
   -4.8226    1.2838   -1.2554 C   0  0  0  0  0  0  0  0  0  0  0  0
   -4.0652    0.0202   -1.6932 C   0  0  2  0  0  0  0  0  0  0  0  0
   -4.5414   -1.1746   -0.8496 C   0  0  0  0  0  0  0  0  0  0  0  0
   -2.5568    0.2284   -1.4701 C   0  0  0  0  0  0  0  0  0  0  0  0
   -3.0535    1.7600    0.4524 C   0  0  0  0  0  0  0  0  0  0  0  0
    1.5491    0.3976    0.3365 C   0  0  0  0  0  0  0  0  0  0  0  0
    2.6744   -0.3927    0.1397 C   0  0  0  0  0  0  0  0  0  0  0  0
    3.9320    0.1321    0.4574 C   0  0  0  0  0  0  0  0  0  0  0  0
    5.1584   -0.6601    0.2671 C   0  0  0  0  0  0  0  0  0  0  0  0
    6.0924   -0.8122    1.3062 C   0  0  0  0  0  0  0  0  0  0  0  0
    7.2569   -1.5638    1.1256 C   0  0  0  0  0  0  0  0  0  0  0  0
    7.5083   -2.1769   -0.0988 C   0  0  0  0  0  0  0  0  0  0  0  0
    6.5962   -2.0402   -1.1417 C   0  0  0  0  0  0  0  0  0  0  0  0
    5.4317   -1.2890   -0.9595 C   0  0  0  0  0  0  0  0  0  0  0  0
    3.9841    1.4391    0.9605 C   0  0  0  0  0  0  0  0  0  0  0  0
    2.8069    2.1551    1.1231 C   0  0  0  0  0  0  0  0  0  0  0  0
    1.5856    1.6698    0.8254 N   0  0  0  0  0  0  0  0  0  0  0  0
   -0.5384    1.6406    0.6303 H   0  0  0  0  0  0  0  0  0  0  0  0
   -2.2442   -1.6198    0.6025 H   0  0  0  0  0  0  0  0  0  0  0  0
   -2.5761   -0.5231    1.9320 H   0  0  0  0  0  0  0  0  0  0  0  0
   -4.6304   -1.7579    1.2373 H   0  0  0  0  0  0  0  0  0  0  0  0
   -6.1188    0.2194    0.9324 H   0  0  0  0  0  0  0  0  0  0  0  0
   -4.8753    0.5589    2.1338 H   0  0  0  0  0  0  0  0  0  0  0  0
   -5.1019    2.4652    0.5404 H   0  0  0  0  0  0  0  0  0  0  0  0
   -5.8980    1.1556   -1.4300 H   0  0  0  0  0  0  0  0  0  0  0  0
   -4.5020    2.1414   -1.8596 H   0  0  0  0  0  0  0  0  0  0  0  0
   -4.2574   -0.1763   -2.7539 H   0  0  0  0  0  0  0  0  0  0  0  0
   -5.6113   -1.3485   -1.0185 H   0  0  0  0  0  0  0  0  0  0  0  0
   -4.0177   -2.0864   -1.1620 H   0  0  0  0  0  0  0  0  0  0  0  0
   -2.2010    1.0676   -2.0822 H   0  0  0  0  0  0  0  0  0  0  0  0
   -2.0173   -0.6586   -1.8230 H   0  0  0  0  0  0  0  0  0  0  0  0
   -2.7081    2.6332   -0.1173 H   0  0  0  0  0  0  0  0  0  0  0  0
   -2.8600    1.9885    1.5091 H   0  0  0  0  0  0  0  0  0  0  0  0
    2.5662   -1.4033   -0.2440 H   0  0  0  0  0  0  0  0  0  0  0  0
    5.9122   -0.3555    2.2773 H   0  0  0  0  0  0  0  0  0  0  0  0
    7.9643   -1.6735    1.9436 H   0  0  0  0  0  0  0  0  0  0  0  0
    8.4128   -2.7628   -0.2397 H   0  0  0  0  0  0  0  0  0  0  0  0
    6.7889   -2.5174   -2.0992 H   0  0  0  0  0  0  0  0  0  0  0  0
    4.7391   -1.1907   -1.7935 H   0  0  0  0  0  0  0  0  0  0  0  0
    4.9327    1.9046    1.2122 H   0  0  0  0  0  0  0  0  0  0  0  0
    2.8237    3.1715    1.5075 H   0  0  0  0  0  0  0  0  0  0  0  0
  1  2  2  0
  2  3  1  0
  4  3  1  6
  4  5  1  0
  5  6  1  0
  6  7  1  0
  7  8  1  0
  8  9  1  0
  9 10  1  0
 10 11  1  0
 10 12  1  0
  8 13  1  0
  2 14  1  0
 14 15  2  0
 15 16  1  0
 16 17  1  0
 17 18  2  0
 18 19  1  0
 19 20  2  0
 20 21  1  0
 21 22  2  0
 16 23  2  0
 23 24  1  0
 24 25  2  0
 12  4  1  0
 25 14  1  0
 13  4  1  0
 22 17  1  0
 11  6  1  0
  3 26  1  0
  5 27  1  0
  5 28  1  0
  6 29  1  1
  7 30  1  0
  7 31  1  0
  8 32  1  1
  9 33  1  0
  9 34  1  0
 10 35  1  6
 11 36  1  0
 11 37  1  0
 12 38  1  0
 12 39  1  0
 13 40  1  0
 13 41  1  0
 15 42  1  0
 18 43  1  0
 19 44  1  0
 20 45  1  0
 21 46  1  0
 22 47  1  0
 23 48  1  0
 24 49  1  0
M  END
>  <_SMILES>  (34) 
O=C(N[C@]12C[C@H]3C[C@H](C[C@H](C3)C1)C2)c1cc(-c2ccccc2)ccn1

$$$$

     RDKit          3D

 48 51  0  0  0  0  0  0  0  0999 V2000
    5.2161    0.6047   -2.5339 C   0  0  0  0  0  0  0  0  0  0  0  0
    4.2240    0.4405   -1.4152 C   0  0  0  0  0  0  0  0  0  0  0  0
    2.8648    0.3454   -1.7294 C   0  0  0  0  0  0  0  0  0  0  0  0
    1.9530    0.2023   -0.6973 C   0  0  0  0  0  0  0  0  0  0  0  0
    0.4864    0.0993   -0.9989 C   0  0  0  0  0  0  0  0  0  0  0  0
    0.0700    0.1367   -2.1501 O   0  0  0  0  0  0  0  0  0  0  0  0
   -0.3026   -0.0364    0.1241 N   0  0  0  0  0  0  0  0  0  0  0  0
   -1.7580   -0.1576    0.1434 C   0  0  2  0  0  0  0  0  0  0  0  0
   -2.4421    1.0924   -0.4632 C   0  0  0  0  0  0  0  0  0  0  0  0
   -3.9736    0.9612   -0.3877 C   0  0  1  0  0  0  0  0  0  0  0  0
   -4.4127   -0.2941   -1.1608 C   0  0  0  0  0  0  0  0  0  0  0  0
   -3.7670   -1.5475   -0.5458 C   0  0  2  0  0  0  0  0  0  0  0  0
   -4.1947   -1.6681    0.9254 C   0  0  0  0  0  0  0  0  0  0  0  0
   -3.7512   -0.4202    1.7049 C   0  0  2  0  0  0  0  0  0  0  0  0
   -4.4001    0.8261    1.0826 C   0  0  0  0  0  0  0  0  0  0  0  0
   -2.2223   -0.2888    1.6184 C   0  0  0  0  0  0  0  0  0  0  0  0
   -2.2354   -1.4169   -0.6213 C   0  0  0  0  0  0  0  0  0  0  0  0
    2.2981    0.1517    0.6175 N   0  0  0  0  0  0  0  0  0  0  0  0
    3.6175    0.2392    0.9165 C   0  0  0  0  0  0  0  0  0  0  0  0
    3.9422    0.1926    2.3833 C   0  0  0  0  0  0  0  0  0  0  0  0
    4.6212    0.3589   -0.0630 C   0  0  0  0  0  0  0  0  0  0  0  0
    6.0722    0.4705    0.3248 C   0  0  0  0  0  0  0  0  0  0  0  0
    4.7160    0.8092   -3.4868 H   0  0  0  0  0  0  0  0  0  0  0  0
    5.8842    1.4486   -2.3345 H   0  0  0  0  0  0  0  0  0  0  0  0
    5.8048   -0.3102   -2.6538 H   0  0  0  0  0  0  0  0  0  0  0  0
    2.5167    0.3863   -2.7574 H   0  0  0  0  0  0  0  0  0  0  0  0
    0.2147   -0.0472    1.0011 H   0  0  0  0  0  0  0  0  0  0  0  0
   -2.1462    1.2309   -1.5098 H   0  0  0  0  0  0  0  0  0  0  0  0
   -2.1179    1.9961    0.0696 H   0  0  0  0  0  0  0  0  0  0  0  0
   -4.4418    1.8488   -0.8277 H   0  0  0  0  0  0  0  0  0  0  0  0
   -4.1260   -0.2039   -2.2157 H   0  0  0  0  0  0  0  0  0  0  0  0
   -5.5055   -0.3857   -1.1347 H   0  0  0  0  0  0  0  0  0  0  0  0
   -4.0888   -2.4376   -1.0979 H   0  0  0  0  0  0  0  0  0  0  0  0
   -5.2836   -1.7836    0.9909 H   0  0  0  0  0  0  0  0  0  0  0  0
   -3.7518   -2.5667    1.3721 H   0  0  0  0  0  0  0  0  0  0  0  0
   -4.0562   -0.5114    2.7533 H   0  0  0  0  0  0  0  0  0  0  0  0
   -4.1050    1.7220    1.6425 H   0  0  0  0  0  0  0  0  0  0  0  0
   -5.4925    0.7535    1.1508 H   0  0  0  0  0  0  0  0  0  0  0  0
   -1.8927    0.5846    2.1969 H   0  0  0  0  0  0  0  0  0  0  0  0
   -1.7488   -1.1622    2.0868 H   0  0  0  0  0  0  0  0  0  0  0  0
   -1.9317   -1.3737   -1.6740 H   0  0  0  0  0  0  0  0  0  0  0  0
   -1.7628   -2.3149   -0.2022 H   0  0  0  0  0  0  0  0  0  0  0  0
    4.5359    1.0646    2.6743 H   0  0  0  0  0  0  0  0  0  0  0  0
    3.0261    0.2007    2.9836 H   0  0  0  0  0  0  0  0  0  0  0  0
    4.4904   -0.7236    2.6226 H   0  0  0  0  0  0  0  0  0  0  0  0
    6.3332    1.5205    0.4891 H   0  0  0  0  0  0  0  0  0  0  0  0
    6.2940   -0.0961    1.2340 H   0  0  0  0  0  0  0  0  0  0  0  0
    6.7298    0.0592   -0.4471 H   0  0  0  0  0  0  0  0  0  0  0  0
  1  2  1  0
  2  3  2  0
  3  4  1  0
  4  5  1  0
  5  6  2  0
  5  7  1  0
  8  7  1  1
  8  9  1  0
  9 10  1  0
 10 11  1  0
 11 12  1  0
 12 13  1  0
 13 14  1  0
 14 15  1  0
 14 16  1  0
 12 17  1  0
  4 18  2  0
 18 19  1  0
 19 20  1  0
 19 21  2  0
 21 22  1  0
 21  2  1  0
 16  8  1  0
 17  8  1  0
 15 10  1  0
  1 23  1  0
  1 24  1  0
  1 25  1  0
  3 26  1  0
  7 27  1  0
  9 28  1  0
  9 29  1  0
 10 30  1  6
 11 31  1  0
 11 32  1  0
 12 33  1  6
 13 34  1  0
 13 35  1  0
 14 36  1  1
 15 37  1  0
 15 38  1  0
 16 39  1  0
 16 40  1  0
 17 41  1  0
 17 42  1  0
 20 43  1  0
 20 44  1  0
 20 45  1  0
 22 46  1  0
 22 47  1  0
 22 48  1  0
M  END
>  <_SMILES>  (35) 
Cc1cc(C(=O)N[C@]23C[C@H]4C[C@H](C[C@H](C4)C2)C3)nc(C)c1C

$$$$

     RDKit          3D

 47 49  0  0  0  0  0  0  0  0999 V2000
   -3.2541   -0.6989   -2.8070 C   0  0  0  0  0  0  0  0  0  0  0  0
   -2.2865   -0.3691   -1.7012 C   0  0  0  0  0  0  0  0  0  0  0  0
   -0.9298   -0.2182   -2.0098 C   0  0  0  0  0  0  0  0  0  0  0  0
   -0.0449    0.0863   -0.9882 C   0  0  0  0  0  0  0  0  0  0  0  0
    1.4160    0.2492   -1.2858 C   0  0  0  0  0  0  0  0  0  0  0  0
    1.8671    0.0694   -2.4109 O   0  0  0  0  0  0  0  0  0  0  0  0
    2.1780    0.5992   -0.1893 N   0  0  0  0  0  0  0  0  0  0  0  0
    3.6284    0.6259   -0.2152 C   0  0  0  0  0  0  0  0  0  0  0  0
    4.2098   -0.7794   -0.0411 C   0  0  0  0  0  0  0  0  0  0  0  0
    5.7354   -0.7849   -0.1649 C   0  0  0  0  0  0  0  0  0  0  0  0
    6.3887    0.5350    0.2478 C   0  0  0  0  0  0  0  0  0  0  0  0
    5.5857    1.2502    1.3248 C   0  0  0  0  0  0  0  0  0  0  0  0
    4.1675    1.5864    0.8565 C   0  0  0  0  0  0  0  0  0  0  0  0
   -0.4126    0.2461    0.3116 N   0  0  0  0  0  0  0  0  0  0  0  0
   -1.7311    0.0991    0.6043 C   0  0  0  0  0  0  0  0  0  0  0  0
   -2.0902    0.2880    2.0535 C   0  0  0  0  0  0  0  0  0  0  0  0
   -2.7121   -0.2084   -0.3623 C   0  0  0  0  0  0  0  0  0  0  0  0
   -4.1281   -0.3572    0.0078 C   0  0  0  0  0  0  0  0  0  0  0  0
   -4.9929    0.7481   -0.0079 C   0  0  0  0  0  0  0  0  0  0  0  0
   -6.3365    0.6070    0.3453 C   0  0  0  0  0  0  0  0  0  0  0  0
   -6.8321   -0.6408    0.7177 C   0  0  0  0  0  0  0  0  0  0  0  0
   -5.9867   -1.7482    0.7367 C   0  0  0  0  0  0  0  0  0  0  0  0
   -4.6430   -1.6077    0.3836 C   0  0  0  0  0  0  0  0  0  0  0  0
   -4.0077    0.0889   -2.9043 H   0  0  0  0  0  0  0  0  0  0  0  0
   -2.7441   -0.7835   -3.7728 H   0  0  0  0  0  0  0  0  0  0  0  0
   -3.7456   -1.6573   -2.6127 H   0  0  0  0  0  0  0  0  0  0  0  0
   -0.5644   -0.3345   -3.0261 H   0  0  0  0  0  0  0  0  0  0  0  0
    1.6810    0.5865    0.6989 H   0  0  0  0  0  0  0  0  0  0  0  0
    3.9299    0.9986   -1.2032 H   0  0  0  0  0  0  0  0  0  0  0  0
    3.9243   -1.1699    0.9451 H   0  0  0  0  0  0  0  0  0  0  0  0
    3.7849   -1.4764   -0.7734 H   0  0  0  0  0  0  0  0  0  0  0  0
    6.1338   -1.6036    0.4466 H   0  0  0  0  0  0  0  0  0  0  0  0
    6.0226   -1.0096   -1.1993 H   0  0  0  0  0  0  0  0  0  0  0  0
    6.4753    1.1884   -0.6296 H   0  0  0  0  0  0  0  0  0  0  0  0
    7.4101    0.3460    0.5970 H   0  0  0  0  0  0  0  0  0  0  0  0
    5.5303    0.6098    2.2142 H   0  0  0  0  0  0  0  0  0  0  0  0
    6.0977    2.1684    1.6341 H   0  0  0  0  0  0  0  0  0  0  0  0
    3.5103    1.6060    1.7355 H   0  0  0  0  0  0  0  0  0  0  0  0
    4.1467    2.6061    0.4504 H   0  0  0  0  0  0  0  0  0  0  0  0
   -2.7900    1.1207    2.1717 H   0  0  0  0  0  0  0  0  0  0  0  0
   -1.1975    0.5191    2.6448 H   0  0  0  0  0  0  0  0  0  0  0  0
   -2.5310   -0.6257    2.4635 H   0  0  0  0  0  0  0  0  0  0  0  0
   -4.6206    1.7286   -0.2985 H   0  0  0  0  0  0  0  0  0  0  0  0
   -6.9957    1.4711    0.3285 H   0  0  0  0  0  0  0  0  0  0  0  0
   -7.8783   -0.7506    0.9919 H   0  0  0  0  0  0  0  0  0  0  0  0
   -6.3730   -2.7224    1.0254 H   0  0  0  0  0  0  0  0  0  0  0  0
   -3.9953   -2.4820    0.4012 H   0  0  0  0  0  0  0  0  0  0  0  0
  1  2  1  0
  2  3  2  0
  3  4  1  0
  4  5  1  0
  5  6  2  0
  5  7  1  0
  7  8  1  0
  8  9  1  0
  9 10  1  0
 10 11  1  0
 11 12  1  0
 12 13  1  0
  4 14  2  0
 14 15  1  0
 15 16  1  0
 15 17  2  0
 17 18  1  0
 18 19  2  0
 19 20  1  0
 20 21  2  0
 21 22  1  0
 22 23  2  0
 17  2  1  0
 23 18  1  0
 13  8  1  0
  1 24  1  0
  1 25  1  0
  1 26  1  0
  3 27  1  0
  7 28  1  0
  8 29  1  0
  9 30  1  0
  9 31  1  0
 10 32  1  0
 10 33  1  0
 11 34  1  0
 11 35  1  0
 12 36  1  0
 12 37  1  0
 13 38  1  0
 13 39  1  0
 16 40  1  0
 16 41  1  0
 16 42  1  0
 19 43  1  0
 20 44  1  0
 21 45  1  0
 22 46  1  0
 23 47  1  0
M  END
>  <_SMILES>  (36) 
Cc1cc(C(=O)NC2CCCCC2)nc(C)c1-c1ccccc1

$$$$

     RDKit          3D

 44 46  0  0  0  0  0  0  0  0999 V2000
    2.5950    1.7737   -2.3278 C   0  0  0  0  0  0  0  0  0  0  0  0
    1.7310    1.2723   -1.2010 C   0  0  0  0  0  0  0  0  0  0  0  0
    0.4043    1.7100   -1.1171 C   0  0  0  0  0  0  0  0  0  0  0  0
   -0.3857    1.2448   -0.0782 C   0  0  0  0  0  0  0  0  0  0  0  0
   -1.8132    1.6908    0.0352 C   0  0  0  0  0  0  0  0  0  0  0  0
   -2.3157    2.4517   -0.7838 O   0  0  0  0  0  0  0  0  0  0  0  0
   -2.4814    1.1627    1.1175 N   0  0  0  0  0  0  0  0  0  0  0  0
   -3.8996    1.3176    1.3136 C   0  0  0  0  0  0  0  0  0  0  0  0
   -4.6459    0.0990    0.8360 C   0  0  0  0  0  0  0  0  0  0  0  0
   -5.0048   -0.9195    1.7301 C   0  0  0  0  0  0  0  0  0  0  0  0
   -5.6799   -2.0540    1.2756 C   0  0  0  0  0  0  0  0  0  0  0  0
   -5.9955   -2.1848   -0.0759 C   0  0  0  0  0  0  0  0  0  0  0  0
   -5.6338   -1.1838   -0.9755 C   0  0  0  0  0  0  0  0  0  0  0  0
   -4.9595   -0.0490   -0.5230 C   0  0  0  0  0  0  0  0  0  0  0  0
    0.0496    0.3794    0.8763 N   0  0  0  0  0  0  0  0  0  0  0  0
    1.3379   -0.0425    0.7888 C   0  0  0  0  0  0  0  0  0  0  0  0
    1.7726   -0.9999    1.8654 C   0  0  0  0  0  0  0  0  0  0  0  0
    2.2236    0.3716   -0.2286 C   0  0  0  0  0  0  0  0  0  0  0  0
    3.6107   -0.1159   -0.2782 C   0  0  0  0  0  0  0  0  0  0  0  0
    3.9347   -1.2841   -0.9856 C   0  0  0  0  0  0  0  0  0  0  0  0
    5.2511   -1.7478   -1.0311 C   0  0  0  0  0  0  0  0  0  0  0  0
    6.2596   -1.0491   -0.3707 C   0  0  0  0  0  0  0  0  0  0  0  0
    5.9543    0.1132    0.3346 C   0  0  0  0  0  0  0  0  0  0  0  0
    4.6381    0.5773    0.3803 C   0  0  0  0  0  0  0  0  0  0  0  0
    2.0445    2.4621   -2.9782 H   0  0  0  0  0  0  0  0  0  0  0  0
    2.9357    0.9397   -2.9495 H   0  0  0  0  0  0  0  0  0  0  0  0
    3.4596    2.3178   -1.9349 H   0  0  0  0  0  0  0  0  0  0  0  0
   -0.0107    2.4000   -1.8461 H   0  0  0  0  0  0  0  0  0  0  0  0
   -1.9763    0.4565    1.6455 H   0  0  0  0  0  0  0  0  0  0  0  0
   -4.2649    2.2122    0.7966 H   0  0  0  0  0  0  0  0  0  0  0  0
   -4.0662    1.4716    2.3854 H   0  0  0  0  0  0  0  0  0  0  0  0
   -4.7603   -0.8350    2.7863 H   0  0  0  0  0  0  0  0  0  0  0  0
   -5.9575   -2.8374    1.9757 H   0  0  0  0  0  0  0  0  0  0  0  0
   -6.5196   -3.0687   -0.4291 H   0  0  0  0  0  0  0  0  0  0  0  0
   -5.8726   -1.2866   -2.0306 H   0  0  0  0  0  0  0  0  0  0  0  0
   -4.6713    0.7235   -1.2347 H   0  0  0  0  0  0  0  0  0  0  0  0
    0.9491   -1.1988    2.5598 H   0  0  0  0  0  0  0  0  0  0  0  0
    2.5994   -0.5784    2.4450 H   0  0  0  0  0  0  0  0  0  0  0  0
    2.0768   -1.9566    1.4303 H   0  0  0  0  0  0  0  0  0  0  0  0
    3.1579   -1.8394   -1.5077 H   0  0  0  0  0  0  0  0  0  0  0  0
    5.4886   -2.6538   -1.5828 H   0  0  0  0  0  0  0  0  0  0  0  0
    7.2845   -1.4099   -0.4067 H   0  0  0  0  0  0  0  0  0  0  0  0
    6.7408    0.6598    0.8487 H   0  0  0  0  0  0  0  0  0  0  0  0
    4.4151    1.4876    0.9336 H   0  0  0  0  0  0  0  0  0  0  0  0
  1  2  1  0
  2  3  2  0
  3  4  1  0
  4  5  1  0
  5  6  2  0
  5  7  1  0
  7  8  1  0
  8  9  1  0
  9 10  2  0
 10 11  1  0
 11 12  2  0
 12 13  1  0
 13 14  2  0
  4 15  2  0
 15 16  1  0
 16 17  1  0
 16 18  2  0
 18 19  1  0
 19 20  2  0
 20 21  1  0
 21 22  2  0
 22 23  1  0
 23 24  2  0
 18  2  1  0
 24 19  1  0
 14  9  1  0
  1 25  1  0
  1 26  1  0
  1 27  1  0
  3 28  1  0
  7 29  1  0
  8 30  1  0
  8 31  1  0
 10 32  1  0
 11 33  1  0
 12 34  1  0
 13 35  1  0
 14 36  1  0
 17 37  1  0
 17 38  1  0
 17 39  1  0
 20 40  1  0
 21 41  1  0
 22 42  1  0
 23 43  1  0
 24 44  1  0
M  END
>  <_SMILES>  (37) 
Cc1cc(C(=O)NCc2ccccc2)nc(C)c1-c1ccccc1

$$$$

     RDKit          3D

 44 46  0  0  0  0  0  0  0  0999 V2000
    3.2683    0.3662    2.2085 C   0  0  0  0  0  0  0  0  0  0  0  0
    2.0677    0.1161    1.3347 C   0  0  0  0  0  0  0  0  0  0  0  0
    0.8881   -0.3558    1.9217 C   0  0  0  0  0  0  0  0  0  0  0  0
   -0.2125   -0.5848    1.1121 C   0  0  0  0  0  0  0  0  0  0  0  0
   -1.4930   -1.0848    1.7115 C   0  0  0  0  0  0  0  0  0  0  0  0
   -1.6170   -1.2530    2.9190 O   0  0  0  0  0  0  0  0  0  0  0  0
   -2.4930   -1.3148    0.7891 N   0  0  0  0  0  0  0  0  0  0  0  0
   -3.8543   -1.6283    1.1757 C   0  0  0  0  0  0  0  0  0  0  0  0
   -4.6439   -2.2157    0.0106 C   0  0  0  0  0  0  0  0  0  0  0  0
   -5.1162   -1.0071   -0.7959 C   0  0  0  0  0  0  0  0  0  0  0  0
   -5.0741    0.1874    0.1574 C   0  0  0  0  0  0  0  0  0  0  0  0
   -4.6507   -0.3702    1.5133 C   0  0  0  0  0  0  0  0  0  0  0  0
   -0.2228   -0.3748   -0.2318 N   0  0  0  0  0  0  0  0  0  0  0  0
    0.9254    0.0828   -0.7955 C   0  0  0  0  0  0  0  0  0  0  0  0
    0.8665    0.2977   -2.2838 C   0  0  0  0  0  0  0  0  0  0  0  0
    2.1009    0.3454   -0.0604 C   0  0  0  0  0  0  0  0  0  0  0  0
    3.3189    0.8408   -0.7199 C   0  0  0  0  0  0  0  0  0  0  0  0
    4.2773   -0.0542   -1.2206 C   0  0  0  0  0  0  0  0  0  0  0  0
    5.4325    0.4162   -1.8484 C   0  0  0  0  0  0  0  0  0  0  0  0
    5.6442    1.7868   -1.9827 C   0  0  0  0  0  0  0  0  0  0  0  0
    4.7030    2.6882   -1.4895 C   0  0  0  0  0  0  0  0  0  0  0  0
    3.5476    2.2183   -0.8616 C   0  0  0  0  0  0  0  0  0  0  0  0
    3.5624    1.4195    2.1631 H   0  0  0  0  0  0  0  0  0  0  0  0
    3.0556    0.1317    3.2572 H   0  0  0  0  0  0  0  0  0  0  0  0
    4.1069   -0.2645    1.8971 H   0  0  0  0  0  0  0  0  0  0  0  0
    0.8231   -0.5431    2.9897 H   0  0  0  0  0  0  0  0  0  0  0  0
   -2.2803   -1.0165   -0.1606 H   0  0  0  0  0  0  0  0  0  0  0  0
   -3.8206   -2.3154    2.0278 H   0  0  0  0  0  0  0  0  0  0  0  0
   -4.0619   -2.9128   -0.6006 H   0  0  0  0  0  0  0  0  0  0  0  0
   -5.5191   -2.7547    0.3940 H   0  0  0  0  0  0  0  0  0  0  0  0
   -4.4501   -0.8281   -1.6477 H   0  0  0  0  0  0  0  0  0  0  0  0
   -6.1220   -1.1701   -1.1967 H   0  0  0  0  0  0  0  0  0  0  0  0
   -4.3396    0.9193   -0.1985 H   0  0  0  0  0  0  0  0  0  0  0  0
   -6.0411    0.6968    0.2176 H   0  0  0  0  0  0  0  0  0  0  0  0
   -4.0863    0.3635    2.0973 H   0  0  0  0  0  0  0  0  0  0  0  0
   -5.5451   -0.6426    2.0872 H   0  0  0  0  0  0  0  0  0  0  0  0
    1.0554    1.3471   -2.5294 H   0  0  0  0  0  0  0  0  0  0  0  0
    1.5964   -0.3380   -2.7940 H   0  0  0  0  0  0  0  0  0  0  0  0
   -0.1251    0.0402   -2.6715 H   0  0  0  0  0  0  0  0  0  0  0  0
    4.1266   -1.1274   -1.1212 H   0  0  0  0  0  0  0  0  0  0  0  0
    6.1670   -0.2876   -2.2314 H   0  0  0  0  0  0  0  0  0  0  0  0
    6.5439    2.1528   -2.4709 H   0  0  0  0  0  0  0  0  0  0  0  0
    4.8682    3.7576   -1.5923 H   0  0  0  0  0  0  0  0  0  0  0  0
    2.8225    2.9343   -0.4796 H   0  0  0  0  0  0  0  0  0  0  0  0
  1  2  1  0
  2  3  2  0
  3  4  1  0
  4  5  1  0
  5  6  2  0
  5  7  1  0
  7  8  1  0
  8  9  1  0
  9 10  1  0
 10 11  1  0
 11 12  1  0
  4 13  2  0
 13 14  1  0
 14 15  1  0
 14 16  2  0
 16 17  1  0
 17 18  2  0
 18 19  1  0
 19 20  2  0
 20 21  1  0
 21 22  2  0
 16  2  1  0
 22 17  1  0
 12  8  1  0
  1 23  1  0
  1 24  1  0
  1 25  1  0
  3 26  1  0
  7 27  1  0
  8 28  1  0
  9 29  1  0
  9 30  1  0
 10 31  1  0
 10 32  1  0
 11 33  1  0
 11 34  1  0
 12 35  1  0
 12 36  1  0
 15 37  1  0
 15 38  1  0
 15 39  1  0
 18 40  1  0
 19 41  1  0
 20 42  1  0
 21 43  1  0
 22 44  1  0
M  END
>  <_SMILES>  (38) 
Cc1cc(C(=O)NC2CCCC2)nc(C)c1-c1ccccc1

$$$$

     RDKit          3D

 50 52  0  0  0  0  0  0  0  0999 V2000
    3.6983   -1.1027    2.6134 C   0  0  0  0  0  0  0  0  0  0  0  0
    2.6016   -0.5802    1.7234 C   0  0  0  0  0  0  0  0  0  0  0  0
    1.2827   -0.5971    2.1912 C   0  0  0  0  0  0  0  0  0  0  0  0
    0.2789   -0.1140    1.3677 C   0  0  0  0  0  0  0  0  0  0  0  0
   -1.1457   -0.1242    1.8363 C   0  0  0  0  0  0  0  0  0  0  0  0
   -1.4640   -0.6008    2.9193 O   0  0  0  0  0  0  0  0  0  0  0  0
   -2.0350    0.4304    0.9383 N   0  0  0  0  0  0  0  0  0  0  0  0
   -3.4774    0.3520    1.1032 C   0  0  1  0  0  0  0  0  0  0  0  0
   -4.1711    1.4952    0.3538 C   0  0  0  0  0  0  0  0  0  0  0  0
   -4.1475    1.3135   -1.1657 C   0  0  0  0  0  0  0  0  0  0  0  0
   -4.6736   -0.0552   -1.6195 C   0  0  2  0  0  0  0  0  0  0  0  0
   -6.1966   -0.1459   -1.4877 C   0  0  0  0  0  0  0  0  0  0  0  0
   -3.9703   -1.1910   -0.8635 C   0  0  0  0  0  0  0  0  0  0  0  0
   -4.0108   -1.0154    0.6557 C   0  0  0  0  0  0  0  0  0  0  0  0
    0.4933    0.3778    0.1177 N   0  0  0  0  0  0  0  0  0  0  0  0
    1.7757    0.3917   -0.3302 C   0  0  0  0  0  0  0  0  0  0  0  0
    1.9636    0.9464   -1.7164 C   0  0  0  0  0  0  0  0  0  0  0  0
    2.8693   -0.0746    0.4300 C   0  0  0  0  0  0  0  0  0  0  0  0
    4.2401   -0.0375   -0.1024 C   0  0  0  0  0  0  0  0  0  0  0  0
    5.0572    1.0856    0.0996 C   0  0  0  0  0  0  0  0  0  0  0  0
    6.3577    1.1215   -0.4076 C   0  0  0  0  0  0  0  0  0  0  0  0
    6.8575    0.0348   -1.1222 C   0  0  0  0  0  0  0  0  0  0  0  0
    6.0594   -1.0883   -1.3298 C   0  0  0  0  0  0  0  0  0  0  0  0
    4.7588   -1.1247   -0.8228 C   0  0  0  0  0  0  0  0  0  0  0  0
    4.2018   -1.9526    2.1421 H   0  0  0  0  0  0  0  0  0  0  0  0
    4.4270   -0.3144    2.8265 H   0  0  0  0  0  0  0  0  0  0  0  0
    3.3026   -1.4496    3.5741 H   0  0  0  0  0  0  0  0  0  0  0  0
    1.0370   -0.9785    3.1781 H   0  0  0  0  0  0  0  0  0  0  0  0
   -1.6327    0.6698    0.0347 H   0  0  0  0  0  0  0  0  0  0  0  0
   -3.6817    0.4649    2.1752 H   0  0  0  0  0  0  0  0  0  0  0  0
   -3.7004    2.4529    0.6080 H   0  0  0  0  0  0  0  0  0  0  0  0
   -5.2127    1.5620    0.6906 H   0  0  0  0  0  0  0  0  0  0  0  0
   -3.1171    1.4313   -1.5241 H   0  0  0  0  0  0  0  0  0  0  0  0
   -4.7270    2.1163   -1.6372 H   0  0  0  0  0  0  0  0  0  0  0  0
   -4.4411   -0.1676   -2.6866 H   0  0  0  0  0  0  0  0  0  0  0  0
   -6.6806    0.6382   -2.0799 H   0  0  0  0  0  0  0  0  0  0  0  0
   -6.5577   -1.1111   -1.8587 H   0  0  0  0  0  0  0  0  0  0  0  0
   -6.5337   -0.0382   -0.4528 H   0  0  0  0  0  0  0  0  0  0  0  0
   -4.4174   -2.1559   -1.1310 H   0  0  0  0  0  0  0  0  0  0  0  0
   -2.9231   -1.2370   -1.1888 H   0  0  0  0  0  0  0  0  0  0  0  0
   -3.4368   -1.8237    1.1247 H   0  0  0  0  0  0  0  0  0  0  0  0
   -5.0442   -1.1280    1.0052 H   0  0  0  0  0  0  0  0  0  0  0  0
    2.3916    0.1888   -2.3798 H   0  0  0  0  0  0  0  0  0  0  0  0
    2.6126    1.8270   -1.6944 H   0  0  0  0  0  0  0  0  0  0  0  0
    1.0023    1.2541   -2.1420 H   0  0  0  0  0  0  0  0  0  0  0  0
    4.6812    1.9411    0.6575 H   0  0  0  0  0  0  0  0  0  0  0  0
    6.9803    1.9973   -0.2437 H   0  0  0  0  0  0  0  0  0  0  0  0
    7.8703    0.0626   -1.5164 H   0  0  0  0  0  0  0  0  0  0  0  0
    6.4492   -1.9372   -1.8858 H   0  0  0  0  0  0  0  0  0  0  0  0
    4.1480   -2.0095   -0.9913 H   0  0  0  0  0  0  0  0  0  0  0  0
  1  2  1  0
  2  3  2  0
  3  4  1  0
  4  5  1  0
  5  6  2  0
  5  7  1  0
  7  8  1  0
  8  9  1  0
  9 10  1  0
 10 11  1  0
 11 12  1  0
 11 13  1  0
 13 14  1  0
  4 15  2  0
 15 16  1  0
 16 17  1  0
 16 18  2  0
 18 19  1  0
 19 20  2  0
 20 21  1  0
 21 22  2  0
 22 23  1  0
 23 24  2  0
 18  2  1  0
 24 19  1  0
 14  8  1  0
  1 25  1  0
  1 26  1  0
  1 27  1  0
  3 28  1  0
  7 29  1  0
  8 30  1  1
  9 31  1  0
  9 32  1  0
 10 33  1  0
 10 34  1  0
 11 35  1  6
 12 36  1  0
 12 37  1  0
 12 38  1  0
 13 39  1  0
 13 40  1  0
 14 41  1  0
 14 42  1  0
 17 43  1  0
 17 44  1  0
 17 45  1  0
 20 46  1  0
 21 47  1  0
 22 48  1  0
 23 49  1  0
 24 50  1  0
M  END
>  <_SMILES>  (39) 
Cc1cc(C(=O)N[C@H]2CC[C@H](C)CC2)nc(C)c1-c1ccccc1

$$$$

     RDKit          3D

 50 52  0  0  0  0  0  0  0  0999 V2000
    3.5710   -2.1236    1.7894 C   0  0  0  0  0  0  0  0  0  0  0  0
    2.4859   -1.4558    0.9868 C   0  0  0  0  0  0  0  0  0  0  0  0
    1.1619   -1.8772    1.1538 C   0  0  0  0  0  0  0  0  0  0  0  0
    0.1686   -1.2593    0.4116 C   0  0  0  0  0  0  0  0  0  0  0  0
   -1.2611   -1.6827    0.5720 C   0  0  0  0  0  0  0  0  0  0  0  0
   -1.5919   -2.5376    1.3851 O   0  0  0  0  0  0  0  0  0  0  0  0
   -2.1388   -1.0175   -0.2595 N   0  0  0  0  0  0  0  0  0  0  0  0
   -3.5848   -1.1343   -0.1494 C   0  0  0  0  0  0  0  0  0  0  0  0
   -4.1356   -0.3098    1.0269 C   0  0  0  0  0  0  0  0  0  0  0  0
   -3.8099    1.1823    0.9728 C   0  0  0  0  0  0  0  0  0  0  0  0
   -4.7790    2.0316    0.1566 C   0  0  0  0  0  0  0  0  0  0  0  0
   -5.3070    1.4341   -1.1431 C   0  0  0  0  0  0  0  0  0  0  0  0
   -4.2962    0.6146   -1.9384 C   0  0  0  0  0  0  0  0  0  0  0  0
   -4.2495   -0.8505   -1.5004 C   0  0  0  0  0  0  0  0  0  0  0  0
    0.3985   -0.2551   -0.4767 N   0  0  0  0  0  0  0  0  0  0  0  0
    1.6858    0.1491   -0.6344 C   0  0  0  0  0  0  0  0  0  0  0  0
    1.8907    1.2603   -1.6282 C   0  0  0  0  0  0  0  0  0  0  0  0
    2.7694   -0.4158    0.0712 C   0  0  0  0  0  0  0  0  0  0  0  0
    4.1461    0.0590   -0.1364 C   0  0  0  0  0  0  0  0  0  0  0  0
    4.9645   -0.5225   -1.1172 C   0  0  0  0  0  0  0  0  0  0  0  0
    6.2707   -0.0702   -1.3155 C   0  0  0  0  0  0  0  0  0  0  0  0
    6.7748    0.9684   -0.5354 C   0  0  0  0  0  0  0  0  0  0  0  0
    5.9755    1.5550    0.4435 C   0  0  0  0  0  0  0  0  0  0  0  0
    4.6693    1.1031    0.6423 C   0  0  0  0  0  0  0  0  0  0  0  0
    4.0770   -1.3948    2.4304 H   0  0  0  0  0  0  0  0  0  0  0  0
    4.2999   -2.6002    1.1265 H   0  0  0  0  0  0  0  0  0  0  0  0
    3.1637   -2.9041    2.4412 H   0  0  0  0  0  0  0  0  0  0  0  0
    0.9041   -2.6719    1.8481 H   0  0  0  0  0  0  0  0  0  0  0  0
   -1.7251   -0.2598   -0.7984 H   0  0  0  0  0  0  0  0  0  0  0  0
   -3.7862   -2.1885    0.0845 H   0  0  0  0  0  0  0  0  0  0  0  0
   -5.2180   -0.4608    1.1189 H   0  0  0  0  0  0  0  0  0  0  0  0
   -3.6953   -0.7069    1.9512 H   0  0  0  0  0  0  0  0  0  0  0  0
   -2.7891    1.3430    0.6079 H   0  0  0  0  0  0  0  0  0  0  0  0
   -3.8149    1.5754    1.9979 H   0  0  0  0  0  0  0  0  0  0  0  0
   -4.2837    2.9855   -0.0663 H   0  0  0  0  0  0  0  0  0  0  0  0
   -5.6421    2.2896    0.7840 H   0  0  0  0  0  0  0  0  0  0  0  0
   -5.6589    2.2638   -1.7696 H   0  0  0  0  0  0  0  0  0  0  0  0
   -6.1964    0.8276   -0.9316 H   0  0  0  0  0  0  0  0  0  0  0  0
   -3.3023    1.0746   -1.9136 H   0  0  0  0  0  0  0  0  0  0  0  0
   -4.6142    0.6263   -2.9890 H   0  0  0  0  0  0  0  0  0  0  0  0
   -5.2731   -1.2466   -1.4795 H   0  0  0  0  0  0  0  0  0  0  0  0
   -3.7229   -1.4211   -2.2772 H   0  0  0  0  0  0  0  0  0  0  0  0
    2.5423    0.9325   -2.4438 H   0  0  0  0  0  0  0  0  0  0  0  0
    2.3235    2.1388   -1.1402 H   0  0  0  0  0  0  0  0  0  0  0  0
    0.9351    1.5638   -2.0694 H   0  0  0  0  0  0  0  0  0  0  0  0
    4.5852   -1.3359   -1.7329 H   0  0  0  0  0  0  0  0  0  0  0  0
    6.8942   -0.5296   -2.0783 H   0  0  0  0  0  0  0  0  0  0  0  0
    7.7919    1.3199   -0.6895 H   0  0  0  0  0  0  0  0  0  0  0  0
    6.3686    2.3641    1.0538 H   0  0  0  0  0  0  0  0  0  0  0  0
    4.0575    1.5696    1.4120 H   0  0  0  0  0  0  0  0  0  0  0  0
  1  2  1  0
  2  3  2  0
  3  4  1  0
  4  5  1  0
  5  6  2  0
  5  7  1  0
  7  8  1  0
  8  9  1  0
  9 10  1  0
 10 11  1  0
 11 12  1  0
 12 13  1  0
 13 14  1  0
  4 15  2  0
 15 16  1  0
 16 17  1  0
 16 18  2  0
 18 19  1  0
 19 20  2  0
 20 21  1  0
 21 22  2  0
 22 23  1  0
 23 24  2  0
 18  2  1  0
 24 19  1  0
 14  8  1  0
  1 25  1  0
  1 26  1  0
  1 27  1  0
  3 28  1  0
  7 29  1  0
  8 30  1  0
  9 31  1  0
  9 32  1  0
 10 33  1  0
 10 34  1  0
 11 35  1  0
 11 36  1  0
 12 37  1  0
 12 38  1  0
 13 39  1  0
 13 40  1  0
 14 41  1  0
 14 42  1  0
 17 43  1  0
 17 44  1  0
 17 45  1  0
 20 46  1  0
 21 47  1  0
 22 48  1  0
 23 49  1  0
 24 50  1  0
M  END
>  <_SMILES>  (40) 
Cc1cc(C(=O)NC2CCCCCC2)nc(C)c1-c1ccccc1

$$$$

     RDKit          3D

 38 40  0  0  0  0  0  0  0  0999 V2000
   -1.6139    2.5974    1.4054 C   0  0  0  0  0  0  0  0  0  0  0  0
   -0.7584    1.4661    0.8994 C   0  0  0  0  0  0  0  0  0  0  0  0
    0.6313    1.5507    1.0414 C   0  0  0  0  0  0  0  0  0  0  0  0
    1.4132    0.5067    0.5737 C   0  0  0  0  0  0  0  0  0  0  0  0
    2.9039    0.5674    0.7110 C   0  0  0  0  0  0  0  0  0  0  0  0
    3.4622    1.5244    1.2364 O   0  0  0  0  0  0  0  0  0  0  0  0
    3.5548   -0.5388    0.1997 N   0  0  0  0  0  0  0  0  0  0  0  0
    4.9692   -0.6912    0.2092 C   0  0  0  0  0  0  0  0  0  0  0  0
    5.7697   -0.4428   -1.0386 C   0  0  0  0  0  0  0  0  0  0  0  0
    5.6221   -1.8392   -0.5103 C   0  0  0  0  0  0  0  0  0  0  0  0
    0.9115   -0.6085   -0.0216 N   0  0  0  0  0  0  0  0  0  0  0  0
   -0.4385   -0.6845   -0.1566 C   0  0  0  0  0  0  0  0  0  0  0  0
   -0.9465   -1.9358   -0.8209 C   0  0  0  0  0  0  0  0  0  0  0  0
   -1.3215    0.3233    0.2856 C   0  0  0  0  0  0  0  0  0  0  0  0
   -2.7768    0.1919    0.1153 C   0  0  0  0  0  0  0  0  0  0  0  0
   -3.4085    0.6685   -1.0440 C   0  0  0  0  0  0  0  0  0  0  0  0
   -4.7897    0.5418   -1.2063 C   0  0  0  0  0  0  0  0  0  0  0  0
   -5.5561   -0.0621   -0.2117 C   0  0  0  0  0  0  0  0  0  0  0  0
   -4.9441   -0.5387    0.9457 C   0  0  0  0  0  0  0  0  0  0  0  0
   -3.5630   -0.4123    1.1086 C   0  0  0  0  0  0  0  0  0  0  0  0
   -2.2998    2.2419    2.1808 H   0  0  0  0  0  0  0  0  0  0  0  0
   -1.0045    3.3925    1.8486 H   0  0  0  0  0  0  0  0  0  0  0  0
   -2.1845    3.0431    0.5846 H   0  0  0  0  0  0  0  0  0  0  0  0
    1.1005    2.4127    1.5073 H   0  0  0  0  0  0  0  0  0  0  0  0
    2.9582   -1.2589   -0.2011 H   0  0  0  0  0  0  0  0  0  0  0  0
    5.4242   -0.3865    1.1499 H   0  0  0  0  0  0  0  0  0  0  0  0
    5.2373   -0.1781   -1.9444 H   0  0  0  0  0  0  0  0  0  0  0  0
    6.7284    0.0501   -0.9273 H   0  0  0  0  0  0  0  0  0  0  0  0
    6.4854   -2.2996   -0.0440 H   0  0  0  0  0  0  0  0  0  0  0  0
    4.9989   -2.5275   -1.0682 H   0  0  0  0  0  0  0  0  0  0  0  0
   -0.1136   -2.5938   -1.0914 H   0  0  0  0  0  0  0  0  0  0  0  0
   -1.6016   -2.4926   -0.1441 H   0  0  0  0  0  0  0  0  0  0  0  0
   -1.4872   -1.6916   -1.7403 H   0  0  0  0  0  0  0  0  0  0  0  0
   -2.8234    1.1443   -1.8286 H   0  0  0  0  0  0  0  0  0  0  0  0
   -5.2667    0.9155   -2.1088 H   0  0  0  0  0  0  0  0  0  0  0  0
   -6.6314   -0.1600   -0.3380 H   0  0  0  0  0  0  0  0  0  0  0  0
   -5.5416   -1.0083    1.7230 H   0  0  0  0  0  0  0  0  0  0  0  0
   -3.0995   -0.7875    2.0190 H   0  0  0  0  0  0  0  0  0  0  0  0
  1  2  1  0
  2  3  2  0
  3  4  1  0
  4  5  1  0
  5  6  2  0
  5  7  1  0
  7  8  1  0
  8  9  1  0
  9 10  1  0
  4 11  2  0
 11 12  1  0
 12 13  1  0
 12 14  2  0
 14 15  1  0
 15 16  2  0
 16 17  1  0
 17 18  2  0
 18 19  1  0
 19 20  2  0
 14  2  1  0
 20 15  1  0
 10  8  1  0
  1 21  1  0
  1 22  1  0
  1 23  1  0
  3 24  1  0
  7 25  1  0
  8 26  1  0
  9 27  1  0
  9 28  1  0
 10 29  1  0
 10 30  1  0
 13 31  1  0
 13 32  1  0
 13 33  1  0
 16 34  1  0
 17 35  1  0
 18 36  1  0
 19 37  1  0
 20 38  1  0
M  END
>  <_SMILES>  (41) 
Cc1cc(C(=O)NC2CC2)nc(C)c1-c1ccccc1

$$$$

     RDKit          3D

 60 65  0  0  0  0  0  0  0  0999 V2000
   -1.6062   -3.0821    0.9581 C   0  0  0  0  0  0  0  0  0  0  0  0
   -1.7457   -1.7320    0.3535 C   0  0  0  0  0  0  0  0  0  0  0  0
   -0.6905   -0.8192    0.0532 C   0  0  0  0  0  0  0  0  0  0  0  0
    0.7587   -1.0023    0.2753 C   0  0  0  0  0  0  0  0  0  0  0  0
    1.2374   -2.0166    0.7711 O   0  0  0  0  0  0  0  0  0  0  0  0
    1.4958    0.0882   -0.1331 N   0  0  0  0  0  0  0  0  0  0  0  0
    2.9436    0.2376   -0.0415 C   0  0  2  0  0  0  0  0  0  0  0  0
    3.4307    0.1800    1.4274 C   0  0  0  0  0  0  0  0  0  0  0  0
    4.9537    0.3882    1.5012 C   0  0  1  0  0  0  0  0  0  0  0  0
    5.6548   -0.7084    0.6814 C   0  0  0  0  0  0  0  0  0  0  0  0
    5.2056   -0.6395   -0.7882 C   0  0  2  0  0  0  0  0  0  0  0  0
    5.5579    0.7421   -1.3617 C   0  0  0  0  0  0  0  0  0  0  0  0
    4.8534    1.8416   -0.5517 C   0  0  2  0  0  0  0  0  0  0  0  0
    5.3073    1.7640    0.9144 C   0  0  0  0  0  0  0  0  0  0  0  0
    3.3335    1.6233   -0.6211 C   0  0  0  0  0  0  0  0  0  0  0  0
    3.6827   -0.8480   -0.8625 C   0  0  0  0  0  0  0  0  0  0  0  0
   -1.1686    0.3167   -0.4954 N   0  0  0  0  0  0  0  0  0  0  0  0
   -2.5059    0.1347   -0.5270 N   0  0  0  0  0  0  0  0  0  0  0  0
   -3.3481    1.2038   -1.0572 C   0  0  0  0  0  0  0  0  0  0  0  0
   -3.8256    2.1335    0.0203 C   0  0  0  0  0  0  0  0  0  0  0  0
   -2.9631    3.2765    0.4937 C   0  0  0  0  0  0  0  0  0  0  0  0
   -4.1985    3.5558   -0.3171 C   0  0  0  0  0  0  0  0  0  0  0  0
   -2.9079   -1.0866   -0.0408 C   0  0  0  0  0  0  0  0  0  0  0  0
   -4.2949   -1.5273    0.0301 C   0  0  0  0  0  0  0  0  0  0  0  0
   -5.0159   -1.3909    1.2212 C   0  0  0  0  0  0  0  0  0  0  0  0
   -6.3455   -1.8101    1.2894 C   0  0  0  0  0  0  0  0  0  0  0  0
   -6.9578   -2.3726    0.1699 C   0  0  0  0  0  0  0  0  0  0  0  0
   -6.2411   -2.5205   -1.0171 C   0  0  0  0  0  0  0  0  0  0  0  0
   -4.9115   -2.1013   -1.0871 C   0  0  0  0  0  0  0  0  0  0  0  0
   -2.5721   -3.5866    1.0580 H   0  0  0  0  0  0  0  0  0  0  0  0
   -1.1631   -3.0091    1.9564 H   0  0  0  0  0  0  0  0  0  0  0  0
   -0.9646   -3.7150    0.3367 H   0  0  0  0  0  0  0  0  0  0  0  0
    0.9266    0.8430   -0.5115 H   0  0  0  0  0  0  0  0  0  0  0  0
    3.1787   -0.7840    1.8853 H   0  0  0  0  0  0  0  0  0  0  0  0
    2.9196    0.9463    2.0250 H   0  0  0  0  0  0  0  0  0  0  0  0
    5.2827    0.3366    2.5451 H   0  0  0  0  0  0  0  0  0  0  0  0
    6.7429   -0.5850    0.7458 H   0  0  0  0  0  0  0  0  0  0  0  0
    5.4212   -1.6955    1.0989 H   0  0  0  0  0  0  0  0  0  0  0  0
    5.7132   -1.4195   -1.3666 H   0  0  0  0  0  0  0  0  0  0  0  0
    5.2552    0.7993   -2.4145 H   0  0  0  0  0  0  0  0  0  0  0  0
    6.6440    0.8937   -1.3340 H   0  0  0  0  0  0  0  0  0  0  0  0
    5.1054    2.8245   -0.9652 H   0  0  0  0  0  0  0  0  0  0  0  0
    6.3890    1.9332    0.9813 H   0  0  0  0  0  0  0  0  0  0  0  0
    4.8243    2.5564    1.4992 H   0  0  0  0  0  0  0  0  0  0  0  0
    2.9950    1.7057   -1.6627 H   0  0  0  0  0  0  0  0  0  0  0  0
    2.8197    2.4216   -0.0688 H   0  0  0  0  0  0  0  0  0  0  0  0
    3.4409   -1.8512   -0.4917 H   0  0  0  0  0  0  0  0  0  0  0  0
    3.3525   -0.8199   -1.9092 H   0  0  0  0  0  0  0  0  0  0  0  0
   -2.7590    1.7308   -1.8178 H   0  0  0  0  0  0  0  0  0  0  0  0
   -4.1991    0.7449   -1.5699 H   0  0  0  0  0  0  0  0  0  0  0  0
   -4.4373    1.6248    0.7572 H   0  0  0  0  0  0  0  0  0  0  0  0
   -1.9964    3.4235    0.0243 H   0  0  0  0  0  0  0  0  0  0  0  0
   -2.9793    3.5171    1.5509 H   0  0  0  0  0  0  0  0  0  0  0  0
   -4.0654    3.9070   -1.3342 H   0  0  0  0  0  0  0  0  0  0  0  0
   -5.0507    3.9918    0.1926 H   0  0  0  0  0  0  0  0  0  0  0  0
   -4.5444   -0.9597    2.1015 H   0  0  0  0  0  0  0  0  0  0  0  0
   -6.9017   -1.7023    2.2170 H   0  0  0  0  0  0  0  0  0  0  0  0
   -7.9923   -2.7024    0.2248 H   0  0  0  0  0  0  0  0  0  0  0  0
   -6.7159   -2.9676   -1.8867 H   0  0  0  0  0  0  0  0  0  0  0  0
   -4.3578   -2.2308   -2.0142 H   0  0  0  0  0  0  0  0  0  0  0  0
  1  2  1  0
  2  3  1  0
  3  4  1  0
  4  5  2  0
  4  6  1  0
  7  6  1  1
  7  8  1  0
  8  9  1  0
  9 10  1  0
 10 11  1  0
 11 12  1  0
 12 13  1  0
 13 14  1  0
 13 15  1  0
 11 16  1  0
  3 17  2  0
 17 18  1  0
 18 19  1  0
 19 20  1  0
 20 21  1  0
 21 22  1  0
 18 23  1  0
 23 24  1  0
 24 25  2  0
 25 26  1  0
 26 27  2  0
 27 28  1  0
 28 29  2  0
 23  2  2  0
 29 24  1  0
 15  7  1  0
 22 20  1  0
 16  7  1  0
 14  9  1  0
  1 30  1  0
  1 31  1  0
  1 32  1  0
  6 33  1  0
  8 34  1  0
  8 35  1  0
  9 36  1  1
 10 37  1  0
 10 38  1  0
 11 39  1  6
 12 40  1  0
 12 41  1  0
 13 42  1  6
 14 43  1  0
 14 44  1  0
 15 45  1  0
 15 46  1  0
 16 47  1  0
 16 48  1  0
 19 49  1  0
 19 50  1  0
 20 51  1  0
 21 52  1  0
 21 53  1  0
 22 54  1  0
 22 55  1  0
 25 56  1  0
 26 57  1  0
 27 58  1  0
 28 59  1  0
 29 60  1  0
M  END
>  <_SMILES>  (42) 
Cc1c(C(=O)N[C@]23C[C@H]4C[C@H](C[C@H](C4)C2)C3)nn(CC2CC2)c1-c1ccccc1

$$$$

     RDKit          3D

 53 57  0  0  0  0  0  0  0  0999 V2000
    2.5918    2.2658    0.6460 C   0  0  0  0  0  0  0  0  0  0  0  0
    2.4507    0.8376    0.2611 C   0  0  0  0  0  0  0  0  0  0  0  0
    1.2291    0.1232    0.0687 C   0  0  0  0  0  0  0  0  0  0  0  0
   -0.1511    0.6302    0.2146 C   0  0  0  0  0  0  0  0  0  0  0  0
   -0.4096    1.7826    0.5444 O   0  0  0  0  0  0  0  0  0  0  0  0
   -1.0981   -0.3332   -0.0582 N   0  0  0  0  0  0  0  0  0  0  0  0
   -2.5457   -0.1636   -0.0025 C   0  0  2  0  0  0  0  0  0  0  0  0
   -3.0328    0.9146   -1.0021 C   0  0  0  0  0  0  0  0  0  0  0  0
   -4.5659    1.0402   -0.9581 C   0  0  1  0  0  0  0  0  0  0  0  0
   -5.1973   -0.3089   -1.3366 C   0  0  0  0  0  0  0  0  0  0  0  0
   -4.7469   -1.3950   -0.3472 C   0  0  2  0  0  0  0  0  0  0  0  0
   -5.1857   -1.0038    1.0727 C   0  0  0  0  0  0  0  0  0  0  0  0
   -4.5543    0.3413    1.4651 C   0  0  2  0  0  0  0  0  0  0  0  0
   -5.0018    1.4224    0.4666 C   0  0  0  0  0  0  0  0  0  0  0  0
   -3.0211    0.2155    1.4218 C   0  0  0  0  0  0  0  0  0  0  0  0
   -3.2147   -1.5098   -0.3877 C   0  0  0  0  0  0  0  0  0  0  0  0
    1.4638   -1.1573   -0.2873 N   0  0  0  0  0  0  0  0  0  0  0  0
    2.8061   -1.2542   -0.3058 N   0  0  0  0  0  0  0  0  0  0  0  0
    3.4116   -2.5279   -0.6242 C   0  0  0  0  0  0  0  0  0  0  0  0
    3.4543   -0.0839    0.0020 C   0  0  0  0  0  0  0  0  0  0  0  0
    4.9047    0.0608    0.0404 C   0  0  0  0  0  0  0  0  0  0  0  0
    5.6453    0.0971   -1.1466 C   0  0  0  0  0  0  0  0  0  0  0  0
    7.0345    0.2306   -1.1050 C   0  0  0  0  0  0  0  0  0  0  0  0
    7.6893    0.3313    0.1219 C   0  0  0  0  0  0  0  0  0  0  0  0
    6.9568    0.3025    1.3079 C   0  0  0  0  0  0  0  0  0  0  0  0
    5.5677    0.1695    1.2679 C   0  0  0  0  0  0  0  0  0  0  0  0
    2.0638    2.9084   -0.0659 H   0  0  0  0  0  0  0  0  0  0  0  0
    2.1749    2.4342    1.6441 H   0  0  0  0  0  0  0  0  0  0  0  0
    3.6387    2.5832    0.6622 H   0  0  0  0  0  0  0  0  0  0  0  0
   -0.6983   -1.2348   -0.3112 H   0  0  0  0  0  0  0  0  0  0  0  0
   -2.7078    0.6604   -2.0196 H   0  0  0  0  0  0  0  0  0  0  0  0
   -2.5875    1.8900   -0.7729 H   0  0  0  0  0  0  0  0  0  0  0  0
   -4.8930    1.8117   -1.6641 H   0  0  0  0  0  0  0  0  0  0  0  0
   -6.2911   -0.2260   -1.3299 H   0  0  0  0  0  0  0  0  0  0  0  0
   -4.9053   -0.5864   -2.3569 H   0  0  0  0  0  0  0  0  0  0  0  0
   -5.1975   -2.3553   -0.6219 H   0  0  0  0  0  0  0  0  0  0  0  0
   -6.2792   -0.9328    1.1209 H   0  0  0  0  0  0  0  0  0  0  0  0
   -4.8853   -1.7812    1.7858 H   0  0  0  0  0  0  0  0  0  0  0  0
   -4.8731    0.6176    2.4764 H   0  0  0  0  0  0  0  0  0  0  0  0
   -6.0919    1.5386    0.5054 H   0  0  0  0  0  0  0  0  0  0  0  0
   -4.5684    2.3912    0.7440 H   0  0  0  0  0  0  0  0  0  0  0  0
   -2.6878   -0.5406    2.1448 H   0  0  0  0  0  0  0  0  0  0  0  0
   -2.5752    1.1643    1.7433 H   0  0  0  0  0  0  0  0  0  0  0  0
   -2.8851   -2.3041    0.2955 H   0  0  0  0  0  0  0  0  0  0  0  0
   -2.8932   -1.8174   -1.3918 H   0  0  0  0  0  0  0  0  0  0  0  0
    4.2142   -2.7297    0.0891 H   0  0  0  0  0  0  0  0  0  0  0  0
    3.7997   -2.4759   -1.6442 H   0  0  0  0  0  0  0  0  0  0  0  0
    2.6567   -3.3156   -0.5514 H   0  0  0  0  0  0  0  0  0  0  0  0
    5.1442    0.0335   -2.1097 H   0  0  0  0  0  0  0  0  0  0  0  0
    7.6049    0.2626   -2.0297 H   0  0  0  0  0  0  0  0  0  0  0  0
    8.7706    0.4386    0.1537 H   0  0  0  0  0  0  0  0  0  0  0  0
    7.4663    0.3869    2.2644 H   0  0  0  0  0  0  0  0  0  0  0  0
    5.0051    0.1510    2.1986 H   0  0  0  0  0  0  0  0  0  0  0  0
  1  2  1  0
  2  3  1  0
  3  4  1  0
  4  5  2  0
  4  6  1  0
  7  6  1  1
  7  8  1  0
  8  9  1  0
  9 10  1  0
 10 11  1  0
 11 12  1  0
 12 13  1  0
 13 14  1  0
 13 15  1  0
 11 16  1  0
  3 17  2  0
 17 18  1  0
 18 19  1  0
 18 20  1  0
 20 21  1  0
 21 22  2  0
 22 23  1  0
 23 24  2  0
 24 25  1  0
 25 26  2  0
 20  2  2  0
 26 21  1  0
 15  7  1  0
 16  7  1  0
 14  9  1  0
  1 27  1  0
  1 28  1  0
  1 29  1  0
  6 30  1  0
  8 31  1  0
  8 32  1  0
  9 33  1  6
 10 34  1  0
 10 35  1  0
 11 36  1  6
 12 37  1  0
 12 38  1  0
 13 39  1  1
 14 40  1  0
 14 41  1  0
 15 42  1  0
 15 43  1  0
 16 44  1  0
 16 45  1  0
 19 46  1  0
 19 47  1  0
 19 48  1  0
 22 49  1  0
 23 50  1  0
 24 51  1  0
 25 52  1  0
 26 53  1  0
M  END
>  <_SMILES>  (43) 
Cc1c(C(=O)N[C@]23C[C@H]4C[C@H](C[C@H](C4)C2)C3)nn(C)c1-c1ccccc1

$$$$

     RDKit          3D

 57 62  0  0  0  0  0  0  0  0999 V2000
    2.0637   -1.8840   -2.0577 C   0  0  0  0  0  0  0  0  0  0  0  0
    2.0451   -1.0747   -0.8115 C   0  0  0  0  0  0  0  0  0  0  0  0
    0.9007   -0.4709   -0.2031 C   0  0  0  0  0  0  0  0  0  0  0  0
   -0.4993   -0.5035   -0.6727 C   0  0  0  0  0  0  0  0  0  0  0  0
   -0.8451   -1.0759   -1.7001 O   0  0  0  0  0  0  0  0  0  0  0  0
   -1.3538    0.1770    0.1672 N   0  0  0  0  0  0  0  0  0  0  0  0
   -2.7926    0.3401   -0.0108 C   0  0  2  0  0  0  0  0  0  0  0  0
   -3.3442    1.1758    1.1748 C   0  0  0  0  0  0  0  0  0  0  0  0
   -4.8616    1.3831    1.0439 C   0  0  1  0  0  0  0  0  0  0  0  0
   -5.1579    2.1202   -0.2716 C   0  0  0  0  0  0  0  0  0  0  0  0
   -4.6423    1.2967   -1.4623 C   0  0  2  0  0  0  0  0  0  0  0  0
   -5.3363   -0.0760   -1.4683 C   0  0  0  0  0  0  0  0  0  0  0  0
   -5.0445   -0.8225   -0.1554 C   0  0  2  0  0  0  0  0  0  0  0  0
   -5.5578    0.0132    1.0278 C   0  0  0  0  0  0  0  0  0  0  0  0
   -3.5254   -1.0244   -0.0146 C   0  0  0  0  0  0  0  0  0  0  0  0
   -3.1230    1.0954   -1.3219 C   0  0  0  0  0  0  0  0  0  0  0  0
    1.2350    0.1812    0.9290 N   0  0  0  0  0  0  0  0  0  0  0  0
    2.5629    0.0146    1.0181 N   0  0  0  0  0  0  0  0  0  0  0  0
    3.3264    0.6150    2.1400 C   0  0  0  0  0  0  0  0  0  0  0  0
    3.0545    2.0165    2.6384 C   0  0  0  0  0  0  0  0  0  0  0  0
    4.3400    1.7161    1.9287 C   0  0  0  0  0  0  0  0  0  0  0  0
    3.1102   -0.7484    0.0171 C   0  0  0  0  0  0  0  0  0  0  0  0
    4.5275   -1.0753   -0.0897 C   0  0  0  0  0  0  0  0  0  0  0  0
    5.3063   -0.5011   -1.1013 C   0  0  0  0  0  0  0  0  0  0  0  0
    6.6638   -0.8095   -1.2067 C   0  0  0  0  0  0  0  0  0  0  0  0
    7.2494   -1.6968   -0.3050 C   0  0  0  0  0  0  0  0  0  0  0  0
    6.4788   -2.2790    0.7004 C   0  0  0  0  0  0  0  0  0  0  0  0
    5.1211   -1.9712    0.8072 C   0  0  0  0  0  0  0  0  0  0  0  0
    1.3646   -2.7229   -1.9805 H   0  0  0  0  0  0  0  0  0  0  0  0
    3.0550   -2.3003   -2.2600 H   0  0  0  0  0  0  0  0  0  0  0  0
    1.7765   -1.2680   -2.9158 H   0  0  0  0  0  0  0  0  0  0  0  0
   -0.8901    0.5951    0.9717 H   0  0  0  0  0  0  0  0  0  0  0  0
   -2.8399    2.1506    1.2163 H   0  0  0  0  0  0  0  0  0  0  0  0
   -3.1200    0.6750    2.1262 H   0  0  0  0  0  0  0  0  0  0  0  0
   -5.2288    1.9746    1.8899 H   0  0  0  0  0  0  0  0  0  0  0  0
   -4.6805    3.1078   -0.2640 H   0  0  0  0  0  0  0  0  0  0  0  0
   -6.2371    2.2890   -0.3718 H   0  0  0  0  0  0  0  0  0  0  0  0
   -4.8593    1.8246   -2.3977 H   0  0  0  0  0  0  0  0  0  0  0  0
   -6.4186    0.0530   -1.5922 H   0  0  0  0  0  0  0  0  0  0  0  0
   -4.9867   -0.6691   -2.3223 H   0  0  0  0  0  0  0  0  0  0  0  0
   -5.5466   -1.7964   -0.1646 H   0  0  0  0  0  0  0  0  0  0  0  0
   -5.3683   -0.5151    1.9702 H   0  0  0  0  0  0  0  0  0  0  0  0
   -6.6439    0.1457    0.9499 H   0  0  0  0  0  0  0  0  0  0  0  0
   -3.3057   -1.5734    0.9105 H   0  0  0  0  0  0  0  0  0  0  0  0
   -3.1710   -1.6564   -0.8375 H   0  0  0  0  0  0  0  0  0  0  0  0
   -2.6145    2.0684   -1.3355 H   0  0  0  0  0  0  0  0  0  0  0  0
   -2.7531    0.5441   -2.1946 H   0  0  0  0  0  0  0  0  0  0  0  0
    3.5520   -0.1246    2.9018 H   0  0  0  0  0  0  0  0  0  0  0  0
    2.3117    2.6105    2.1173 H   0  0  0  0  0  0  0  0  0  0  0  0
    3.0866    2.1860    3.7081 H   0  0  0  0  0  0  0  0  0  0  0  0
    4.4698    2.1149    0.9289 H   0  0  0  0  0  0  0  0  0  0  0  0
    5.2526    1.6775    2.5119 H   0  0  0  0  0  0  0  0  0  0  0  0
    4.8605    0.1924   -1.8108 H   0  0  0  0  0  0  0  0  0  0  0  0
    7.2633   -0.3585   -1.9933 H   0  0  0  0  0  0  0  0  0  0  0  0
    8.3061   -1.9383   -0.3888 H   0  0  0  0  0  0  0  0  0  0  0  0
    6.9340   -2.9765    1.3989 H   0  0  0  0  0  0  0  0  0  0  0  0
    4.5297   -2.4416    1.5893 H   0  0  0  0  0  0  0  0  0  0  0  0
  1  2  1  0
  2  3  1  0
  3  4  1  0
  4  5  2  0
  4  6  1  0
  7  6  1  1
  7  8  1  0
  8  9  1  0
  9 10  1  0
 10 11  1  0
 11 12  1  0
 12 13  1  0
 13 14  1  0
 13 15  1  0
 11 16  1  0
  3 17  2  0
 17 18  1  0
 18 19  1  0
 19 20  1  0
 20 21  1  0
 18 22  1  0
 22 23  1  0
 23 24  2  0
 24 25  1  0
 25 26  2  0
 26 27  1  0
 27 28  2  0
 22  2  2  0
 28 23  1  0
 15  7  1  0
 21 19  1  0
 16  7  1  0
 14  9  1  0
  1 29  1  0
  1 30  1  0
  1 31  1  0
  6 32  1  0
  8 33  1  0
  8 34  1  0
  9 35  1  1
 10 36  1  0
 10 37  1  0
 11 38  1  6
 12 39  1  0
 12 40  1  0
 13 41  1  6
 14 42  1  0
 14 43  1  0
 15 44  1  0
 15 45  1  0
 16 46  1  0
 16 47  1  0
 19 48  1  0
 20 49  1  0
 20 50  1  0
 21 51  1  0
 21 52  1  0
 24 53  1  0
 25 54  1  0
 26 55  1  0
 27 56  1  0
 28 57  1  0
M  END
>  <_SMILES>  (44) 
Cc1c(C(=O)N[C@]23C[C@H]4C[C@H](C[C@H](C4)C2)C3)nn(C2CC2)c1-c1ccccc1

$$$$

     RDKit          3D

 59 63  0  0  0  0  0  0  0  0999 V2000
   -5.2675    3.7472   -0.0363 C   0  0  0  0  0  0  0  0  0  0  0  0
   -4.0753    2.8280    0.1721 C   0  0  0  0  0  0  0  0  0  0  0  0
   -3.9949    1.7660   -0.9209 C   0  0  0  0  0  0  0  0  0  0  0  0
   -2.8662    0.8695   -0.7301 N   0  0  0  0  0  0  0  0  0  0  0  0
   -1.6680    1.2374   -1.2128 N   0  0  0  0  0  0  0  0  0  0  0  0
   -0.8455    0.2197   -0.9087 C   0  0  0  0  0  0  0  0  0  0  0  0
    0.5853    0.2639   -1.2755 C   0  0  0  0  0  0  0  0  0  0  0  0
    0.9844    0.6857   -2.3560 O   0  0  0  0  0  0  0  0  0  0  0  0
    1.4278   -0.1886   -0.2725 N   0  0  0  0  0  0  0  0  0  0  0  0
    2.8907   -0.1473   -0.3326 C   0  0  2  0  0  0  0  0  0  0  0  0
    3.4463   -0.7756    0.9748 C   0  0  0  0  0  0  0  0  0  0  0  0
    4.9830   -0.7603    0.9862 C   0  0  1  0  0  0  0  0  0  0  0  0
    5.5033   -1.5666   -0.2134 C   0  0  0  0  0  0  0  0  0  0  0  0
    4.9864   -0.9501   -1.5223 C   0  0  2  0  0  0  0  0  0  0  0  0
    5.4728    0.5056   -1.6251 C   0  0  0  0  0  0  0  0  0  0  0  0
    4.9572    1.3225   -0.4280 C   0  0  2  0  0  0  0  0  0  0  0  0
    5.4733    0.6920    0.8752 C   0  0  0  0  0  0  0  0  0  0  0  0
    3.4183    1.3052   -0.4271 C   0  0  0  0  0  0  0  0  0  0  0  0
    3.4474   -0.9704   -1.5222 C   0  0  0  0  0  0  0  0  0  0  0  0
   -1.5536   -0.8155   -0.2139 C   0  0  0  0  0  0  0  0  0  0  0  0
   -1.0215   -2.1190    0.2619 C   0  0  0  0  0  0  0  0  0  0  0  0
   -2.8556   -0.3501   -0.1004 C   0  0  0  0  0  0  0  0  0  0  0  0
   -4.0228   -0.9679    0.5142 C   0  0  0  0  0  0  0  0  0  0  0  0
   -4.3291   -0.7158    1.8556 C   0  0  0  0  0  0  0  0  0  0  0  0
   -5.4496   -1.3062    2.4427 C   0  0  0  0  0  0  0  0  0  0  0  0
   -6.2650   -2.1535    1.6932 C   0  0  0  0  0  0  0  0  0  0  0  0
   -5.9605   -2.4140    0.3576 C   0  0  0  0  0  0  0  0  0  0  0  0
   -4.8407   -1.8241   -0.2311 C   0  0  0  0  0  0  0  0  0  0  0  0
   -6.2055    3.1833   -0.0147 H   0  0  0  0  0  0  0  0  0  0  0  0
   -5.3069    4.5024    0.7548 H   0  0  0  0  0  0  0  0  0  0  0  0
   -5.1996    4.2656   -0.9981 H   0  0  0  0  0  0  0  0  0  0  0  0
   -3.1557    3.4254    0.1841 H   0  0  0  0  0  0  0  0  0  0  0  0
   -4.1540    2.3534    1.1569 H   0  0  0  0  0  0  0  0  0  0  0  0
   -3.8769    2.2301   -1.9076 H   0  0  0  0  0  0  0  0  0  0  0  0
   -4.9095    1.1652   -0.9554 H   0  0  0  0  0  0  0  0  0  0  0  0
    1.0061   -0.2572    0.6440 H   0  0  0  0  0  0  0  0  0  0  0  0
    3.0669   -0.2277    1.8479 H   0  0  0  0  0  0  0  0  0  0  0  0
    3.0843   -1.8072    1.0809 H   0  0  0  0  0  0  0  0  0  0  0  0
    5.3508   -1.2045    1.9178 H   0  0  0  0  0  0  0  0  0  0  0  0
    6.6002   -1.5769   -0.2111 H   0  0  0  0  0  0  0  0  0  0  0  0
    5.1749   -2.6103   -0.1350 H   0  0  0  0  0  0  0  0  0  0  0  0
    5.3625   -1.5264   -2.3750 H   0  0  0  0  0  0  0  0  0  0  0  0
    6.5692    0.5321   -1.6510 H   0  0  0  0  0  0  0  0  0  0  0  0
    5.1216    0.9529   -2.5632 H   0  0  0  0  0  0  0  0  0  0  0  0
    5.3140    2.3557   -0.5045 H   0  0  0  0  0  0  0  0  0  0  0  0
    6.5696    0.7200    0.8966 H   0  0  0  0  0  0  0  0  0  0  0  0
    5.1232    1.2731    1.7371 H   0  0  0  0  0  0  0  0  0  0  0  0
    3.0388    1.9001    0.4140 H   0  0  0  0  0  0  0  0  0  0  0  0
    3.0537    1.7950   -1.3379 H   0  0  0  0  0  0  0  0  0  0  0  0
    3.0905   -0.5738   -2.4793 H   0  0  0  0  0  0  0  0  0  0  0  0
    3.0867   -2.0059   -1.4658 H   0  0  0  0  0  0  0  0  0  0  0  0
   -1.8115   -2.8733    0.3326 H   0  0  0  0  0  0  0  0  0  0  0  0
   -0.5703   -2.0057    1.2526 H   0  0  0  0  0  0  0  0  0  0  0  0
   -0.2626   -2.5081   -0.4244 H   0  0  0  0  0  0  0  0  0  0  0  0
   -3.6971   -0.0599    2.4497 H   0  0  0  0  0  0  0  0  0  0  0  0
   -5.6851   -1.1070    3.4850 H   0  0  0  0  0  0  0  0  0  0  0  0
   -7.1367   -2.6142    2.1513 H   0  0  0  0  0  0  0  0  0  0  0  0
   -6.5936   -3.0780   -0.2254 H   0  0  0  0  0  0  0  0  0  0  0  0
   -4.6087   -2.0360   -1.2725 H   0  0  0  0  0  0  0  0  0  0  0  0
  1  2  1  0
  2  3  1  0
  3  4  1  0
  4  5  1  0
  5  6  2  0
  6  7  1  0
  7  8  2  0
  7  9  1  0
 10  9  1  1
 10 11  1  0
 11 12  1  0
 12 13  1  0
 13 14  1  0
 14 15  1  0
 15 16  1  0
 16 17  1  0
 16 18  1  0
 14 19  1  0
  6 20  1  0
 20 21  1  0
 20 22  2  0
 22 23  1  0
 23 24  2  0
 24 25  1  0
 25 26  2  0
 26 27  1  0
 27 28  2  0
 22  4  1  0
 28 23  1  0
 18 10  1  0
 19 10  1  0
 17 12  1  0
  1 29  1  0
  1 30  1  0
  1 31  1  0
  2 32  1  0
  2 33  1  0
  3 34  1  0
  3 35  1  0
  9 36  1  0
 11 37  1  0
 11 38  1  0
 12 39  1  1
 13 40  1  0
 13 41  1  0
 14 42  1  6
 15 43  1  0
 15 44  1  0
 16 45  1  6
 17 46  1  0
 17 47  1  0
 18 48  1  0
 18 49  1  0
 19 50  1  0
 19 51  1  0
 21 52  1  0
 21 53  1  0
 21 54  1  0
 24 55  1  0
 25 56  1  0
 26 57  1  0
 27 58  1  0
 28 59  1  0
M  END
>  <_SMILES>  (45) 
CCCn1nc(C(=O)N[C@]23C[C@H]4C[C@H](C[C@H](C4)C2)C3)c(C)c1-c1ccccc1

$$$$

     RDKit          3D

 59 63  0  0  0  0  0  0  0  0999 V2000
   -1.0571    2.0584    0.4697 C   0  0  0  0  0  0  0  0  0  0  0  0
   -1.5942    0.6725    0.4612 C   0  0  0  0  0  0  0  0  0  0  0  0
   -0.8655   -0.5501    0.6244 C   0  0  0  0  0  0  0  0  0  0  0  0
    0.5912   -0.7337    0.7907 C   0  0  0  0  0  0  0  0  0  0  0  0
    1.0766   -1.5401    1.5774 O   0  0  0  0  0  0  0  0  0  0  0  0
    1.3493    0.0698   -0.0461 N   0  0  0  0  0  0  0  0  0  0  0  0
    2.8078    0.0068   -0.1637 C   0  0  2  0  0  0  0  0  0  0  0  0
    3.2582    1.0904   -1.1815 C   0  0  0  0  0  0  0  0  0  0  0  0
    4.7843    1.0787   -1.3626 C   0  0  1  0  0  0  0  0  0  0  0  0
    5.4541    1.3589   -0.0088 C   0  0  0  0  0  0  0  0  0  0  0  0
    5.0428    0.2856    1.0107 C   0  0  2  0  0  0  0  0  0  0  0  0
    5.4746   -1.0976    0.4944 C   0  0  0  0  0  0  0  0  0  0  0  0
    4.8093   -1.3884   -0.8617 C   0  0  2  0  0  0  0  0  0  0  0  0
    5.2209   -0.3044   -1.8706 C   0  0  0  0  0  0  0  0  0  0  0  0
    3.2799   -1.3703   -0.6909 C   0  0  0  0  0  0  0  0  0  0  0  0
    3.5136    0.3063    1.1835 C   0  0  0  0  0  0  0  0  0  0  0  0
   -1.6952   -1.6054    0.5998 N   0  0  0  0  0  0  0  0  0  0  0  0
   -2.9228   -1.0820    0.4288 N   0  0  0  0  0  0  0  0  0  0  0  0
   -4.0744   -1.9825    0.3775 C   0  0  0  0  0  0  0  0  0  0  0  0
   -4.2451   -2.7435    1.6924 C   0  0  0  0  0  0  0  0  0  0  0  0
   -3.9815   -2.9377   -0.8126 C   0  0  0  0  0  0  0  0  0  0  0  0
   -2.9195    0.2882    0.3180 C   0  0  0  0  0  0  0  0  0  0  0  0
   -4.1109    1.1026    0.1206 C   0  0  0  0  0  0  0  0  0  0  0  0
   -4.5488    1.4065   -1.1728 C   0  0  0  0  0  0  0  0  0  0  0  0
   -5.6929    2.1838   -1.3611 C   0  0  0  0  0  0  0  0  0  0  0  0
   -6.4007    2.6621   -0.2588 C   0  0  0  0  0  0  0  0  0  0  0  0
   -5.9654    2.3662    1.0327 C   0  0  0  0  0  0  0  0  0  0  0  0
   -4.8218    1.5890    1.2231 C   0  0  0  0  0  0  0  0  0  0  0  0
   -0.2177    2.1506    1.1661 H   0  0  0  0  0  0  0  0  0  0  0  0
   -0.7123    2.3376   -0.5308 H   0  0  0  0  0  0  0  0  0  0  0  0
   -1.8173    2.7816    0.7813 H   0  0  0  0  0  0  0  0  0  0  0  0
    0.8425    0.4871   -0.8153 H   0  0  0  0  0  0  0  0  0  0  0  0
    2.9317    2.0834   -0.8442 H   0  0  0  0  0  0  0  0  0  0  0  0
    2.7717    0.9224   -2.1518 H   0  0  0  0  0  0  0  0  0  0  0  0
    5.0771    1.8477   -2.0862 H   0  0  0  0  0  0  0  0  0  0  0  0
    6.5448    1.3680   -0.1247 H   0  0  0  0  0  0  0  0  0  0  0  0
    5.1643    2.3524    0.3549 H   0  0  0  0  0  0  0  0  0  0  0  0
    5.5253    0.4876    1.9736 H   0  0  0  0  0  0  0  0  0  0  0  0
    6.5661   -1.1334    0.3903 H   0  0  0  0  0  0  0  0  0  0  0  0
    5.1988   -1.8718    1.2208 H   0  0  0  0  0  0  0  0  0  0  0  0
    5.1277   -2.3715   -1.2262 H   0  0  0  0  0  0  0  0  0  0  0  0
    6.3076   -0.3234   -2.0185 H   0  0  0  0  0  0  0  0  0  0  0  0
    4.7632   -0.5074   -2.8466 H   0  0  0  0  0  0  0  0  0  0  0  0
    2.9863   -2.1732   -0.0043 H   0  0  0  0  0  0  0  0  0  0  0  0
    2.7945   -1.5939   -1.6499 H   0  0  0  0  0  0  0  0  0  0  0  0
    3.1934    1.2837    1.5676 H   0  0  0  0  0  0  0  0  0  0  0  0
    3.2361   -0.4286    1.9475 H   0  0  0  0  0  0  0  0  0  0  0  0
   -4.9670   -1.3641    0.2357 H   0  0  0  0  0  0  0  0  0  0  0  0
   -5.1577   -3.3484    1.6730 H   0  0  0  0  0  0  0  0  0  0  0  0
   -4.3174   -2.0500    2.5375 H   0  0  0  0  0  0  0  0  0  0  0  0
   -3.4009   -3.4150    1.8844 H   0  0  0  0  0  0  0  0  0  0  0  0
   -4.8878   -3.5474   -0.8902 H   0  0  0  0  0  0  0  0  0  0  0  0
   -3.8667   -2.3823   -1.7500 H   0  0  0  0  0  0  0  0  0  0  0  0
   -3.1266   -3.6167   -0.7213 H   0  0  0  0  0  0  0  0  0  0  0  0
   -4.0019    1.0402   -2.0384 H   0  0  0  0  0  0  0  0  0  0  0  0
   -6.0311    2.4178   -2.3673 H   0  0  0  0  0  0  0  0  0  0  0  0
   -7.2910    3.2685   -0.4061 H   0  0  0  0  0  0  0  0  0  0  0  0
   -6.5152    2.7423    1.8917 H   0  0  0  0  0  0  0  0  0  0  0  0
   -4.4873    1.3661    2.2338 H   0  0  0  0  0  0  0  0  0  0  0  0
  1  2  1  0
  2  3  1  0
  3  4  1  0
  4  5  2  0
  4  6  1  0
  7  6  1  1
  7  8  1  0
  8  9  1  0
  9 10  1  0
 10 11  1  0
 11 12  1  0
 12 13  1  0
 13 14  1  0
 13 15  1  0
 11 16  1  0
  3 17  2  0
 17 18  1  0
 18 19  1  0
 19 20  1  0
 19 21  1  0
 18 22  1  0
 22 23  1  0
 23 24  2  0
 24 25  1  0
 25 26  2  0
 26 27  1  0
 27 28  2  0
 22  2  2  0
 28 23  1  0
 15  7  1  0
 16  7  1  0
 14  9  1  0
  1 29  1  0
  1 30  1  0
  1 31  1  0
  6 32  1  0
  8 33  1  0
  8 34  1  0
  9 35  1  6
 10 36  1  0
 10 37  1  0
 11 38  1  1
 12 39  1  0
 12 40  1  0
 13 41  1  6
 14 42  1  0
 14 43  1  0
 15 44  1  0
 15 45  1  0
 16 46  1  0
 16 47  1  0
 19 48  1  0
 20 49  1  0
 20 50  1  0
 20 51  1  0
 21 52  1  0
 21 53  1  0
 21 54  1  0
 24 55  1  0
 25 56  1  0
 26 57  1  0
 27 58  1  0
 28 59  1  0
M  END
>  <_SMILES>  (46) 
Cc1c(C(=O)N[C@]23C[C@H]4C[C@H](C[C@H](C4)C2)C3)nn(C(C)C)c1-c1ccccc1

$$$$

     RDKit          3D

 62 66  0  0  0  0  0  0  0  0999 V2000
   -1.1054    3.3463   -0.4941 C   0  0  0  0  0  0  0  0  0  0  0  0
   -1.3891    1.9560   -0.0534 C   0  0  0  0  0  0  0  0  0  0  0  0
   -0.4348    0.9135    0.1447 C   0  0  0  0  0  0  0  0  0  0  0  0
    1.0288    0.9737   -0.0471 C   0  0  0  0  0  0  0  0  0  0  0  0
    1.6140    1.9834   -0.4236 O   0  0  0  0  0  0  0  0  0  0  0  0
    1.6472   -0.2239    0.2406 N   0  0  0  0  0  0  0  0  0  0  0  0
    3.0751   -0.5050    0.1465 C   0  0  2  0  0  0  0  0  0  0  0  0
    3.5963   -0.3301   -1.3013 C   0  0  0  0  0  0  0  0  0  0  0  0
    5.0930   -0.6789   -1.3836 C   0  0  1  0  0  0  0  0  0  0  0  0
    5.8802    0.2427   -0.4365 C   0  0  0  0  0  0  0  0  0  0  0  0
    5.3956    0.0528    1.0110 C   0  0  2  0  0  0  0  0  0  0  0  0
    5.5992   -1.4130    1.4255 C   0  0  0  0  0  0  0  0  0  0  0  0
    4.8081   -2.3383    0.4877 C   0  0  2  0  0  0  0  0  0  0  0  0
    5.2983   -2.1405   -0.9552 C   0  0  0  0  0  0  0  0  0  0  0  0
    3.3157   -1.9794    0.5668 C   0  0  0  0  0  0  0  0  0  0  0  0
    3.8991    0.4018    1.0938 C   0  0  0  0  0  0  0  0  0  0  0  0
   -1.0331   -0.2232    0.5565 N   0  0  0  0  0  0  0  0  0  0  0  0
   -2.3443    0.0860    0.5973 N   0  0  0  0  0  0  0  0  0  0  0  0
   -3.2905   -0.9459    0.9929 C   0  0  0  0  0  0  0  0  0  0  0  0
   -3.9778   -1.6459   -0.1913 C   0  0  0  0  0  0  0  0  0  0  0  0
   -2.9934   -2.4753   -1.0188 C   0  0  0  0  0  0  0  0  0  0  0  0
   -5.1060   -2.5418    0.3233 C   0  0  0  0  0  0  0  0  0  0  0  0
   -2.6160    1.3900    0.2597 C   0  0  0  0  0  0  0  0  0  0  0  0
   -3.9511    1.9749    0.2383 C   0  0  0  0  0  0  0  0  0  0  0  0
   -4.6289    2.1354   -0.9751 C   0  0  0  0  0  0  0  0  0  0  0  0
   -5.9084    2.6930   -0.9975 C   0  0  0  0  0  0  0  0  0  0  0  0
   -6.5132    3.0988    0.1915 C   0  0  0  0  0  0  0  0  0  0  0  0
   -5.8387    2.9518    1.4030 C   0  0  0  0  0  0  0  0  0  0  0  0
   -4.5593    2.3938    1.4268 C   0  0  0  0  0  0  0  0  0  0  0  0
   -0.6681    3.3463   -1.4977 H   0  0  0  0  0  0  0  0  0  0  0  0
   -2.0119    3.9583   -0.5247 H   0  0  0  0  0  0  0  0  0  0  0  0
   -0.4033    3.8298    0.1927 H   0  0  0  0  0  0  0  0  0  0  0  0
    1.0005   -0.9537    0.5340 H   0  0  0  0  0  0  0  0  0  0  0  0
    3.0256   -0.9692   -1.9878 H   0  0  0  0  0  0  0  0  0  0  0  0
    3.4495    0.6998   -1.6480 H   0  0  0  0  0  0  0  0  0  0  0  0
    5.4474   -0.5423   -2.4114 H   0  0  0  0  0  0  0  0  0  0  0  0
    6.9522    0.0200   -0.5039 H   0  0  0  0  0  0  0  0  0  0  0  0
    5.7529    1.2891   -0.7401 H   0  0  0  0  0  0  0  0  0  0  0  0
    5.9646    0.7079    1.6801 H   0  0  0  0  0  0  0  0  0  0  0  0
    5.2703   -1.5588    2.4617 H   0  0  0  0  0  0  0  0  0  0  0  0
    6.6657   -1.6676    1.3912 H   0  0  0  0  0  0  0  0  0  0  0  0
    4.9543   -3.3818    0.7881 H   0  0  0  0  0  0  0  0  0  0  0  0
    6.3595   -2.4077   -1.0305 H   0  0  0  0  0  0  0  0  0  0  0  0
    4.7527   -2.8097   -1.6319 H   0  0  0  0  0  0  0  0  0  0  0  0
    2.7381   -2.6549   -0.0786 H   0  0  0  0  0  0  0  0  0  0  0  0
    2.9488   -2.1453    1.5886 H   0  0  0  0  0  0  0  0  0  0  0  0
    3.7640    1.4595    0.8383 H   0  0  0  0  0  0  0  0  0  0  0  0
    3.5457    0.2882    2.1271 H   0  0  0  0  0  0  0  0  0  0  0  0
   -2.7470   -1.6709    1.6121 H   0  0  0  0  0  0  0  0  0  0  0  0
   -4.0300   -0.4711    1.6471 H   0  0  0  0  0  0  0  0  0  0  0  0
   -4.4230   -0.8940   -0.8536 H   0  0  0  0  0  0  0  0  0  0  0  0
   -2.2335   -1.8404   -1.4849 H   0  0  0  0  0  0  0  0  0  0  0  0
   -2.4831   -3.2210   -0.3999 H   0  0  0  0  0  0  0  0  0  0  0  0
   -3.5139   -3.0044   -1.8243 H   0  0  0  0  0  0  0  0  0  0  0  0
   -4.7218   -3.3229    0.9882 H   0  0  0  0  0  0  0  0  0  0  0  0
   -5.6262   -3.0295   -0.5079 H   0  0  0  0  0  0  0  0  0  0  0  0
   -5.8449   -1.9552    0.8796 H   0  0  0  0  0  0  0  0  0  0  0  0
   -4.1632    1.8264   -1.9082 H   0  0  0  0  0  0  0  0  0  0  0  0
   -6.4308    2.8145   -1.9429 H   0  0  0  0  0  0  0  0  0  0  0  0
   -7.5082    3.5365    0.1730 H   0  0  0  0  0  0  0  0  0  0  0  0
   -6.3064    3.2774    2.3286 H   0  0  0  0  0  0  0  0  0  0  0  0
   -4.0371    2.2945    2.3756 H   0  0  0  0  0  0  0  0  0  0  0  0
  1  2  1  0
  2  3  1  0
  3  4  1  0
  4  5  2  0
  4  6  1  0
  7  6  1  6
  7  8  1  0
  8  9  1  0
  9 10  1  0
 10 11  1  0
 11 12  1  0
 12 13  1  0
 13 14  1  0
 13 15  1  0
 11 16  1  0
  3 17  2  0
 17 18  1  0
 18 19  1  0
 19 20  1  0
 20 21  1  0
 20 22  1  0
 18 23  1  0
 23 24  1  0
 24 25  2  0
 25 26  1  0
 26 27  2  0
 27 28  1  0
 28 29  2  0
 23  2  2  0
 29 24  1  0
 15  7  1  0
 16  7  1  0
 14  9  1  0
  1 30  1  0
  1 31  1  0
  1 32  1  0
  6 33  1  0
  8 34  1  0
  8 35  1  0
  9 36  1  6
 10 37  1  0
 10 38  1  0
 11 39  1  1
 12 40  1  0
 12 41  1  0
 13 42  1  1
 14 43  1  0
 14 44  1  0
 15 45  1  0
 15 46  1  0
 16 47  1  0
 16 48  1  0
 19 49  1  0
 19 50  1  0
 20 51  1  0
 21 52  1  0
 21 53  1  0
 21 54  1  0
 22 55  1  0
 22 56  1  0
 22 57  1  0
 25 58  1  0
 26 59  1  0
 27 60  1  0
 28 61  1  0
 29 62  1  0
M  END
>  <_SMILES>  (47) 
Cc1c(C(=O)N[C@]23C[C@H]4C[C@H](C[C@H](C4)C2)C3)nn(CC(C)C)c1-c1ccccc1

$$$$

     RDKit          3D

 56 60  0  0  0  0  0  0  0  0999 V2000
   -4.1703   -2.8000   -1.8703 C   0  0  0  0  0  0  0  0  0  0  0  0
   -4.0192   -1.3639   -2.3398 C   0  0  0  0  0  0  0  0  0  0  0  0
   -2.9831   -0.6532   -1.6106 N   0  0  0  0  0  0  0  0  0  0  0  0
   -1.7126   -0.7661   -2.0318 N   0  0  0  0  0  0  0  0  0  0  0  0
   -1.0001    0.0036   -1.1924 C   0  0  0  0  0  0  0  0  0  0  0  0
    0.4656    0.1269   -1.3339 C   0  0  0  0  0  0  0  0  0  0  0  0
    1.0242    0.2367   -2.4206 O   0  0  0  0  0  0  0  0  0  0  0  0
    1.1442    0.0772   -0.1267 N   0  0  0  0  0  0  0  0  0  0  0  0
    2.6026    0.0649    0.0086 C   0  0  2  0  0  0  0  0  0  0  0  0
    3.2273   -1.1899   -0.6489 C   0  0  0  0  0  0  0  0  0  0  0  0
    4.7519   -1.2075   -0.4399 C   0  0  1  0  0  0  0  0  0  0  0  0
    5.3635    0.0605   -1.0599 C   0  0  0  0  0  0  0  0  0  0  0  0
    4.7783    1.3143   -0.3877 C   0  0  2  0  0  0  0  0  0  0  0  0
    5.0855    1.2736    1.1171 C   0  0  0  0  0  0  0  0  0  0  0  0
    4.4683    0.0138    1.7433 C   0  0  2  0  0  0  0  0  0  0  0  0
    5.0582   -1.2332    1.0660 C   0  0  0  0  0  0  0  0  0  0  0  0
    2.9475    0.0353    1.5229 C   0  0  0  0  0  0  0  0  0  0  0  0
    3.2535    1.3350   -0.5961 C   0  0  0  0  0  0  0  0  0  0  0  0
   -1.8537    0.6157   -0.2165 C   0  0  0  0  0  0  0  0  0  0  0  0
   -1.4682    1.5638    0.8612 C   0  0  0  0  0  0  0  0  0  0  0  0
   -3.1282    0.1516   -0.5081 C   0  0  0  0  0  0  0  0  0  0  0  0
   -4.3997    0.4288    0.1462 C   0  0  0  0  0  0  0  0  0  0  0  0
   -4.8588   -0.4013    1.1742 C   0  0  0  0  0  0  0  0  0  0  0  0
   -6.0782   -0.1352    1.7996 C   0  0  0  0  0  0  0  0  0  0  0  0
   -6.8406    0.9630    1.4031 C   0  0  0  0  0  0  0  0  0  0  0  0
   -6.3846    1.7979    0.3835 C   0  0  0  0  0  0  0  0  0  0  0  0
   -5.1657    1.5330   -0.2431 C   0  0  0  0  0  0  0  0  0  0  0  0
   -3.2373   -3.3586   -2.0004 H   0  0  0  0  0  0  0  0  0  0  0  0
   -4.9531   -3.3061   -2.4436 H   0  0  0  0  0  0  0  0  0  0  0  0
   -4.4402   -2.8455   -0.8105 H   0  0  0  0  0  0  0  0  0  0  0  0
   -3.7516   -1.3343   -3.4023 H   0  0  0  0  0  0  0  0  0  0  0  0
   -4.9614   -0.8190   -2.2276 H   0  0  0  0  0  0  0  0  0  0  0  0
    0.6060   -0.2739    0.6542 H   0  0  0  0  0  0  0  0  0  0  0  0
    3.0124   -1.2158   -1.7239 H   0  0  0  0  0  0  0  0  0  0  0  0
    2.7818   -2.0995   -0.2251 H   0  0  0  0  0  0  0  0  0  0  0  0
    5.1791   -2.0958   -0.9185 H   0  0  0  0  0  0  0  0  0  0  0  0
    5.1627    0.0848   -2.1380 H   0  0  0  0  0  0  0  0  0  0  0  0
    6.4538    0.0466   -0.9396 H   0  0  0  0  0  0  0  0  0  0  0  0
    5.2230    2.2126   -0.8306 H   0  0  0  0  0  0  0  0  0  0  0  0
    6.1705    1.2798    1.2788 H   0  0  0  0  0  0  0  0  0  0  0  0
    4.6855    2.1703    1.6060 H   0  0  0  0  0  0  0  0  0  0  0  0
    4.6866   -0.0103    2.8167 H   0  0  0  0  0  0  0  0  0  0  0  0
    4.6383   -2.1400    1.5185 H   0  0  0  0  0  0  0  0  0  0  0  0
    6.1425   -1.2697    1.2273 H   0  0  0  0  0  0  0  0  0  0  0  0
    2.5115    0.9088    2.0261 H   0  0  0  0  0  0  0  0  0  0  0  0
    2.4952   -0.8468    1.9959 H   0  0  0  0  0  0  0  0  0  0  0  0
    3.0464    1.4131   -1.6693 H   0  0  0  0  0  0  0  0  0  0  0  0
    2.8248    2.2344   -0.1348 H   0  0  0  0  0  0  0  0  0  0  0  0
   -0.6539    2.2190    0.5358 H   0  0  0  0  0  0  0  0  0  0  0  0
   -2.3060    2.2068    1.1488 H   0  0  0  0  0  0  0  0  0  0  0  0
   -1.1404    1.0152    1.7498 H   0  0  0  0  0  0  0  0  0  0  0  0
   -4.2695   -1.2576    1.4936 H   0  0  0  0  0  0  0  0  0  0  0  0
   -6.4322   -0.7831    2.5973 H   0  0  0  0  0  0  0  0  0  0  0  0
   -7.7895    1.1707    1.8915 H   0  0  0  0  0  0  0  0  0  0  0  0
   -6.9768    2.6565    0.0776 H   0  0  0  0  0  0  0  0  0  0  0  0
   -4.8159    2.1921   -1.0346 H   0  0  0  0  0  0  0  0  0  0  0  0
  1  2  1  0
  2  3  1  0
  3  4  1  0
  4  5  2  0
  5  6  1  0
  6  7  2  0
  6  8  1  0
  9  8  1  1
  9 10  1  0
 10 11  1  0
 11 12  1  0
 12 13  1  0
 13 14  1  0
 14 15  1  0
 15 16  1  0
 15 17  1  0
 13 18  1  0
  5 19  1  0
 19 20  1  0
 19 21  2  0
 21 22  1  0
 22 23  2  0
 23 24  1  0
 24 25  2  0
 25 26  1  0
 26 27  2  0
 21  3  1  0
 27 22  1  0
 17  9  1  0
 18  9  1  0
 16 11  1  0
  1 28  1  0
  1 29  1  0
  1 30  1  0
  2 31  1  0
  2 32  1  0
  8 33  1  0
 10 34  1  0
 10 35  1  0
 11 36  1  6
 12 37  1  0
 12 38  1  0
 13 39  1  6
 14 40  1  0
 14 41  1  0
 15 42  1  1
 16 43  1  0
 16 44  1  0
 17 45  1  0
 17 46  1  0
 18 47  1  0
 18 48  1  0
 20 49  1  0
 20 50  1  0
 20 51  1  0
 23 52  1  0
 24 53  1  0
 25 54  1  0
 26 55  1  0
 27 56  1  0
M  END
>  <_SMILES>  (48) 
CCn1nc(C(=O)N[C@]23C[C@H]4C[C@H](C[C@H](C4)C2)C3)c(C)c1-c1ccccc1

$$$$

     RDKit          3D

 52 55  0  0  0  0  0  0  0  0999 V2000
    0.5787   -0.2312    1.5254 C   0  0  0  0  0  0  0  0  0  0  0  0
   -0.3107   -0.0489    0.3489 C   0  0  0  0  0  0  0  0  0  0  0  0
    0.0317    0.4980   -0.9314 C   0  0  0  0  0  0  0  0  0  0  0  0
    1.3490    0.9634   -1.4083 C   0  0  0  0  0  0  0  0  0  0  0  0
    1.5054    1.9835   -2.0742 O   0  0  0  0  0  0  0  0  0  0  0  0
    2.4006    0.1316   -1.0614 N   0  0  0  0  0  0  0  0  0  0  0  0
    3.7709    0.4037   -1.4725 C   0  0  0  0  0  0  0  0  0  0  0  0
    4.4153    1.4830   -0.5897 C   0  0  0  0  0  0  0  0  0  0  0  0
    4.7215    0.9818    0.8213 C   0  0  0  0  0  0  0  0  0  0  0  0
    5.5668   -0.2873    0.7968 C   0  0  0  0  0  0  0  0  0  0  0  0
    4.9220   -1.3776   -0.0525 C   0  0  0  0  0  0  0  0  0  0  0  0
    4.6079   -0.8827   -1.4644 C   0  0  0  0  0  0  0  0  0  0  0  0
   -1.0450    0.5442   -1.7328 N   0  0  0  0  0  0  0  0  0  0  0  0
   -2.0529    0.0530   -0.9894 N   0  0  0  0  0  0  0  0  0  0  0  0
   -3.3900   -0.0079   -1.5740 C   0  0  0  0  0  0  0  0  0  0  0  0
   -4.2144    1.1991   -1.2308 C   0  0  0  0  0  0  0  0  0  0  0  0
   -5.3171    1.6520   -2.1555 C   0  0  0  0  0  0  0  0  0  0  0  0
   -4.0693    2.4793   -2.0144 C   0  0  0  0  0  0  0  0  0  0  0  0
   -1.6622   -0.3525    0.2642 C   0  0  0  0  0  0  0  0  0  0  0  0
   -2.5577   -0.9316    1.2571 C   0  0  0  0  0  0  0  0  0  0  0  0
   -3.1245   -0.1251    2.2499 C   0  0  0  0  0  0  0  0  0  0  0  0
   -3.9829   -0.6797    3.2006 C   0  0  0  0  0  0  0  0  0  0  0  0
   -4.2742   -2.0428    3.1661 C   0  0  0  0  0  0  0  0  0  0  0  0
   -3.7060   -2.8534    2.1840 C   0  0  0  0  0  0  0  0  0  0  0  0
   -2.8476   -2.3002    1.2323 C   0  0  0  0  0  0  0  0  0  0  0  0
    0.0102   -0.2670    2.4598 H   0  0  0  0  0  0  0  0  0  0  0  0
    1.1419   -1.1653    1.4362 H   0  0  0  0  0  0  0  0  0  0  0  0
    1.2875    0.5983    1.6098 H   0  0  0  0  0  0  0  0  0  0  0  0
    2.1779   -0.7569   -0.6355 H   0  0  0  0  0  0  0  0  0  0  0  0
    3.7265    0.7806   -2.5020 H   0  0  0  0  0  0  0  0  0  0  0  0
    5.3533    1.8082   -1.0578 H   0  0  0  0  0  0  0  0  0  0  0  0
    3.7727    2.3687   -0.5259 H   0  0  0  0  0  0  0  0  0  0  0  0
    3.7852    0.7876    1.3573 H   0  0  0  0  0  0  0  0  0  0  0  0
    5.2495    1.7627    1.3802 H   0  0  0  0  0  0  0  0  0  0  0  0
    5.7122   -0.6537    1.8192 H   0  0  0  0  0  0  0  0  0  0  0  0
    6.5615   -0.0547    0.3969 H   0  0  0  0  0  0  0  0  0  0  0  0
    5.5928   -2.2425   -0.1093 H   0  0  0  0  0  0  0  0  0  0  0  0
    4.0024   -1.7238    0.4343 H   0  0  0  0  0  0  0  0  0  0  0  0
    5.5538   -0.6926   -1.9877 H   0  0  0  0  0  0  0  0  0  0  0  0
    4.0923   -1.6749   -2.0205 H   0  0  0  0  0  0  0  0  0  0  0  0
   -3.8772   -0.9183   -1.2110 H   0  0  0  0  0  0  0  0  0  0  0  0
   -3.2644   -0.1194   -2.6580 H   0  0  0  0  0  0  0  0  0  0  0  0
   -4.3978    1.2800   -0.1655 H   0  0  0  0  0  0  0  0  0  0  0  0
   -6.2293    2.0334   -1.7103 H   0  0  0  0  0  0  0  0  0  0  0  0
   -5.4679    1.1263   -3.0916 H   0  0  0  0  0  0  0  0  0  0  0  0
   -4.1318    3.4150   -1.4704 H   0  0  0  0  0  0  0  0  0  0  0  0
   -3.3667    2.4998   -2.8414 H   0  0  0  0  0  0  0  0  0  0  0  0
   -2.9006    0.9389    2.2862 H   0  0  0  0  0  0  0  0  0  0  0  0
   -4.4225   -0.0484    3.9686 H   0  0  0  0  0  0  0  0  0  0  0  0
   -4.9420   -2.4743    3.9077 H   0  0  0  0  0  0  0  0  0  0  0  0
   -3.9296   -3.9169    2.1609 H   0  0  0  0  0  0  0  0  0  0  0  0
   -2.4051   -2.9422    0.4742 H   0  0  0  0  0  0  0  0  0  0  0  0
  1  2  1  0
  2  3  1  0
  3  4  1  0
  4  5  2  0
  4  6  1  0
  6  7  1  0
  7  8  1  0
  8  9  1  0
  9 10  1  0
 10 11  1  0
 11 12  1  0
  3 13  2  0
 13 14  1  0
 14 15  1  0
 15 16  1  0
 16 17  1  0
 17 18  1  0
 14 19  1  0
 19 20  1  0
 20 21  2  0
 21 22  1  0
 22 23  2  0
 23 24  1  0
 24 25  2  0
 19  2  2  0
 25 20  1  0
 12  7  1  0
 18 16  1  0
  1 26  1  0
  1 27  1  0
  1 28  1  0
  6 29  1  0
  7 30  1  0
  8 31  1  0
  8 32  1  0
  9 33  1  0
  9 34  1  0
 10 35  1  0
 10 36  1  0
 11 37  1  0
 11 38  1  0
 12 39  1  0
 12 40  1  0
 15 41  1  0
 15 42  1  0
 16 43  1  0
 17 44  1  0
 17 45  1  0
 18 46  1  0
 18 47  1  0
 21 48  1  0
 22 49  1  0
 23 50  1  0
 24 51  1  0
 25 52  1  0
M  END
>  <_SMILES>  (49) 
Cc1c(C(=O)NC2CCCCC2)nn(CC2CC2)c1-c1ccccc1

$$$$

     RDKit          3D

 43 46  0  0  0  0  0  0  0  0999 V2000
    1.2134   -1.1927    1.6455 C   0  0  0  0  0  0  0  0  0  0  0  0
    0.5728   -0.1220    0.8375 C   0  0  0  0  0  0  0  0  0  0  0  0
    1.2115    0.9675    0.1593 C   0  0  0  0  0  0  0  0  0  0  0  0
    2.6539    1.2617    0.0546 C   0  0  0  0  0  0  0  0  0  0  0  0
    3.1229    2.3931    0.1547 O   0  0  0  0  0  0  0  0  0  0  0  0
    3.4346    0.1414   -0.1936 N   0  0  0  0  0  0  0  0  0  0  0  0
    4.8457    0.2230   -0.3891 C   0  0  0  0  0  0  0  0  0  0  0  0
    5.7879   -0.0863    0.7407 C   0  0  0  0  0  0  0  0  0  0  0  0
    5.6864   -1.0239   -0.4260 C   0  0  0  0  0  0  0  0  0  0  0  0
    0.3016    1.7625   -0.4268 N   0  0  0  0  0  0  0  0  0  0  0  0
   -0.8865    1.1945   -0.1502 N   0  0  0  0  0  0  0  0  0  0  0  0
   -2.1012    1.8276   -0.6569 C   0  0  0  0  0  0  0  0  0  0  0  0
   -2.5497    1.2309   -1.9599 C   0  0  0  0  0  0  0  0  0  0  0  0
   -3.3546    2.0563   -2.9329 C   0  0  0  0  0  0  0  0  0  0  0  0
   -1.9374    1.6771   -3.2637 C   0  0  0  0  0  0  0  0  0  0  0  0
   -0.7843    0.0526    0.6073 C   0  0  0  0  0  0  0  0  0  0  0  0
   -1.9186   -0.7496    1.0469 C   0  0  0  0  0  0  0  0  0  0  0  0
   -2.2722   -1.9088    0.3480 C   0  0  0  0  0  0  0  0  0  0  0  0
   -3.3575   -2.6791    0.7689 C   0  0  0  0  0  0  0  0  0  0  0  0
   -4.0893   -2.2979    1.8930 C   0  0  0  0  0  0  0  0  0  0  0  0
   -3.7358   -1.1488    2.5992 C   0  0  0  0  0  0  0  0  0  0  0  0
   -2.6512   -0.3769    2.1792 C   0  0  0  0  0  0  0  0  0  0  0  0
    2.0995   -0.8163    2.1663 H   0  0  0  0  0  0  0  0  0  0  0  0
    0.5307   -1.5817    2.4076 H   0  0  0  0  0  0  0  0  0  0  0  0
    1.5148   -2.0248    1.0015 H   0  0  0  0  0  0  0  0  0  0  0  0
    2.9574   -0.7089   -0.4621 H   0  0  0  0  0  0  0  0  0  0  0  0
    5.1380    1.0277   -1.0620 H   0  0  0  0  0  0  0  0  0  0  0  0
    6.6769    0.5274    0.8316 H   0  0  0  0  0  0  0  0  0  0  0  0
    5.3676   -0.3984    1.6893 H   0  0  0  0  0  0  0  0  0  0  0  0
    5.2110   -1.9830   -0.2612 H   0  0  0  0  0  0  0  0  0  0  0  0
    6.5142   -1.0530   -1.1255 H   0  0  0  0  0  0  0  0  0  0  0  0
   -1.8921    2.9002   -0.7517 H   0  0  0  0  0  0  0  0  0  0  0  0
   -2.8819    1.7176    0.1022 H   0  0  0  0  0  0  0  0  0  0  0  0
   -2.8182    0.1854   -1.8602 H   0  0  0  0  0  0  0  0  0  0  0  0
   -3.5555    3.0961   -2.6998 H   0  0  0  0  0  0  0  0  0  0  0  0
   -4.1511    1.5641   -3.4798 H   0  0  0  0  0  0  0  0  0  0  0  0
   -1.7735    0.9274   -4.0294 H   0  0  0  0  0  0  0  0  0  0  0  0
   -1.1785    2.4526   -3.2381 H   0  0  0  0  0  0  0  0  0  0  0  0
   -1.7066   -2.2155   -0.5287 H   0  0  0  0  0  0  0  0  0  0  0  0
   -3.6310   -3.5774    0.2212 H   0  0  0  0  0  0  0  0  0  0  0  0
   -4.9335   -2.8992    2.2214 H   0  0  0  0  0  0  0  0  0  0  0  0
   -4.3023   -0.8555    3.4794 H   0  0  0  0  0  0  0  0  0  0  0  0
   -2.3782    0.5128    2.7423 H   0  0  0  0  0  0  0  0  0  0  0  0
  1  2  1  0
  2  3  1  0
  3  4  1  0
  4  5  2  0
  4  6  1  0
  6  7  1  0
  7  8  1  0
  8  9  1  0
  3 10  2  0
 10 11  1  0
 11 12  1  0
 12 13  1  0
 13 14  1  0
 14 15  1  0
 11 16  1  0
 16 17  1  0
 17 18  2  0
 18 19  1  0
 19 20  2  0
 20 21  1  0
 21 22  2  0
 16  2  2  0
 22 17  1  0
  9  7  1  0
 15 13  1  0
  1 23  1  0
  1 24  1  0
  1 25  1  0
  6 26  1  0
  7 27  1  0
  8 28  1  0
  8 29  1  0
  9 30  1  0
  9 31  1  0
 12 32  1  0
 12 33  1  0
 13 34  1  0
 14 35  1  0
 14 36  1  0
 15 37  1  0
 15 38  1  0
 18 39  1  0
 19 40  1  0
 20 41  1  0
 21 42  1  0
 22 43  1  0
M  END
>  <_SMILES>  (50) 
Cc1c(C(=O)NC2CC2)nn(CC2CC2)c1-c1ccccc1

$$$$

     RDKit          3D

 62 66  0  0  0  0  0  0  0  0999 V2000
   -3.7860    3.0775    2.2558 C   0  0  0  0  0  0  0  0  0  0  0  0
   -3.0347    2.4252    1.1054 C   0  0  0  0  0  0  0  0  0  0  0  0
   -3.9937    1.7318    0.1353 C   0  0  0  0  0  0  0  0  0  0  0  0
   -3.2887    1.1432   -1.0882 C   0  0  0  0  0  0  0  0  0  0  0  0
   -2.3919    0.0423   -0.7794 N   0  0  0  0  0  0  0  0  0  0  0  0
   -1.0741    0.2998   -0.6616 N   0  0  0  0  0  0  0  0  0  0  0  0
   -0.5264   -0.8946   -0.3565 C   0  0  0  0  0  0  0  0  0  0  0  0
    0.9267   -1.0255   -0.1240 C   0  0  0  0  0  0  0  0  0  0  0  0
    1.4664   -2.0893    0.1597 O   0  0  0  0  0  0  0  0  0  0  0  0
    1.5915    0.1742   -0.2589 N   0  0  0  0  0  0  0  0  0  0  0  0
    3.0227    0.3946   -0.0857 C   0  0  2  0  0  0  0  0  0  0  0  0
    3.8543   -0.4331   -1.0966 C   0  0  0  0  0  0  0  0  0  0  0  0
    5.3565   -0.1464   -0.9249 C   0  0  1  0  0  0  0  0  0  0  0  0
    5.6200    1.3476   -1.1710 C   0  0  0  0  0  0  0  0  0  0  0  0
    4.8221    2.1936   -0.1664 C   0  0  2  0  0  0  0  0  0  0  0  0
    5.2508    1.8258    1.2627 C   0  0  0  0  0  0  0  0  0  0  0  0
    4.9853    0.3346    1.5229 C   0  0  2  0  0  0  0  0  0  0  0  0
    5.7797   -0.5067    0.5094 C   0  0  0  0  0  0  0  0  0  0  0  0
    3.4830    0.0480    1.3518 C   0  0  0  0  0  0  0  0  0  0  0  0
    3.3236    1.8965   -0.3354 C   0  0  0  0  0  0  0  0  0  0  0  0
   -1.5189   -1.9186   -0.3042 C   0  0  0  0  0  0  0  0  0  0  0  0
   -1.2944   -3.3572   -0.0078 C   0  0  0  0  0  0  0  0  0  0  0  0
   -2.7157   -1.2800   -0.5936 C   0  0  0  0  0  0  0  0  0  0  0  0
   -4.0679   -1.8179   -0.6778 C   0  0  0  0  0  0  0  0  0  0  0  0
   -4.6455   -2.0888   -1.9231 C   0  0  0  0  0  0  0  0  0  0  0  0
   -5.9406   -2.6042   -2.0000 C   0  0  0  0  0  0  0  0  0  0  0  0
   -6.6616   -2.8560   -0.8334 C   0  0  0  0  0  0  0  0  0  0  0  0
   -6.0879   -2.5978    0.4109 C   0  0  0  0  0  0  0  0  0  0  0  0
   -4.7927   -2.0831    0.4893 C   0  0  0  0  0  0  0  0  0  0  0  0
   -4.3533    2.3342    2.8249 H   0  0  0  0  0  0  0  0  0  0  0  0
   -3.0835    3.5650    2.9390 H   0  0  0  0  0  0  0  0  0  0  0  0
   -4.4843    3.8363    1.8886 H   0  0  0  0  0  0  0  0  0  0  0  0
   -2.4553    3.1897    0.5750 H   0  0  0  0  0  0  0  0  0  0  0  0
   -2.3224    1.7021    1.5174 H   0  0  0  0  0  0  0  0  0  0  0  0
   -4.7345    2.4607   -0.2159 H   0  0  0  0  0  0  0  0  0  0  0  0
   -4.5474    0.9501    0.6676 H   0  0  0  0  0  0  0  0  0  0  0  0
   -2.7043    1.9143   -1.6047 H   0  0  0  0  0  0  0  0  0  0  0  0
   -4.0276    0.7751   -1.8077 H   0  0  0  0  0  0  0  0  0  0  0  0
    0.9786    0.9533   -0.4916 H   0  0  0  0  0  0  0  0  0  0  0  0
    3.6777   -1.5069   -0.9620 H   0  0  0  0  0  0  0  0  0  0  0  0
    3.5440   -0.1975   -2.1232 H   0  0  0  0  0  0  0  0  0  0  0  0
    5.9304   -0.7452   -1.6409 H   0  0  0  0  0  0  0  0  0  0  0  0
    6.6915    1.5604   -1.0725 H   0  0  0  0  0  0  0  0  0  0  0  0
    5.3352    1.6146   -2.1961 H   0  0  0  0  0  0  0  0  0  0  0  0
    5.0111    3.2577   -0.3468 H   0  0  0  0  0  0  0  0  0  0  0  0
    4.7005    2.4369    1.9886 H   0  0  0  0  0  0  0  0  0  0  0  0
    6.3161    2.0469    1.4031 H   0  0  0  0  0  0  0  0  0  0  0  0
    5.2961    0.0766    2.5415 H   0  0  0  0  0  0  0  0  0  0  0  0
    5.6093   -1.5746    0.6934 H   0  0  0  0  0  0  0  0  0  0  0  0
    6.8546   -0.3292    0.6375 H   0  0  0  0  0  0  0  0  0  0  0  0
    2.9062    0.6290    2.0833 H   0  0  0  0  0  0  0  0  0  0  0  0
    3.2919   -1.0075    1.5796 H   0  0  0  0  0  0  0  0  0  0  0  0
    3.0010    2.1832   -1.3453 H   0  0  0  0  0  0  0  0  0  0  0  0
    2.7426    2.5183    0.3590 H   0  0  0  0  0  0  0  0  0  0  0  0
   -0.5824   -3.7880   -0.7191 H   0  0  0  0  0  0  0  0  0  0  0  0
   -0.8948   -3.4800    1.0039 H   0  0  0  0  0  0  0  0  0  0  0  0
   -2.2197   -3.9374   -0.0743 H   0  0  0  0  0  0  0  0  0  0  0  0
   -4.0871   -1.9075   -2.8387 H   0  0  0  0  0  0  0  0  0  0  0  0
   -6.3844   -2.8149   -2.9696 H   0  0  0  0  0  0  0  0  0  0  0  0
   -7.6689   -3.2605   -0.8936 H   0  0  0  0  0  0  0  0  0  0  0  0
   -6.6468   -2.8011    1.3207 H   0  0  0  0  0  0  0  0  0  0  0  0
   -4.3515   -1.8897    1.4645 H   0  0  0  0  0  0  0  0  0  0  0  0
  1  2  1  0
  2  3  1  0
  3  4  1  0
  4  5  1  0
  5  6  1  0
  6  7  2  0
  7  8  1  0
  8  9  2  0
  8 10  1  0
 11 10  1  1
 11 12  1  0
 12 13  1  0
 13 14  1  0
 14 15  1  0
 15 16  1  0
 16 17  1  0
 17 18  1  0
 17 19  1  0
 15 20  1  0
  7 21  1  0
 21 22  1  0
 21 23  2  0
 23 24  1  0
 24 25  2  0
 25 26  1  0
 26 27  2  0
 27 28  1  0
 28 29  2  0
 23  5  1  0
 29 24  1  0
 19 11  1  0
 20 11  1  0
 18 13  1  0
  1 30  1  0
  1 31  1  0
  1 32  1  0
  2 33  1  0
  2 34  1  0
  3 35  1  0
  3 36  1  0
  4 37  1  0
  4 38  1  0
 10 39  1  0
 12 40  1  0
 12 41  1  0
 13 42  1  6
 14 43  1  0
 14 44  1  0
 15 45  1  6
 16 46  1  0
 16 47  1  0
 17 48  1  1
 18 49  1  0
 18 50  1  0
 19 51  1  0
 19 52  1  0
 20 53  1  0
 20 54  1  0
 22 55  1  0
 22 56  1  0
 22 57  1  0
 25 58  1  0
 26 59  1  0
 27 60  1  0
 28 61  1  0
 29 62  1  0
M  END
>  <_SMILES>  (51) 
CCCCn1nc(C(=O)N[C@]23C[C@H]4C[C@H](C[C@H](C4)C2)C3)c(C)c1-c1ccccc1

$$$$

     RDKit          3D

 57 62  0  0  0  0  0  0  0  0999 V2000
    1.1611   -0.5609   -2.2231 O   0  0  0  0  0  0  0  0  0  0  0  0
    0.7390   -0.1403   -1.1497 C   0  0  0  0  0  0  0  0  0  0  0  0
    1.5685    0.1214   -0.0686 N   0  0  0  0  0  0  0  0  0  0  0  0
    3.0134   -0.1276   -0.0480 C   0  0  2  0  0  0  0  0  0  0  0  0
    3.5636    0.3251    1.3329 C   0  0  0  0  0  0  0  0  0  0  0  0
    5.0786    0.0866    1.4305 C   0  0  1  0  0  0  0  0  0  0  0  0
    5.3664   -1.4108    1.2395 C   0  0  0  0  0  0  0  0  0  0  0  0
    4.8551   -1.8725   -0.1343 C   0  0  2  0  0  0  0  0  0  0  0  0
    5.5593   -1.0621   -1.2359 C   0  0  0  0  0  0  0  0  0  0  0  0
    5.2769    0.4389   -1.0524 C   0  0  2  0  0  0  0  0  0  0  0  0
    5.7864    0.8862    0.3262 C   0  0  0  0  0  0  0  0  0  0  0  0
    3.7596    0.6826   -1.1386 C   0  0  0  0  0  0  0  0  0  0  0  0
    3.3373   -1.6323   -0.2195 C   0  0  0  0  0  0  0  0  0  0  0  0
   -0.6974    0.1134   -0.8950 C   0  0  0  0  0  0  0  0  0  0  0  0
   -1.2907    0.8720    0.1521 C   0  0  0  0  0  0  0  0  0  0  0  0
   -2.6556    0.8210   -0.0513 C   0  0  0  0  0  0  0  0  0  0  0  0
   -3.7304    1.4211    0.7248 C   0  0  0  0  0  0  0  0  0  0  0  0
   -4.4355    2.5241    0.2300 C   0  0  0  0  0  0  0  0  0  0  0  0
   -5.4635    3.0969    0.9813 C   0  0  0  0  0  0  0  0  0  0  0  0
   -5.7874    2.5748    2.2328 C   0  0  0  0  0  0  0  0  0  0  0  0
   -5.0818    1.4831    2.7368 C   0  0  0  0  0  0  0  0  0  0  0  0
   -4.0532    0.9098    1.9868 C   0  0  0  0  0  0  0  0  0  0  0  0
   -2.8175    0.0427   -1.1717 N   0  0  0  0  0  0  0  0  0  0  0  0
   -4.0637   -0.3686   -1.8116 C   0  0  0  0  0  0  0  0  0  0  0  0
   -4.5899   -1.6540   -1.2433 C   0  0  0  0  0  0  0  0  0  0  0  0
   -5.6540   -1.6609   -0.1738 C   0  0  0  0  0  0  0  0  0  0  0  0
   -5.9936   -2.1008   -1.5702 C   0  0  0  0  0  0  0  0  0  0  0  0
   -1.6529   -0.3847   -1.6993 N   0  0  0  0  0  0  0  0  0  0  0  0
    1.1180    0.2640    0.8232 H   0  0  0  0  0  0  0  0  0  0  0  0
    3.3443    1.3889    1.4956 H   0  0  0  0  0  0  0  0  0  0  0  0
    3.0531   -0.2188    2.1391 H   0  0  0  0  0  0  0  0  0  0  0  0
    5.4419    0.4105    2.4122 H   0  0  0  0  0  0  0  0  0  0  0  0
    6.4440   -1.5987    1.3209 H   0  0  0  0  0  0  0  0  0  0  0  0
    4.8813   -1.9906    2.0344 H   0  0  0  0  0  0  0  0  0  0  0  0
    5.0673   -2.9392   -0.2674 H   0  0  0  0  0  0  0  0  0  0  0  0
    6.6402   -1.2457   -1.2015 H   0  0  0  0  0  0  0  0  0  0  0  0
    5.2120   -1.3909   -2.2231 H   0  0  0  0  0  0  0  0  0  0  0  0
    5.7868    1.0093   -1.8368 H   0  0  0  0  0  0  0  0  0  0  0  0
    6.8712    0.7372    0.3917 H   0  0  0  0  0  0  0  0  0  0  0  0
    5.6036    1.9590    0.4637 H   0  0  0  0  0  0  0  0  0  0  0  0
    3.4156    0.4065   -2.1417 H   0  0  0  0  0  0  0  0  0  0  0  0
    3.5456    1.7535   -1.0252 H   0  0  0  0  0  0  0  0  0  0  0  0
    2.8224   -2.2194    0.5524 H   0  0  0  0  0  0  0  0  0  0  0  0
    2.9700   -2.0047   -1.1831 H   0  0  0  0  0  0  0  0  0  0  0  0
   -0.7942    1.4136    0.9443 H   0  0  0  0  0  0  0  0  0  0  0  0
   -4.1844    2.9482   -0.7396 H   0  0  0  0  0  0  0  0  0  0  0  0
   -6.0081    3.9533    0.5920 H   0  0  0  0  0  0  0  0  0  0  0  0
   -6.5873    3.0220    2.8178 H   0  0  0  0  0  0  0  0  0  0  0  0
   -5.3321    1.0779    3.7139 H   0  0  0  0  0  0  0  0  0  0  0  0
   -3.5122    0.0560    2.3883 H   0  0  0  0  0  0  0  0  0  0  0  0
   -4.7831    0.4510   -1.7202 H   0  0  0  0  0  0  0  0  0  0  0  0
   -3.8502   -0.4938   -2.8798 H   0  0  0  0  0  0  0  0  0  0  0  0
   -3.8270   -2.4262   -1.2165 H   0  0  0  0  0  0  0  0  0  0  0  0
   -6.0641   -0.7177    0.1694 H   0  0  0  0  0  0  0  0  0  0  0  0
   -5.5885   -2.4195    0.5982 H   0  0  0  0  0  0  0  0  0  0  0  0
   -6.6240   -1.4514   -2.1670 H   0  0  0  0  0  0  0  0  0  0  0  0
   -6.1604   -3.1585   -1.7431 H   0  0  0  0  0  0  0  0  0  0  0  0
  1  2  2  0
  2  3  1  0
  4  3  1  1
  4  5  1  0
  5  6  1  0
  6  7  1  0
  7  8  1  0
  8  9  1  0
  9 10  1  0
 10 11  1  0
 10 12  1  0
  8 13  1  0
  2 14  1  0
 14 15  1  0
 15 16  2  0
 16 17  1  0
 17 18  2  0
 18 19  1  0
 19 20  2  0
 20 21  1  0
 21 22  2  0
 16 23  1  0
 23 24  1  0
 24 25  1  0
 25 26  1  0
 26 27  1  0
 23 28  1  0
 12  4  1  0
 28 14  2  0
 13  4  1  0
 22 17  1  0
 27 25  1  0
 11  6  1  0
  3 29  1  0
  5 30  1  0
  5 31  1  0
  6 32  1  1
  7 33  1  0
  7 34  1  0
  8 35  1  6
  9 36  1  0
  9 37  1  0
 10 38  1  6
 11 39  1  0
 11 40  1  0
 12 41  1  0
 12 42  1  0
 13 43  1  0
 13 44  1  0
 15 45  1  0
 18 46  1  0
 19 47  1  0
 20 48  1  0
 21 49  1  0
 22 50  1  0
 24 51  1  0
 24 52  1  0
 25 53  1  0
 26 54  1  0
 26 55  1  0
 27 56  1  0
 27 57  1  0
M  END
>  <_SMILES>  (52) 
O=C(N[C@]12C[C@H]3C[C@H](C[C@H](C3)C1)C2)c1cc(-c2ccccc2)n(CC2CC2)n1

$$$$

     RDKit          3D

 49 52  0  0  0  0  0  0  0  0999 V2000
    0.3393   -0.5680   -2.5156 C   0  0  0  0  0  0  0  0  0  0  0  0
   -0.2346   -0.0721   -1.2374 C   0  0  0  0  0  0  0  0  0  0  0  0
    0.3256    0.8939   -0.3372 C   0  0  0  0  0  0  0  0  0  0  0  0
    1.6217    1.5979   -0.4254 C   0  0  0  0  0  0  0  0  0  0  0  0
    1.7786    2.7666   -0.0804 O   0  0  0  0  0  0  0  0  0  0  0  0
    2.6599    0.8177   -0.9018 N   0  0  0  0  0  0  0  0  0  0  0  0
    4.0252    1.2849   -0.8679 C   0  0  0  0  0  0  0  0  0  0  0  0
    4.7643    0.6906    0.3032 C   0  0  0  0  0  0  0  0  0  0  0  0
    4.5709    1.2045    1.5938 C   0  0  0  0  0  0  0  0  0  0  0  0
    5.2350    0.6454    2.6861 C   0  0  0  0  0  0  0  0  0  0  0  0
    6.0959   -0.4345    2.5007 C   0  0  0  0  0  0  0  0  0  0  0  0
    6.2913   -0.9582    1.2239 C   0  0  0  0  0  0  0  0  0  0  0  0
    5.6268   -0.4011    0.1295 C   0  0  0  0  0  0  0  0  0  0  0  0
   -0.5058    1.1199    0.6935 N   0  0  0  0  0  0  0  0  0  0  0  0
   -1.5676    0.3266    0.4658 N   0  0  0  0  0  0  0  0  0  0  0  0
   -2.6766    0.3500    1.4159 C   0  0  0  0  0  0  0  0  0  0  0  0
   -3.7570    1.3074    1.0031 C   0  0  0  0  0  0  0  0  0  0  0  0
   -3.6384    2.7799    1.3057 C   0  0  0  0  0  0  0  0  0  0  0  0
   -4.6457    1.9422    2.0439 C   0  0  0  0  0  0  0  0  0  0  0  0
   -1.4472   -0.4375   -0.6696 C   0  0  0  0  0  0  0  0  0  0  0  0
   -2.4519   -1.3858   -1.1326 C   0  0  0  0  0  0  0  0  0  0  0  0
   -3.3964   -1.0001   -2.0898 C   0  0  0  0  0  0  0  0  0  0  0  0
   -4.3592   -1.9086   -2.5325 C   0  0  0  0  0  0  0  0  0  0  0  0
   -4.3787   -3.2070   -2.0244 C   0  0  0  0  0  0  0  0  0  0  0  0
   -3.4347   -3.5997   -1.0762 C   0  0  0  0  0  0  0  0  0  0  0  0
   -2.4714   -2.6922   -0.6322 C   0  0  0  0  0  0  0  0  0  0  0  0
    1.0309   -1.3947   -2.3259 H   0  0  0  0  0  0  0  0  0  0  0  0
    0.8796    0.2273   -3.0386 H   0  0  0  0  0  0  0  0  0  0  0  0
   -0.4404   -0.9281   -3.1941 H   0  0  0  0  0  0  0  0  0  0  0  0
    2.5166   -0.1817   -0.9097 H   0  0  0  0  0  0  0  0  0  0  0  0
    4.4924    0.9748   -1.8091 H   0  0  0  0  0  0  0  0  0  0  0  0
    4.0710    2.3789   -0.8297 H   0  0  0  0  0  0  0  0  0  0  0  0
    3.8946    2.0442    1.7520 H   0  0  0  0  0  0  0  0  0  0  0  0
    5.0771    1.0530    3.6813 H   0  0  0  0  0  0  0  0  0  0  0  0
    6.6128   -0.8686    3.3524 H   0  0  0  0  0  0  0  0  0  0  0  0
    6.9620   -1.8015    1.0811 H   0  0  0  0  0  0  0  0  0  0  0  0
    5.7898   -0.8240   -0.8590 H   0  0  0  0  0  0  0  0  0  0  0  0
   -3.0769   -0.6657    1.4945 H   0  0  0  0  0  0  0  0  0  0  0  0
   -2.2573    0.6083    2.3961 H   0  0  0  0  0  0  0  0  0  0  0  0
   -4.2194    1.0227    0.0649 H   0  0  0  0  0  0  0  0  0  0  0  0
   -2.7612    3.1259    1.8430 H   0  0  0  0  0  0  0  0  0  0  0  0
   -3.9994    3.4800    0.5607 H   0  0  0  0  0  0  0  0  0  0  0  0
   -5.6934    2.0810    1.8015 H   0  0  0  0  0  0  0  0  0  0  0  0
   -4.4575    1.7377    3.0918 H   0  0  0  0  0  0  0  0  0  0  0  0
   -3.3868    0.0097   -2.4942 H   0  0  0  0  0  0  0  0  0  0  0  0
   -5.0924   -1.6037   -3.2749 H   0  0  0  0  0  0  0  0  0  0  0  0
   -5.1281   -3.9145   -2.3706 H   0  0  0  0  0  0  0  0  0  0  0  0
   -3.4473   -4.6136   -0.6843 H   0  0  0  0  0  0  0  0  0  0  0  0
   -1.7360   -3.0102    0.1033 H   0  0  0  0  0  0  0  0  0  0  0  0
  1  2  1  0
  2  3  1  0
  3  4  1  0
  4  5  2  0
  4  6  1  0
  6  7  1  0
  7  8  1  0
  8  9  2  0
  9 10  1  0
 10 11  2  0
 11 12  1  0
 12 13  2  0
  3 14  2  0
 14 15  1  0
 15 16  1  0
 16 17  1  0
 17 18  1  0
 18 19  1  0
 15 20  1  0
 20 21  1  0
 21 22  2  0
 22 23  1  0
 23 24  2  0
 24 25  1  0
 25 26  2  0
 20  2  2  0
 26 21  1  0
 13  8  1  0
 19 17  1  0
  1 27  1  0
  1 28  1  0
  1 29  1  0
  6 30  1  0
  7 31  1  0
  7 32  1  0
  9 33  1  0
 10 34  1  0
 11 35  1  0
 12 36  1  0
 13 37  1  0
 16 38  1  0
 16 39  1  0
 17 40  1  0
 18 41  1  0
 18 42  1  0
 19 43  1  0
 19 44  1  0
 22 45  1  0
 23 46  1  0
 24 47  1  0
 25 48  1  0
 26 49  1  0
M  END
>  <_SMILES>  (53) 
Cc1c(C(=O)NCc2ccccc2)nn(CC2CC2)c1-c1ccccc1

$$$$

     RDKit          3D

 48 50  0  0  0  0  0  0  0  0999 V2000
    5.2704   -0.2124   -1.5713 C   0  0  0  0  0  0  0  0  0  0  0  0
    4.6801   -1.0004   -0.4125 C   0  0  0  0  0  0  0  0  0  0  0  0
    4.8723   -0.3252    0.9491 C   0  0  0  0  0  0  0  0  0  0  0  0
    4.2094    1.0464    1.0861 C   0  0  0  0  0  0  0  0  0  0  0  0
    2.7782    1.0027    0.8826 N   0  0  0  0  0  0  0  0  0  0  0  0
    1.9186    0.5691    1.8791 C   0  0  0  0  0  0  0  0  0  0  0  0
    2.3071    0.2920    3.0110 O   0  0  0  0  0  0  0  0  0  0  0  0
    0.5130    0.4393    1.4464 C   0  0  0  0  0  0  0  0  0  0  0  0
   -0.2319   -0.6081    1.8367 N   0  0  0  0  0  0  0  0  0  0  0  0
   -1.4274   -0.4235    1.2483 N   0  0  0  0  0  0  0  0  0  0  0  0
   -2.4786   -1.4123    1.4722 C   0  0  0  0  0  0  0  0  0  0  0  0
   -2.5290   -2.4424    0.3806 C   0  0  0  0  0  0  0  0  0  0  0  0
   -3.0621   -3.8242    0.6677 C   0  0  0  0  0  0  0  0  0  0  0  0
   -1.5964   -3.6274    0.3950 C   0  0  0  0  0  0  0  0  0  0  0  0
   -1.4946    0.7209    0.4908 C   0  0  0  0  0  0  0  0  0  0  0  0
   -2.6750    1.1547   -0.2451 C   0  0  0  0  0  0  0  0  0  0  0  0
   -3.7063    1.8358    0.4109 C   0  0  0  0  0  0  0  0  0  0  0  0
   -4.8348    2.2521   -0.2975 C   0  0  0  0  0  0  0  0  0  0  0  0
   -4.9350    1.9940   -1.6642 C   0  0  0  0  0  0  0  0  0  0  0  0
   -3.9064    1.3235   -2.3251 C   0  0  0  0  0  0  0  0  0  0  0  0
   -2.7770    0.9072   -1.6183 C   0  0  0  0  0  0  0  0  0  0  0  0
   -0.2461    1.3160    0.6038 C   0  0  0  0  0  0  0  0  0  0  0  0
    0.1884    2.6043    0.0035 C   0  0  0  0  0  0  0  0  0  0  0  0
    4.7374    0.7298   -1.7284 H   0  0  0  0  0  0  0  0  0  0  0  0
    5.1951   -0.7927   -2.4966 H   0  0  0  0  0  0  0  0  0  0  0  0
    6.3275    0.0112   -1.3969 H   0  0  0  0  0  0  0  0  0  0  0  0
    3.6156   -1.1817   -0.5997 H   0  0  0  0  0  0  0  0  0  0  0  0
    5.1623   -1.9849   -0.3794 H   0  0  0  0  0  0  0  0  0  0  0  0
    4.4792   -0.9975    1.7217 H   0  0  0  0  0  0  0  0  0  0  0  0
    5.9456   -0.2166    1.1472 H   0  0  0  0  0  0  0  0  0  0  0  0
    4.6203    1.7582    0.3639 H   0  0  0  0  0  0  0  0  0  0  0  0
    4.4075    1.4446    2.0878 H   0  0  0  0  0  0  0  0  0  0  0  0
    2.4296    0.9912   -0.0658 H   0  0  0  0  0  0  0  0  0  0  0  0
   -2.2915   -1.8680    2.4523 H   0  0  0  0  0  0  0  0  0  0  0  0
   -3.4333   -0.8818    1.5408 H   0  0  0  0  0  0  0  0  0  0  0  0
   -2.7774   -2.0077   -0.5809 H   0  0  0  0  0  0  0  0  0  0  0  0
   -3.3559   -4.0742    1.6811 H   0  0  0  0  0  0  0  0  0  0  0  0
   -3.6589   -4.3079   -0.0976 H   0  0  0  0  0  0  0  0  0  0  0  0
   -0.9016   -3.7260    1.2229 H   0  0  0  0  0  0  0  0  0  0  0  0
   -1.2010   -3.9724   -0.5536 H   0  0  0  0  0  0  0  0  0  0  0  0
   -3.6337    2.0499    1.4749 H   0  0  0  0  0  0  0  0  0  0  0  0
   -5.6336    2.7808    0.2162 H   0  0  0  0  0  0  0  0  0  0  0  0
   -5.8137    2.3196   -2.2153 H   0  0  0  0  0  0  0  0  0  0  0  0
   -3.9832    1.1263   -3.3913 H   0  0  0  0  0  0  0  0  0  0  0  0
   -1.9792    0.3867   -2.1429 H   0  0  0  0  0  0  0  0  0  0  0  0
    0.6917    2.4269   -0.9521 H   0  0  0  0  0  0  0  0  0  0  0  0
   -0.6626    3.2684   -0.1785 H   0  0  0  0  0  0  0  0  0  0  0  0
    0.8770    3.1358    0.6677 H   0  0  0  0  0  0  0  0  0  0  0  0
  1  2  1  0
  2  3  1  0
  3  4  1  0
  4  5  1  0
  5  6  1  0
  6  7  2  0
  6  8  1  0
  8  9  2  0
  9 10  1  0
 10 11  1  0
 11 12  1  0
 12 13  1  0
 13 14  1  0
 10 15  1  0
 15 16  1  0
 16 17  2  0
 17 18  1  0
 18 19  2  0
 19 20  1  0
 20 21  2  0
 15 22  2  0
 22 23  1  0
 22  8  1  0
 14 12  1  0
 21 16  1  0
  1 24  1  0
  1 25  1  0
  1 26  1  0
  2 27  1  0
  2 28  1  0
  3 29  1  0
  3 30  1  0
  4 31  1  0
  4 32  1  0
  5 33  1  0
 11 34  1  0
 11 35  1  0
 12 36  1  0
 13 37  1  0
 13 38  1  0
 14 39  1  0
 14 40  1  0
 17 41  1  0
 18 42  1  0
 19 43  1  0
 20 44  1  0
 21 45  1  0
 23 46  1  0
 23 47  1  0
 23 48  1  0
M  END
>  <_SMILES>  (54) 
CCCCNC(=O)c1nn(CC2CC2)c(-c2ccccc2)c1C

$$$$

     RDKit          3D

 51 53  0  0  0  0  0  0  0  0999 V2000
   -0.5056    2.1494    2.3590 C   0  0  0  0  0  0  0  0  0  0  0  0
   -0.6617    1.1596    1.2619 C   0  0  0  0  0  0  0  0  0  0  0  0
    0.3317    0.2532    0.7838 C   0  0  0  0  0  0  0  0  0  0  0  0
    1.7187    0.0941    1.2638 C   0  0  0  0  0  0  0  0  0  0  0  0
    2.2027    0.7662    2.1693 O   0  0  0  0  0  0  0  0  0  0  0  0
    2.4095   -0.8837    0.5821 N   0  0  0  0  0  0  0  0  0  0  0  0
    3.7965   -1.2081    0.8176 C   0  0  0  0  0  0  0  0  0  0  0  0
    4.7691   -0.5795   -0.2097 C   0  0  0  0  0  0  0  0  0  0  0  0
    4.4311   -1.0459   -1.6362 C   0  0  0  0  0  0  0  0  0  0  0  0
    6.1979   -1.0398    0.1339 C   0  0  0  0  0  0  0  0  0  0  0  0
    4.7213    0.9564   -0.1532 C   0  0  0  0  0  0  0  0  0  0  0  0
   -0.1427   -0.5014   -0.2286 N   0  0  0  0  0  0  0  0  0  0  0  0
   -1.4209   -0.0940   -0.3782 N   0  0  0  0  0  0  0  0  0  0  0  0
   -2.2466   -0.7314   -1.4007 C   0  0  0  0  0  0  0  0  0  0  0  0
   -3.0269   -1.8917   -0.8543 C   0  0  0  0  0  0  0  0  0  0  0  0
   -3.4718   -3.0039   -1.7712 C   0  0  0  0  0  0  0  0  0  0  0  0
   -2.4030   -3.2602   -0.7448 C   0  0  0  0  0  0  0  0  0  0  0  0
   -1.7829    0.9138    0.4838 C   0  0  0  0  0  0  0  0  0  0  0  0
   -3.1027    1.5300    0.5205 C   0  0  0  0  0  0  0  0  0  0  0  0
   -4.0567    1.0938    1.4461 C   0  0  0  0  0  0  0  0  0  0  0  0
   -5.3223    1.6815    1.4804 C   0  0  0  0  0  0  0  0  0  0  0  0
   -5.6374    2.7111    0.5944 C   0  0  0  0  0  0  0  0  0  0  0  0
   -4.6872    3.1572   -0.3236 C   0  0  0  0  0  0  0  0  0  0  0  0
   -3.4212    2.5701   -0.3595 C   0  0  0  0  0  0  0  0  0  0  0  0
   -0.2722    1.6420    3.3004 H   0  0  0  0  0  0  0  0  0  0  0  0
   -1.4168    2.7354    2.5131 H   0  0  0  0  0  0  0  0  0  0  0  0
    0.3040    2.8497    2.1296 H   0  0  0  0  0  0  0  0  0  0  0  0
    1.8812   -1.3428   -0.1561 H   0  0  0  0  0  0  0  0  0  0  0  0
    4.0678   -0.8984    1.8338 H   0  0  0  0  0  0  0  0  0  0  0  0
    3.8656   -2.3017    0.7817 H   0  0  0  0  0  0  0  0  0  0  0  0
    3.4420   -0.6966   -1.9516 H   0  0  0  0  0  0  0  0  0  0  0  0
    4.4388   -2.1394   -1.7064 H   0  0  0  0  0  0  0  0  0  0  0  0
    5.1592   -0.6612   -2.3595 H   0  0  0  0  0  0  0  0  0  0  0  0
    6.4853   -0.7186    1.1415 H   0  0  0  0  0  0  0  0  0  0  0  0
    6.9292   -0.6246   -0.5688 H   0  0  0  0  0  0  0  0  0  0  0  0
    6.2823   -2.1317    0.0945 H   0  0  0  0  0  0  0  0  0  0  0  0
    4.9255    1.3211    0.8596 H   0  0  0  0  0  0  0  0  0  0  0  0
    3.7436    1.3424   -0.4602 H   0  0  0  0  0  0  0  0  0  0  0  0
    5.4689    1.3984   -0.8219 H   0  0  0  0  0  0  0  0  0  0  0  0
   -1.5751   -1.0386   -2.2118 H   0  0  0  0  0  0  0  0  0  0  0  0
   -2.9234    0.0239   -1.8116 H   0  0  0  0  0  0  0  0  0  0  0  0
   -3.7176   -1.5887   -0.0752 H   0  0  0  0  0  0  0  0  0  0  0  0
   -4.4504   -3.4398   -1.6028 H   0  0  0  0  0  0  0  0  0  0  0  0
   -3.1740   -2.9768   -2.8134 H   0  0  0  0  0  0  0  0  0  0  0  0
   -1.3824   -3.3920   -1.0877 H   0  0  0  0  0  0  0  0  0  0  0  0
   -2.6573   -3.8635    0.1196 H   0  0  0  0  0  0  0  0  0  0  0  0
   -3.8175    0.2960    2.1457 H   0  0  0  0  0  0  0  0  0  0  0  0
   -6.0603    1.3393    2.2013 H   0  0  0  0  0  0  0  0  0  0  0  0
   -6.6220    3.1710    0.6240 H   0  0  0  0  0  0  0  0  0  0  0  0
   -4.9301    3.9661   -1.0078 H   0  0  0  0  0  0  0  0  0  0  0  0
   -2.6836    2.9323   -1.0719 H   0  0  0  0  0  0  0  0  0  0  0  0
  1  2  1  0
  2  3  1  0
  3  4  1  0
  4  5  2  0
  4  6  1  0
  6  7  1  0
  7  8  1  0
  8  9  1  0
  8 10  1  0
  8 11  1  0
  3 12  2  0
 12 13  1  0
 13 14  1  0
 14 15  1  0
 15 16  1  0
 16 17  1  0
 13 18  1  0
 18 19  1  0
 19 20  2  0
 20 21  1  0
 21 22  2  0
 22 23  1  0
 23 24  2  0
 18  2  2  0
 24 19  1  0
 17 15  1  0
  1 25  1  0
  1 26  1  0
  1 27  1  0
  6 28  1  0
  7 29  1  0
  7 30  1  0
  9 31  1  0
  9 32  1  0
  9 33  1  0
 10 34  1  0
 10 35  1  0
 10 36  1  0
 11 37  1  0
 11 38  1  0
 11 39  1  0
 14 40  1  0
 14 41  1  0
 15 42  1  0
 16 43  1  0
 16 44  1  0
 17 45  1  0
 17 46  1  0
 20 47  1  0
 21 48  1  0
 22 49  1  0
 23 50  1  0
 24 51  1  0
M  END
>  <_SMILES>  (55) 
Cc1c(C(=O)NCC(C)(C)C)nn(CC2CC2)c1-c1ccccc1

$$$$

     RDKit          3D

 55 58  0  0  0  0  0  0  0  0999 V2000
   -0.1181   -1.0390   -1.1478 C   0  0  0  0  0  0  0  0  0  0  0  0
   -0.8735   -0.2910   -0.1093 C   0  0  0  0  0  0  0  0  0  0  0  0
   -0.3454    0.5812    0.8983 C   0  0  0  0  0  0  0  0  0  0  0  0
    1.0655    0.9116    1.1819 C   0  0  0  0  0  0  0  0  0  0  0  0
    1.4508    2.0422    1.4683 O   0  0  0  0  0  0  0  0  0  0  0  0
    1.9235   -0.1745    1.1278 N   0  0  0  0  0  0  0  0  0  0  0  0
    3.3228   -0.0550    1.4801 C   0  0  0  0  0  0  0  0  0  0  0  0
    4.1817    0.4982    0.3284 C   0  0  0  0  0  0  0  0  0  0  0  0
    4.1093   -0.4237   -0.9068 C   0  0  0  0  0  0  0  0  0  0  0  0
    5.3401   -0.2813   -1.7930 C   0  0  0  0  0  0  0  0  0  0  0  0
    6.6169   -0.6811   -1.0524 C   0  0  0  0  0  0  0  0  0  0  0  0
    6.5492   -0.4303    0.4550 C   0  0  0  0  0  0  0  0  0  0  0  0
    5.6326    0.7392    0.7933 C   0  0  0  0  0  0  0  0  0  0  0  0
   -1.3358    1.1135    1.6329 N   0  0  0  0  0  0  0  0  0  0  0  0
   -2.4675    0.6034    1.1136 N   0  0  0  0  0  0  0  0  0  0  0  0
   -3.7443    1.0202    1.6870 C   0  0  0  0  0  0  0  0  0  0  0  0
   -4.2770    2.2628    1.0354 C   0  0  0  0  0  0  0  0  0  0  0  0
   -5.6820    2.7240    1.3362 C   0  0  0  0  0  0  0  0  0  0  0  0
   -5.3443    2.1942   -0.0288 C   0  0  0  0  0  0  0  0  0  0  0  0
   -2.2491   -0.2712    0.0768 C   0  0  0  0  0  0  0  0  0  0  0  0
   -3.3034   -0.9595   -0.6569 C   0  0  0  0  0  0  0  0  0  0  0  0
   -3.8916   -2.1156   -0.1321 C   0  0  0  0  0  0  0  0  0  0  0  0
   -4.9000   -2.7734   -0.8387 C   0  0  0  0  0  0  0  0  0  0  0  0
   -5.3209   -2.2823   -2.0741 C   0  0  0  0  0  0  0  0  0  0  0  0
   -4.7326   -1.1358   -2.6064 C   0  0  0  0  0  0  0  0  0  0  0  0
   -3.7243   -0.4770   -1.9010 C   0  0  0  0  0  0  0  0  0  0  0  0
    0.2756   -1.9725   -0.7341 H   0  0  0  0  0  0  0  0  0  0  0  0
   -0.7489   -1.2901   -2.0059 H   0  0  0  0  0  0  0  0  0  0  0  0
    0.7183   -0.4431   -1.5255 H   0  0  0  0  0  0  0  0  0  0  0  0
    1.5141   -1.0966    1.0753 H   0  0  0  0  0  0  0  0  0  0  0  0
    3.6681   -1.0519    1.7758 H   0  0  0  0  0  0  0  0  0  0  0  0
    3.3996    0.5964    2.3585 H   0  0  0  0  0  0  0  0  0  0  0  0
    3.7725    1.4766    0.0419 H   0  0  0  0  0  0  0  0  0  0  0  0
    4.0140   -1.4733   -0.6001 H   0  0  0  0  0  0  0  0  0  0  0  0
    3.2104   -0.1857   -1.4873 H   0  0  0  0  0  0  0  0  0  0  0  0
    5.4235    0.7596   -2.1300 H   0  0  0  0  0  0  0  0  0  0  0  0
    5.2320   -0.8933   -2.6956 H   0  0  0  0  0  0  0  0  0  0  0  0
    7.4606   -0.1292   -1.4841 H   0  0  0  0  0  0  0  0  0  0  0  0
    6.8286   -1.7437   -1.2224 H   0  0  0  0  0  0  0  0  0  0  0  0
    7.5583   -0.2453    0.8406 H   0  0  0  0  0  0  0  0  0  0  0  0
    6.1843   -1.3337    0.9595 H   0  0  0  0  0  0  0  0  0  0  0  0
    6.0190    1.6392    0.2967 H   0  0  0  0  0  0  0  0  0  0  0  0
    5.6707    0.9471    1.8689 H   0  0  0  0  0  0  0  0  0  0  0  0
   -4.4439    0.1815    1.6151 H   0  0  0  0  0  0  0  0  0  0  0  0
   -3.5698    1.2049    2.7537 H   0  0  0  0  0  0  0  0  0  0  0  0
   -3.5184    3.0359    0.9564 H   0  0  0  0  0  0  0  0  0  0  0  0
   -6.3077    2.1127    1.9766 H   0  0  0  0  0  0  0  0  0  0  0  0
   -5.8528    3.7901    1.4392 H   0  0  0  0  0  0  0  0  0  0  0  0
   -5.2833    2.9003   -0.8495 H   0  0  0  0  0  0  0  0  0  0  0  0
   -5.7513    1.2286   -0.3071 H   0  0  0  0  0  0  0  0  0  0  0  0
   -3.5657   -2.5115    0.8268 H   0  0  0  0  0  0  0  0  0  0  0  0
   -5.3551   -3.6707   -0.4271 H   0  0  0  0  0  0  0  0  0  0  0  0
   -6.1055   -2.7956   -2.6244 H   0  0  0  0  0  0  0  0  0  0  0  0
   -5.0581   -0.7543   -3.5708 H   0  0  0  0  0  0  0  0  0  0  0  0
   -3.2719    0.4178   -2.3230 H   0  0  0  0  0  0  0  0  0  0  0  0
  1  2  1  0
  2  3  1  0
  3  4  1  0
  4  5  2  0
  4  6  1  0
  6  7  1  0
  7  8  1  0
  8  9  1  0
  9 10  1  0
 10 11  1  0
 11 12  1  0
 12 13  1  0
  3 14  2  0
 14 15  1  0
 15 16  1  0
 16 17  1  0
 17 18  1  0
 18 19  1  0
 15 20  1  0
 20 21  1  0
 21 22  2  0
 22 23  1  0
 23 24  2  0
 24 25  1  0
 25 26  2  0
 20  2  2  0
 26 21  1  0
 13  8  1  0
 19 17  1  0
  1 27  1  0
  1 28  1  0
  1 29  1  0
  6 30  1  0
  7 31  1  0
  7 32  1  0
  8 33  1  0
  9 34  1  0
  9 35  1  0
 10 36  1  0
 10 37  1  0
 11 38  1  0
 11 39  1  0
 12 40  1  0
 12 41  1  0
 13 42  1  0
 13 43  1  0
 16 44  1  0
 16 45  1  0
 17 46  1  0
 18 47  1  0
 18 48  1  0
 19 49  1  0
 19 50  1  0
 22 51  1  0
 23 52  1  0
 24 53  1  0
 25 54  1  0
 26 55  1  0
M  END
>  <_SMILES>  (56) 
Cc1c(C(=O)NCC2CCCCC2)nn(CC2CC2)c1-c1ccccc1

$$$$

     RDKit          3D

 48 50  0  0  0  0  0  0  0  0999 V2000
    0.8789    1.7035    0.3158 C   0  0  0  0  0  0  0  0  0  0  0  0
    0.0983    0.4755    0.6198 C   0  0  0  0  0  0  0  0  0  0  0  0
    0.6031   -0.8202    0.9673 C   0  0  0  0  0  0  0  0  0  0  0  0
    2.0087   -1.2645    1.0567 C   0  0  0  0  0  0  0  0  0  0  0  0
    2.4219   -2.0384    1.9164 O   0  0  0  0  0  0  0  0  0  0  0  0
    2.8254   -0.7584    0.0563 N   0  0  0  0  0  0  0  0  0  0  0  0
    4.1783   -1.2495   -0.0999 C   0  0  0  0  0  0  0  0  0  0  0  0
    5.0150   -0.3493   -1.0178 C   0  0  0  0  0  0  0  0  0  0  0  0
    6.3620   -1.0088   -1.3144 C   0  0  0  0  0  0  0  0  0  0  0  0
    5.2335    1.0333   -0.3995 C   0  0  0  0  0  0  0  0  0  0  0  0
   -0.4050   -1.6714    1.2178 N   0  0  0  0  0  0  0  0  0  0  0  0
   -1.5254   -0.9495    1.0303 N   0  0  0  0  0  0  0  0  0  0  0  0
   -2.8151   -1.6066    1.2236 C   0  0  0  0  0  0  0  0  0  0  0  0
   -3.3098   -2.2588   -0.0345 C   0  0  0  0  0  0  0  0  0  0  0  0
   -4.3224   -1.5801   -0.9236 C   0  0  0  0  0  0  0  0  0  0  0  0
   -4.7265   -2.7739   -0.1051 C   0  0  0  0  0  0  0  0  0  0  0  0
   -1.2836    0.3510    0.6595 C   0  0  0  0  0  0  0  0  0  0  0  0
   -2.3179    1.3401    0.3848 C   0  0  0  0  0  0  0  0  0  0  0  0
   -2.9878    1.9766    1.4355 C   0  0  0  0  0  0  0  0  0  0  0  0
   -3.9741    2.9272    1.1666 C   0  0  0  0  0  0  0  0  0  0  0  0
   -4.2906    3.2504   -0.1523 C   0  0  0  0  0  0  0  0  0  0  0  0
   -3.6193    2.6275   -1.2037 C   0  0  0  0  0  0  0  0  0  0  0  0
   -2.6325    1.6770   -0.9363 C   0  0  0  0  0  0  0  0  0  0  0  0
    1.7796    1.7592    0.9352 H   0  0  0  0  0  0  0  0  0  0  0  0
    0.2955    2.6088    0.5119 H   0  0  0  0  0  0  0  0  0  0  0  0
    1.1774    1.7132   -0.7371 H   0  0  0  0  0  0  0  0  0  0  0  0
    2.3478   -0.4153   -0.7663 H   0  0  0  0  0  0  0  0  0  0  0  0
    4.1010   -2.2591   -0.5205 H   0  0  0  0  0  0  0  0  0  0  0  0
    4.6438   -1.3405    0.8888 H   0  0  0  0  0  0  0  0  0  0  0  0
    4.4835   -0.2163   -1.9690 H   0  0  0  0  0  0  0  0  0  0  0  0
    6.9590   -0.3877   -1.9906 H   0  0  0  0  0  0  0  0  0  0  0  0
    6.9401   -1.1633   -0.3968 H   0  0  0  0  0  0  0  0  0  0  0  0
    6.2207   -1.9830   -1.7942 H   0  0  0  0  0  0  0  0  0  0  0  0
    4.2820    1.5504   -0.2394 H   0  0  0  0  0  0  0  0  0  0  0  0
    5.8423    1.6608   -1.0593 H   0  0  0  0  0  0  0  0  0  0  0  0
    5.7467    0.9604    0.5654 H   0  0  0  0  0  0  0  0  0  0  0  0
   -2.6745   -2.3635    2.0045 H   0  0  0  0  0  0  0  0  0  0  0  0
   -3.5224   -0.8682    1.6140 H   0  0  0  0  0  0  0  0  0  0  0  0
   -2.5455   -2.8746   -0.4987 H   0  0  0  0  0  0  0  0  0  0  0  0
   -4.2192   -1.7081   -1.9953 H   0  0  0  0  0  0  0  0  0  0  0  0
   -4.7186   -0.6142   -0.6310 H   0  0  0  0  0  0  0  0  0  0  0  0
   -5.3856   -2.6094    0.7399 H   0  0  0  0  0  0  0  0  0  0  0  0
   -4.8990   -3.7107   -0.6236 H   0  0  0  0  0  0  0  0  0  0  0  0
   -2.7408    1.7401    2.4681 H   0  0  0  0  0  0  0  0  0  0  0  0
   -4.4919    3.4188    1.9863 H   0  0  0  0  0  0  0  0  0  0  0  0
   -5.0579    3.9919   -0.3608 H   0  0  0  0  0  0  0  0  0  0  0  0
   -3.8634    2.8823   -2.2317 H   0  0  0  0  0  0  0  0  0  0  0  0
   -2.1156    1.1953   -1.7629 H   0  0  0  0  0  0  0  0  0  0  0  0
  1  2  1  0
  2  3  1  0
  3  4  1  0
  4  5  2  0
  4  6  1  0
  6  7  1  0
  7  8  1  0
  8  9  1  0
  8 10  1  0
  3 11  2  0
 11 12  1  0
 12 13  1  0
 13 14  1  0
 14 15  1  0
 15 16  1  0
 12 17  1  0
 17 18  1  0
 18 19  2  0
 19 20  1  0
 20 21  2  0
 21 22  1  0
 22 23  2  0
 17  2  2  0
 23 18  1  0
 16 14  1  0
  1 24  1  0
  1 25  1  0
  1 26  1  0
  6 27  1  0
  7 28  1  0
  7 29  1  0
  8 30  1  0
  9 31  1  0
  9 32  1  0
  9 33  1  0
 10 34  1  0
 10 35  1  0
 10 36  1  0
 13 37  1  0
 13 38  1  0
 14 39  1  0
 15 40  1  0
 15 41  1  0
 16 42  1  0
 16 43  1  0
 19 44  1  0
 20 45  1  0
 21 46  1  0
 22 47  1  0
 23 48  1  0
M  END
>  <_SMILES>  (57) 
Cc1c(C(=O)NCC(C)C)nn(CC2CC2)c1-c1ccccc1

$$$$

     RDKit          3D

 48 50  0  0  0  0  0  0  0  0999 V2000
    0.8158    1.0537    1.6005 C   0  0  0  0  0  0  0  0  0  0  0  0
    0.1762    0.3019    0.4889 C   0  0  0  0  0  0  0  0  0  0  0  0
    0.7713   -0.7032   -0.3418 C   0  0  0  0  0  0  0  0  0  0  0  0
    2.1632   -1.1993   -0.3263 C   0  0  0  0  0  0  0  0  0  0  0  0
    2.4503   -2.3853   -0.4532 O   0  0  0  0  0  0  0  0  0  0  0  0
    3.1083   -0.1950   -0.1845 N   0  0  0  0  0  0  0  0  0  0  0  0
    4.5609   -0.4001   -0.2551 C   0  0  0  0  0  0  0  0  0  0  0  0
    5.0409   -1.3811    0.8272 C   0  0  0  0  0  0  0  0  0  0  0  0
    5.2404    0.9586   -0.0011 C   0  0  0  0  0  0  0  0  0  0  0  0
    4.9750   -0.9019   -1.6466 C   0  0  0  0  0  0  0  0  0  0  0  0
   -0.1233   -1.1871   -1.2187 N   0  0  0  0  0  0  0  0  0  0  0  0
   -1.2629   -0.5210   -0.9559 N   0  0  0  0  0  0  0  0  0  0  0  0
   -2.4548   -0.8502   -1.7330 C   0  0  0  0  0  0  0  0  0  0  0  0
   -3.2395   -1.9705   -1.1153 C   0  0  0  0  0  0  0  0  0  0  0  0
   -4.6120   -2.3061   -1.6454 C   0  0  0  0  0  0  0  0  0  0  0  0
   -4.4652   -1.7006   -0.2780 C   0  0  0  0  0  0  0  0  0  0  0  0
   -1.1347    0.4109    0.0456 C   0  0  0  0  0  0  0  0  0  0  0  0
   -2.2150    1.2665    0.5193 C   0  0  0  0  0  0  0  0  0  0  0  0
   -2.9071    0.9412    1.6911 C   0  0  0  0  0  0  0  0  0  0  0  0
   -3.9410    1.7602    2.1477 C   0  0  0  0  0  0  0  0  0  0  0  0
   -4.2842    2.9105    1.4384 C   0  0  0  0  0  0  0  0  0  0  0  0
   -3.5927    3.2450    0.2746 C   0  0  0  0  0  0  0  0  0  0  0  0
   -2.5584    2.4268   -0.1832 C   0  0  0  0  0  0  0  0  0  0  0  0
    1.5333    0.4255    2.1378 H   0  0  0  0  0  0  0  0  0  0  0  0
    0.0780    1.3991    2.3312 H   0  0  0  0  0  0  0  0  0  0  0  0
    1.3432    1.9301    1.2110 H   0  0  0  0  0  0  0  0  0  0  0  0
    2.7669    0.7417   -0.3546 H   0  0  0  0  0  0  0  0  0  0  0  0
    6.1350   -1.4441    0.8456 H   0  0  0  0  0  0  0  0  0  0  0  0
    4.7053   -1.0640    1.8214 H   0  0  0  0  0  0  0  0  0  0  0  0
    4.6637   -2.3951    0.6629 H   0  0  0  0  0  0  0  0  0  0  0  0
    4.9381    1.6984   -0.7517 H   0  0  0  0  0  0  0  0  0  0  0  0
    4.9632    1.3605    0.9806 H   0  0  0  0  0  0  0  0  0  0  0  0
    6.3323    0.8740   -0.0351 H   0  0  0  0  0  0  0  0  0  0  0  0
    4.5587   -1.8908   -1.8644 H   0  0  0  0  0  0  0  0  0  0  0  0
    4.6238   -0.2209   -2.4305 H   0  0  0  0  0  0  0  0  0  0  0  0
    6.0648   -0.9794   -1.7313 H   0  0  0  0  0  0  0  0  0  0  0  0
   -2.1130   -1.1425   -2.7331 H   0  0  0  0  0  0  0  0  0  0  0  0
   -3.0519    0.0597   -1.8494 H   0  0  0  0  0  0  0  0  0  0  0  0
   -2.6045   -2.8092   -0.8454 H   0  0  0  0  0  0  0  0  0  0  0  0
   -5.0353   -1.6894   -2.4301 H   0  0  0  0  0  0  0  0  0  0  0  0
   -4.8865   -3.3534   -1.7102 H   0  0  0  0  0  0  0  0  0  0  0  0
   -4.6370   -2.3370    0.5830 H   0  0  0  0  0  0  0  0  0  0  0  0
   -4.7983   -0.6776   -0.1438 H   0  0  0  0  0  0  0  0  0  0  0  0
   -2.6471    0.0448    2.2499 H   0  0  0  0  0  0  0  0  0  0  0  0
   -4.4775    1.5006    3.0567 H   0  0  0  0  0  0  0  0  0  0  0  0
   -5.0889    3.5486    1.7951 H   0  0  0  0  0  0  0  0  0  0  0  0
   -3.8570    4.1451   -0.2746 H   0  0  0  0  0  0  0  0  0  0  0  0
   -2.0207    2.7013   -1.0877 H   0  0  0  0  0  0  0  0  0  0  0  0
  1  2  1  0
  2  3  1  0
  3  4  1  0
  4  5  2  0
  4  6  1  0
  6  7  1  0
  7  8  1  0
  7  9  1  0
  7 10  1  0
  3 11  2  0
 11 12  1  0
 12 13  1  0
 13 14  1  0
 14 15  1  0
 15 16  1  0
 12 17  1  0
 17 18  1  0
 18 19  2  0
 19 20  1  0
 20 21  2  0
 21 22  1  0
 22 23  2  0
 17  2  2  0
 23 18  1  0
 16 14  1  0
  1 24  1  0
  1 25  1  0
  1 26  1  0
  6 27  1  0
  8 28  1  0
  8 29  1  0
  8 30  1  0
  9 31  1  0
  9 32  1  0
  9 33  1  0
 10 34  1  0
 10 35  1  0
 10 36  1  0
 13 37  1  0
 13 38  1  0
 14 39  1  0
 15 40  1  0
 15 41  1  0
 16 42  1  0
 16 43  1  0
 19 44  1  0
 20 45  1  0
 21 46  1  0
 22 47  1  0
 23 48  1  0
M  END
>  <_SMILES>  (58) 
Cc1c(C(=O)NC(C)(C)C)nn(CC2CC2)c1-c1ccccc1

$$$$

     RDKit          3D

 45 47  0  0  0  0  0  0  0  0999 V2000
    1.8898   -0.5059   -2.3454 C   0  0  0  0  0  0  0  0  0  0  0  0
    1.6781   -0.3042   -0.8885 C   0  0  0  0  0  0  0  0  0  0  0  0
    0.4252   -0.2887   -0.2033 C   0  0  0  0  0  0  0  0  0  0  0  0
   -0.9242   -0.4526   -0.7790 C   0  0  0  0  0  0  0  0  0  0  0  0
   -1.1372   -0.5742   -1.9816 O   0  0  0  0  0  0  0  0  0  0  0  0
   -1.9195   -0.4376    0.1762 N   0  0  0  0  0  0  0  0  0  0  0  0
   -3.3295   -0.3776   -0.1526 C   0  0  0  0  0  0  0  0  0  0  0  0
   -4.1664   -0.9388    1.0017 C   0  0  0  0  0  0  0  0  0  0  0  0
   -5.6622   -0.8373    0.7161 C   0  0  0  0  0  0  0  0  0  0  0  0
   -6.0740    0.5927    0.3795 C   0  0  0  0  0  0  0  0  0  0  0  0
   -5.2457    1.1601   -0.7692 C   0  0  0  0  0  0  0  0  0  0  0  0
   -3.7486    1.0599   -0.4884 C   0  0  0  0  0  0  0  0  0  0  0  0
    0.5955   -0.0861    1.1199 N   0  0  0  0  0  0  0  0  0  0  0  0
    1.9283    0.0300    1.2676 N   0  0  0  0  0  0  0  0  0  0  0  0
    2.4668    0.2854    2.5848 C   0  0  0  0  0  0  0  0  0  0  0  0
    2.6330   -0.1034    0.0970 C   0  0  0  0  0  0  0  0  0  0  0  0
    4.0857   -0.0190    0.0037 C   0  0  0  0  0  0  0  0  0  0  0  0
    4.6888    1.1079   -0.5659 C   0  0  0  0  0  0  0  0  0  0  0  0
    6.0796    1.1940   -0.6516 C   0  0  0  0  0  0  0  0  0  0  0  0
    6.8738    0.1531   -0.1722 C   0  0  0  0  0  0  0  0  0  0  0  0
    6.2794   -0.9759    0.3900 C   0  0  0  0  0  0  0  0  0  0  0  0
    4.8886   -1.0632    0.4768 C   0  0  0  0  0  0  0  0  0  0  0  0
    1.4535    0.3232   -2.9116 H   0  0  0  0  0  0  0  0  0  0  0  0
    2.9524   -0.5635   -2.5996 H   0  0  0  0  0  0  0  0  0  0  0  0
    1.4215   -1.4387   -2.6755 H   0  0  0  0  0  0  0  0  0  0  0  0
   -1.5921   -0.1985    1.1098 H   0  0  0  0  0  0  0  0  0  0  0  0
   -3.4904   -1.0019   -1.0412 H   0  0  0  0  0  0  0  0  0  0  0  0
   -3.9364   -0.3966    1.9284 H   0  0  0  0  0  0  0  0  0  0  0  0
   -3.8983   -1.9870    1.1824 H   0  0  0  0  0  0  0  0  0  0  0  0
   -5.9194   -1.4981   -0.1208 H   0  0  0  0  0  0  0  0  0  0  0  0
   -6.2282   -1.1887    1.5861 H   0  0  0  0  0  0  0  0  0  0  0  0
   -5.9497    1.2263    1.2663 H   0  0  0  0  0  0  0  0  0  0  0  0
   -7.1372    0.6180    0.1153 H   0  0  0  0  0  0  0  0  0  0  0  0
   -5.5195    2.2075   -0.9386 H   0  0  0  0  0  0  0  0  0  0  0  0
   -5.4802    0.6153   -1.6920 H   0  0  0  0  0  0  0  0  0  0  0  0
   -3.4893    1.7265    0.3448 H   0  0  0  0  0  0  0  0  0  0  0  0
   -3.1907    1.4240   -1.3596 H   0  0  0  0  0  0  0  0  0  0  0  0
    2.9082   -0.6413    2.9587 H   0  0  0  0  0  0  0  0  0  0  0  0
    3.2181    1.0758    2.5161 H   0  0  0  0  0  0  0  0  0  0  0  0
    1.6607    0.6098    3.2486 H   0  0  0  0  0  0  0  0  0  0  0  0
    4.0781    1.9241   -0.9452 H   0  0  0  0  0  0  0  0  0  0  0  0
    6.5424    2.0717   -1.0953 H   0  0  0  0  0  0  0  0  0  0  0  0
    7.9566    0.2193   -0.2427 H   0  0  0  0  0  0  0  0  0  0  0  0
    6.8985   -1.7914    0.7549 H   0  0  0  0  0  0  0  0  0  0  0  0
    4.4359   -1.9548    0.9045 H   0  0  0  0  0  0  0  0  0  0  0  0
  1  2  1  0
  2  3  1  0
  3  4  1  0
  4  5  2  0
  4  6  1  0
  6  7  1  0
  7  8  1  0
  8  9  1  0
  9 10  1  0
 10 11  1  0
 11 12  1  0
  3 13  2  0
 13 14  1  0
 14 15  1  0
 14 16  1  0
 16 17  1  0
 17 18  2  0
 18 19  1  0
 19 20  2  0
 20 21  1  0
 21 22  2  0
 16  2  2  0
 22 17  1  0
 12  7  1  0
  1 23  1  0
  1 24  1  0
  1 25  1  0
  6 26  1  0
  7 27  1  0
  8 28  1  0
  8 29  1  0
  9 30  1  0
  9 31  1  0
 10 32  1  0
 10 33  1  0
 11 34  1  0
 11 35  1  0
 12 36  1  0
 12 37  1  0
 15 38  1  0
 15 39  1  0
 15 40  1  0
 18 41  1  0
 19 42  1  0
 20 43  1  0
 21 44  1  0
 22 45  1  0
M  END
>  <_SMILES>  (59) 
Cc1c(C(=O)NC2CCCCC2)nn(C)c1-c1ccccc1

$$$$

     RDKit          3D

 48 50  0  0  0  0  0  0  0  0999 V2000
   -3.6272   -3.1231    0.9756 C   0  0  0  0  0  0  0  0  0  0  0  0
   -3.4473   -2.4983   -0.3966 C   0  0  0  0  0  0  0  0  0  0  0  0
   -2.3280   -1.5732   -0.4369 N   0  0  0  0  0  0  0  0  0  0  0  0
   -1.1002   -2.0645   -0.6718 N   0  0  0  0  0  0  0  0  0  0  0  0
   -0.2908   -0.9923   -0.6640 C   0  0  0  0  0  0  0  0  0  0  0  0
    1.1618   -1.1388   -0.8792 C   0  0  0  0  0  0  0  0  0  0  0  0
    1.6478   -1.8726   -1.7358 O   0  0  0  0  0  0  0  0  0  0  0  0
    1.9393   -0.3846   -0.0169 N   0  0  0  0  0  0  0  0  0  0  0  0
    3.3892   -0.3624   -0.1048 C   0  0  0  0  0  0  0  0  0  0  0  0
    4.0058    0.0753    1.2245 C   0  0  0  0  0  0  0  0  0  0  0  0
    5.5344    0.0109    1.1934 C   0  0  0  0  0  0  0  0  0  0  0  0
    6.1282    0.2386   -0.1976 C   0  0  0  0  0  0  0  0  0  0  0  0
    5.2464    1.1423   -1.0474 C   0  0  0  0  0  0  0  0  0  0  0  0
    3.8513    0.5481   -1.2565 C   0  0  0  0  0  0  0  0  0  0  0  0
   -1.0394    0.2071   -0.4259 C   0  0  0  0  0  0  0  0  0  0  0  0
   -0.5343    1.6041   -0.3865 C   0  0  0  0  0  0  0  0  0  0  0  0
   -2.3522   -0.2117   -0.2642 C   0  0  0  0  0  0  0  0  0  0  0  0
   -3.5564    0.5617    0.0073 C   0  0  0  0  0  0  0  0  0  0  0  0
   -4.3062    1.0912   -1.0486 C   0  0  0  0  0  0  0  0  0  0  0  0
   -5.4603    1.8318   -0.7878 C   0  0  0  0  0  0  0  0  0  0  0  0
   -5.8671    2.0490    0.5282 C   0  0  0  0  0  0  0  0  0  0  0  0
   -5.1200    1.5290    1.5847 C   0  0  0  0  0  0  0  0  0  0  0  0
   -3.9654    0.7885    1.3256 C   0  0  0  0  0  0  0  0  0  0  0  0
   -2.7327   -3.6782    1.2774 H   0  0  0  0  0  0  0  0  0  0  0  0
   -3.8185   -2.3607    1.7375 H   0  0  0  0  0  0  0  0  0  0  0  0
   -4.4729   -3.8175    0.9682 H   0  0  0  0  0  0  0  0  0  0  0  0
   -4.3527   -1.9644   -0.7005 H   0  0  0  0  0  0  0  0  0  0  0  0
   -3.2596   -3.2733   -1.1487 H   0  0  0  0  0  0  0  0  0  0  0  0
    1.4779    0.1427    0.7108 H   0  0  0  0  0  0  0  0  0  0  0  0
    3.7194   -1.3880   -0.3176 H   0  0  0  0  0  0  0  0  0  0  0  0
    3.6906    1.1026    1.4522 H   0  0  0  0  0  0  0  0  0  0  0  0
    3.6316   -0.5438    2.0491 H   0  0  0  0  0  0  0  0  0  0  0  0
    5.8724   -0.9645    1.5638 H   0  0  0  0  0  0  0  0  0  0  0  0
    5.9309    0.7566    1.8932 H   0  0  0  0  0  0  0  0  0  0  0  0
    7.1327    0.6663   -0.1029 H   0  0  0  0  0  0  0  0  0  0  0  0
    6.2473   -0.7273   -0.7048 H   0  0  0  0  0  0  0  0  0  0  0  0
    5.7165    1.3267   -2.0200 H   0  0  0  0  0  0  0  0  0  0  0  0
    5.1542    2.1189   -0.5555 H   0  0  0  0  0  0  0  0  0  0  0  0
    3.1434    1.3728   -1.4114 H   0  0  0  0  0  0  0  0  0  0  0  0
    3.8382   -0.0321   -2.1882 H   0  0  0  0  0  0  0  0  0  0  0  0
   -0.1978    1.8574    0.6237 H   0  0  0  0  0  0  0  0  0  0  0  0
    0.3038    1.7398   -1.0773 H   0  0  0  0  0  0  0  0  0  0  0  0
   -1.3110    2.3190   -0.6757 H   0  0  0  0  0  0  0  0  0  0  0  0
   -3.9942    0.9304   -2.0782 H   0  0  0  0  0  0  0  0  0  0  0  0
   -6.0403    2.2408   -1.6111 H   0  0  0  0  0  0  0  0  0  0  0  0
   -6.7656    2.6268    0.7306 H   0  0  0  0  0  0  0  0  0  0  0  0
   -5.4355    1.7021    2.6104 H   0  0  0  0  0  0  0  0  0  0  0  0
   -3.3873    0.3907    2.1564 H   0  0  0  0  0  0  0  0  0  0  0  0
  1  2  1  0
  2  3  1  0
  3  4  1  0
  4  5  2  0
  5  6  1  0
  6  7  2  0
  6  8  1  0
  8  9  1  0
  9 10  1  0
 10 11  1  0
 11 12  1  0
 12 13  1  0
 13 14  1  0
  5 15  1  0
 15 16  1  0
 15 17  2  0
 17 18  1  0
 18 19  2  0
 19 20  1  0
 20 21  2  0
 21 22  1  0
 22 23  2  0
 17  3  1  0
 23 18  1  0
 14  9  1  0
  1 24  1  0
  1 25  1  0
  1 26  1  0
  2 27  1  0
  2 28  1  0
  8 29  1  0
  9 30  1  0
 10 31  1  0
 10 32  1  0
 11 33  1  0
 11 34  1  0
 12 35  1  0
 12 36  1  0
 13 37  1  0
 13 38  1  0
 14 39  1  0
 14 40  1  0
 16 41  1  0
 16 42  1  0
 16 43  1  0
 19 44  1  0
 20 45  1  0
 21 46  1  0
 22 47  1  0
 23 48  1  0
M  END
>  <_SMILES>  (60) 
CCn1nc(C(=O)NC2CCCCC2)c(C)c1-c1ccccc1

$$$$

     RDKit          3D

 44 46  0  0  0  0  0  0  0  0999 V2000
    4.9476   -3.3864   -0.3243 C   0  0  0  0  0  0  0  0  0  0  0  0
    4.8757   -2.2064   -1.2751 C   0  0  0  0  0  0  0  0  0  0  0  0
    3.7622   -1.3674   -0.9391 O   0  0  0  0  0  0  0  0  0  0  0  0
    2.5606   -1.7140   -1.4971 C   0  0  0  0  0  0  0  0  0  0  0  0
    2.4200   -2.6806   -2.2411 O   0  0  0  0  0  0  0  0  0  0  0  0
    1.4643   -0.8039   -1.1026 C   0  0  0  0  0  0  0  0  0  0  0  0
    0.2184   -0.9900   -1.5780 N   0  0  0  0  0  0  0  0  0  0  0  0
   -0.5251   -0.0224   -1.0086 N   0  0  0  0  0  0  0  0  0  0  0  0
   -1.9477    0.0545   -1.3317 C   0  0  0  0  0  0  0  0  0  0  0  0
   -2.8145   -0.5438   -0.2503 C   0  0  0  0  0  0  0  0  0  0  0  0
   -3.7273    0.2547    0.4548 C   0  0  0  0  0  0  0  0  0  0  0  0
   -4.5320   -0.2998    1.4516 C   0  0  0  0  0  0  0  0  0  0  0  0
   -4.4382   -1.6576    1.7502 C   0  0  0  0  0  0  0  0  0  0  0  0
   -3.5406   -2.4632    1.0526 C   0  0  0  0  0  0  0  0  0  0  0  0
   -2.7345   -1.9109    0.0563 C   0  0  0  0  0  0  0  0  0  0  0  0
    0.2022    0.8247   -0.2089 C   0  0  0  0  0  0  0  0  0  0  0  0
   -0.3617    1.9652    0.5010 C   0  0  0  0  0  0  0  0  0  0  0  0
   -0.8467    1.8133    1.8043 C   0  0  0  0  0  0  0  0  0  0  0  0
   -1.3924    2.9044    2.4822 C   0  0  0  0  0  0  0  0  0  0  0  0
   -1.4492    4.1525    1.8633 C   0  0  0  0  0  0  0  0  0  0  0  0
   -0.9589    4.3121    0.5676 C   0  0  0  0  0  0  0  0  0  0  0  0
   -0.4141    3.2214   -0.1124 C   0  0  0  0  0  0  0  0  0  0  0  0
    1.5018    0.3387   -0.2330 C   0  0  0  0  0  0  0  0  0  0  0  0
    2.6758    0.8928    0.4924 C   0  0  0  0  0  0  0  0  0  0  0  0
    4.0561   -4.0156   -0.4097 H   0  0  0  0  0  0  0  0  0  0  0  0
    5.8289   -3.9995   -0.5330 H   0  0  0  0  0  0  0  0  0  0  0  0
    4.9951   -3.0410    0.7137 H   0  0  0  0  0  0  0  0  0  0  0  0
    5.7782   -1.5953   -1.1692 H   0  0  0  0  0  0  0  0  0  0  0  0
    4.8318   -2.5327   -2.3204 H   0  0  0  0  0  0  0  0  0  0  0  0
   -2.1882    1.1080   -1.5119 H   0  0  0  0  0  0  0  0  0  0  0  0
   -2.1113   -0.4762   -2.2775 H   0  0  0  0  0  0  0  0  0  0  0  0
   -3.8115    1.3184    0.2406 H   0  0  0  0  0  0  0  0  0  0  0  0
   -5.2321    0.3287    1.9957 H   0  0  0  0  0  0  0  0  0  0  0  0
   -5.0653   -2.0890    2.5259 H   0  0  0  0  0  0  0  0  0  0  0  0
   -3.4665   -3.5229    1.2829 H   0  0  0  0  0  0  0  0  0  0  0  0
   -2.0364   -2.5531   -0.4801 H   0  0  0  0  0  0  0  0  0  0  0  0
   -0.8108    0.8418    2.2933 H   0  0  0  0  0  0  0  0  0  0  0  0
   -1.7724    2.7787    3.4928 H   0  0  0  0  0  0  0  0  0  0  0  0
   -1.8721    5.0025    2.3931 H   0  0  0  0  0  0  0  0  0  0  0  0
   -0.9973    5.2868    0.0881 H   0  0  0  0  0  0  0  0  0  0  0  0
   -0.0283    3.3572   -1.1201 H   0  0  0  0  0  0  0  0  0  0  0  0
    3.4538    1.1985   -0.2143 H   0  0  0  0  0  0  0  0  0  0  0  0
    2.4109    1.7713    1.0888 H   0  0  0  0  0  0  0  0  0  0  0  0
    3.0918    0.1456    1.1758 H   0  0  0  0  0  0  0  0  0  0  0  0
  1  2  1  0
  2  3  1  0
  3  4  1  0
  4  5  2  0
  4  6  1  0
  6  7  2  0
  7  8  1  0
  8  9  1  0
  9 10  1  0
 10 11  2  0
 11 12  1  0
 12 13  2  0
 13 14  1  0
 14 15  2  0
  8 16  1  0
 16 17  1  0
 17 18  2  0
 18 19  1  0
 19 20  2  0
 20 21  1  0
 21 22  2  0
 16 23  2  0
 23 24  1  0
 23  6  1  0
 15 10  1  0
 22 17  1  0
  1 25  1  0
  1 26  1  0
  1 27  1  0
  2 28  1  0
  2 29  1  0
  9 30  1  0
  9 31  1  0
 11 32  1  0
 12 33  1  0
 13 34  1  0
 14 35  1  0
 15 36  1  0
 18 37  1  0
 19 38  1  0
 20 39  1  0
 21 40  1  0
 22 41  1  0
 24 42  1  0
 24 43  1  0
 24 44  1  0
M  END
>  <_SMILES>  (61) 
CCOC(=O)c1nn(Cc2ccccc2)c(-c2ccccc2)c1C

$$$$

     RDKit          3D

 39 41  0  0  0  0  0  0  0  0999 V2000
   -2.6027    2.1069   -0.8034 C   0  0  0  0  0  0  0  0  0  0  0  0
   -1.3097    1.8765   -0.1076 C   0  0  0  0  0  0  0  0  0  0  0  0
   -0.3072    2.8439    0.2318 C   0  0  0  0  0  0  0  0  0  0  0  0
   -0.2792    4.2874   -0.0636 C   0  0  0  0  0  0  0  0  0  0  0  0
   -0.8402    4.6613   -1.2594 N   0  0  0  0  0  0  0  0  0  0  0  0
    0.2393    5.1402    0.6523 O   0  0  0  0  0  0  0  0  0  0  0  0
    0.7011    2.2662    0.9062 N   0  0  0  0  0  0  0  0  0  0  0  0
    0.3788    0.9595    0.9653 N   0  0  0  0  0  0  0  0  0  0  0  0
    1.2795    0.0427    1.6589 C   0  0  0  0  0  0  0  0  0  0  0  0
    2.1547   -0.7308    0.7024 C   0  0  0  0  0  0  0  0  0  0  0  0
    3.1141   -0.0711   -0.0809 C   0  0  0  0  0  0  0  0  0  0  0  0
    3.9256   -0.7874   -0.9616 C   0  0  0  0  0  0  0  0  0  0  0  0
    3.7904   -2.1701   -1.0669 C   0  0  0  0  0  0  0  0  0  0  0  0
    2.8452   -2.8381   -0.2911 C   0  0  0  0  0  0  0  0  0  0  0  0
    2.0331   -2.1239    0.5914 C   0  0  0  0  0  0  0  0  0  0  0  0
   -0.8297    0.6690    0.3791 C   0  0  0  0  0  0  0  0  0  0  0  0
   -1.4170   -0.6631    0.3267 C   0  0  0  0  0  0  0  0  0  0  0  0
   -2.2298   -1.1172    1.3709 C   0  0  0  0  0  0  0  0  0  0  0  0
   -2.7886   -2.3954    1.3201 C   0  0  0  0  0  0  0  0  0  0  0  0
   -2.5405   -3.2225    0.2251 C   0  0  0  0  0  0  0  0  0  0  0  0
   -1.7370   -2.7722   -0.8218 C   0  0  0  0  0  0  0  0  0  0  0  0
   -1.1789   -1.4938   -0.7733 C   0  0  0  0  0  0  0  0  0  0  0  0
   -3.3281    1.3192   -0.5762 H   0  0  0  0  0  0  0  0  0  0  0  0
   -3.0506    3.0566   -0.4945 H   0  0  0  0  0  0  0  0  0  0  0  0
   -2.4528    2.1257   -1.8873 H   0  0  0  0  0  0  0  0  0  0  0  0
   -0.6395    5.6141   -1.5321 H   0  0  0  0  0  0  0  0  0  0  0  0
   -0.9297    3.9764   -1.9956 H   0  0  0  0  0  0  0  0  0  0  0  0
    0.6648   -0.6205    2.2773 H   0  0  0  0  0  0  0  0  0  0  0  0
    1.9024    0.6303    2.3443 H   0  0  0  0  0  0  0  0  0  0  0  0
    3.2301    1.0100   -0.0090 H   0  0  0  0  0  0  0  0  0  0  0  0
    4.6638   -0.2645   -1.5642 H   0  0  0  0  0  0  0  0  0  0  0  0
    4.4235   -2.7270   -1.7526 H   0  0  0  0  0  0  0  0  0  0  0  0
    2.7399   -3.9168   -0.3728 H   0  0  0  0  0  0  0  0  0  0  0  0
    1.2975   -2.6634    1.1851 H   0  0  0  0  0  0  0  0  0  0  0  0
   -2.4344   -0.4770    2.2260 H   0  0  0  0  0  0  0  0  0  0  0  0
   -3.4201   -2.7444    2.1331 H   0  0  0  0  0  0  0  0  0  0  0  0
   -2.9768   -4.2175    0.1856 H   0  0  0  0  0  0  0  0  0  0  0  0
   -1.5435   -3.4156   -1.6761 H   0  0  0  0  0  0  0  0  0  0  0  0
   -0.5477   -1.1535   -1.5916 H   0  0  0  0  0  0  0  0  0  0  0  0
  1  2  1  0
  2  3  1  0
  3  4  1  0
  4  5  1  0
  4  6  2  0
  3  7  2  0
  7  8  1  0
  8  9  1  0
  9 10  1  0
 10 11  2  0
 11 12  1  0
 12 13  2  0
 13 14  1  0
 14 15  2  0
  8 16  1  0
 16 17  1  0
 17 18  2  0
 18 19  1  0
 19 20  2  0
 20 21  1  0
 21 22  2  0
 16  2  2  0
 22 17  1  0
 15 10  1  0
  1 23  1  0
  1 24  1  0
  1 25  1  0
  5 26  1  0
  5 27  1  0
  9 28  1  0
  9 29  1  0
 11 30  1  0
 12 31  1  0
 13 32  1  0
 14 33  1  0
 15 34  1  0
 18 35  1  0
 19 36  1  0
 20 37  1  0
 21 38  1  0
 22 39  1  0
M  END
>  <_SMILES>  (62) 
Cc1c(C(N)=O)nn(Cc2ccccc2)c1-c1ccccc1

$$$$

     RDKit          3D

 51 53  0  0  0  0  0  0  0  0999 V2000
    6.9724   -1.6218   -1.3483 C   0  0  0  0  0  0  0  0  0  0  0  0
    5.8324   -2.6272   -1.2969 C   0  0  0  0  0  0  0  0  0  0  0  0
    4.4646   -1.9845   -1.0631 C   0  0  0  0  0  0  0  0  0  0  0  0
    4.3340   -1.3243    0.3081 C   0  0  0  0  0  0  0  0  0  0  0  0
    2.9927   -0.8446    0.5356 N   0  0  0  0  0  0  0  0  0  0  0  0
    2.5334    0.3671    0.0651 C   0  0  0  0  0  0  0  0  0  0  0  0
    3.2441    1.1845   -0.5121 O   0  0  0  0  0  0  0  0  0  0  0  0
    1.0939    0.5737    0.3196 C   0  0  0  0  0  0  0  0  0  0  0  0
    0.3534   -0.3743    0.9306 N   0  0  0  0  0  0  0  0  0  0  0  0
   -0.8933    0.1484    0.9685 N   0  0  0  0  0  0  0  0  0  0  0  0
   -1.9637   -0.6222    1.5972 C   0  0  0  0  0  0  0  0  0  0  0  0
   -2.8468   -1.3131    0.5864 C   0  0  0  0  0  0  0  0  0  0  0  0
   -4.2127   -1.0030    0.5073 C   0  0  0  0  0  0  0  0  0  0  0  0
   -5.0332   -1.6445   -0.4220 C   0  0  0  0  0  0  0  0  0  0  0  0
   -4.5004   -2.6067   -1.2773 C   0  0  0  0  0  0  0  0  0  0  0  0
   -3.1470   -2.9294   -1.2044 C   0  0  0  0  0  0  0  0  0  0  0  0
   -2.3246   -2.2889   -0.2765 C   0  0  0  0  0  0  0  0  0  0  0  0
   -0.9744    1.4139    0.4362 C   0  0  0  0  0  0  0  0  0  0  0  0
   -2.1986    2.2014    0.3774 C   0  0  0  0  0  0  0  0  0  0  0  0
   -3.0454    2.1048   -0.7317 C   0  0  0  0  0  0  0  0  0  0  0  0
   -4.2222    2.8535   -0.7842 C   0  0  0  0  0  0  0  0  0  0  0  0
   -4.5534    3.7068    0.2676 C   0  0  0  0  0  0  0  0  0  0  0  0
   -3.7078    3.8150    1.3712 C   0  0  0  0  0  0  0  0  0  0  0  0
   -2.5313    3.0656    1.4260 C   0  0  0  0  0  0  0  0  0  0  0  0
    0.3031    1.7154   -0.0094 C   0  0  0  0  0  0  0  0  0  0  0  0
    0.7694    2.9545   -0.6839 C   0  0  0  0  0  0  0  0  0  0  0  0
    7.9072   -2.1275   -1.6109 H   0  0  0  0  0  0  0  0  0  0  0  0
    7.1209   -1.1338   -0.3806 H   0  0  0  0  0  0  0  0  0  0  0  0
    6.7821   -0.8498   -2.1005 H   0  0  0  0  0  0  0  0  0  0  0  0
    5.8032   -3.1698   -2.2494 H   0  0  0  0  0  0  0  0  0  0  0  0
    6.0348   -3.3691   -0.5158 H   0  0  0  0  0  0  0  0  0  0  0  0
    4.2605   -1.2512   -1.8533 H   0  0  0  0  0  0  0  0  0  0  0  0
    3.6954   -2.7613   -1.1607 H   0  0  0  0  0  0  0  0  0  0  0  0
    4.5574   -2.0419    1.1041 H   0  0  0  0  0  0  0  0  0  0  0  0
    5.0243   -0.4797    0.4010 H   0  0  0  0  0  0  0  0  0  0  0  0
    2.2771   -1.4502    0.9298 H   0  0  0  0  0  0  0  0  0  0  0  0
   -1.5032   -1.3659    2.2587 H   0  0  0  0  0  0  0  0  0  0  0  0
   -2.5314    0.0642    2.2349 H   0  0  0  0  0  0  0  0  0  0  0  0
   -4.6474   -0.2492    1.1612 H   0  0  0  0  0  0  0  0  0  0  0  0
   -6.0888   -1.3916   -0.4795 H   0  0  0  0  0  0  0  0  0  0  0  0
   -5.1396   -3.1052   -2.0012 H   0  0  0  0  0  0  0  0  0  0  0  0
   -2.7299   -3.6795   -1.8714 H   0  0  0  0  0  0  0  0  0  0  0  0
   -1.2684   -2.5510   -0.2341 H   0  0  0  0  0  0  0  0  0  0  0  0
   -2.7960    1.4400   -1.5562 H   0  0  0  0  0  0  0  0  0  0  0  0
   -4.8778    2.7711   -1.6472 H   0  0  0  0  0  0  0  0  0  0  0  0
   -5.4679    4.2929    0.2238 H   0  0  0  0  0  0  0  0  0  0  0  0
   -3.9617    4.4873    2.1867 H   0  0  0  0  0  0  0  0  0  0  0  0
   -1.8737    3.1634    2.2866 H   0  0  0  0  0  0  0  0  0  0  0  0
    1.1620    2.7227   -1.6792 H   0  0  0  0  0  0  0  0  0  0  0  0
    1.5613    3.4332   -0.0990 H   0  0  0  0  0  0  0  0  0  0  0  0
   -0.0391    3.6817   -0.8063 H   0  0  0  0  0  0  0  0  0  0  0  0
  1  2  1  0
  2  3  1  0
  3  4  1  0
  4  5  1  0
  5  6  1  0
  6  7  2  0
  6  8  1  0
  8  9  2  0
  9 10  1  0
 10 11  1  0
 11 12  1  0
 12 13  2  0
 13 14  1  0
 14 15  2  0
 15 16  1  0
 16 17  2  0
 10 18  1  0
 18 19  1  0
 19 20  2  0
 20 21  1  0
 21 22  2  0
 22 23  1  0
 23 24  2  0
 18 25  2  0
 25 26  1  0
 25  8  1  0
 17 12  1  0
 24 19  1  0
  1 27  1  0
  1 28  1  0
  1 29  1  0
  2 30  1  0
  2 31  1  0
  3 32  1  0
  3 33  1  0
  4 34  1  0
  4 35  1  0
  5 36  1  0
 11 37  1  0
 11 38  1  0
 13 39  1  0
 14 40  1  0
 15 41  1  0
 16 42  1  0
 17 43  1  0
 20 44  1  0
 21 45  1  0
 22 46  1  0
 23 47  1  0
 24 48  1  0
 26 49  1  0
 26 50  1  0
 26 51  1  0
M  END
>  <_SMILES>  (63) 
CCCCNC(=O)c1nn(Cc2ccccc2)c(-c2ccccc2)c1C

$$$$

     RDKit          3D

 54 56  0  0  0  0  0  0  0  0999 V2000
   -0.6578    3.2868   -1.0910 C   0  0  0  0  0  0  0  0  0  0  0  0
   -0.6700    1.8952   -0.5704 C   0  0  0  0  0  0  0  0  0  0  0  0
    0.4495    1.0172   -0.4602 C   0  0  0  0  0  0  0  0  0  0  0  0
    1.8524    1.2845   -0.8329 C   0  0  0  0  0  0  0  0  0  0  0  0
    2.2463    2.3656   -1.2596 O   0  0  0  0  0  0  0  0  0  0  0  0
    2.6734    0.1935   -0.6356 N   0  0  0  0  0  0  0  0  0  0  0  0
    4.1204    0.2632   -0.7256 C   0  0  0  0  0  0  0  0  0  0  0  0
    4.7283    0.8542    0.5544 C   0  0  0  0  0  0  0  0  0  0  0  0
    4.6387   -0.1056    1.7404 C   0  0  0  0  0  0  0  0  0  0  0  0
    5.2555   -1.4617    1.4125 C   0  0  0  0  0  0  0  0  0  0  0  0
    4.6415   -2.0739    0.1575 C   0  0  0  0  0  0  0  0  0  0  0  0
    4.7124   -1.1176   -1.0334 C   0  0  0  0  0  0  0  0  0  0  0  0
    0.0879   -0.1700    0.0681 N   0  0  0  0  0  0  0  0  0  0  0  0
   -1.2411   -0.0579    0.2615 N   0  0  0  0  0  0  0  0  0  0  0  0
   -1.9628   -1.1956    0.8103 C   0  0  0  0  0  0  0  0  0  0  0  0
   -2.6665   -2.0562   -0.2522 C   0  0  0  0  0  0  0  0  0  0  0  0
   -3.5753   -3.0792    0.4317 C   0  0  0  0  0  0  0  0  0  0  0  0
   -1.6685   -2.7757   -1.1622 C   0  0  0  0  0  0  0  0  0  0  0  0
   -1.7486    1.1713   -0.0844 C   0  0  0  0  0  0  0  0  0  0  0  0
   -3.1503    1.5501    0.0445 C   0  0  0  0  0  0  0  0  0  0  0  0
   -3.9886    1.5344   -1.0756 C   0  0  0  0  0  0  0  0  0  0  0  0
   -5.3318    1.8942   -0.9536 C   0  0  0  0  0  0  0  0  0  0  0  0
   -5.8413    2.2776    0.2863 C   0  0  0  0  0  0  0  0  0  0  0  0
   -5.0086    2.3059    1.4044 C   0  0  0  0  0  0  0  0  0  0  0  0
   -3.6652    1.9458    1.2839 C   0  0  0  0  0  0  0  0  0  0  0  0
    0.0200    3.9103   -0.4991 H   0  0  0  0  0  0  0  0  0  0  0  0
   -0.3242    3.3011   -2.1336 H   0  0  0  0  0  0  0  0  0  0  0  0
   -1.6498    3.7466   -1.0518 H   0  0  0  0  0  0  0  0  0  0  0  0
    2.2160   -0.5803   -0.1584 H   0  0  0  0  0  0  0  0  0  0  0  0
    4.3568    0.9363   -1.5591 H   0  0  0  0  0  0  0  0  0  0  0  0
    4.2375    1.7992    0.8156 H   0  0  0  0  0  0  0  0  0  0  0  0
    5.7847    1.0878    0.3697 H   0  0  0  0  0  0  0  0  0  0  0  0
    5.1527    0.3313    2.6041 H   0  0  0  0  0  0  0  0  0  0  0  0
    3.5897   -0.2399    2.0308 H   0  0  0  0  0  0  0  0  0  0  0  0
    6.3367   -1.3443    1.2682 H   0  0  0  0  0  0  0  0  0  0  0  0
    5.1196   -2.1434    2.2596 H   0  0  0  0  0  0  0  0  0  0  0  0
    3.5976   -2.3445    0.3560 H   0  0  0  0  0  0  0  0  0  0  0  0
    5.1651   -3.0045   -0.0899 H   0  0  0  0  0  0  0  0  0  0  0  0
    4.1998   -1.5684   -1.8918 H   0  0  0  0  0  0  0  0  0  0  0  0
    5.7645   -0.9948   -1.3210 H   0  0  0  0  0  0  0  0  0  0  0  0
   -1.2448   -1.7951    1.3844 H   0  0  0  0  0  0  0  0  0  0  0  0
   -2.6857   -0.8006    1.5326 H   0  0  0  0  0  0  0  0  0  0  0  0
   -3.2963   -1.4177   -0.8829 H   0  0  0  0  0  0  0  0  0  0  0  0
   -4.3263   -2.5784    1.0519 H   0  0  0  0  0  0  0  0  0  0  0  0
   -4.1068   -3.6853   -0.3096 H   0  0  0  0  0  0  0  0  0  0  0  0
   -3.0005   -3.7555    1.0737 H   0  0  0  0  0  0  0  0  0  0  0  0
   -1.0752   -2.0625   -1.7428 H   0  0  0  0  0  0  0  0  0  0  0  0
   -0.9806   -3.4007   -0.5828 H   0  0  0  0  0  0  0  0  0  0  0  0
   -2.1910   -3.4215   -1.8763 H   0  0  0  0  0  0  0  0  0  0  0  0
   -3.5990    1.2415   -2.0480 H   0  0  0  0  0  0  0  0  0  0  0  0
   -5.9789    1.8793   -1.8268 H   0  0  0  0  0  0  0  0  0  0  0  0
   -6.8866    2.5613    0.3799 H   0  0  0  0  0  0  0  0  0  0  0  0
   -5.4036    2.6143    2.3689 H   0  0  0  0  0  0  0  0  0  0  0  0
   -3.0214    1.9824    2.1597 H   0  0  0  0  0  0  0  0  0  0  0  0
  1  2  1  0
  2  3  1  0
  3  4  1  0
  4  5  2  0
  4  6  1  0
  6  7  1  0
  7  8  1  0
  8  9  1  0
  9 10  1  0
 10 11  1  0
 11 12  1  0
  3 13  2  0
 13 14  1  0
 14 15  1  0
 15 16  1  0
 16 17  1  0
 16 18  1  0
 14 19  1  0
 19 20  1  0
 20 21  2  0
 21 22  1  0
 22 23  2  0
 23 24  1  0
 24 25  2  0
 19  2  2  0
 25 20  1  0
 12  7  1  0
  1 26  1  0
  1 27  1  0
  1 28  1  0
  6 29  1  0
  7 30  1  0
  8 31  1  0
  8 32  1  0
  9 33  1  0
  9 34  1  0
 10 35  1  0
 10 36  1  0
 11 37  1  0
 11 38  1  0
 12 39  1  0
 12 40  1  0
 15 41  1  0
 15 42  1  0
 16 43  1  0
 17 44  1  0
 17 45  1  0
 17 46  1  0
 18 47  1  0
 18 48  1  0
 18 49  1  0
 21 50  1  0
 22 51  1  0
 23 52  1  0
 24 53  1  0
 25 54  1  0
M  END
>  <_SMILES>  (64) 
Cc1c(C(=O)NC2CCCCC2)nn(CC(C)C)c1-c1ccccc1

$$$$

     RDKit          3D

 37 39  0  0  0  0  0  0  0  0999 V2000
   -2.8641    1.8700   -1.3605 C   0  0  0  0  0  0  0  0  0  0  0  0
   -1.6668    1.8627   -0.4821 C   0  0  0  0  0  0  0  0  0  0  0  0
   -0.9071    2.9946   -0.0462 C   0  0  0  0  0  0  0  0  0  0  0  0
   -1.2576    4.5370   -0.4622 C   0  0  0  0  0  0  0  0  0  0  0  0
   -0.4782    5.4526   -0.0449 O   0  0  0  0  0  0  0  0  0  0  0  0
   -2.2950    4.7176   -1.1809 O   0  0  0  0  0  0  0  0  0  0  0  0
    0.1156    2.6189    0.7470 N   0  0  0  0  0  0  0  0  0  0  0  0
    0.0232    1.2790    0.7987 N   0  0  0  0  0  0  0  0  0  0  0  0
    0.9748    0.5507    1.6302 C   0  0  0  0  0  0  0  0  0  0  0  0
    2.0817   -0.0955    0.8287 C   0  0  0  0  0  0  0  0  0  0  0  0
    2.3197   -1.4748    0.9270 C   0  0  0  0  0  0  0  0  0  0  0  0
    3.3503   -2.0708    0.1976 C   0  0  0  0  0  0  0  0  0  0  0  0
    4.1585   -1.2949   -0.6315 C   0  0  0  0  0  0  0  0  0  0  0  0
    3.9382    0.0773   -0.7312 C   0  0  0  0  0  0  0  0  0  0  0  0
    2.9089    0.6748   -0.0027 C   0  0  0  0  0  0  0  0  0  0  0  0
   -1.0404    0.7660    0.0940 C   0  0  0  0  0  0  0  0  0  0  0  0
   -1.3686   -0.6514    0.0210 C   0  0  0  0  0  0  0  0  0  0  0  0
   -0.7322   -1.4771   -0.9113 C   0  0  0  0  0  0  0  0  0  0  0  0
   -1.0412   -2.8370   -0.9732 C   0  0  0  0  0  0  0  0  0  0  0  0
   -1.9937   -3.3757   -0.1087 C   0  0  0  0  0  0  0  0  0  0  0  0
   -2.6402   -2.5552    0.8157 C   0  0  0  0  0  0  0  0  0  0  0  0
   -2.3299   -1.1954    0.8792 C   0  0  0  0  0  0  0  0  0  0  0  0
   -2.6300    2.3223   -2.3293 H   0  0  0  0  0  0  0  0  0  0  0  0
   -3.6817    2.4280   -0.8937 H   0  0  0  0  0  0  0  0  0  0  0  0
   -3.2292    0.8566   -1.5552 H   0  0  0  0  0  0  0  0  0  0  0  0
    0.4050   -0.1893    2.2034 H   0  0  0  0  0  0  0  0  0  0  0  0
    1.4061    1.2531    2.3537 H   0  0  0  0  0  0  0  0  0  0  0  0
    1.6923   -2.0957    1.5628 H   0  0  0  0  0  0  0  0  0  0  0  0
    3.5191   -3.1411    0.2741 H   0  0  0  0  0  0  0  0  0  0  0  0
    4.9584   -1.7577   -1.2021 H   0  0  0  0  0  0  0  0  0  0  0  0
    4.5619    0.6883   -1.3782 H   0  0  0  0  0  0  0  0  0  0  0  0
    2.7427    1.7495   -0.0934 H   0  0  0  0  0  0  0  0  0  0  0  0
    0.0095   -1.0591   -1.5894 H   0  0  0  0  0  0  0  0  0  0  0  0
   -0.5397   -3.4701   -1.6996 H   0  0  0  0  0  0  0  0  0  0  0  0
   -2.2380   -4.4329   -0.1610 H   0  0  0  0  0  0  0  0  0  0  0  0
   -3.3903   -2.9694    1.4833 H   0  0  0  0  0  0  0  0  0  0  0  0
   -2.8421   -0.5556    1.5945 H   0  0  0  0  0  0  0  0  0  0  0  0
  1  2  1  0
  2  3  1  0
  3  4  1  0
  4  5  2  0
  4  6  1  0
  3  7  2  0
  7  8  1  0
  8  9  1  0
  9 10  1  0
 10 11  2  0
 11 12  1  0
 12 13  2  0
 13 14  1  0
 14 15  2  0
  8 16  1  0
 16 17  1  0
 17 18  2  0
 18 19  1  0
 19 20  2  0
 20 21  1  0
 21 22  2  0
 16  2  2  0
 22 17  1  0
 15 10  1  0
  1 23  1  0
  1 24  1  0
  1 25  1  0
  9 26  1  0
  9 27  1  0
 11 28  1  0
 12 29  1  0
 13 30  1  0
 14 31  1  0
 15 32  1  0
 18 33  1  0
 19 34  1  0
 20 35  1  0
 21 36  1  0
 22 37  1  0
M  CHG  1   6  -1
M  END
>  <_SMILES>  (65) 
Cc1c(C(=O)[O-])nn(Cc2ccccc2)c1-c1ccccc1

$$$$

     RDKit          3D

 46 49  0  0  0  0  0  0  0  0999 V2000
    1.8579    2.7216   -0.0393 C   0  0  0  0  0  0  0  0  0  0  0  0
    1.1805    1.4407   -0.3687 C   0  0  0  0  0  0  0  0  0  0  0  0
    1.8061    0.1787   -0.5985 C   0  0  0  0  0  0  0  0  0  0  0  0
    3.2474   -0.1367   -0.5623 C   0  0  0  0  0  0  0  0  0  0  0  0
    4.1167    0.6965   -0.3214 O   0  0  0  0  0  0  0  0  0  0  0  0
    3.5063   -1.4668   -0.8328 N   0  0  0  0  0  0  0  0  0  0  0  0
    4.8102   -2.0330   -0.8515 C   0  0  0  0  0  0  0  0  0  0  0  0
    4.9993   -3.5183   -0.9939 C   0  0  0  0  0  0  0  0  0  0  0  0
    5.3043   -2.8462    0.3123 C   0  0  0  0  0  0  0  0  0  0  0  0
    0.8944   -0.7752   -0.8796 N   0  0  0  0  0  0  0  0  0  0  0  0
   -0.2945   -0.1345   -0.8019 N   0  0  0  0  0  0  0  0  0  0  0  0
   -1.5200   -0.8826   -1.0734 C   0  0  0  0  0  0  0  0  0  0  0  0
   -2.2419   -1.2836    0.1901 C   0  0  0  0  0  0  0  0  0  0  0  0
   -3.5388   -0.8139    0.4465 C   0  0  0  0  0  0  0  0  0  0  0  0
   -4.2113   -1.1877    1.6112 C   0  0  0  0  0  0  0  0  0  0  0  0
   -3.5991   -2.0391    2.5285 C   0  0  0  0  0  0  0  0  0  0  0  0
   -2.3143   -2.5185    2.2827 C   0  0  0  0  0  0  0  0  0  0  0  0
   -1.6397   -2.1458    1.1193 C   0  0  0  0  0  0  0  0  0  0  0  0
   -0.1773    1.2068   -0.5210 C   0  0  0  0  0  0  0  0  0  0  0  0
   -1.3052    2.1217   -0.4073 C   0  0  0  0  0  0  0  0  0  0  0  0
   -1.9300    2.3190    0.8285 C   0  0  0  0  0  0  0  0  0  0  0  0
   -3.0155    3.1899    0.9356 C   0  0  0  0  0  0  0  0  0  0  0  0
   -3.4759    3.8722   -0.1898 C   0  0  0  0  0  0  0  0  0  0  0  0
   -2.8504    3.6873   -1.4224 C   0  0  0  0  0  0  0  0  0  0  0  0
   -1.7656    2.8155   -1.5315 C   0  0  0  0  0  0  0  0  0  0  0  0
    2.5484    3.0054   -0.8400 H   0  0  0  0  0  0  0  0  0  0  0  0
    2.4243    2.6254    0.8925 H   0  0  0  0  0  0  0  0  0  0  0  0
    1.1432    3.5402    0.0891 H   0  0  0  0  0  0  0  0  0  0  0  0
    2.6836   -2.0329   -1.0239 H   0  0  0  0  0  0  0  0  0  0  0  0
    5.5424   -1.4017   -1.3519 H   0  0  0  0  0  0  0  0  0  0  0  0
    5.8331   -3.8647   -1.5936 H   0  0  0  0  0  0  0  0  0  0  0  0
    4.1233   -4.1537   -1.0431 H   0  0  0  0  0  0  0  0  0  0  0  0
    6.3429   -2.7296    0.5994 H   0  0  0  0  0  0  0  0  0  0  0  0
    4.6306   -3.0139    1.1442 H   0  0  0  0  0  0  0  0  0  0  0  0
   -2.1466   -0.2618   -1.7233 H   0  0  0  0  0  0  0  0  0  0  0  0
   -1.2512   -1.7770   -1.6483 H   0  0  0  0  0  0  0  0  0  0  0  0
   -4.0322   -0.1423   -0.2535 H   0  0  0  0  0  0  0  0  0  0  0  0
   -5.2132   -0.8124    1.8032 H   0  0  0  0  0  0  0  0  0  0  0  0
   -4.1231   -2.3291    3.4355 H   0  0  0  0  0  0  0  0  0  0  0  0
   -1.8355   -3.1826    2.9979 H   0  0  0  0  0  0  0  0  0  0  0  0
   -0.6351   -2.5278    0.9437 H   0  0  0  0  0  0  0  0  0  0  0  0
   -1.5788    1.7895    1.7119 H   0  0  0  0  0  0  0  0  0  0  0  0
   -3.4990    3.3361    1.8981 H   0  0  0  0  0  0  0  0  0  0  0  0
   -4.3187    4.5536   -0.1045 H   0  0  0  0  0  0  0  0  0  0  0  0
   -3.2037    4.2265   -2.2976 H   0  0  0  0  0  0  0  0  0  0  0  0
   -1.2786    2.6849   -2.4951 H   0  0  0  0  0  0  0  0  0  0  0  0
  1  2  1  0
  2  3  1  0
  3  4  1  0
  4  5  2  0
  4  6  1  0
  6  7  1  0
  7  8  1  0
  8  9  1  0
  3 10  2  0
 10 11  1  0
 11 12  1  0
 12 13  1  0
 13 14  2  0
 14 15  1  0
 15 16  2  0
 16 17  1  0
 17 18  2  0
 11 19  1  0
 19 20  1  0
 20 21  2  0
 21 22  1  0
 22 23  2  0
 23 24  1  0
 24 25  2  0
 19  2  2  0
 25 20  1  0
  9  7  1  0
 18 13  1  0
  1 26  1  0
  1 27  1  0
  1 28  1  0
  6 29  1  0
  7 30  1  0
  8 31  1  0
  8 32  1  0
  9 33  1  0
  9 34  1  0
 12 35  1  0
 12 36  1  0
 14 37  1  0
 15 38  1  0
 16 39  1  0
 17 40  1  0
 18 41  1  0
 21 42  1  0
 22 43  1  0
 23 44  1  0
 24 45  1  0
 25 46  1  0
M  END
>  <_SMILES>  (66) 
Cc1c(C(=O)NC2CC2)nn(Cc2ccccc2)c1-c1ccccc1

$$$$

     RDKit          3D

 49 51  0  0  0  0  0  0  0  0999 V2000
   -2.7223    3.7396    1.2386 C   0  0  0  0  0  0  0  0  0  0  0  0
   -3.0569    2.4639    1.0014 C   0  0  0  0  0  0  0  0  0  0  0  0
   -2.4274    1.2767    1.6772 C   0  0  0  0  0  0  0  0  0  0  0  0
   -1.7739    0.3765    0.7285 N   0  0  0  0  0  0  0  0  0  0  0  0
   -0.4514    0.5228    0.4957 N   0  0  0  0  0  0  0  0  0  0  0  0
   -0.1654   -0.4283   -0.4169 C   0  0  0  0  0  0  0  0  0  0  0  0
    1.2032   -0.5822   -0.9484 C   0  0  0  0  0  0  0  0  0  0  0  0
    1.5310   -1.4725   -1.7269 O   0  0  0  0  0  0  0  0  0  0  0  0
    2.0753    0.3715   -0.4653 N   0  0  0  0  0  0  0  0  0  0  0  0
    3.5074    0.3129   -0.6770 C   0  0  0  0  0  0  0  0  0  0  0  0
    4.1232    1.7174   -0.5760 C   0  0  0  0  0  0  0  0  0  0  0  0
    5.6015    1.7126   -0.1783 C   0  0  0  0  0  0  0  0  0  0  0  0
    6.3045    0.4327   -0.6073 C   0  0  0  0  0  0  0  0  0  0  0  0
    5.6713   -0.8041    0.0319 C   0  0  0  0  0  0  0  0  0  0  0  0
    4.1728   -0.6543    0.3055 C   0  0  0  0  0  0  0  0  0  0  0  0
   -1.3214   -1.2012   -0.7376 C   0  0  0  0  0  0  0  0  0  0  0  0
   -1.3911   -2.3402   -1.6893 C   0  0  0  0  0  0  0  0  0  0  0  0
   -2.3444   -0.6601    0.0265 C   0  0  0  0  0  0  0  0  0  0  0  0
   -3.7506   -1.0330    0.1084 C   0  0  0  0  0  0  0  0  0  0  0  0
   -4.6563   -0.5744   -0.8543 C   0  0  0  0  0  0  0  0  0  0  0  0
   -6.0043   -0.9281   -0.7756 C   0  0  0  0  0  0  0  0  0  0  0  0
   -6.4512   -1.7461    0.2615 C   0  0  0  0  0  0  0  0  0  0  0  0
   -5.5513   -2.2151    1.2179 C   0  0  0  0  0  0  0  0  0  0  0  0
   -4.2029   -1.8619    1.1408 C   0  0  0  0  0  0  0  0  0  0  0  0
   -3.2192    4.5507    0.7145 H   0  0  0  0  0  0  0  0  0  0  0  0
   -1.9426    4.0051    1.9463 H   0  0  0  0  0  0  0  0  0  0  0  0
   -3.8427    2.2530    0.2796 H   0  0  0  0  0  0  0  0  0  0  0  0
   -3.1863    0.7050    2.2202 H   0  0  0  0  0  0  0  0  0  0  0  0
   -1.6686    1.5804    2.4083 H   0  0  0  0  0  0  0  0  0  0  0  0
    1.6797    0.9576    0.2668 H   0  0  0  0  0  0  0  0  0  0  0  0
    3.6715   -0.0689   -1.6935 H   0  0  0  0  0  0  0  0  0  0  0  0
    3.5748    2.3377    0.1448 H   0  0  0  0  0  0  0  0  0  0  0  0
    4.0051    2.2184   -1.5455 H   0  0  0  0  0  0  0  0  0  0  0  0
    6.1017    2.5852   -0.6133 H   0  0  0  0  0  0  0  0  0  0  0  0
    5.6831    1.8177    0.9110 H   0  0  0  0  0  0  0  0  0  0  0  0
    6.2546    0.3439   -1.6999 H   0  0  0  0  0  0  0  0  0  0  0  0
    7.3681    0.4770   -0.3469 H   0  0  0  0  0  0  0  0  0  0  0  0
    5.8439   -1.6652   -0.6251 H   0  0  0  0  0  0  0  0  0  0  0  0
    6.1787   -1.0350    0.9765 H   0  0  0  0  0  0  0  0  0  0  0  0
    4.0259   -0.2876    1.3304 H   0  0  0  0  0  0  0  0  0  0  0  0
    3.6981   -1.6423    0.2702 H   0  0  0  0  0  0  0  0  0  0  0  0
   -0.7144   -3.1417   -1.3758 H   0  0  0  0  0  0  0  0  0  0  0  0
   -1.1054   -2.0155   -2.6949 H   0  0  0  0  0  0  0  0  0  0  0  0
   -2.3991   -2.7617   -1.7490 H   0  0  0  0  0  0  0  0  0  0  0  0
   -4.3154    0.0578   -1.6712 H   0  0  0  0  0  0  0  0  0  0  0  0
   -6.7043   -0.5697   -1.5259 H   0  0  0  0  0  0  0  0  0  0  0  0
   -7.5005   -2.0243    0.3202 H   0  0  0  0  0  0  0  0  0  0  0  0
   -5.8985   -2.8606    2.0206 H   0  0  0  0  0  0  0  0  0  0  0  0
   -3.5072   -2.2422    1.8852 H   0  0  0  0  0  0  0  0  0  0  0  0
  1  2  2  0
  2  3  1  0
  3  4  1  0
  4  5  1  0
  5  6  2  0
  6  7  1  0
  7  8  2  0
  7  9  1  0
  9 10  1  0
 10 11  1  0
 11 12  1  0
 12 13  1  0
 13 14  1  0
 14 15  1  0
  6 16  1  0
 16 17  1  0
 16 18  2  0
 18 19  1  0
 19 20  2  0
 20 21  1  0
 21 22  2  0
 22 23  1  0
 23 24  2  0
 18  4  1  0
 24 19  1  0
 15 10  1  0
  1 25  1  0
  1 26  1  0
  2 27  1  0
  3 28  1  0
  3 29  1  0
  9 30  1  0
 10 31  1  0
 11 32  1  0
 11 33  1  0
 12 34  1  0
 12 35  1  0
 13 36  1  0
 13 37  1  0
 14 38  1  0
 14 39  1  0
 15 40  1  0
 15 41  1  0
 17 42  1  0
 17 43  1  0
 17 44  1  0
 20 45  1  0
 21 46  1  0
 22 47  1  0
 23 48  1  0
 24 49  1  0
M  END
>  <_SMILES>  (67) 
C=CCn1nc(C(=O)NC2CCCCC2)c(C)c1-c1ccccc1

$$$$

     RDKit          3D

 51 53  0  0  0  0  0  0  0  0999 V2000
   -3.7284   -1.8139   -2.9256 C   0  0  0  0  0  0  0  0  0  0  0  0
   -4.3383   -0.7628   -2.0094 C   0  0  0  0  0  0  0  0  0  0  0  0
   -3.4727    0.4890   -1.8665 C   0  0  0  0  0  0  0  0  0  0  0  0
   -2.2138    0.2586   -1.1787 N   0  0  0  0  0  0  0  0  0  0  0  0
   -1.1087    0.0577   -1.9155 N   0  0  0  0  0  0  0  0  0  0  0  0
   -0.1269   -0.1421   -1.0213 C   0  0  0  0  0  0  0  0  0  0  0  0
    1.2570   -0.4019   -1.4624 C   0  0  0  0  0  0  0  0  0  0  0  0
    1.5415   -1.1666   -2.3805 O   0  0  0  0  0  0  0  0  0  0  0  0
    2.2162    0.3033   -0.7560 N   0  0  0  0  0  0  0  0  0  0  0  0
    3.6412    0.1257   -0.9941 C   0  0  0  0  0  0  0  0  0  0  0  0
    4.4232    1.3721   -0.5458 C   0  0  0  0  0  0  0  0  0  0  0  0
    4.8964    1.2543    0.8988 C   0  0  0  0  0  0  0  0  0  0  0  0
    5.8371    0.0631    1.0929 C   0  0  0  0  0  0  0  0  0  0  0  0
    5.5953   -1.0739    0.0985 C   0  0  0  0  0  0  0  0  0  0  0  0
    4.1302   -1.1633   -0.3074 C   0  0  0  0  0  0  0  0  0  0  0  0
   -0.6335   -0.0550    0.3169 C   0  0  0  0  0  0  0  0  0  0  0  0
    0.1130   -0.2513    1.5869 C   0  0  0  0  0  0  0  0  0  0  0  0
   -1.9829    0.2370    0.1751 C   0  0  0  0  0  0  0  0  0  0  0  0
   -3.0078    0.4482    1.1894 C   0  0  0  0  0  0  0  0  0  0  0  0
   -3.6158   -0.6453    1.8155 C   0  0  0  0  0  0  0  0  0  0  0  0
   -4.5965   -0.4426    2.7879 C   0  0  0  0  0  0  0  0  0  0  0  0
   -4.9699    0.8532    3.1424 C   0  0  0  0  0  0  0  0  0  0  0  0
   -4.3619    1.9474    2.5279 C   0  0  0  0  0  0  0  0  0  0  0  0
   -3.3812    1.7462    1.5550 C   0  0  0  0  0  0  0  0  0  0  0  0
   -2.8040   -2.2221   -2.5061 H   0  0  0  0  0  0  0  0  0  0  0  0
   -4.4274   -2.6456   -3.0603 H   0  0  0  0  0  0  0  0  0  0  0  0
   -3.5067   -1.3949   -3.9122 H   0  0  0  0  0  0  0  0  0  0  0  0
   -5.3104   -0.4664   -2.4210 H   0  0  0  0  0  0  0  0  0  0  0  0
   -4.5319   -1.2121   -1.0294 H   0  0  0  0  0  0  0  0  0  0  0  0
   -4.0162    1.2600   -1.3101 H   0  0  0  0  0  0  0  0  0  0  0  0
   -3.2422    0.9148   -2.8506 H   0  0  0  0  0  0  0  0  0  0  0  0
    1.9099    0.9505   -0.0435 H   0  0  0  0  0  0  0  0  0  0  0  0
    3.7761    0.0203   -2.0782 H   0  0  0  0  0  0  0  0  0  0  0  0
    3.8195    2.2789   -0.6712 H   0  0  0  0  0  0  0  0  0  0  0  0
    5.3036    1.4933   -1.1904 H   0  0  0  0  0  0  0  0  0  0  0  0
    5.4032    2.1753    1.2084 H   0  0  0  0  0  0  0  0  0  0  0  0
    4.0255    1.1419    1.5569 H   0  0  0  0  0  0  0  0  0  0  0  0
    5.7248   -0.3094    2.1184 H   0  0  0  0  0  0  0  0  0  0  0  0
    6.8789    0.3935    1.0011 H   0  0  0  0  0  0  0  0  0  0  0  0
    5.9272   -2.0219    0.5367 H   0  0  0  0  0  0  0  0  0  0  0  0
    6.2084   -0.9129   -0.7972 H   0  0  0  0  0  0  0  0  0  0  0  0
    3.9797   -2.0164   -0.9800 H   0  0  0  0  0  0  0  0  0  0  0  0
    3.5293   -1.3727    0.5879 H   0  0  0  0  0  0  0  0  0  0  0  0
    0.5636    0.6918    1.9117 H   0  0  0  0  0  0  0  0  0  0  0  0
   -0.5426   -0.6081    2.3873 H   0  0  0  0  0  0  0  0  0  0  0  0
    0.9081   -0.9936    1.4657 H   0  0  0  0  0  0  0  0  0  0  0  0
   -3.3297   -1.6598    1.5469 H   0  0  0  0  0  0  0  0  0  0  0  0
   -5.0677   -1.2957    3.2694 H   0  0  0  0  0  0  0  0  0  0  0  0
   -5.7329    1.0103    3.9007 H   0  0  0  0  0  0  0  0  0  0  0  0
   -4.6497    2.9574    2.8084 H   0  0  0  0  0  0  0  0  0  0  0  0
   -2.9089    2.6064    1.0863 H   0  0  0  0  0  0  0  0  0  0  0  0
  1  2  1  0
  2  3  1  0
  3  4  1  0
  4  5  1  0
  5  6  2  0
  6  7  1  0
  7  8  2  0
  7  9  1  0
  9 10  1  0
 10 11  1  0
 11 12  1  0
 12 13  1  0
 13 14  1  0
 14 15  1  0
  6 16  1  0
 16 17  1  0
 16 18  2  0
 18 19  1  0
 19 20  2  0
 20 21  1  0
 21 22  2  0
 22 23  1  0
 23 24  2  0
 18  4  1  0
 24 19  1  0
 15 10  1  0
  1 25  1  0
  1 26  1  0
  1 27  1  0
  2 28  1  0
  2 29  1  0
  3 30  1  0
  3 31  1  0
  9 32  1  0
 10 33  1  0
 11 34  1  0
 11 35  1  0
 12 36  1  0
 12 37  1  0
 13 38  1  0
 13 39  1  0
 14 40  1  0
 14 41  1  0
 15 42  1  0
 15 43  1  0
 17 44  1  0
 17 45  1  0
 17 46  1  0
 20 47  1  0
 21 48  1  0
 22 49  1  0
 23 50  1  0
 24 51  1  0
M  END
>  <_SMILES>  (68) 
CCCn1nc(C(=O)NC2CCCCC2)c(C)c1-c1ccccc1

$$$$

     RDKit          3D

 54 56  0  0  0  0  0  0  0  0999 V2000
   -3.2085   -4.1161    0.6171 C   0  0  0  0  0  0  0  0  0  0  0  0
   -3.6381   -2.8233    1.2932 C   0  0  0  0  0  0  0  0  0  0  0  0
   -2.6138   -1.6959    1.1570 C   0  0  0  0  0  0  0  0  0  0  0  0
   -2.4129   -1.2387   -0.2870 C   0  0  0  0  0  0  0  0  0  0  0  0
   -1.5379   -0.0788   -0.3728 N   0  0  0  0  0  0  0  0  0  0  0  0
   -0.2050   -0.2774   -0.3772 N   0  0  0  0  0  0  0  0  0  0  0  0
    0.3159    0.9632   -0.4765 C   0  0  0  0  0  0  0  0  0  0  0  0
    1.7766    1.1728   -0.5100 C   0  0  0  0  0  0  0  0  0  0  0  0
    2.3013    2.2818   -0.5412 O   0  0  0  0  0  0  0  0  0  0  0  0
    2.4878   -0.0093   -0.4860 N   0  0  0  0  0  0  0  0  0  0  0  0
    3.9238   -0.0610   -0.3037 C   0  0  0  0  0  0  0  0  0  0  0  0
    4.4877   -1.3796   -0.8325 C   0  0  0  0  0  0  0  0  0  0  0  0
    6.0151   -1.4216   -0.7487 C   0  0  0  0  0  0  0  0  0  0  0  0
    6.5889   -0.5831    0.3946 C   0  0  0  0  0  0  0  0  0  0  0  0
    5.6259   -0.4951    1.5700 C   0  0  0  0  0  0  0  0  0  0  0  0
    4.2965    0.1523    1.1739 C   0  0  0  0  0  0  0  0  0  0  0  0
   -0.7124    1.9520   -0.5267 C   0  0  0  0  0  0  0  0  0  0  0  0
   -0.5264    3.4225   -0.6292 C   0  0  0  0  0  0  0  0  0  0  0  0
   -1.9016    1.2426   -0.4574 C   0  0  0  0  0  0  0  0  0  0  0  0
   -3.2793    1.7159   -0.4647 C   0  0  0  0  0  0  0  0  0  0  0  0
   -3.9440    1.9262   -1.6777 C   0  0  0  0  0  0  0  0  0  0  0  0
   -5.2662    2.3738   -1.6851 C   0  0  0  0  0  0  0  0  0  0  0  0
   -5.9272    2.6167   -0.4815 C   0  0  0  0  0  0  0  0  0  0  0  0
   -5.2668    2.4167    0.7303 C   0  0  0  0  0  0  0  0  0  0  0  0
   -3.9446    1.9695    0.7394 C   0  0  0  0  0  0  0  0  0  0  0  0
   -3.1491   -4.0001   -0.4690 H   0  0  0  0  0  0  0  0  0  0  0  0
   -2.2317   -4.4460    0.9846 H   0  0  0  0  0  0  0  0  0  0  0  0
   -3.9345   -4.9083    0.8263 H   0  0  0  0  0  0  0  0  0  0  0  0
   -3.7959   -3.0230    2.3598 H   0  0  0  0  0  0  0  0  0  0  0  0
   -4.6031   -2.5013    0.8850 H   0  0  0  0  0  0  0  0  0  0  0  0
   -2.9521   -0.8487    1.7662 H   0  0  0  0  0  0  0  0  0  0  0  0
   -1.6546   -2.0149    1.5840 H   0  0  0  0  0  0  0  0  0  0  0  0
   -1.9519   -2.0267   -0.8932 H   0  0  0  0  0  0  0  0  0  0  0  0
   -3.3681   -0.9847   -0.7572 H   0  0  0  0  0  0  0  0  0  0  0  0
    1.9128   -0.8340   -0.3272 H   0  0  0  0  0  0  0  0  0  0  0  0
    4.3555    0.7608   -0.8906 H   0  0  0  0  0  0  0  0  0  0  0  0
    4.0698   -2.2137   -0.2527 H   0  0  0  0  0  0  0  0  0  0  0  0
    4.1745   -1.5483   -1.8702 H   0  0  0  0  0  0  0  0  0  0  0  0
    6.3315   -2.4660   -0.6384 H   0  0  0  0  0  0  0  0  0  0  0  0
    6.4484   -1.0702   -1.6930 H   0  0  0  0  0  0  0  0  0  0  0  0
    6.8046    0.4294    0.0304 H   0  0  0  0  0  0  0  0  0  0  0  0
    7.5460   -1.0081    0.7176 H   0  0  0  0  0  0  0  0  0  0  0  0
    6.0795    0.0707    2.3917 H   0  0  0  0  0  0  0  0  0  0  0  0
    5.4363   -1.5053    1.9545 H   0  0  0  0  0  0  0  0  0  0  0  0
    4.3426    1.2312    1.3707 H   0  0  0  0  0  0  0  0  0  0  0  0
    3.5115   -0.2361    1.8358 H   0  0  0  0  0  0  0  0  0  0  0  0
    0.0313    3.7978    0.2348 H   0  0  0  0  0  0  0  0  0  0  0  0
    0.0277    3.6751   -1.5389 H   0  0  0  0  0  0  0  0  0  0  0  0
   -1.4826    3.9534   -0.6641 H   0  0  0  0  0  0  0  0  0  0  0  0
   -3.4343    1.7455   -2.6213 H   0  0  0  0  0  0  0  0  0  0  0  0
   -5.7786    2.5370   -2.6297 H   0  0  0  0  0  0  0  0  0  0  0  0
   -6.9559    2.9685   -0.4881 H   0  0  0  0  0  0  0  0  0  0  0  0
   -5.7795    2.6142    1.6682 H   0  0  0  0  0  0  0  0  0  0  0  0
   -3.4348    1.8257    1.6893 H   0  0  0  0  0  0  0  0  0  0  0  0
  1  2  1  0
  2  3  1  0
  3  4  1  0
  4  5  1  0
  5  6  1  0
  6  7  2  0
  7  8  1  0
  8  9  2  0
  8 10  1  0
 10 11  1  0
 11 12  1  0
 12 13  1  0
 13 14  1  0
 14 15  1  0
 15 16  1  0
  7 17  1  0
 17 18  1  0
 17 19  2  0
 19 20  1  0
 20 21  2  0
 21 22  1  0
 22 23  2  0
 23 24  1  0
 24 25  2  0
 19  5  1  0
 25 20  1  0
 16 11  1  0
  1 26  1  0
  1 27  1  0
  1 28  1  0
  2 29  1  0
  2 30  1  0
  3 31  1  0
  3 32  1  0
  4 33  1  0
  4 34  1  0
 10 35  1  0
 11 36  1  0
 12 37  1  0
 12 38  1  0
 13 39  1  0
 13 40  1  0
 14 41  1  0
 14 42  1  0
 15 43  1  0
 15 44  1  0
 16 45  1  0
 16 46  1  0
 18 47  1  0
 18 48  1  0
 18 49  1  0
 21 50  1  0
 22 51  1  0
 23 52  1  0
 24 53  1  0
 25 54  1  0
M  END
>  <_SMILES>  (69) 
CCCCn1nc(C(=O)NC2CCCCC2)c(C)c1-c1ccccc1

$$$$

     RDKit          3D

 58 61  0  0  0  0  0  0  0  0999 V2000
   -0.1161    1.2705    3.4487 C   0  0  0  0  0  0  0  0  0  0  0  0
   -0.4197    0.7818    2.0787 C   0  0  0  0  0  0  0  0  0  0  0  0
    0.4886    0.1500    1.1788 C   0  0  0  0  0  0  0  0  0  0  0  0
    1.9177   -0.1497    1.3942 C   0  0  0  0  0  0  0  0  0  0  0  0
    2.5327    0.1738    2.4058 O   0  0  0  0  0  0  0  0  0  0  0  0
    2.4903   -0.8164    0.3304 N   0  0  0  0  0  0  0  0  0  0  0  0
    3.9174   -1.0360    0.2115 C   0  0  0  0  0  0  0  0  0  0  0  0
    4.2006   -2.2508   -0.6862 C   0  0  0  0  0  0  0  0  0  0  0  0
    5.5751   -2.2101   -1.3590 C   0  0  0  0  0  0  0  0  0  0  0  0
    6.5871   -1.4179   -0.5439 C   0  0  0  0  0  0  0  0  0  0  0  0
    6.1474    0.0341   -0.3498 C   0  0  0  0  0  0  0  0  0  0  0  0
    4.6280    0.2151   -0.3113 C   0  0  0  0  0  0  0  0  0  0  0  0
   -0.1180   -0.1680    0.0174 N   0  0  0  0  0  0  0  0  0  0  0  0
   -1.3895    0.2567    0.1735 N   0  0  0  0  0  0  0  0  0  0  0  0
   -2.3389    0.0720   -0.9240 C   0  0  0  0  0  0  0  0  0  0  0  0
   -2.6415   -1.4158   -1.1567 C   0  0  0  0  0  0  0  0  0  0  0  0
   -3.6351   -1.6096   -2.3000 C   0  0  0  0  0  0  0  0  0  0  0  0
   -3.1626   -0.9258   -3.5801 C   0  0  0  0  0  0  0  0  0  0  0  0
   -2.8611    0.5530   -3.3526 C   0  0  0  0  0  0  0  0  0  0  0  0
   -1.8617    0.7551   -2.2156 C   0  0  0  0  0  0  0  0  0  0  0  0
   -1.6286    0.8287    1.4012 C   0  0  0  0  0  0  0  0  0  0  0  0
   -2.9179    1.3570    1.8269 C   0  0  0  0  0  0  0  0  0  0  0  0
   -3.8924    0.5003    2.3508 C   0  0  0  0  0  0  0  0  0  0  0  0
   -5.1302    1.0069    2.7503 C   0  0  0  0  0  0  0  0  0  0  0  0
   -5.3972    2.3705    2.6311 C   0  0  0  0  0  0  0  0  0  0  0  0
   -4.4270    3.2297    2.1159 C   0  0  0  0  0  0  0  0  0  0  0  0
   -3.1886    2.7250    1.7159 C   0  0  0  0  0  0  0  0  0  0  0  0
   -1.0041    1.6737    3.9447 H   0  0  0  0  0  0  0  0  0  0  0  0
    0.6358    2.0653    3.4118 H   0  0  0  0  0  0  0  0  0  0  0  0
    0.2684    0.4549    4.0695 H   0  0  0  0  0  0  0  0  0  0  0  0
    1.8822   -0.8910   -0.4825 H   0  0  0  0  0  0  0  0  0  0  0  0
    4.2999   -1.2482    1.2188 H   0  0  0  0  0  0  0  0  0  0  0  0
    3.4371   -2.3498   -1.4686 H   0  0  0  0  0  0  0  0  0  0  0  0
    4.1168   -3.1597   -0.0764 H   0  0  0  0  0  0  0  0  0  0  0  0
    5.9348   -3.2325   -1.5218 H   0  0  0  0  0  0  0  0  0  0  0  0
    5.4782   -1.7523   -2.3517 H   0  0  0  0  0  0  0  0  0  0  0  0
    7.5695   -1.4425   -1.0289 H   0  0  0  0  0  0  0  0  0  0  0  0
    6.7116   -1.8948    0.4365 H   0  0  0  0  0  0  0  0  0  0  0  0
    6.5542    0.6564   -1.1561 H   0  0  0  0  0  0  0  0  0  0  0  0
    6.5895    0.4127    0.5798 H   0  0  0  0  0  0  0  0  0  0  0  0
    4.2639    0.4427   -1.3223 H   0  0  0  0  0  0  0  0  0  0  0  0
    4.3837    1.0928    0.2993 H   0  0  0  0  0  0  0  0  0  0  0  0
   -3.2738    0.5604   -0.6250 H   0  0  0  0  0  0  0  0  0  0  0  0
   -3.0460   -1.8652   -0.2415 H   0  0  0  0  0  0  0  0  0  0  0  0
   -1.7173   -1.9606   -1.3890 H   0  0  0  0  0  0  0  0  0  0  0  0
   -3.7788   -2.6800   -2.4854 H   0  0  0  0  0  0  0  0  0  0  0  0
   -4.6108   -1.2023   -2.0076 H   0  0  0  0  0  0  0  0  0  0  0  0
   -3.9281   -1.0301   -4.3572 H   0  0  0  0  0  0  0  0  0  0  0  0
   -2.2607   -1.4288   -3.9502 H   0  0  0  0  0  0  0  0  0  0  0  0
   -3.7921    1.0838   -3.1187 H   0  0  0  0  0  0  0  0  0  0  0  0
   -2.4648    0.9943   -4.2740 H   0  0  0  0  0  0  0  0  0  0  0  0
   -0.8871    0.3551   -2.5237 H   0  0  0  0  0  0  0  0  0  0  0  0
   -1.7175    1.8284   -2.0413 H   0  0  0  0  0  0  0  0  0  0  0  0
   -3.6899   -0.5631    2.4554 H   0  0  0  0  0  0  0  0  0  0  0  0
   -5.8838    0.3389    3.1592 H   0  0  0  0  0  0  0  0  0  0  0  0
   -6.3602    2.7649    2.9456 H   0  0  0  0  0  0  0  0  0  0  0  0
   -4.6332    4.2934    2.0293 H   0  0  0  0  0  0  0  0  0  0  0  0
   -2.4361    3.4030    1.3198 H   0  0  0  0  0  0  0  0  0  0  0  0
  1  2  1  0
  2  3  1  0
  3  4  1  0
  4  5  2  0
  4  6  1  0
  6  7  1  0
  7  8  1  0
  8  9  1  0
  9 10  1  0
 10 11  1  0
 11 12  1  0
  3 13  2  0
 13 14  1  0
 14 15  1  0
 15 16  1  0
 16 17  1  0
 17 18  1  0
 18 19  1  0
 19 20  1  0
 14 21  1  0
 21 22  1  0
 22 23  2  0
 23 24  1  0
 24 25  2  0
 25 26  1  0
 26 27  2  0
 21  2  2  0
 27 22  1  0
 12  7  1  0
 20 15  1  0
  1 28  1  0
  1 29  1  0
  1 30  1  0
  6 31  1  0
  7 32  1  0
  8 33  1  0
  8 34  1  0
  9 35  1  0
  9 36  1  0
 10 37  1  0
 10 38  1  0
 11 39  1  0
 11 40  1  0
 12 41  1  0
 12 42  1  0
 15 43  1  0
 16 44  1  0
 16 45  1  0
 17 46  1  0
 17 47  1  0
 18 48  1  0
 18 49  1  0
 19 50  1  0
 19 51  1  0
 20 52  1  0
 20 53  1  0
 23 54  1  0
 24 55  1  0
 25 56  1  0
 26 57  1  0
 27 58  1  0
M  END
>  <_SMILES>  (70) 
Cc1c(C(=O)NC2CCCCC2)nn(C2CCCCC2)c1-c1ccccc1

$$$$

     RDKit          3D

 50 53  0  0  0  0  0  0  0  0999 V2000
    1.1238    3.0216    1.0604 C   0  0  0  0  0  0  0  0  0  0  0  0
    0.5054    1.6728    0.9654 C   0  0  0  0  0  0  0  0  0  0  0  0
    1.1065    0.4245    1.3346 C   0  0  0  0  0  0  0  0  0  0  0  0
    2.4584    0.2450    1.9233 C   0  0  0  0  0  0  0  0  0  0  0  0
    3.0246    1.1889    2.4808 O   0  0  0  0  0  0  0  0  0  0  0  0
    3.0855   -1.0015    1.8443 N   0  0  0  0  0  0  0  0  0  0  0  0
    4.3342   -1.2134    2.5722 C   0  0  0  0  0  0  0  0  0  0  0  0
    4.5119   -2.6921    2.9261 C   0  0  0  0  0  0  0  0  0  0  0  0
    4.5159   -3.5654    1.7876 O   0  0  0  0  0  0  0  0  0  0  0  0
    3.8279   -3.0370    0.6465 C   0  0  0  0  0  0  0  0  0  0  0  0
    2.6513   -2.1202    1.0028 C   0  0  0  0  0  0  0  0  0  0  0  0
    0.2441   -0.5904    1.1352 N   0  0  0  0  0  0  0  0  0  0  0  0
   -0.8626   -0.0115    0.6232 N   0  0  0  0  0  0  0  0  0  0  0  0
   -2.0232   -0.8480    0.3279 C   0  0  0  0  0  0  0  0  0  0  0  0
   -2.1127   -1.2104   -1.1348 C   0  0  0  0  0  0  0  0  0  0  0  0
   -3.1948   -0.7708   -1.9117 C   0  0  0  0  0  0  0  0  0  0  0  0
   -3.2815   -1.1095   -3.2631 C   0  0  0  0  0  0  0  0  0  0  0  0
   -2.2927   -1.8956   -3.8510 C   0  0  0  0  0  0  0  0  0  0  0  0
   -1.2164   -2.3450   -3.0889 C   0  0  0  0  0  0  0  0  0  0  0  0
   -1.1273   -2.0068   -1.7380 C   0  0  0  0  0  0  0  0  0  0  0  0
   -0.7640    1.3537    0.5100 C   0  0  0  0  0  0  0  0  0  0  0  0
   -1.8262    2.2158    0.0101 C   0  0  0  0  0  0  0  0  0  0  0  0
   -2.7379    2.7970    0.8978 C   0  0  0  0  0  0  0  0  0  0  0  0
   -3.7586    3.6191    0.4172 C   0  0  0  0  0  0  0  0  0  0  0  0
   -3.8692    3.8671   -0.9506 C   0  0  0  0  0  0  0  0  0  0  0  0
   -2.9577    3.2978   -1.8390 C   0  0  0  0  0  0  0  0  0  0  0  0
   -1.9358    2.4766   -1.3598 C   0  0  0  0  0  0  0  0  0  0  0  0
    0.5262    3.7802    0.5455 H   0  0  0  0  0  0  0  0  0  0  0  0
    1.2188    3.3231    2.1083 H   0  0  0  0  0  0  0  0  0  0  0  0
    2.1188    3.0229    0.6038 H   0  0  0  0  0  0  0  0  0  0  0  0
    4.3528   -0.6016    3.4800 H   0  0  0  0  0  0  0  0  0  0  0  0
    5.1454   -0.8777    1.9157 H   0  0  0  0  0  0  0  0  0  0  0  0
    5.4545   -2.8440    3.4612 H   0  0  0  0  0  0  0  0  0  0  0  0
    3.7022   -3.0221    3.5874 H   0  0  0  0  0  0  0  0  0  0  0  0
    3.4783   -3.8851    0.0493 H   0  0  0  0  0  0  0  0  0  0  0  0
    4.5622   -2.4930    0.0408 H   0  0  0  0  0  0  0  0  0  0  0  0
    1.9071   -2.6823    1.5778 H   0  0  0  0  0  0  0  0  0  0  0  0
    2.1995   -1.7462    0.0799 H   0  0  0  0  0  0  0  0  0  0  0  0
   -1.9476   -1.7588    0.9342 H   0  0  0  0  0  0  0  0  0  0  0  0
   -2.9147   -0.3114    0.6708 H   0  0  0  0  0  0  0  0  0  0  0  0
   -3.9750   -0.1516   -1.4729 H   0  0  0  0  0  0  0  0  0  0  0  0
   -4.1213   -0.7588   -3.8574 H   0  0  0  0  0  0  0  0  0  0  0  0
   -2.3613   -2.1590   -4.9032 H   0  0  0  0  0  0  0  0  0  0  0  0
   -0.4454   -2.9595   -3.5466 H   0  0  0  0  0  0  0  0  0  0  0  0
   -0.2804   -2.3650   -1.1551 H   0  0  0  0  0  0  0  0  0  0  0  0
   -2.6543    2.6163    1.9671 H   0  0  0  0  0  0  0  0  0  0  0  0
   -4.4638    4.0704    1.1105 H   0  0  0  0  0  0  0  0  0  0  0  0
   -4.6623    4.5101   -1.3240 H   0  0  0  0  0  0  0  0  0  0  0  0
   -3.0393    3.4945   -2.9048 H   0  0  0  0  0  0  0  0  0  0  0  0
   -1.2292    2.0365   -2.0604 H   0  0  0  0  0  0  0  0  0  0  0  0
  1  2  1  0
  2  3  1  0
  3  4  1  0
  4  5  2  0
  4  6  1  0
  6  7  1  0
  7  8  1  0
  8  9  1  0
  9 10  1  0
 10 11  1  0
  3 12  2  0
 12 13  1  0
 13 14  1  0
 14 15  1  0
 15 16  2  0
 16 17  1  0
 17 18  2  0
 18 19  1  0
 19 20  2  0
 13 21  1  0
 21 22  1  0
 22 23  2  0
 23 24  1  0
 24 25  2  0
 25 26  1  0
 26 27  2  0
 21  2  2  0
 27 22  1  0
 11  6  1  0
 20 15  1  0
  1 28  1  0
  1 29  1  0
  1 30  1  0
  7 31  1  0
  7 32  1  0
  8 33  1  0
  8 34  1  0
 10 35  1  0
 10 36  1  0
 11 37  1  0
 11 38  1  0
 14 39  1  0
 14 40  1  0
 16 41  1  0
 17 42  1  0
 18 43  1  0
 19 44  1  0
 20 45  1  0
 23 46  1  0
 24 47  1  0
 25 48  1  0
 26 49  1  0
 27 50  1  0
M  END
>  <_SMILES>  (71) 
Cc1c(C(=O)N2CCOCC2)nn(Cc2ccccc2)c1-c1ccccc1

$$$$

     RDKit          3D

 52 55  0  0  0  0  0  0  0  0999 V2000
   -0.7548   -1.4446   -2.9512 C   0  0  0  0  0  0  0  0  0  0  0  0
   -0.4383   -0.9698   -1.5793 C   0  0  0  0  0  0  0  0  0  0  0  0
    0.7065   -0.2173   -1.1799 C   0  0  0  0  0  0  0  0  0  0  0  0
    1.8233    0.2488   -2.0251 C   0  0  0  0  0  0  0  0  0  0  0  0
    1.9236   -0.0101   -3.2205 O   0  0  0  0  0  0  0  0  0  0  0  0
    2.7509    0.9910   -1.3240 N   0  0  0  0  0  0  0  0  0  0  0  0
    4.0246    1.3856   -1.8876 C   0  0  0  0  0  0  0  0  0  0  0  0
    4.6753    2.4969   -1.0706 C   0  0  0  0  0  0  0  0  0  0  0  0
    5.3712    1.7813    0.0861 C   0  0  0  0  0  0  0  0  0  0  0  0
    5.5732    0.3343   -0.3646 C   0  0  0  0  0  0  0  0  0  0  0  0
    5.0561    0.2634   -1.7986 C   0  0  0  0  0  0  0  0  0  0  0  0
    0.6864    0.0381    0.1447 N   0  0  0  0  0  0  0  0  0  0  0  0
   -0.4716   -0.5134    0.5735 N   0  0  0  0  0  0  0  0  0  0  0  0
   -0.8098   -0.4324    1.9926 C   0  0  0  0  0  0  0  0  0  0  0  0
   -1.8220    0.6490    2.2833 C   0  0  0  0  0  0  0  0  0  0  0  0
   -1.5292    1.9966    2.0232 C   0  0  0  0  0  0  0  0  0  0  0  0
   -2.4662    2.9930    2.3008 C   0  0  0  0  0  0  0  0  0  0  0  0
   -3.7030    2.6555    2.8462 C   0  0  0  0  0  0  0  0  0  0  0  0
   -4.0040    1.3222    3.1158 C   0  0  0  0  0  0  0  0  0  0  0  0
   -3.0683    0.3239    2.8394 C   0  0  0  0  0  0  0  0  0  0  0  0
   -1.1744   -1.1553   -0.4194 C   0  0  0  0  0  0  0  0  0  0  0  0
   -2.4369   -1.8514   -0.2108 C   0  0  0  0  0  0  0  0  0  0  0  0
   -3.6485   -1.1616   -0.3240 C   0  0  0  0  0  0  0  0  0  0  0  0
   -4.8577   -1.8272   -0.1166 C   0  0  0  0  0  0  0  0  0  0  0  0
   -4.8611   -3.1857    0.1975 C   0  0  0  0  0  0  0  0  0  0  0  0
   -3.6567   -3.8809    0.3015 C   0  0  0  0  0  0  0  0  0  0  0  0
   -2.4464   -3.2162    0.0958 C   0  0  0  0  0  0  0  0  0  0  0  0
    0.0231   -2.1274   -3.3076 H   0  0  0  0  0  0  0  0  0  0  0  0
   -1.7092   -1.9786   -2.9883 H   0  0  0  0  0  0  0  0  0  0  0  0
   -0.8205   -0.5986   -3.6428 H   0  0  0  0  0  0  0  0  0  0  0  0
    2.5939    1.0076   -0.3188 H   0  0  0  0  0  0  0  0  0  0  0  0
    3.8620    1.6912   -2.9266 H   0  0  0  0  0  0  0  0  0  0  0  0
    3.9634    3.2494   -0.7166 H   0  0  0  0  0  0  0  0  0  0  0  0
    5.4298    3.0087   -1.6809 H   0  0  0  0  0  0  0  0  0  0  0  0
    6.3218    2.2649    0.3335 H   0  0  0  0  0  0  0  0  0  0  0  0
    4.7470    1.8077    0.9867 H   0  0  0  0  0  0  0  0  0  0  0  0
    6.6224    0.0291   -0.3011 H   0  0  0  0  0  0  0  0  0  0  0  0
    4.9964   -0.3383    0.2810 H   0  0  0  0  0  0  0  0  0  0  0  0
    4.6516   -0.7252   -2.0373 H   0  0  0  0  0  0  0  0  0  0  0  0
    5.8825    0.4662   -2.4909 H   0  0  0  0  0  0  0  0  0  0  0  0
    0.1138   -0.2372    2.5510 H   0  0  0  0  0  0  0  0  0  0  0  0
   -1.1670   -1.4210    2.3017 H   0  0  0  0  0  0  0  0  0  0  0  0
   -0.5680    2.2773    1.5949 H   0  0  0  0  0  0  0  0  0  0  0  0
   -2.2301    4.0328    2.0896 H   0  0  0  0  0  0  0  0  0  0  0  0
   -4.4323    3.4322    3.0608 H   0  0  0  0  0  0  0  0  0  0  0  0
   -4.9693    1.0585    3.5401 H   0  0  0  0  0  0  0  0  0  0  0  0
   -3.3261   -0.7122    3.0509 H   0  0  0  0  0  0  0  0  0  0  0  0
   -3.6556   -0.1010   -0.5672 H   0  0  0  0  0  0  0  0  0  0  0  0
   -5.7956   -1.2847   -0.2026 H   0  0  0  0  0  0  0  0  0  0  0  0
   -5.8035   -3.7042    0.3546 H   0  0  0  0  0  0  0  0  0  0  0  0
   -3.6601   -4.9420    0.5372 H   0  0  0  0  0  0  0  0  0  0  0  0
   -1.5127   -3.7688    0.1704 H   0  0  0  0  0  0  0  0  0  0  0  0
  1  2  1  0
  2  3  1  0
  3  4  1  0
  4  5  2  0
  4  6  1  0
  6  7  1  0
  7  8  1  0
  8  9  1  0
  9 10  1  0
 10 11  1  0
  3 12  2  0
 12 13  1  0
 13 14  1  0
 14 15  1  0
 15 16  2  0
 16 17  1  0
 17 18  2  0
 18 19  1  0
 19 20  2  0
 13 21  1  0
 21 22  1  0
 22 23  2  0
 23 24  1  0
 24 25  2  0
 25 26  1  0
 26 27  2  0
 21  2  2  0
 27 22  1  0
 11  7  1  0
 20 15  1  0
  1 28  1  0
  1 29  1  0
  1 30  1  0
  6 31  1  0
  7 32  1  0
  8 33  1  0
  8 34  1  0
  9 35  1  0
  9 36  1  0
 10 37  1  0
 10 38  1  0
 11 39  1  0
 11 40  1  0
 14 41  1  0
 14 42  1  0
 16 43  1  0
 17 44  1  0
 18 45  1  0
 19 46  1  0
 20 47  1  0
 23 48  1  0
 24 49  1  0
 25 50  1  0
 26 51  1  0
 27 52  1  0
M  END
>  <_SMILES>  (72) 
Cc1c(C(=O)NC2CCCC2)nn(Cc2ccccc2)c1-c1ccccc1

$$$$

     RDKit          3D

 51 53  0  0  0  0  0  0  0  0999 V2000
   -1.2308   -2.8827    0.1754 C   0  0  0  0  0  0  0  0  0  0  0  0
   -1.1596   -1.4071    0.0087 C   0  0  0  0  0  0  0  0  0  0  0  0
    0.0172   -0.6347   -0.2022 C   0  0  0  0  0  0  0  0  0  0  0  0
    1.4112   -1.1111   -0.2966 C   0  0  0  0  0  0  0  0  0  0  0  0
    1.7372   -2.2852   -0.1508 O   0  0  0  0  0  0  0  0  0  0  0  0
    2.3085   -0.0943   -0.5505 N   0  0  0  0  0  0  0  0  0  0  0  0
    3.7450   -0.2739   -0.4869 C   0  0  0  0  0  0  0  0  0  0  0  0
    4.4491    0.7876   -1.3386 C   0  0  0  0  0  0  0  0  0  0  0  0
    5.9679    0.6673   -1.2487 C   0  0  0  0  0  0  0  0  0  0  0  0
    6.4502    0.7107    0.1981 C   0  0  0  0  0  0  0  0  0  0  0  0
    5.7542   -0.3432    1.0540 C   0  0  0  0  0  0  0  0  0  0  0  0
    4.2346   -0.2272    0.9666 C   0  0  0  0  0  0  0  0  0  0  0  0
   -0.2758    0.6757   -0.3064 N   0  0  0  0  0  0  0  0  0  0  0  0
   -1.6200    0.7412   -0.1725 N   0  0  0  0  0  0  0  0  0  0  0  0
   -2.2279    2.0693   -0.2532 C   0  0  0  0  0  0  0  0  0  0  0  0
   -2.9157    2.4995    1.0410 C   0  0  0  0  0  0  0  0  0  0  0  0
   -3.1349    2.2411   -1.4700 C   0  0  0  0  0  0  0  0  0  0  0  0
   -2.2034   -0.4911    0.0226 C   0  0  0  0  0  0  0  0  0  0  0  0
   -3.6273   -0.7451    0.2041 C   0  0  0  0  0  0  0  0  0  0  0  0
   -4.1784   -0.7830    1.4899 C   0  0  0  0  0  0  0  0  0  0  0  0
   -5.5360   -1.0567    1.6662 C   0  0  0  0  0  0  0  0  0  0  0  0
   -6.3460   -1.3084    0.5597 C   0  0  0  0  0  0  0  0  0  0  0  0
   -5.7989   -1.2951   -0.7226 C   0  0  0  0  0  0  0  0  0  0  0  0
   -4.4414   -1.0216   -0.8998 C   0  0  0  0  0  0  0  0  0  0  0  0
   -0.8115   -3.3868   -0.7012 H   0  0  0  0  0  0  0  0  0  0  0  0
   -0.6663   -3.1939    1.0602 H   0  0  0  0  0  0  0  0  0  0  0  0
   -2.2601   -3.2329    0.2978 H   0  0  0  0  0  0  0  0  0  0  0  0
    1.8981    0.8364   -0.5162 H   0  0  0  0  0  0  0  0  0  0  0  0
    3.9745   -1.2656   -0.8982 H   0  0  0  0  0  0  0  0  0  0  0  0
    4.1355    0.6948   -2.3856 H   0  0  0  0  0  0  0  0  0  0  0  0
    4.1448    1.7910   -1.0124 H   0  0  0  0  0  0  0  0  0  0  0  0
    6.4362    1.4782   -1.8178 H   0  0  0  0  0  0  0  0  0  0  0  0
    6.2872   -0.2743   -1.7121 H   0  0  0  0  0  0  0  0  0  0  0  0
    7.5344    0.5550    0.2303 H   0  0  0  0  0  0  0  0  0  0  0  0
    6.2574    1.7061    0.6170 H   0  0  0  0  0  0  0  0  0  0  0  0
    6.0626   -1.3429    0.7242 H   0  0  0  0  0  0  0  0  0  0  0  0
    6.0723   -0.2390    2.0975 H   0  0  0  0  0  0  0  0  0  0  0  0
    3.9137    0.7118    1.4366 H   0  0  0  0  0  0  0  0  0  0  0  0
    3.7750   -1.0357    1.5479 H   0  0  0  0  0  0  0  0  0  0  0  0
   -1.3850    2.7607   -0.3971 H   0  0  0  0  0  0  0  0  0  0  0  0
   -2.2805    2.3034    1.9114 H   0  0  0  0  0  0  0  0  0  0  0  0
   -3.8679    1.9848    1.1916 H   0  0  0  0  0  0  0  0  0  0  0  0
   -3.1314    3.5734    1.0167 H   0  0  0  0  0  0  0  0  0  0  0  0
   -2.6500    1.8726   -2.3803 H   0  0  0  0  0  0  0  0  0  0  0  0
   -4.0841    1.7122   -1.3534 H   0  0  0  0  0  0  0  0  0  0  0  0
   -3.3723    3.3001   -1.6201 H   0  0  0  0  0  0  0  0  0  0  0  0
   -3.5518   -0.6020    2.3603 H   0  0  0  0  0  0  0  0  0  0  0  0
   -5.9593   -1.0805    2.6670 H   0  0  0  0  0  0  0  0  0  0  0  0
   -7.4023   -1.5255    0.6976 H   0  0  0  0  0  0  0  0  0  0  0  0
   -6.4271   -1.5050   -1.5844 H   0  0  0  0  0  0  0  0  0  0  0  0
   -4.0209   -1.0283   -1.9029 H   0  0  0  0  0  0  0  0  0  0  0  0
  1  2  1  0
  2  3  1  0
  3  4  1  0
  4  5  2  0
  4  6  1  0
  6  7  1  0
  7  8  1  0
  8  9  1  0
  9 10  1  0
 10 11  1  0
 11 12  1  0
  3 13  2  0
 13 14  1  0
 14 15  1  0
 15 16  1  0
 15 17  1  0
 14 18  1  0
 18 19  1  0
 19 20  2  0
 20 21  1  0
 21 22  2  0
 22 23  1  0
 23 24  2  0
 18  2  2  0
 24 19  1  0
 12  7  1  0
  1 25  1  0
  1 26  1  0
  1 27  1  0
  6 28  1  0
  7 29  1  0
  8 30  1  0
  8 31  1  0
  9 32  1  0
  9 33  1  0
 10 34  1  0
 10 35  1  0
 11 36  1  0
 11 37  1  0
 12 38  1  0
 12 39  1  0
 15 40  1  0
 16 41  1  0
 16 42  1  0
 16 43  1  0
 17 44  1  0
 17 45  1  0
 17 46  1  0
 20 47  1  0
 21 48  1  0
 22 49  1  0
 23 50  1  0
 24 51  1  0
M  END
>  <_SMILES>  (73) 
Cc1c(C(=O)NC2CCCCC2)nn(C(C)C)c1-c1ccccc1

$$$$

     RDKit          3D

 50 53  0  0  0  0  0  0  0  0999 V2000
    1.5052   -2.1846   -0.6917 C   0  0  0  0  0  0  0  0  0  0  0  0
    0.8499   -1.0219   -0.0409 C   0  0  0  0  0  0  0  0  0  0  0  0
    1.4322    0.2277    0.3203 C   0  0  0  0  0  0  0  0  0  0  0  0
    2.7500    0.5340    0.1329 N   0  0  0  0  0  0  0  0  0  0  0  0
    3.7049   -0.1973    0.9826 C   0  0  0  0  0  0  0  0  0  0  0  0
    5.1166   -0.0624    0.4144 C   0  0  0  0  0  0  0  0  0  0  0  0
    5.5105    1.4030    0.2558 C   0  0  0  0  0  0  0  0  0  0  0  0
    4.4628    2.1541   -0.5599 C   0  0  0  0  0  0  0  0  0  0  0  0
    3.0643    1.9700    0.0286 C   0  0  0  0  0  0  0  0  0  0  0  0
    0.5238    1.0587    0.8323 N   0  0  0  0  0  0  0  0  0  0  0  0
   -0.6265    0.3560    0.8209 N   0  0  0  0  0  0  0  0  0  0  0  0
   -1.8328    0.9712    1.3659 C   0  0  0  0  0  0  0  0  0  0  0  0
   -2.7544    1.4948    0.2902 C   0  0  0  0  0  0  0  0  0  0  0  0
   -4.0721    1.0227    0.1928 C   0  0  0  0  0  0  0  0  0  0  0  0
   -4.9298    1.5118   -0.7939 C   0  0  0  0  0  0  0  0  0  0  0  0
   -4.4838    2.4823   -1.6887 C   0  0  0  0  0  0  0  0  0  0  0  0
   -3.1803    2.9658   -1.5978 C   0  0  0  0  0  0  0  0  0  0  0  0
   -2.3210    2.4781   -0.6123 C   0  0  0  0  0  0  0  0  0  0  0  0
   -0.4834   -0.9191    0.3290 C   0  0  0  0  0  0  0  0  0  0  0  0
   -1.5652   -1.8879    0.2215 C   0  0  0  0  0  0  0  0  0  0  0  0
   -1.7783   -2.8197    1.2427 C   0  0  0  0  0  0  0  0  0  0  0  0
   -2.8185   -3.7454    1.1426 C   0  0  0  0  0  0  0  0  0  0  0  0
   -3.6464   -3.7461    0.0204 C   0  0  0  0  0  0  0  0  0  0  0  0
   -3.4331   -2.8250   -1.0045 C   0  0  0  0  0  0  0  0  0  0  0  0
   -2.3925   -1.9001   -0.9062 C   0  0  0  0  0  0  0  0  0  0  0  0
    0.8259   -2.6771   -1.3951 H   0  0  0  0  0  0  0  0  0  0  0  0
    2.3920   -1.8810   -1.2567 H   0  0  0  0  0  0  0  0  0  0  0  0
    1.8093   -2.9188    0.0610 H   0  0  0  0  0  0  0  0  0  0  0  0
    3.6719    0.1968    2.0070 H   0  0  0  0  0  0  0  0  0  0  0  0
    3.4602   -1.2636    1.0413 H   0  0  0  0  0  0  0  0  0  0  0  0
    5.8318   -0.5696    1.0713 H   0  0  0  0  0  0  0  0  0  0  0  0
    5.1663   -0.5585   -0.5631 H   0  0  0  0  0  0  0  0  0  0  0  0
    6.4883    1.4767   -0.2326 H   0  0  0  0  0  0  0  0  0  0  0  0
    5.6074    1.8666    1.2452 H   0  0  0  0  0  0  0  0  0  0  0  0
    4.7136    3.2201   -0.5958 H   0  0  0  0  0  0  0  0  0  0  0  0
    4.4762    1.7837   -1.5928 H   0  0  0  0  0  0  0  0  0  0  0  0
    2.3487    2.4745   -0.6335 H   0  0  0  0  0  0  0  0  0  0  0  0
    3.0052    2.4489    1.0148 H   0  0  0  0  0  0  0  0  0  0  0  0
   -2.3253    0.2211    1.9947 H   0  0  0  0  0  0  0  0  0  0  0  0
   -1.5285    1.7928    2.0256 H   0  0  0  0  0  0  0  0  0  0  0  0
   -4.4374    0.2601    0.8778 H   0  0  0  0  0  0  0  0  0  0  0  0
   -5.9464    1.1339   -0.8650 H   0  0  0  0  0  0  0  0  0  0  0  0
   -5.1516    2.8622   -2.4573 H   0  0  0  0  0  0  0  0  0  0  0  0
   -2.8299    3.7227   -2.2947 H   0  0  0  0  0  0  0  0  0  0  0  0
   -1.3037    2.8641   -0.5553 H   0  0  0  0  0  0  0  0  0  0  0  0
   -1.1334   -2.8300    2.1183 H   0  0  0  0  0  0  0  0  0  0  0  0
   -2.9801   -4.4682    1.9380 H   0  0  0  0  0  0  0  0  0  0  0  0
   -4.4550   -4.4683   -0.0584 H   0  0  0  0  0  0  0  0  0  0  0  0
   -4.0747   -2.8258   -1.8818 H   0  0  0  0  0  0  0  0  0  0  0  0
   -2.2334   -1.1839   -1.7100 H   0  0  0  0  0  0  0  0  0  0  0  0
  1  2  1  0
  2  3  1  0
  3  4  1  0
  4  5  1  0
  5  6  1  0
  6  7  1  0
  7  8  1  0
  8  9  1  0
  3 10  2  0
 10 11  1  0
 11 12  1  0
 12 13  1  0
 13 14  2  0
 14 15  1  0
 15 16  2  0
 16 17  1  0
 17 18  2  0
 11 19  1  0
 19 20  1  0
 20 21  2  0
 21 22  1  0
 22 23  2  0
 23 24  1  0
 24 25  2  0
 19  2  2  0
 25 20  1  0
  9  4  1  0
 18 13  1  0
  1 26  1  0
  1 27  1  0
  1 28  1  0
  5 29  1  0
  5 30  1  0
  6 31  1  0
  6 32  1  0
  7 33  1  0
  7 34  1  0
  8 35  1  0
  8 36  1  0
  9 37  1  0
  9 38  1  0
 12 39  1  0
 12 40  1  0
 14 41  1  0
 15 42  1  0
 16 43  1  0
 17 44  1  0
 18 45  1  0
 21 46  1  0
 22 47  1  0
 23 48  1  0
 24 49  1  0
 25 50  1  0
M  END
>  <_SMILES>  (74) 
Cc1c(N2CCCCC2)nn(Cc2ccccc2)c1-c1ccccc1

$$$$

     RDKit          3D

 45 47  0  0  0  0  0  0  0  0999 V2000
    5.3619   -2.8387   -0.8614 C   0  0  0  0  0  0  0  0  0  0  0  0
    4.3190   -3.1431    0.1960 C   0  0  0  0  0  0  0  0  0  0  0  0
    3.3260   -2.0947    0.2710 N   0  0  0  0  0  0  0  0  0  0  0  0
    2.4546   -2.0364    1.3490 C   0  0  0  0  0  0  0  0  0  0  0  0
    2.5684   -2.7695    2.3281 O   0  0  0  0  0  0  0  0  0  0  0  0
    1.3654   -1.0510    1.1913 C   0  0  0  0  0  0  0  0  0  0  0  0
    0.1207   -1.3299    1.6130 N   0  0  0  0  0  0  0  0  0  0  0  0
   -0.6098   -0.2468    1.2832 N   0  0  0  0  0  0  0  0  0  0  0  0
   -2.0292   -0.2236    1.6261 C   0  0  0  0  0  0  0  0  0  0  0  0
   -2.9075   -0.5588    0.4449 C   0  0  0  0  0  0  0  0  0  0  0  0
   -3.7872    0.3971   -0.0843 C   0  0  0  0  0  0  0  0  0  0  0  0
   -4.6008    0.0847   -1.1747 C   0  0  0  0  0  0  0  0  0  0  0  0
   -4.5489   -1.1862   -1.7437 C   0  0  0  0  0  0  0  0  0  0  0  0
   -3.6840   -2.1467   -1.2236 C   0  0  0  0  0  0  0  0  0  0  0  0
   -2.8688   -1.8364   -0.1344 C   0  0  0  0  0  0  0  0  0  0  0  0
    0.1275    0.7469    0.6844 C   0  0  0  0  0  0  0  0  0  0  0  0
   -0.4186    2.0253    0.2493 C   0  0  0  0  0  0  0  0  0  0  0  0
   -0.8833    2.1823   -1.0606 C   0  0  0  0  0  0  0  0  0  0  0  0
   -1.4112    3.4056   -1.4766 C   0  0  0  0  0  0  0  0  0  0  0  0
   -1.4703    4.4782   -0.5876 C   0  0  0  0  0  0  0  0  0  0  0  0
   -1.0003    4.3301    0.7169 C   0  0  0  0  0  0  0  0  0  0  0  0
   -0.4735    3.1069    1.1350 C   0  0  0  0  0  0  0  0  0  0  0  0
    1.4241    0.2591    0.6120 C   0  0  0  0  0  0  0  0  0  0  0  0
    2.6166    0.9645    0.0738 C   0  0  0  0  0  0  0  0  0  0  0  0
    5.8809   -1.9002   -0.6398 H   0  0  0  0  0  0  0  0  0  0  0  0
    6.1049   -3.6406   -0.9084 H   0  0  0  0  0  0  0  0  0  0  0  0
    4.9010   -2.7391   -1.8498 H   0  0  0  0  0  0  0  0  0  0  0  0
    3.7992   -4.0785   -0.0371 H   0  0  0  0  0  0  0  0  0  0  0  0
    4.7957   -3.2575    1.1756 H   0  0  0  0  0  0  0  0  0  0  0  0
    2.9728   -1.7136   -0.5967 H   0  0  0  0  0  0  0  0  0  0  0  0
   -2.1964   -0.9464    2.4339 H   0  0  0  0  0  0  0  0  0  0  0  0
   -2.2548    0.7676    2.0345 H   0  0  0  0  0  0  0  0  0  0  0  0
   -3.8390    1.3968    0.3429 H   0  0  0  0  0  0  0  0  0  0  0  0
   -5.2758    0.8341   -1.5799 H   0  0  0  0  0  0  0  0  0  0  0  0
   -5.1838   -1.4292   -2.5916 H   0  0  0  0  0  0  0  0  0  0  0  0
   -3.6435   -3.1394   -1.6645 H   0  0  0  0  0  0  0  0  0  0  0  0
   -2.1966   -2.5970    0.2619 H   0  0  0  0  0  0  0  0  0  0  0  0
   -0.8474    1.3491   -1.7593 H   0  0  0  0  0  0  0  0  0  0  0  0
   -1.7765    3.5199   -2.4939 H   0  0  0  0  0  0  0  0  0  0  0  0
   -1.8795    5.4314   -0.9130 H   0  0  0  0  0  0  0  0  0  0  0  0
   -1.0406    5.1684    1.4079 H   0  0  0  0  0  0  0  0  0  0  0  0
   -0.1032    3.0031    2.1524 H   0  0  0  0  0  0  0  0  0  0  0  0
    3.5106    0.7275    0.6592 H   0  0  0  0  0  0  0  0  0  0  0  0
    2.4885    2.0511    0.1050 H   0  0  0  0  0  0  0  0  0  0  0  0
    2.7925    0.6735   -0.9665 H   0  0  0  0  0  0  0  0  0  0  0  0
  1  2  1  0
  2  3  1  0
  3  4  1  0
  4  5  2  0
  4  6  1  0
  6  7  2  0
  7  8  1  0
  8  9  1  0
  9 10  1  0
 10 11  2  0
 11 12  1  0
 12 13  2  0
 13 14  1  0
 14 15  2  0
  8 16  1  0
 16 17  1  0
 17 18  2  0
 18 19  1  0
 19 20  2  0
 20 21  1  0
 21 22  2  0
 16 23  2  0
 23 24  1  0
 23  6  1  0
 15 10  1  0
 22 17  1  0
  1 25  1  0
  1 26  1  0
  1 27  1  0
  2 28  1  0
  2 29  1  0
  3 30  1  0
  9 31  1  0
  9 32  1  0
 11 33  1  0
 12 34  1  0
 13 35  1  0
 14 36  1  0
 15 37  1  0
 18 38  1  0
 19 39  1  0
 20 40  1  0
 21 41  1  0
 22 42  1  0
 24 43  1  0
 24 44  1  0
 24 45  1  0
M  END
>  <_SMILES>  (75) 
CCNC(=O)c1nn(Cc2ccccc2)c(-c2ccccc2)c1C

$$$$

     RDKit          3D

 42 44  0  0  0  0  0  0  0  0999 V2000
    1.9792   -0.9199   -2.0395 C   0  0  0  0  0  0  0  0  0  0  0  0
    1.8384   -0.2842   -0.7037 C   0  0  0  0  0  0  0  0  0  0  0  0
    0.6233    0.1724   -0.1017 C   0  0  0  0  0  0  0  0  0  0  0  0
   -0.7457    0.0929   -0.6500 C   0  0  0  0  0  0  0  0  0  0  0  0
   -1.0181   -0.4578   -1.7123 O   0  0  0  0  0  0  0  0  0  0  0  0
   -1.6859    0.6861    0.1674 N   0  0  0  0  0  0  0  0  0  0  0  0
   -3.1130    0.5583   -0.0494 C   0  0  0  0  0  0  0  0  0  0  0  0
   -3.8613    1.7376    0.5918 C   0  0  0  0  0  0  0  0  0  0  0  0
   -5.3132    1.4180    0.9571 C   0  0  0  0  0  0  0  0  0  0  0  0
   -5.9025    0.3361    0.0635 C   0  0  0  0  0  0  0  0  0  0  0  0
   -5.1217   -0.9747    0.1692 C   0  0  0  0  0  0  0  0  0  0  0  0
   -3.6353   -0.7803    0.4786 C   0  0  0  0  0  0  0  0  0  0  0  0
    0.8552    0.7161    1.1122 N   0  0  0  0  0  0  0  0  0  0  0  0
    2.1818    0.5998    1.2702 N   0  0  0  0  0  0  0  0  0  0  0  0
    2.8296    0.0070    0.2206 C   0  0  0  0  0  0  0  0  0  0  0  0
    4.2684   -0.2289    0.2276 C   0  0  0  0  0  0  0  0  0  0  0  0
    5.1619    0.8215    0.4742 C   0  0  0  0  0  0  0  0  0  0  0  0
    6.5394    0.5894    0.4918 C   0  0  0  0  0  0  0  0  0  0  0  0
    7.0341   -0.6935    0.2648 C   0  0  0  0  0  0  0  0  0  0  0  0
    6.1534   -1.7448    0.0174 C   0  0  0  0  0  0  0  0  0  0  0  0
    4.7763   -1.5134   -0.0016 C   0  0  0  0  0  0  0  0  0  0  0  0
    1.4528   -0.3375   -2.8024 H   0  0  0  0  0  0  0  0  0  0  0  0
    1.5631   -1.9322   -2.0240 H   0  0  0  0  0  0  0  0  0  0  0  0
    3.0260   -0.9872   -2.3503 H   0  0  0  0  0  0  0  0  0  0  0  0
   -1.3215    0.9749    1.0727 H   0  0  0  0  0  0  0  0  0  0  0  0
   -3.2818    0.5850   -1.1342 H   0  0  0  0  0  0  0  0  0  0  0  0
   -3.8360    2.5849   -0.1057 H   0  0  0  0  0  0  0  0  0  0  0  0
   -3.3472    2.0859    1.4970 H   0  0  0  0  0  0  0  0  0  0  0  0
   -5.3579    1.0831    2.0013 H   0  0  0  0  0  0  0  0  0  0  0  0
   -5.9165    2.3309    0.8973 H   0  0  0  0  0  0  0  0  0  0  0  0
   -6.9529    0.1599    0.3213 H   0  0  0  0  0  0  0  0  0  0  0  0
   -5.8911    0.6838   -0.9773 H   0  0  0  0  0  0  0  0  0  0  0  0
   -5.5622   -1.6076    0.9493 H   0  0  0  0  0  0  0  0  0  0  0  0
   -5.2354   -1.5271   -0.7715 H   0  0  0  0  0  0  0  0  0  0  0  0
   -3.4818   -0.8259    1.5653 H   0  0  0  0  0  0  0  0  0  0  0  0
   -3.0661   -1.6194    0.0606 H   0  0  0  0  0  0  0  0  0  0  0  0
    2.5952    0.9316    2.1347 H   0  0  0  0  0  0  0  0  0  0  0  0
    4.7973    1.8334    0.6346 H   0  0  0  0  0  0  0  0  0  0  0  0
    7.2265    1.4114    0.6762 H   0  0  0  0  0  0  0  0  0  0  0  0
    8.1061   -0.8736    0.2764 H   0  0  0  0  0  0  0  0  0  0  0  0
    6.5375   -2.7460   -0.1610 H   0  0  0  0  0  0  0  0  0  0  0  0
    4.1017   -2.3459   -0.1892 H   0  0  0  0  0  0  0  0  0  0  0  0
  1  2  1  0
  2  3  1  0
  3  4  1  0
  4  5  2  0
  4  6  1  0
  6  7  1  0
  7  8  1  0
  8  9  1  0
  9 10  1  0
 10 11  1  0
 11 12  1  0
  3 13  2  0
 13 14  1  0
 14 15  1  0
 15 16  1  0
 16 17  2  0
 17 18  1  0
 18 19  2  0
 19 20  1  0
 20 21  2  0
 15  2  2  0
 21 16  1  0
 12  7  1  0
  1 22  1  0
  1 23  1  0
  1 24  1  0
  6 25  1  0
  7 26  1  0
  8 27  1  0
  8 28  1  0
  9 29  1  0
  9 30  1  0
 10 31  1  0
 10 32  1  0
 11 33  1  0
 11 34  1  0
 12 35  1  0
 12 36  1  0
 14 37  1  0
 17 38  1  0
 18 39  1  0
 19 40  1  0
 20 41  1  0
 21 42  1  0
M  END
>  <_SMILES>  (76) 
Cc1c(C(=O)NC2CCCCC2)n[nH]c1-c1ccccc1

$$$$

     RDKit          3D

 42 44  0  0  0  0  0  0  0  0999 V2000
   -2.1856   -0.3673    2.1389 C   0  0  0  0  0  0  0  0  0  0  0  0
   -1.9062   -0.3133    0.6793 C   0  0  0  0  0  0  0  0  0  0  0  0
   -2.8466   -0.2923   -0.4013 C   0  0  0  0  0  0  0  0  0  0  0  0
   -4.3078   -0.3537   -0.3486 C   0  0  0  0  0  0  0  0  0  0  0  0
   -4.9628   -1.2645    0.4912 C   0  0  0  0  0  0  0  0  0  0  0  0
   -6.3589   -1.3116    0.5337 C   0  0  0  0  0  0  0  0  0  0  0  0
   -7.1117   -0.4543   -0.2673 C   0  0  0  0  0  0  0  0  0  0  0  0
   -6.4713    0.4462   -1.1165 C   0  0  0  0  0  0  0  0  0  0  0  0
   -5.0759    0.4936   -1.1596 C   0  0  0  0  0  0  0  0  0  0  0  0
   -2.2120   -0.1873   -1.5794 N   0  0  0  0  0  0  0  0  0  0  0  0
   -0.9146   -0.2249   -1.2641 N   0  0  0  0  0  0  0  0  0  0  0  0
   -0.6568   -0.2512    0.0752 C   0  0  0  0  0  0  0  0  0  0  0  0
    0.6603   -0.2746    0.6620 C   0  0  0  0  0  0  0  0  0  0  0  0
    0.9028   -0.7894    1.7481 O   0  0  0  0  0  0  0  0  0  0  0  0
    1.6320    0.3586   -0.0902 N   0  0  0  0  0  0  0  0  0  0  0  0
    3.0052    0.4737    0.3894 C   0  0  0  0  0  0  0  0  0  0  0  0
    3.7365    1.5949   -0.3606 C   0  0  0  0  0  0  0  0  0  0  0  0
    5.1943    1.7118    0.0753 C   0  0  0  0  0  0  0  0  0  0  0  0
    5.9321    0.3853   -0.0731 C   0  0  0  0  0  0  0  0  0  0  0  0
    5.2141   -0.7407    0.6638 C   0  0  0  0  0  0  0  0  0  0  0  0
    3.7545   -0.8580    0.2315 C   0  0  0  0  0  0  0  0  0  0  0  0
   -2.1959   -1.4055    2.4849 H   0  0  0  0  0  0  0  0  0  0  0  0
   -1.4268    0.1786    2.7084 H   0  0  0  0  0  0  0  0  0  0  0  0
   -3.1511    0.0890    2.3775 H   0  0  0  0  0  0  0  0  0  0  0  0
   -4.3943   -1.9571    1.1063 H   0  0  0  0  0  0  0  0  0  0  0  0
   -6.8578   -2.0231    1.1867 H   0  0  0  0  0  0  0  0  0  0  0  0
   -8.1974   -0.4938   -0.2361 H   0  0  0  0  0  0  0  0  0  0  0  0
   -7.0552    1.1091   -1.7494 H   0  0  0  0  0  0  0  0  0  0  0  0
   -4.5847    1.1947   -1.8312 H   0  0  0  0  0  0  0  0  0  0  0  0
   -0.2421   -0.2416   -2.0223 H   0  0  0  0  0  0  0  0  0  0  0  0
    1.3296    1.0146   -0.7962 H   0  0  0  0  0  0  0  0  0  0  0  0
    2.9627    0.7328    1.4555 H   0  0  0  0  0  0  0  0  0  0  0  0
    3.6941    1.4101   -1.4422 H   0  0  0  0  0  0  0  0  0  0  0  0
    3.2270    2.5513   -0.1902 H   0  0  0  0  0  0  0  0  0  0  0  0
    5.2371    2.0391    1.1215 H   0  0  0  0  0  0  0  0  0  0  0  0
    5.6968    2.4817   -0.5210 H   0  0  0  0  0  0  0  0  0  0  0  0
    6.9534    0.4857    0.3113 H   0  0  0  0  0  0  0  0  0  0  0  0
    6.0144    0.1306   -1.1369 H   0  0  0  0  0  0  0  0  0  0  0  0
    5.2599   -0.5575    1.7444 H   0  0  0  0  0  0  0  0  0  0  0  0
    5.7303   -1.6895    0.4788 H   0  0  0  0  0  0  0  0  0  0  0  0
    3.7102   -1.1857   -0.8155 H   0  0  0  0  0  0  0  0  0  0  0  0
    3.2684   -1.6446    0.8202 H   0  0  0  0  0  0  0  0  0  0  0  0
  1  2  1  0
  2  3  1  0
  3  4  1  0
  4  5  2  0
  5  6  1  0
  6  7  2  0
  7  8  1  0
  8  9  2  0
  3 10  2  0
 10 11  1  0
 11 12  1  0
 12 13  1  0
 13 14  2  0
 13 15  1  0
 15 16  1  0
 16 17  1  0
 17 18  1  0
 18 19  1  0
 19 20  1  0
 20 21  1  0
 12  2  2  0
 21 16  1  0
  9  4  1  0
  1 22  1  0
  1 23  1  0
  1 24  1  0
  5 25  1  0
  6 26  1  0
  7 27  1  0
  8 28  1  0
  9 29  1  0
 11 30  1  0
 15 31  1  0
 16 32  1  0
 17 33  1  0
 17 34  1  0
 18 35  1  0
 18 36  1  0
 19 37  1  0
 19 38  1  0
 20 39  1  0
 20 40  1  0
 21 41  1  0
 21 42  1  0
M  END
>  <_SMILES>  (77) 
Cc1c(-c2ccccc2)n[nH]c1C(=O)NC1CCCCC1

$$$$

     RDKit          3D

 45 47  0  0  0  0  0  0  0  0999 V2000
   -1.1944   -2.5867    2.9621 C   0  0  0  0  0  0  0  0  0  0  0  0
   -1.4288   -1.6244    1.8534 C   0  0  0  0  0  0  0  0  0  0  0  0
   -0.4493   -1.0948    0.9736 C   0  0  0  0  0  0  0  0  0  0  0  0
    1.0008   -1.3710    0.9536 C   0  0  0  0  0  0  0  0  0  0  0  0
    1.5633   -2.0937    1.7705 O   0  0  0  0  0  0  0  0  0  0  0  0
    1.6568   -0.7178   -0.0693 N   0  0  0  0  0  0  0  0  0  0  0  0
    3.1038   -0.6636   -0.1731 C   0  0  0  0  0  0  0  0  0  0  0  0
    3.5284   -0.3884   -1.6250 C   0  0  0  0  0  0  0  0  0  0  0  0
    3.7188    1.1013   -1.8879 C   0  0  0  0  0  0  0  0  0  0  0  0
    4.8085    1.7010   -0.9963 C   0  0  0  0  0  0  0  0  0  0  0  0
    4.9793    0.9689    0.3359 C   0  0  0  0  0  0  0  0  0  0  0  0
    3.6659    0.3694    0.8207 C   0  0  0  0  0  0  0  0  0  0  0  0
   -0.9950   -0.2204    0.1115 N   0  0  0  0  0  0  0  0  0  0  0  0
   -2.3343   -0.2545    0.3487 N   0  0  0  0  0  0  0  0  0  0  0  0
   -3.2015    0.4474   -0.5475 C   0  0  0  0  0  0  0  0  0  0  0  0
   -2.6476    1.4041   -1.4176 C   0  0  0  0  0  0  0  0  0  0  0  0
   -3.4562    2.1105   -2.3117 C   0  0  0  0  0  0  0  0  0  0  0  0
   -4.8242    1.8612   -2.3588 C   0  0  0  0  0  0  0  0  0  0  0  0
   -5.3815    0.8995   -1.5196 C   0  0  0  0  0  0  0  0  0  0  0  0
   -4.5755    0.1906   -0.6211 C   0  0  0  0  0  0  0  0  0  0  0  0
   -2.6169   -1.0082    1.4843 C   0  0  0  0  0  0  0  0  0  0  0  0
   -3.9321   -1.0695    2.1760 C   0  0  0  0  0  0  0  0  0  0  0  0
   -0.6197   -3.4494    2.6100 H   0  0  0  0  0  0  0  0  0  0  0  0
   -0.6400   -2.1048    3.7736 H   0  0  0  0  0  0  0  0  0  0  0  0
   -2.1336   -2.9697    3.3721 H   0  0  0  0  0  0  0  0  0  0  0  0
    1.0772   -0.0524   -0.5755 H   0  0  0  0  0  0  0  0  0  0  0  0
    3.4815   -1.6563    0.1034 H   0  0  0  0  0  0  0  0  0  0  0  0
    2.7998   -0.8045   -2.3312 H   0  0  0  0  0  0  0  0  0  0  0  0
    4.4799   -0.8994   -1.8224 H   0  0  0  0  0  0  0  0  0  0  0  0
    3.9722    1.2715   -2.9404 H   0  0  0  0  0  0  0  0  0  0  0  0
    2.7714    1.6245   -1.7073 H   0  0  0  0  0  0  0  0  0  0  0  0
    5.7685    1.6929   -1.5265 H   0  0  0  0  0  0  0  0  0  0  0  0
    4.5707    2.7560   -0.8131 H   0  0  0  0  0  0  0  0  0  0  0  0
    5.7201    0.1676    0.2200 H   0  0  0  0  0  0  0  0  0  0  0  0
    5.3822    1.6592    1.0855 H   0  0  0  0  0  0  0  0  0  0  0  0
    2.9444    1.1824    0.9786 H   0  0  0  0  0  0  0  0  0  0  0  0
    3.8086   -0.1040    1.7996 H   0  0  0  0  0  0  0  0  0  0  0  0
   -1.5818    1.6243   -1.4018 H   0  0  0  0  0  0  0  0  0  0  0  0
   -3.0144    2.8534   -2.9709 H   0  0  0  0  0  0  0  0  0  0  0  0
   -5.4538    2.4074   -3.0563 H   0  0  0  0  0  0  0  0  0  0  0  0
   -6.4472    0.6893   -1.5725 H   0  0  0  0  0  0  0  0  0  0  0  0
   -5.0550   -0.5824   -0.0340 H   0  0  0  0  0  0  0  0  0  0  0  0
   -4.5664   -1.8447    1.7361 H   0  0  0  0  0  0  0  0  0  0  0  0
   -4.4504   -0.1064    2.1505 H   0  0  0  0  0  0  0  0  0  0  0  0
   -3.8024   -1.3158    3.2353 H   0  0  0  0  0  0  0  0  0  0  0  0
  1  2  1  0
  2  3  1  0
  3  4  1  0
  4  5  2  0
  4  6  1  0
  6  7  1  0
  7  8  1  0
  8  9  1  0
  9 10  1  0
 10 11  1  0
 11 12  1  0
  3 13  2  0
 13 14  1  0
 14 15  1  0
 15 16  2  0
 16 17  1  0
 17 18  2  0
 18 19  1  0
 19 20  2  0
 14 21  1  0
 21 22  1  0
 21  2  2  0
 12  7  1  0
 20 15  1  0
  1 23  1  0
  1 24  1  0
  1 25  1  0
  6 26  1  0
  7 27  1  0
  8 28  1  0
  8 29  1  0
  9 30  1  0
  9 31  1  0
 10 32  1  0
 10 33  1  0
 11 34  1  0
 11 35  1  0
 12 36  1  0
 12 37  1  0
 16 38  1  0
 17 39  1  0
 18 40  1  0
 19 41  1  0
 20 42  1  0
 22 43  1  0
 22 44  1  0
 22 45  1  0
M  END
>  <_SMILES>  (78) 
Cc1c(C(=O)NC2CCCCC2)nn(-c2ccccc2)c1C

$$$$

     RDKit          3D

 48 50  0  0  0  0  0  0  0  0999 V2000
    2.0437    1.1181    2.5786 C   0  0  0  0  0  0  0  0  0  0  0  0
    1.7908    0.4139    1.2949 C   0  0  0  0  0  0  0  0  0  0  0  0
    0.5332   -0.0691    0.8211 C   0  0  0  0  0  0  0  0  0  0  0  0
   -0.7835    0.0323    1.4807 C   0  0  0  0  0  0  0  0  0  0  0  0
   -0.9652    0.6180    2.5436 O   0  0  0  0  0  0  0  0  0  0  0  0
   -1.7873   -0.5870    0.7655 N   0  0  0  0  0  0  0  0  0  0  0  0
   -3.1973   -0.4606    1.0923 C   0  0  0  0  0  0  0  0  0  0  0  0
   -3.9764   -1.6774    0.5825 C   0  0  0  0  0  0  0  0  0  0  0  0
   -4.2242   -1.7400   -0.9259 C   0  0  0  0  0  0  0  0  0  0  0  0
   -5.2724   -0.7350   -1.3918 C   0  0  0  0  0  0  0  0  0  0  0  0
   -4.7376    0.6538   -1.7237 C   0  0  0  0  0  0  0  0  0  0  0  0
   -3.6246    1.2039   -0.8377 C   0  0  0  0  0  0  0  0  0  0  0  0
   -3.7664    0.8998    0.6532 C   0  0  0  0  0  0  0  0  0  0  0  0
    0.6618   -0.6655   -0.3826 N   0  0  0  0  0  0  0  0  0  0  0  0
    1.9726   -0.5559   -0.6673 N   0  0  0  0  0  0  0  0  0  0  0  0
    2.4617   -1.0769   -1.9241 C   0  0  0  0  0  0  0  0  0  0  0  0
    2.7048    0.0735    0.3088 C   0  0  0  0  0  0  0  0  0  0  0  0
    4.1418    0.3072    0.2294 C   0  0  0  0  0  0  0  0  0  0  0  0
    5.0426   -0.7516    0.3911 C   0  0  0  0  0  0  0  0  0  0  0  0
    6.4176   -0.5241    0.3093 C   0  0  0  0  0  0  0  0  0  0  0  0
    6.8988    0.7622    0.0685 C   0  0  0  0  0  0  0  0  0  0  0  0
    6.0072    1.8228   -0.0869 C   0  0  0  0  0  0  0  0  0  0  0  0
    4.6319    1.5968   -0.0049 C   0  0  0  0  0  0  0  0  0  0  0  0
    3.1102    1.3009    2.7409 H   0  0  0  0  0  0  0  0  0  0  0  0
    1.5316    2.0855    2.5891 H   0  0  0  0  0  0  0  0  0  0  0  0
    1.6802    0.5215    3.4214 H   0  0  0  0  0  0  0  0  0  0  0  0
   -1.4923   -0.9236   -0.1485 H   0  0  0  0  0  0  0  0  0  0  0  0
   -3.2573   -0.4866    2.1889 H   0  0  0  0  0  0  0  0  0  0  0  0
   -4.9426   -1.7203    1.1021 H   0  0  0  0  0  0  0  0  0  0  0  0
   -3.4370   -2.5878    0.8767 H   0  0  0  0  0  0  0  0  0  0  0  0
   -4.6074   -2.7445   -1.1475 H   0  0  0  0  0  0  0  0  0  0  0  0
   -3.2922   -1.6353   -1.4920 H   0  0  0  0  0  0  0  0  0  0  0  0
   -5.7591   -1.1264   -2.2944 H   0  0  0  0  0  0  0  0  0  0  0  0
   -6.0685   -0.6503   -0.6416 H   0  0  0  0  0  0  0  0  0  0  0  0
   -5.5836    1.3531   -1.7086 H   0  0  0  0  0  0  0  0  0  0  0  0
   -4.3744    0.6564   -2.7596 H   0  0  0  0  0  0  0  0  0  0  0  0
   -3.6111    2.2938   -0.9692 H   0  0  0  0  0  0  0  0  0  0  0  0
   -2.6554    0.8568   -1.2134 H   0  0  0  0  0  0  0  0  0  0  0  0
   -4.8151    0.9870    0.9620 H   0  0  0  0  0  0  0  0  0  0  0  0
   -3.2244    1.6833    1.1993 H   0  0  0  0  0  0  0  0  0  0  0  0
    2.9917   -2.0109   -1.7234 H   0  0  0  0  0  0  0  0  0  0  0  0
    1.6162   -1.2631   -2.5920 H   0  0  0  0  0  0  0  0  0  0  0  0
    3.1273   -0.3406   -2.3809 H   0  0  0  0  0  0  0  0  0  0  0  0
    4.6795   -1.7567    0.5933 H   0  0  0  0  0  0  0  0  0  0  0  0
    7.1133   -1.3491    0.4399 H   0  0  0  0  0  0  0  0  0  0  0  0
    7.9697    0.9396    0.0082 H   0  0  0  0  0  0  0  0  0  0  0  0
    6.3820    2.8267   -0.2687 H   0  0  0  0  0  0  0  0  0  0  0  0
    3.9448    2.4314   -0.1248 H   0  0  0  0  0  0  0  0  0  0  0  0
  1  2  1  0
  2  3  1  0
  3  4  1  0
  4  5  2  0
  4  6  1  0
  6  7  1  0
  7  8  1  0
  8  9  1  0
  9 10  1  0
 10 11  1  0
 11 12  1  0
 12 13  1  0
  3 14  2  0
 14 15  1  0
 15 16  1  0
 15 17  1  0
 17 18  1  0
 18 19  2  0
 19 20  1  0
 20 21  2  0
 21 22  1  0
 22 23  2  0
 17  2  2  0
 23 18  1  0
 13  7  1  0
  1 24  1  0
  1 25  1  0
  1 26  1  0
  6 27  1  0
  7 28  1  0
  8 29  1  0
  8 30  1  0
  9 31  1  0
  9 32  1  0
 10 33  1  0
 10 34  1  0
 11 35  1  0
 11 36  1  0
 12 37  1  0
 12 38  1  0
 13 39  1  0
 13 40  1  0
 16 41  1  0
 16 42  1  0
 16 43  1  0
 19 44  1  0
 20 45  1  0
 21 46  1  0
 22 47  1  0
 23 48  1  0
M  END
>  <_SMILES>  (79) 
Cc1c(C(=O)NC2CCCCCC2)nn(C)c1-c1ccccc1

$$$$

     RDKit          3D

 48 52  0  0  0  0  0  0  0  0999 V2000
   -0.3003   -1.9896    0.9951 O   0  0  0  0  0  0  0  0  0  0  0  0
    0.0291   -0.9416    0.4547 C   0  0  0  0  0  0  0  0  0  0  0  0
   -0.8405    0.0409    0.0300 N   0  0  0  0  0  0  0  0  0  0  0  0
   -2.2976    0.0042    0.1462 C   0  0  2  0  0  0  0  0  0  0  0  0
   -2.7498   -0.0779    1.6251 C   0  0  0  0  0  0  0  0  0  0  0  0
   -4.2856   -0.0672    1.7227 C   0  0  1  0  0  0  0  0  0  0  0  0
   -4.8246    1.2354    1.1106 C   0  0  0  0  0  0  0  0  0  0  0  0
   -4.4076    1.3334   -0.3653 C   0  0  2  0  0  0  0  0  0  0  0  0
   -4.9756    0.1312   -1.1357 C   0  0  0  0  0  0  0  0  0  0  0  0
   -4.4375   -1.1778   -0.5366 C   0  0  2  0  0  0  0  0  0  0  0  0
   -4.8507   -1.2663    0.9424 C   0  0  0  0  0  0  0  0  0  0  0  0
   -2.9017   -1.1889   -0.6349 C   0  0  0  0  0  0  0  0  0  0  0  0
   -2.8736    1.3125   -0.4581 C   0  0  0  0  0  0  0  0  0  0  0  0
    1.4653   -0.6333    0.2019 C   0  0  0  0  0  0  0  0  0  0  0  0
    2.4481   -1.5330    0.5759 C   0  0  0  0  0  0  0  0  0  0  0  0
    3.7693   -1.2938    0.3648 N   0  0  0  0  0  0  0  0  0  0  0  0
    4.0896   -0.1125   -0.2326 C   0  0  0  0  0  0  0  0  0  0  0  0
    5.5267    0.1418   -0.4562 C   0  0  0  0  0  0  0  0  0  0  0  0
    6.4220   -0.9285   -0.6452 C   0  0  0  0  0  0  0  0  0  0  0  0
    7.7856   -0.7129   -0.8663 C   0  0  0  0  0  0  0  0  0  0  0  0
    8.2885    0.5833   -0.8980 C   0  0  0  0  0  0  0  0  0  0  0  0
    7.4302    1.6610   -0.7036 C   0  0  0  0  0  0  0  0  0  0  0  0
    6.0656    1.4423   -0.4830 C   0  0  0  0  0  0  0  0  0  0  0  0
    3.0782    0.7766   -0.6098 C   0  0  0  0  0  0  0  0  0  0  0  0
    1.7526    0.5525   -0.4062 N   0  0  0  0  0  0  0  0  0  0  0  0
   -0.3975    0.8483   -0.4037 H   0  0  0  0  0  0  0  0  0  0  0  0
   -2.3678   -0.9889    2.1010 H   0  0  0  0  0  0  0  0  0  0  0  0
   -2.3334    0.7635    2.1945 H   0  0  0  0  0  0  0  0  0  0  0  0
   -4.5887   -0.1341    2.7736 H   0  0  0  0  0  0  0  0  0  0  0  0
   -5.9179    1.2644    1.1939 H   0  0  0  0  0  0  0  0  0  0  0  0
   -4.4398    2.0986    1.6673 H   0  0  0  0  0  0  0  0  0  0  0  0
   -4.7920    2.2643   -0.7970 H   0  0  0  0  0  0  0  0  0  0  0  0
   -6.0716    0.1412   -1.0911 H   0  0  0  0  0  0  0  0  0  0  0  0
   -4.6995    0.2000   -2.1951 H   0  0  0  0  0  0  0  0  0  0  0  0
   -4.8483   -2.0317   -1.0868 H   0  0  0  0  0  0  0  0  0  0  0  0
   -4.4840   -2.2037    1.3785 H   0  0  0  0  0  0  0  0  0  0  0  0
   -5.9444   -1.2836    1.0245 H   0  0  0  0  0  0  0  0  0  0  0  0
   -2.5945   -1.1450   -1.6881 H   0  0  0  0  0  0  0  0  0  0  0  0
   -2.5254   -2.1422   -0.2453 H   0  0  0  0  0  0  0  0  0  0  0  0
   -2.4593    2.1845    0.0656 H   0  0  0  0  0  0  0  0  0  0  0  0
   -2.5651    1.4113   -1.5076 H   0  0  0  0  0  0  0  0  0  0  0  0
    2.2082   -2.4753    1.0572 H   0  0  0  0  0  0  0  0  0  0  0  0
    6.0537   -1.9538   -0.6215 H   0  0  0  0  0  0  0  0  0  0  0  0
    8.4508   -1.5607   -1.0096 H   0  0  0  0  0  0  0  0  0  0  0  0
    9.3489    0.7524   -1.0664 H   0  0  0  0  0  0  0  0  0  0  0  0
    7.8227    2.6749   -0.7156 H   0  0  0  0  0  0  0  0  0  0  0  0
    5.4358    2.3122   -0.3113 H   0  0  0  0  0  0  0  0  0  0  0  0
    3.3031    1.7116   -1.1128 H   0  0  0  0  0  0  0  0  0  0  0  0
  1  2  2  0
  2  3  1  0
  4  3  1  1
  4  5  1  0
  5  6  1  0
  6  7  1  0
  7  8  1  0
  8  9  1  0
  9 10  1  0
 10 11  1  0
 10 12  1  0
  8 13  1  0
  2 14  1  0
 14 15  2  0
 15 16  1  0
 16 17  2  0
 17 18  1  0
 18 19  2  0
 19 20  1  0
 20 21  2  0
 21 22  1  0
 22 23  2  0
 17 24  1  0
 24 25  2  0
 12  4  1  0
 25 14  1  0
 13  4  1  0
 23 18  1  0
 11  6  1  0
  3 26  1  0
  5 27  1  0
  5 28  1  0
  6 29  1  1
  7 30  1  0
  7 31  1  0
  8 32  1  6
  9 33  1  0
  9 34  1  0
 10 35  1  6
 11 36  1  0
 11 37  1  0
 12 38  1  0
 12 39  1  0
 13 40  1  0
 13 41  1  0
 15 42  1  0
 19 43  1  0
 20 44  1  0
 21 45  1  0
 22 46  1  0
 23 47  1  0
 24 48  1  0
M  END
>  <_SMILES>  (80) 
O=C(N[C@]12C[C@H]3C[C@H](C[C@H](C3)C1)C2)c1cnc(-c2ccccc2)cn1

$$$$

     RDKit          3D

 45 49  0  0  0  0  0  0  0  0999 V2000
    0.1238   -1.1188   -1.5115 O   0  0  0  0  0  0  0  0  0  0  0  0
    0.3773   -0.4229   -0.5312 C   0  0  0  0  0  0  0  0  0  0  0  0
   -0.6106    0.1839    0.2274 N   0  0  0  0  0  0  0  0  0  0  0  0
   -2.0520    0.0952   -0.0093 C   0  0  2  0  0  0  0  0  0  0  0  0
   -2.7799    0.9274    1.0809 C   0  0  0  0  0  0  0  0  0  0  0  0
   -4.3039    0.8760    0.8890 C   0  0  1  0  0  0  0  0  0  0  0  0
   -4.6570    1.4435   -0.4946 C   0  0  0  0  0  0  0  0  0  0  0  0
   -3.9671    0.6177   -1.5918 C   0  0  2  0  0  0  0  0  0  0  0  0
   -4.4340   -0.8448   -1.4953 C   0  0  0  0  0  0  0  0  0  0  0  0
   -4.0845   -1.4223   -0.1131 C   0  0  2  0  0  0  0  0  0  0  0  0
   -4.7737   -0.5845    0.9753 C   0  0  0  0  0  0  0  0  0  0  0  0
   -2.5599   -1.3647    0.0892 C   0  0  0  0  0  0  0  0  0  0  0  0
   -2.4424    0.6770   -1.3907 C   0  0  0  0  0  0  0  0  0  0  0  0
    1.7222   -0.1502   -0.0481 C   0  0  0  0  0  0  0  0  0  0  0  0
    1.9700    0.6002    1.0067 N   0  0  0  0  0  0  0  0  0  0  0  0
    3.3239    0.6997    1.2515 N   0  0  0  0  0  0  0  0  0  0  0  0
    4.0596    0.0265    0.3812 C   0  0  0  0  0  0  0  0  0  0  0  0
    5.5336   -0.0370    0.4107 C   0  0  0  0  0  0  0  0  0  0  0  0
    6.2218    0.6572    1.4226 C   0  0  0  0  0  0  0  0  0  0  0  0
    7.6174    0.6335    1.5006 C   0  0  0  0  0  0  0  0  0  0  0  0
    8.3537   -0.0869    0.5657 C   0  0  0  0  0  0  0  0  0  0  0  0
    7.6956   -0.7819   -0.4449 C   0  0  0  0  0  0  0  0  0  0  0  0
    6.2983   -0.7577   -0.5224 C   0  0  0  0  0  0  0  0  0  0  0  0
    3.1110   -0.7837   -0.8119 S   0  0  0  0  0  0  0  0  0  0  0  0
   -0.2805    0.7358    1.0150 H   0  0  0  0  0  0  0  0  0  0  0  0
   -2.5201    0.5505    2.0793 H   0  0  0  0  0  0  0  0  0  0  0  0
   -2.4384    1.9708    1.0498 H   0  0  0  0  0  0  0  0  0  0  0  0
   -4.7954    1.4691    1.6683 H   0  0  0  0  0  0  0  0  0  0  0  0
   -5.7440    1.4268   -0.6405 H   0  0  0  0  0  0  0  0  0  0  0  0
   -4.3428    2.4924   -0.5614 H   0  0  0  0  0  0  0  0  0  0  0  0
   -4.2251    1.0238   -2.5763 H   0  0  0  0  0  0  0  0  0  0  0  0
   -5.5167   -0.9031   -1.6617 H   0  0  0  0  0  0  0  0  0  0  0  0
   -3.9585   -1.4427   -2.2825 H   0  0  0  0  0  0  0  0  0  0  0  0
   -4.4257   -2.4617   -0.0499 H   0  0  0  0  0  0  0  0  0  0  0  0
   -5.8627   -0.6358    0.8546 H   0  0  0  0  0  0  0  0  0  0  0  0
   -4.5435   -0.9948    1.9663 H   0  0  0  0  0  0  0  0  0  0  0  0
   -2.0767   -1.9999   -0.6624 H   0  0  0  0  0  0  0  0  0  0  0  0
   -2.2963   -1.7909    1.0661 H   0  0  0  0  0  0  0  0  0  0  0  0
   -2.0945    1.7150   -1.4750 H   0  0  0  0  0  0  0  0  0  0  0  0
   -1.9545    0.1237   -2.2017 H   0  0  0  0  0  0  0  0  0  0  0  0
    5.6688    1.2290    2.1672 H   0  0  0  0  0  0  0  0  0  0  0  0
    8.1251    1.1785    2.2925 H   0  0  0  0  0  0  0  0  0  0  0  0
    9.4389   -0.1067    0.6245 H   0  0  0  0  0  0  0  0  0  0  0  0
    8.2690   -1.3458   -1.1769 H   0  0  0  0  0  0  0  0  0  0  0  0
    5.8305   -1.3160   -1.3294 H   0  0  0  0  0  0  0  0  0  0  0  0
  1  2  2  0
  2  3  1  0
  4  3  1  1
  4  5  1  0
  5  6  1  0
  6  7  1  0
  7  8  1  0
  8  9  1  0
  9 10  1  0
 10 11  1  0
 10 12  1  0
  8 13  1  0
  2 14  1  0
 14 15  2  0
 15 16  1  0
 16 17  2  0
 17 18  1  0
 18 19  2  0
 19 20  1  0
 20 21  2  0
 21 22  1  0
 22 23  2  0
 17 24  1  0
 12  4  1  0
 24 14  1  0
 13  4  1  0
 23 18  1  0
 11  6  1  0
  3 25  1  0
  5 26  1  0
  5 27  1  0
  6 28  1  1
  7 29  1  0
  7 30  1  0
  8 31  1  6
  9 32  1  0
  9 33  1  0
 10 34  1  6
 11 35  1  0
 11 36  1  0
 12 37  1  0
 12 38  1  0
 13 39  1  0
 13 40  1  0
 19 41  1  0
 20 42  1  0
 21 43  1  0
 22 44  1  0
 23 45  1  0
M  END
>  <_SMILES>  (81) 
O=C(N[C@]12C[C@H]3C[C@H](C[C@H](C3)C1)C2)c1nnc(-c2ccccc2)s1

$$$$

     RDKit          3D

 48 52  0  0  0  0  0  0  0  0999 V2000
   -0.3168    1.0344   -1.6575 O   0  0  0  0  0  0  0  0  0  0  0  0
    0.0445    0.4978   -0.6179 C   0  0  0  0  0  0  0  0  0  0  0  0
   -0.8097    0.0544    0.3729 N   0  0  0  0  0  0  0  0  0  0  0  0
   -2.2758    0.1390    0.2965 C   0  0  2  0  0  0  0  0  0  0  0  0
   -2.8358   -0.7082   -0.8725 C   0  0  0  0  0  0  0  0  0  0  0  0
   -4.3735   -0.6489   -0.8952 C   0  0  1  0  0  0  0  0  0  0  0  0
   -4.9232   -1.2061    0.4274 C   0  0  0  0  0  0  0  0  0  0  0  0
   -4.4012   -0.3703    1.6066 C   0  0  2  0  0  0  0  0  0  0  0  0
   -4.8548    1.0877    1.4378 C   0  0  0  0  0  0  0  0  0  0  0  0
   -4.3038    1.6584    0.1220 C   0  0  2  0  0  0  0  0  0  0  0  0
   -4.8222    0.8138   -1.0546 C   0  0  0  0  0  0  0  0  0  0  0  0
   -2.7659    1.6019    0.1465 C   0  0  0  0  0  0  0  0  0  0  0  0
   -2.8652   -0.4218    1.6199 C   0  0  0  0  0  0  0  0  0  0  0  0
    1.4840    0.2703   -0.4015 C   0  0  0  0  0  0  0  0  0  0  0  0
    2.0746    0.1504    0.8353 C   0  0  0  0  0  0  0  0  0  0  0  0
    3.3976   -0.0616    1.0193 N   0  0  0  0  0  0  0  0  0  0  0  0
    4.1630   -0.1347   -0.0919 C   0  0  0  0  0  0  0  0  0  0  0  0
    5.6120   -0.3674    0.0759 C   0  0  0  0  0  0  0  0  0  0  0  0
    6.1930   -0.5081    1.3516 C   0  0  0  0  0  0  0  0  0  0  0  0
    7.5652   -0.7291    1.5119 C   0  0  0  0  0  0  0  0  0  0  0  0
    8.3919   -0.8149    0.3963 C   0  0  0  0  0  0  0  0  0  0  0  0
    7.8484   -0.6798   -0.8773 C   0  0  0  0  0  0  0  0  0  0  0  0
    6.4759   -0.4589   -1.0333 C   0  0  0  0  0  0  0  0  0  0  0  0
    3.6808   -0.0073   -1.3459 N   0  0  0  0  0  0  0  0  0  0  0  0
    2.3494    0.2014   -1.4703 C   0  0  0  0  0  0  0  0  0  0  0  0
   -0.4436   -0.5906    1.0605 H   0  0  0  0  0  0  0  0  0  0  0  0
   -2.5036   -1.7502   -0.7762 H   0  0  0  0  0  0  0  0  0  0  0  0
   -2.4495   -0.3512   -1.8346 H   0  0  0  0  0  0  0  0  0  0  0  0
   -4.7528   -1.2451   -1.7327 H   0  0  0  0  0  0  0  0  0  0  0  0
   -4.6212   -2.2538    0.5472 H   0  0  0  0  0  0  0  0  0  0  0  0
   -6.0200   -1.1906    0.4136 H   0  0  0  0  0  0  0  0  0  0  0  0
   -4.7933   -0.7729    2.5473 H   0  0  0  0  0  0  0  0  0  0  0  0
   -5.9503    1.1425    1.4408 H   0  0  0  0  0  0  0  0  0  0  0  0
   -4.5035    1.6905    2.2843 H   0  0  0  0  0  0  0  0  0  0  0  0
   -4.6326    2.6971    0.0043 H   0  0  0  0  0  0  0  0  0  0  0  0
   -5.9171    0.8660   -1.0979 H   0  0  0  0  0  0  0  0  0  0  0  0
   -4.4465    1.2200   -2.0018 H   0  0  0  0  0  0  0  0  0  0  0  0
   -2.3820    2.2146    0.9727 H   0  0  0  0  0  0  0  0  0  0  0  0
   -2.3823    2.0549   -0.7746 H   0  0  0  0  0  0  0  0  0  0  0  0
   -2.5336   -1.4578    1.7717 H   0  0  0  0  0  0  0  0  0  0  0  0
   -2.4819    0.1503    2.4755 H   0  0  0  0  0  0  0  0  0  0  0  0
    1.5075    0.2395    1.7564 H   0  0  0  0  0  0  0  0  0  0  0  0
    5.5703   -0.4444    2.2427 H   0  0  0  0  0  0  0  0  0  0  0  0
    7.9837   -0.8328    2.5096 H   0  0  0  0  0  0  0  0  0  0  0  0
    9.4581   -0.9860    0.5189 H   0  0  0  0  0  0  0  0  0  0  0  0
    8.4886   -0.7449   -1.7533 H   0  0  0  0  0  0  0  0  0  0  0  0
    6.0780   -0.3561   -2.0420 H   0  0  0  0  0  0  0  0  0  0  0  0
    1.9948    0.3085   -2.4927 H   0  0  0  0  0  0  0  0  0  0  0  0
  1  2  2  0
  2  3  1  0
  4  3  1  1
  4  5  1  0
  5  6  1  0
  6  7  1  0
  7  8  1  0
  8  9  1  0
  9 10  1  0
 10 11  1  0
 10 12  1  0
  8 13  1  0
  2 14  1  0
 14 15  2  0
 15 16  1  0
 16 17  2  0
 17 18  1  0
 18 19  2  0
 19 20  1  0
 20 21  2  0
 21 22  1  0
 22 23  2  0
 17 24  1  0
 24 25  2  0
 12  4  1  0
 25 14  1  0
 13  4  1  0
 23 18  1  0
 11  6  1  0
  3 26  1  0
  5 27  1  0
  5 28  1  0
  6 29  1  6
  7 30  1  0
  7 31  1  0
  8 32  1  1
  9 33  1  0
  9 34  1  0
 10 35  1  6
 11 36  1  0
 11 37  1  0
 12 38  1  0
 12 39  1  0
 13 40  1  0
 13 41  1  0
 15 42  1  0
 19 43  1  0
 20 44  1  0
 21 45  1  0
 22 46  1  0
 23 47  1  0
 25 48  1  0
M  END
>  <_SMILES>  (82) 
O=C(N[C@]12C[C@H]3C[C@H](C[C@H](C3)C1)C2)c1cnc(-c2ccccc2)nc1

$$$$

     RDKit          3D

 41 44  0  0  0  0  0  0  0  0999 V2000
    6.7654    1.0689    0.3940 C   0  0  0  0  0  0  0  0  0  0  0  0
    5.3756    0.5363    0.2402 C   0  0  0  0  0  0  0  0  0  0  0  0
    5.1554   -0.7688   -0.1818 C   0  0  0  0  0  0  0  0  0  0  0  0
    3.8463   -1.2188   -0.3099 C   0  0  0  0  0  0  0  0  0  0  0  0
    2.8236   -0.3370   -0.0082 C   0  0  0  0  0  0  0  0  0  0  0  0
    1.3936   -0.7481   -0.1219 C   0  0  0  0  0  0  0  0  0  0  0  0
    1.1010   -1.8809   -0.4868 O   0  0  0  0  0  0  0  0  0  0  0  0
    0.4805    0.2325    0.2104 N   0  0  0  0  0  0  0  0  0  0  0  0
   -0.9754    0.0871    0.1836 C   0  0  2  0  0  0  0  0  0  0  0  0
   -1.4908   -0.2346   -1.2410 C   0  0  0  0  0  0  0  0  0  0  0  0
   -3.0266   -0.3344   -1.2512 C   0  0  1  0  0  0  0  0  0  0  0  0
   -3.4683   -1.4419   -0.2793 C   0  0  0  0  0  0  0  0  0  0  0  0
   -2.9927   -1.1156    1.1467 C   0  0  2  0  0  0  0  0  0  0  0  0
   -3.5923    0.2296    1.5857 C   0  0  0  0  0  0  0  0  0  0  0  0
   -3.1472    1.3416    0.6229 C   0  0  2  0  0  0  0  0  0  0  0  0
   -3.6259    1.0062   -0.7983 C   0  0  0  0  0  0  0  0  0  0  0  0
   -1.6128    1.4302    0.6302 C   0  0  0  0  0  0  0  0  0  0  0  0
   -1.4570   -1.0162    1.1581 C   0  0  0  0  0  0  0  0  0  0  0  0
    3.0589    0.9335    0.4023 N   0  0  0  0  0  0  0  0  0  0  0  0
    4.3489    1.3703    0.5264 N   0  0  0  0  0  0  0  0  0  0  0  0
    7.3173    0.4786    1.1321 H   0  0  0  0  0  0  0  0  0  0  0  0
    6.7493    2.1096    0.7332 H   0  0  0  0  0  0  0  0  0  0  0  0
    7.2933    1.0311   -0.5639 H   0  0  0  0  0  0  0  0  0  0  0  0
    5.9863   -1.4293   -0.4088 H   0  0  0  0  0  0  0  0  0  0  0  0
    3.6301   -2.2306   -0.6364 H   0  0  0  0  0  0  0  0  0  0  0  0
    0.8751    1.1256    0.4958 H   0  0  0  0  0  0  0  0  0  0  0  0
   -1.0693   -1.1787   -1.6060 H   0  0  0  0  0  0  0  0  0  0  0  0
   -1.1622    0.5408   -1.9454 H   0  0  0  0  0  0  0  0  0  0  0  0
   -3.3739   -0.5708   -2.2632 H   0  0  0  0  0  0  0  0  0  0  0  0
   -3.0578   -2.4073   -0.5996 H   0  0  0  0  0  0  0  0  0  0  0  0
   -4.5608   -1.5394   -0.2957 H   0  0  0  0  0  0  0  0  0  0  0  0
   -3.3161   -1.9055    1.8339 H   0  0  0  0  0  0  0  0  0  0  0  0
   -4.6872    0.1644    1.6025 H   0  0  0  0  0  0  0  0  0  0  0  0
   -3.2718    0.4674    2.6074 H   0  0  0  0  0  0  0  0  0  0  0  0
   -3.5749    2.2989    0.9409 H   0  0  0  0  0  0  0  0  0  0  0  0
   -4.7214    0.9544   -0.8224 H   0  0  0  0  0  0  0  0  0  0  0  0
   -3.3296    1.8028   -1.4918 H   0  0  0  0  0  0  0  0  0  0  0  0
   -1.2861    2.2420   -0.0336 H   0  0  0  0  0  0  0  0  0  0  0  0
   -1.2626    1.6981    1.6361 H   0  0  0  0  0  0  0  0  0  0  0  0
   -1.0342   -1.9906    0.8862 H   0  0  0  0  0  0  0  0  0  0  0  0
   -1.1040   -0.8016    2.1754 H   0  0  0  0  0  0  0  0  0  0  0  0
  1  2  1  0
  2  3  2  0
  3  4  1  0
  4  5  2  0
  5  6  1  0
  6  7  2  0
  6  8  1  0
  9  8  1  6
  9 10  1  0
 10 11  1  0
 11 12  1  0
 12 13  1  0
 13 14  1  0
 14 15  1  0
 15 16  1  0
 15 17  1  0
 13 18  1  0
  5 19  1  0
 19 20  2  0
 20  2  1  0
 17  9  1  0
 18  9  1  0
 16 11  1  0
  1 21  1  0
  1 22  1  0
  1 23  1  0
  3 24  1  0
  4 25  1  0
  8 26  1  0
 10 27  1  0
 10 28  1  0
 11 29  1  6
 12 30  1  0
 12 31  1  0
 13 32  1  1
 14 33  1  0
 14 34  1  0
 15 35  1  1
 16 36  1  0
 16 37  1  0
 17 38  1  0
 17 39  1  0
 18 40  1  0
 18 41  1  0
M  END
>  <_SMILES>  (83) 
Cc1ccc(C(=O)N[C@]23C[C@H]4C[C@H](C[C@H](C4)C2)C3)nn1

$$$$

     RDKit          3D

 43 45  0  0  0  0  0  0  0  0999 V2000
   -3.7923   -2.2727    0.2095 C   0  0  0  0  0  0  0  0  0  0  0  0
   -2.6371   -1.3145    0.2298 C   0  0  0  0  0  0  0  0  0  0  0  0
   -1.3362   -1.8121    0.3734 C   0  0  0  0  0  0  0  0  0  0  0  0
   -0.2791   -0.9191    0.4051 C   0  0  0  0  0  0  0  0  0  0  0  0
    1.1263   -1.3943    0.5555 C   0  0  0  0  0  0  0  0  0  0  0  0
    1.3828   -2.5920    0.6141 O   0  0  0  0  0  0  0  0  0  0  0  0
    2.0805   -0.3963    0.6088 N   0  0  0  0  0  0  0  0  0  0  0  0
    3.5092   -0.6762    0.5901 C   0  0  0  0  0  0  0  0  0  0  0  0
    4.0038   -0.9252   -0.8472 C   0  0  0  0  0  0  0  0  0  0  0  0
    4.5436    0.3481   -1.4892 C   0  0  0  0  0  0  0  0  0  0  0  0
    5.7327    0.9165   -0.7114 C   0  0  0  0  0  0  0  0  0  0  0  0
    5.6979    0.5885    0.7824 C   0  0  0  0  0  0  0  0  0  0  0  0
    4.2698    0.4593    1.2953 C   0  0  0  0  0  0  0  0  0  0  0  0
   -0.4598    0.4164    0.2970 N   0  0  0  0  0  0  0  0  0  0  0  0
   -1.7289    0.9085    0.1411 N   0  0  0  0  0  0  0  0  0  0  0  0
   -2.7975    0.0699    0.0937 C   0  0  0  0  0  0  0  0  0  0  0  0
   -4.0902    0.7411   -0.0957 C   0  0  0  0  0  0  0  0  0  0  0  0
   -4.5505    1.6777    0.8454 C   0  0  0  0  0  0  0  0  0  0  0  0
   -5.7788    2.3222    0.6785 C   0  0  0  0  0  0  0  0  0  0  0  0
   -6.5641    2.0463   -0.4380 C   0  0  0  0  0  0  0  0  0  0  0  0
   -6.1199    1.1323   -1.3905 C   0  0  0  0  0  0  0  0  0  0  0  0
   -4.8912    0.4881   -1.2224 C   0  0  0  0  0  0  0  0  0  0  0  0
   -4.6266   -1.8965    0.8102 H   0  0  0  0  0  0  0  0  0  0  0  0
   -3.5088   -3.2410    0.6367 H   0  0  0  0  0  0  0  0  0  0  0  0
   -4.1277   -2.4421   -0.8181 H   0  0  0  0  0  0  0  0  0  0  0  0
   -1.1470   -2.8777    0.4669 H   0  0  0  0  0  0  0  0  0  0  0  0
    1.7562    0.5493    0.4224 H   0  0  0  0  0  0  0  0  0  0  0  0
    3.6623   -1.6054    1.1539 H   0  0  0  0  0  0  0  0  0  0  0  0
    3.2100   -1.3503   -1.4724 H   0  0  0  0  0  0  0  0  0  0  0  0
    4.8112   -1.6688   -0.8222 H   0  0  0  0  0  0  0  0  0  0  0  0
    3.7437    1.0980   -1.5323 H   0  0  0  0  0  0  0  0  0  0  0  0
    4.8435    0.1532   -2.5251 H   0  0  0  0  0  0  0  0  0  0  0  0
    5.7571    2.0038   -0.8530 H   0  0  0  0  0  0  0  0  0  0  0  0
    6.6700    0.5332   -1.1329 H   0  0  0  0  0  0  0  0  0  0  0  0
    6.2323   -0.3529    0.9624 H   0  0  0  0  0  0  0  0  0  0  0  0
    6.2348    1.3632    1.3415 H   0  0  0  0  0  0  0  0  0  0  0  0
    3.7563    1.4192    1.1505 H   0  0  0  0  0  0  0  0  0  0  0  0
    4.2724    0.2781    2.3770 H   0  0  0  0  0  0  0  0  0  0  0  0
   -3.9446    1.9114    1.7195 H   0  0  0  0  0  0  0  0  0  0  0  0
   -6.1176    3.0431    1.4182 H   0  0  0  0  0  0  0  0  0  0  0  0
   -7.5178    2.5507   -0.5703 H   0  0  0  0  0  0  0  0  0  0  0  0
   -6.7257    0.9260   -2.2692 H   0  0  0  0  0  0  0  0  0  0  0  0
   -4.5547   -0.2069   -1.9890 H   0  0  0  0  0  0  0  0  0  0  0  0
  1  2  1  0
  2  3  1  0
  3  4  2  0
  4  5  1  0
  5  6  2  0
  5  7  1  0
  7  8  1  0
  8  9  1  0
  9 10  1  0
 10 11  1  0
 11 12  1  0
 12 13  1  0
  4 14  1  0
 14 15  2  0
 15 16  1  0
 16 17  1  0
 17 18  2  0
 18 19  1  0
 19 20  2  0
 20 21  1  0
 21 22  2  0
 16  2  2  0
 22 17  1  0
 13  8  1  0
  1 23  1  0
  1 24  1  0
  1 25  1  0
  3 26  1  0
  7 27  1  0
  8 28  1  0
  9 29  1  0
  9 30  1  0
 10 31  1  0
 10 32  1  0
 11 33  1  0
 11 34  1  0
 12 35  1  0
 12 36  1  0
 13 37  1  0
 13 38  1  0
 18 39  1  0
 19 40  1  0
 20 41  1  0
 21 42  1  0
 22 43  1  0
M  END
>  <_SMILES>  (84) 
Cc1cc(C(=O)NC2CCCCC2)nnc1-c1ccccc1

$$$$

     RDKit          3D

 46 48  0  0  0  0  0  0  0  0999 V2000
    3.8634   -0.7425    2.5557 C   0  0  0  0  0  0  0  0  0  0  0  0
    2.8965   -0.5511    1.4237 C   0  0  0  0  0  0  0  0  0  0  0  0
    1.5236   -0.5053    1.6951 C   0  0  0  0  0  0  0  0  0  0  0  0
    0.6410   -0.3166    0.6457 C   0  0  0  0  0  0  0  0  0  0  0  0
   -0.8302   -0.2478    0.8796 C   0  0  0  0  0  0  0  0  0  0  0  0
   -1.2907   -0.3204    2.0137 O   0  0  0  0  0  0  0  0  0  0  0  0
   -1.5983   -0.0919   -0.2581 N   0  0  0  0  0  0  0  0  0  0  0  0
   -3.0381    0.1476   -0.2138 C   0  0  0  0  0  0  0  0  0  0  0  0
   -3.3025    1.6312    0.0725 C   0  0  0  0  0  0  0  0  0  0  0  0
   -4.7478    2.1057   -0.0563 C   0  0  0  0  0  0  0  0  0  0  0  0
   -5.8011    1.1345    0.4705 C   0  0  0  0  0  0  0  0  0  0  0  0
   -5.9402   -0.1986   -0.2779 C   0  0  0  0  0  0  0  0  0  0  0  0
   -5.2029   -0.2863   -1.6108 C   0  0  0  0  0  0  0  0  0  0  0  0
   -3.6756   -0.3715   -1.5085 C   0  0  0  0  0  0  0  0  0  0  0  0
    1.0597   -0.1747   -0.6319 N   0  0  0  0  0  0  0  0  0  0  0  0
    2.4009   -0.2325   -0.9059 N   0  0  0  0  0  0  0  0  0  0  0  0
    3.3047   -0.4304    0.0897 C   0  0  0  0  0  0  0  0  0  0  0  0
    4.7021   -0.4893   -0.3592 C   0  0  0  0  0  0  0  0  0  0  0  0
    5.4855   -1.6410   -0.1729 C   0  0  0  0  0  0  0  0  0  0  0  0
    6.8144   -1.6842   -0.6032 C   0  0  0  0  0  0  0  0  0  0  0  0
    7.3792   -0.5784   -1.2341 C   0  0  0  0  0  0  0  0  0  0  0  0
    6.6158    0.5677   -1.4414 C   0  0  0  0  0  0  0  0  0  0  0  0
    5.2873    0.6096   -1.0109 C   0  0  0  0  0  0  0  0  0  0  0  0
    4.7281   -0.0793    2.4513 H   0  0  0  0  0  0  0  0  0  0  0  0
    3.3970   -0.5019    3.5175 H   0  0  0  0  0  0  0  0  0  0  0  0
    4.2016   -1.7823    2.5951 H   0  0  0  0  0  0  0  0  0  0  0  0
    1.1453   -0.6071    2.7084 H   0  0  0  0  0  0  0  0  0  0  0  0
   -1.0956    0.0704   -1.1270 H   0  0  0  0  0  0  0  0  0  0  0  0
   -3.4188   -0.4405    0.6299 H   0  0  0  0  0  0  0  0  0  0  0  0
   -2.9578    1.8518    1.0919 H   0  0  0  0  0  0  0  0  0  0  0  0
   -2.6796    2.2535   -0.5841 H   0  0  0  0  0  0  0  0  0  0  0  0
   -4.9604    2.3600   -1.1010 H   0  0  0  0  0  0  0  0  0  0  0  0
   -4.8431    3.0527    0.4907 H   0  0  0  0  0  0  0  0  0  0  0  0
   -5.6183    0.9320    1.5332 H   0  0  0  0  0  0  0  0  0  0  0  0
   -6.7719    1.6458    0.4314 H   0  0  0  0  0  0  0  0  0  0  0  0
   -7.0084   -0.3744   -0.4597 H   0  0  0  0  0  0  0  0  0  0  0  0
   -5.6223   -1.0217    0.3739 H   0  0  0  0  0  0  0  0  0  0  0  0
   -5.4868    0.5577   -2.2504 H   0  0  0  0  0  0  0  0  0  0  0  0
   -5.5548   -1.1773   -2.1470 H   0  0  0  0  0  0  0  0  0  0  0  0
   -3.3929   -1.4276   -1.6214 H   0  0  0  0  0  0  0  0  0  0  0  0
   -3.2350    0.1365   -2.3766 H   0  0  0  0  0  0  0  0  0  0  0  0
    5.0586   -2.5236    0.2993 H   0  0  0  0  0  0  0  0  0  0  0  0
    7.4051   -2.5842   -0.4528 H   0  0  0  0  0  0  0  0  0  0  0  0
    8.4116   -0.6129   -1.5727 H   0  0  0  0  0  0  0  0  0  0  0  0
    7.0504    1.4285   -1.9432 H   0  0  0  0  0  0  0  0  0  0  0  0
    4.7014    1.5101   -1.1888 H   0  0  0  0  0  0  0  0  0  0  0  0
  1  2  1  0
  2  3  1  0
  3  4  2  0
  4  5  1  0
  5  6  2  0
  5  7  1  0
  7  8  1  0
  8  9  1  0
  9 10  1  0
 10 11  1  0
 11 12  1  0
 12 13  1  0
 13 14  1  0
  4 15  1  0
 15 16  2  0
 16 17  1  0
 17 18  1  0
 18 19  2  0
 19 20  1  0
 20 21  2  0
 21 22  1  0
 22 23  2  0
 17  2  2  0
 23 18  1  0
 14  8  1  0
  1 24  1  0
  1 25  1  0
  1 26  1  0
  3 27  1  0
  7 28  1  0
  8 29  1  0
  9 30  1  0
  9 31  1  0
 10 32  1  0
 10 33  1  0
 11 34  1  0
 11 35  1  0
 12 36  1  0
 12 37  1  0
 13 38  1  0
 13 39  1  0
 14 40  1  0
 14 41  1  0
 19 42  1  0
 20 43  1  0
 21 44  1  0
 22 45  1  0
 23 46  1  0
M  END
>  <_SMILES>  (85) 
Cc1cc(C(=O)NC2CCCCCC2)nnc1-c1ccccc1

$$$$

     RDKit          3D

 39 40  0  0  0  0  0  0  0  0999 V2000
    2.6867   -2.0833   -1.5321 C   0  0  0  0  0  0  0  0  0  0  0  0
    1.7172   -1.1236   -0.9059 C   0  0  0  0  0  0  0  0  0  0  0  0
    0.3433   -1.3755   -1.0038 C   0  0  0  0  0  0  0  0  0  0  0  0
   -0.5430   -0.4777   -0.4343 C   0  0  0  0  0  0  0  0  0  0  0  0
   -2.0176   -0.6929   -0.5135 C   0  0  0  0  0  0  0  0  0  0  0  0
   -2.4708   -1.6761   -1.0879 O   0  0  0  0  0  0  0  0  0  0  0  0
   -2.7801    0.2824    0.0982 N   0  0  0  0  0  0  0  0  0  0  0  0
   -4.2460    0.3061    0.1660 C   0  0  0  0  0  0  0  0  0  0  0  0
   -4.6685    1.5698    0.9368 C   0  0  0  0  0  0  0  0  0  0  0  0
   -4.7786   -0.9231    0.9187 C   0  0  0  0  0  0  0  0  0  0  0  0
   -4.8580    0.3686   -1.2421 C   0  0  0  0  0  0  0  0  0  0  0  0
   -0.1265    0.6328    0.2150 N   0  0  0  0  0  0  0  0  0  0  0  0
    1.2169    0.8775    0.3268 N   0  0  0  0  0  0  0  0  0  0  0  0
    2.1255    0.0181   -0.2055 C   0  0  0  0  0  0  0  0  0  0  0  0
    3.5266    0.4025    0.0106 C   0  0  0  0  0  0  0  0  0  0  0  0
    4.0154    1.6216   -0.4889 C   0  0  0  0  0  0  0  0  0  0  0  0
    5.3461    1.9988   -0.2921 C   0  0  0  0  0  0  0  0  0  0  0  0
    6.2088    1.1654    0.4156 C   0  0  0  0  0  0  0  0  0  0  0  0
    5.7410   -0.0405    0.9319 C   0  0  0  0  0  0  0  0  0  0  0  0
    4.4098   -0.4168    0.7342 C   0  0  0  0  0  0  0  0  0  0  0  0
    3.1170   -2.7402   -0.7702 H   0  0  0  0  0  0  0  0  0  0  0  0
    3.4889   -1.5497   -2.0518 H   0  0  0  0  0  0  0  0  0  0  0  0
    2.1913   -2.7122   -2.2801 H   0  0  0  0  0  0  0  0  0  0  0  0
   -0.0336   -2.2529   -1.5217 H   0  0  0  0  0  0  0  0  0  0  0  0
   -2.2611    1.0386    0.5384 H   0  0  0  0  0  0  0  0  0  0  0  0
   -4.2523    1.5711    1.9511 H   0  0  0  0  0  0  0  0  0  0  0  0
   -5.7585    1.6431    1.0204 H   0  0  0  0  0  0  0  0  0  0  0  0
   -4.3076    2.4763    0.4367 H   0  0  0  0  0  0  0  0  0  0  0  0
   -5.8657   -0.8688    1.0457 H   0  0  0  0  0  0  0  0  0  0  0  0
   -4.3266   -1.0006    1.9143 H   0  0  0  0  0  0  0  0  0  0  0  0
   -4.5588   -1.8549    0.3877 H   0  0  0  0  0  0  0  0  0  0  0  0
   -5.9481    0.4717   -1.1954 H   0  0  0  0  0  0  0  0  0  0  0  0
   -4.4627    1.2221   -1.8049 H   0  0  0  0  0  0  0  0  0  0  0  0
   -4.6409   -0.5335   -1.8230 H   0  0  0  0  0  0  0  0  0  0  0  0
    3.3516    2.2888   -1.0368 H   0  0  0  0  0  0  0  0  0  0  0  0
    5.7053    2.9457   -0.6870 H   0  0  0  0  0  0  0  0  0  0  0  0
    7.2431    1.4606    0.5726 H   0  0  0  0  0  0  0  0  0  0  0  0
    6.4099   -0.6857    1.4960 H   0  0  0  0  0  0  0  0  0  0  0  0
    4.0606   -1.3536    1.1638 H   0  0  0  0  0  0  0  0  0  0  0  0
  1  2  1  0
  2  3  1  0
  3  4  2  0
  4  5  1  0
  5  6  2  0
  5  7  1  0
  7  8  1  0
  8  9  1  0
  8 10  1  0
  8 11  1  0
  4 12  1  0
 12 13  2  0
 13 14  1  0
 14 15  1  0
 15 16  2  0
 16 17  1  0
 17 18  2  0
 18 19  1  0
 19 20  2  0
 14  2  2  0
 20 15  1  0
  1 21  1  0
  1 22  1  0
  1 23  1  0
  3 24  1  0
  7 25  1  0
  9 26  1  0
  9 27  1  0
  9 28  1  0
 10 29  1  0
 10 30  1  0
 10 31  1  0
 11 32  1  0
 11 33  1  0
 11 34  1  0
 16 35  1  0
 17 36  1  0
 18 37  1  0
 19 38  1  0
 20 39  1  0
M  END
>  <_SMILES>  (86) 
Cc1cc(C(=O)NC(C)(C)C)nnc1-c1ccccc1

$$$$

     RDKit          3D

 40 42  0  0  0  0  0  0  0  0999 V2000
    2.8560   -0.3350    2.7098 C   0  0  0  0  0  0  0  0  0  0  0  0
    1.9985    0.0550    1.5413 C   0  0  0  0  0  0  0  0  0  0  0  0
    0.7275    0.5950    1.7734 C   0  0  0  0  0  0  0  0  0  0  0  0
   -0.0610    0.9386    0.6889 C   0  0  0  0  0  0  0  0  0  0  0  0
   -1.4259    1.5084    0.8793 C   0  0  0  0  0  0  0  0  0  0  0  0
   -1.8827    1.6837    2.0040 O   0  0  0  0  0  0  0  0  0  0  0  0
   -2.1043    1.8022   -0.2843 N   0  0  0  0  0  0  0  0  0  0  0  0
   -3.4885    2.2068   -0.2949 C   0  0  0  0  0  0  0  0  0  0  0  0
   -4.3877    1.0339   -0.5864 C   0  0  0  0  0  0  0  0  0  0  0  0
   -4.8019    0.7556   -1.8966 C   0  0  0  0  0  0  0  0  0  0  0  0
   -5.6179   -0.3458   -2.1613 C   0  0  0  0  0  0  0  0  0  0  0  0
   -6.0211   -1.1826   -1.1219 C   0  0  0  0  0  0  0  0  0  0  0  0
   -5.6064   -0.9219    0.1827 C   0  0  0  0  0  0  0  0  0  0  0  0
   -4.7909    0.1786    0.4493 C   0  0  0  0  0  0  0  0  0  0  0  0
    0.3558    0.7725   -0.5863 N   0  0  0  0  0  0  0  0  0  0  0  0
    1.6043    0.2587   -0.8201 N   0  0  0  0  0  0  0  0  0  0  0  0
    2.4191   -0.0822    0.2127 C   0  0  0  0  0  0  0  0  0  0  0  0
    3.7316   -0.6021   -0.1929 C   0  0  0  0  0  0  0  0  0  0  0  0
    4.9234    0.0494    0.1680 C   0  0  0  0  0  0  0  0  0  0  0  0
    6.1661   -0.4562   -0.2231 C   0  0  0  0  0  0  0  0  0  0  0  0
    6.2368   -1.6177   -0.9885 C   0  0  0  0  0  0  0  0  0  0  0  0
    5.0671   -2.2706   -1.3690 C   0  0  0  0  0  0  0  0  0  0  0  0
    3.8252   -1.7641   -0.9776 C   0  0  0  0  0  0  0  0  0  0  0  0
    3.3468   -1.2976    2.5341 H   0  0  0  0  0  0  0  0  0  0  0  0
    3.6122    0.4328    2.8994 H   0  0  0  0  0  0  0  0  0  0  0  0
    2.2553   -0.4496    3.6188 H   0  0  0  0  0  0  0  0  0  0  0  0
    0.3519    0.7386    2.7826 H   0  0  0  0  0  0  0  0  0  0  0  0
   -1.6761    1.5111   -1.1575 H   0  0  0  0  0  0  0  0  0  0  0  0
   -3.5992    2.9741   -1.0690 H   0  0  0  0  0  0  0  0  0  0  0  0
   -3.7629    2.6683    0.6605 H   0  0  0  0  0  0  0  0  0  0  0  0
   -4.4910    1.3950   -2.7196 H   0  0  0  0  0  0  0  0  0  0  0  0
   -5.9372   -0.5529   -3.1793 H   0  0  0  0  0  0  0  0  0  0  0  0
   -6.6551   -2.0405   -1.3292 H   0  0  0  0  0  0  0  0  0  0  0  0
   -5.9142   -1.5770    0.9934 H   0  0  0  0  0  0  0  0  0  0  0  0
   -4.4634    0.3680    1.4705 H   0  0  0  0  0  0  0  0  0  0  0  0
    4.8908    0.9693    0.7483 H   0  0  0  0  0  0  0  0  0  0  0  0
    7.0779    0.0619    0.0633 H   0  0  0  0  0  0  0  0  0  0  0  0
    7.2030   -2.0091   -1.2965 H   0  0  0  0  0  0  0  0  0  0  0  0
    5.1183   -3.1712   -1.9755 H   0  0  0  0  0  0  0  0  0  0  0  0
    2.9198   -2.2815   -1.2911 H   0  0  0  0  0  0  0  0  0  0  0  0
  1  2  1  0
  2  3  1  0
  3  4  2  0
  4  5  1  0
  5  6  2  0
  5  7  1  0
  7  8  1  0
  8  9  1  0
  9 10  2  0
 10 11  1  0
 11 12  2  0
 12 13  1  0
 13 14  2  0
  4 15  1  0
 15 16  2  0
 16 17  1  0
 17 18  1  0
 18 19  2  0
 19 20  1  0
 20 21  2  0
 21 22  1  0
 22 23  2  0
 17  2  2  0
 23 18  1  0
 14  9  1  0
  1 24  1  0
  1 25  1  0
  1 26  1  0
  3 27  1  0
  7 28  1  0
  8 29  1  0
  8 30  1  0
 10 31  1  0
 11 32  1  0
 12 33  1  0
 13 34  1  0
 14 35  1  0
 19 36  1  0
 20 37  1  0
 21 38  1  0
 22 39  1  0
 23 40  1  0
M  END
>  <_SMILES>  (87) 
Cc1cc(C(=O)NCc2ccccc2)nnc1-c1ccccc1

$$$$

     RDKit          3D

 34 36  0  0  0  0  0  0  0  0999 V2000
   -1.8543    1.2001    2.2818 C   0  0  0  0  0  0  0  0  0  0  0  0
   -0.9486    0.7056    1.1916 C   0  0  0  0  0  0  0  0  0  0  0  0
    0.4375    0.7279    1.3890 C   0  0  0  0  0  0  0  0  0  0  0  0
    1.2635    0.2576    0.3827 C   0  0  0  0  0  0  0  0  0  0  0  0
    2.7447    0.2521    0.5414 C   0  0  0  0  0  0  0  0  0  0  0  0
    3.2679    0.6698    1.5696 O   0  0  0  0  0  0  0  0  0  0  0  0
    3.4428   -0.2472   -0.5430 N   0  0  0  0  0  0  0  0  0  0  0  0
    4.8639   -0.3441   -0.5729 C   0  0  0  0  0  0  0  0  0  0  0  0
    5.5424   -1.6592   -0.3088 C   0  0  0  0  0  0  0  0  0  0  0  0
    5.5596   -1.0727   -1.6896 C   0  0  0  0  0  0  0  0  0  0  0  0
    0.7770   -0.2202   -0.7846 N   0  0  0  0  0  0  0  0  0  0  0  0
   -0.5774   -0.2311   -0.9897 N   0  0  0  0  0  0  0  0  0  0  0  0
   -1.4278    0.2319   -0.0358 C   0  0  0  0  0  0  0  0  0  0  0  0
   -2.8480    0.1745   -0.4063 C   0  0  0  0  0  0  0  0  0  0  0  0
   -3.4565   -1.0564   -0.7054 C   0  0  0  0  0  0  0  0  0  0  0  0
   -4.8067   -1.1254   -1.0576 C   0  0  0  0  0  0  0  0  0  0  0  0
   -5.5694    0.0378   -1.1244 C   0  0  0  0  0  0  0  0  0  0  0  0
   -4.9825    1.2698   -0.8461 C   0  0  0  0  0  0  0  0  0  0  0  0
   -3.6318    1.3377   -0.4938 C   0  0  0  0  0  0  0  0  0  0  0  0
   -1.3339    1.2247    3.2456 H   0  0  0  0  0  0  0  0  0  0  0  0
   -2.1995    2.2140    2.0584 H   0  0  0  0  0  0  0  0  0  0  0  0
   -2.7171    0.5381    2.4074 H   0  0  0  0  0  0  0  0  0  0  0  0
    0.8691    1.0982    2.3148 H   0  0  0  0  0  0  0  0  0  0  0  0
    2.9003   -0.5560   -1.3459 H   0  0  0  0  0  0  0  0  0  0  0  0
    5.3603    0.5468   -0.1922 H   0  0  0  0  0  0  0  0  0  0  0  0
    4.9229   -2.5299   -0.1297 H   0  0  0  0  0  0  0  0  0  0  0  0
    6.4599   -1.6418    0.2679 H   0  0  0  0  0  0  0  0  0  0  0  0
    6.4936   -0.6613   -2.0547 H   0  0  0  0  0  0  0  0  0  0  0  0
    4.9608   -1.5569   -2.4516 H   0  0  0  0  0  0  0  0  0  0  0  0
   -2.8721   -1.9744   -0.6665 H   0  0  0  0  0  0  0  0  0  0  0  0
   -5.2592   -2.0874   -1.2847 H   0  0  0  0  0  0  0  0  0  0  0  0
   -6.6189   -0.0151   -1.4025 H   0  0  0  0  0  0  0  0  0  0  0  0
   -5.5734    2.1800   -0.9109 H   0  0  0  0  0  0  0  0  0  0  0  0
   -3.1891    2.3127   -0.3004 H   0  0  0  0  0  0  0  0  0  0  0  0
  1  2  1  0
  2  3  1  0
  3  4  2  0
  4  5  1  0
  5  6  2  0
  5  7  1  0
  7  8  1  0
  8  9  1  0
  9 10  1  0
  4 11  1  0
 11 12  2  0
 12 13  1  0
 13 14  1  0
 14 15  2  0
 15 16  1  0
 16 17  2  0
 17 18  1  0
 18 19  2  0
 13  2  2  0
 19 14  1  0
 10  8  1  0
  1 20  1  0
  1 21  1  0
  1 22  1  0
  3 23  1  0
  7 24  1  0
  8 25  1  0
  9 26  1  0
  9 27  1  0
 10 28  1  0
 10 29  1  0
 15 30  1  0
 16 31  1  0
 17 32  1  0
 18 33  1  0
 19 34  1  0
M  END
>  <_SMILES>  (88) 
Cc1cc(C(=O)NC2CC2)nnc1-c1ccccc1

$$$$

     RDKit          3D

 40 42  0  0  0  0  0  0  0  0999 V2000
    1.5247    2.1885    0.7632 O   0  0  0  0  0  0  0  0  0  0  0  0
    1.0097    1.0863    0.6089 C   0  0  0  0  0  0  0  0  0  0  0  0
    1.7229   -0.0922    0.5033 N   0  0  0  0  0  0  0  0  0  0  0  0
    3.1733   -0.1223    0.4180 C   0  0  0  0  0  0  0  0  0  0  0  0
    3.7145   -1.4687    0.9245 C   0  0  0  0  0  0  0  0  0  0  0  0
    5.0789   -1.8414    0.3386 C   0  0  0  0  0  0  0  0  0  0  0  0
    5.8907   -0.6129   -0.0463 C   0  0  0  0  0  0  0  0  0  0  0  0
    5.1740    0.2339   -1.0992 C   0  0  0  0  0  0  0  0  0  0  0  0
    3.6478    0.1623   -1.0093 C   0  0  0  0  0  0  0  0  0  0  0  0
   -0.4708    0.9420    0.5118 C   0  0  0  0  0  0  0  0  0  0  0  0
   -1.3058    2.0366    0.6349 C   0  0  0  0  0  0  0  0  0  0  0  0
   -2.6804    1.8317    0.5282 C   0  0  0  0  0  0  0  0  0  0  0  0
   -3.1685    0.5460    0.3049 C   0  0  0  0  0  0  0  0  0  0  0  0
   -4.6036    0.2263    0.1758 C   0  0  0  0  0  0  0  0  0  0  0  0
   -5.5974    0.9577    0.8536 C   0  0  0  0  0  0  0  0  0  0  0  0
   -6.9541    0.6439    0.7166 C   0  0  0  0  0  0  0  0  0  0  0  0
   -7.3480   -0.4118   -0.0996 C   0  0  0  0  0  0  0  0  0  0  0  0
   -6.3872   -1.1570   -0.7750 C   0  0  0  0  0  0  0  0  0  0  0  0
   -5.0321   -0.8418   -0.6358 C   0  0  0  0  0  0  0  0  0  0  0  0
   -2.3063   -0.4951    0.1821 N   0  0  0  0  0  0  0  0  0  0  0  0
   -0.9487   -0.3033    0.2868 N   0  0  0  0  0  0  0  0  0  0  0  0
    1.1916   -0.9232    0.2561 H   0  0  0  0  0  0  0  0  0  0  0  0
    3.5552    0.6752    1.0692 H   0  0  0  0  0  0  0  0  0  0  0  0
    3.0123   -2.2838    0.7067 H   0  0  0  0  0  0  0  0  0  0  0  0
    3.7842   -1.4247    2.0191 H   0  0  0  0  0  0  0  0  0  0  0  0
    4.9314   -2.4659   -0.5517 H   0  0  0  0  0  0  0  0  0  0  0  0
    5.6334   -2.4531    1.0592 H   0  0  0  0  0  0  0  0  0  0  0  0
    6.8760   -0.9103   -0.4224 H   0  0  0  0  0  0  0  0  0  0  0  0
    6.0696   -0.0050    0.8497 H   0  0  0  0  0  0  0  0  0  0  0  0
    5.4813   -0.0835   -2.1031 H   0  0  0  0  0  0  0  0  0  0  0  0
    5.5032    1.2749   -0.9948 H   0  0  0  0  0  0  0  0  0  0  0  0
    3.2815   -0.6289   -1.6774 H   0  0  0  0  0  0  0  0  0  0  0  0
    3.2187    1.0973   -1.3894 H   0  0  0  0  0  0  0  0  0  0  0  0
   -0.9001    3.0286    0.8052 H   0  0  0  0  0  0  0  0  0  0  0  0
   -3.3501    2.6823    0.6034 H   0  0  0  0  0  0  0  0  0  0  0  0
   -5.3295    1.7759    1.5183 H   0  0  0  0  0  0  0  0  0  0  0  0
   -7.7018    1.2219    1.2542 H   0  0  0  0  0  0  0  0  0  0  0  0
   -8.4015   -0.6574   -0.2047 H   0  0  0  0  0  0  0  0  0  0  0  0
   -6.6873   -1.9867   -1.4100 H   0  0  0  0  0  0  0  0  0  0  0  0
   -4.3015   -1.4427   -1.1765 H   0  0  0  0  0  0  0  0  0  0  0  0
  1  2  2  0
  2  3  1  0
  3  4  1  0
  4  5  1  0
  5  6  1  0
  6  7  1  0
  7  8  1  0
  8  9  1  0
  2 10  1  0
 10 11  2  0
 11 12  1  0
 12 13  2  0
 13 14  1  0
 14 15  2  0
 15 16  1  0
 16 17  2  0
 17 18  1  0
 18 19  2  0
 13 20  1  0
 20 21  2  0
  9  4  1  0
 21 10  1  0
 19 14  1  0
  3 22  1  0
  4 23  1  0
  5 24  1  0
  5 25  1  0
  6 26  1  0
  6 27  1  0
  7 28  1  0
  7 29  1  0
  8 30  1  0
  8 31  1  0
  9 32  1  0
  9 33  1  0
 11 34  1  0
 12 35  1  0
 15 36  1  0
 16 37  1  0
 17 38  1  0
 18 39  1  0
 19 40  1  0
M  END
>  <_SMILES>  (89) 
O=C(NC1CCCCC1)c1ccc(-c2ccccc2)nn1

$$$$

     RDKit          3D

 43 45  0  0  0  0  0  0  0  0999 V2000
   -3.5830    1.6957    1.7978 C   0  0  0  0  0  0  0  0  0  0  0  0
   -2.5667    0.9206    1.0107 C   0  0  0  0  0  0  0  0  0  0  0  0
   -1.2110    1.0350    1.3421 C   0  0  0  0  0  0  0  0  0  0  0  0
   -0.2800    0.3256    0.6032 C   0  0  0  0  0  0  0  0  0  0  0  0
    1.1771    0.4204    0.9058 C   0  0  0  0  0  0  0  0  0  0  0  0
    1.5878    1.1591    1.7942 O   0  0  0  0  0  0  0  0  0  0  0  0
    1.9933   -0.3656    0.1158 N   0  0  0  0  0  0  0  0  0  0  0  0
    3.4436   -0.2854    0.1680 C   0  0  0  0  0  0  0  0  0  0  0  0
    3.9509    0.8993   -0.6648 C   0  0  0  0  0  0  0  0  0  0  0  0
    5.4759    0.9633   -0.6836 C   0  0  0  0  0  0  0  0  0  0  0  0
    6.0898   -0.3517   -1.1544 C   0  0  0  0  0  0  0  0  0  0  0  0
    5.5893   -1.5328   -0.3284 C   0  0  0  0  0  0  0  0  0  0  0  0
    4.0647   -1.6013   -0.3123 C   0  0  0  0  0  0  0  0  0  0  0  0
   -0.6358   -0.4735   -0.4277 N   0  0  0  0  0  0  0  0  0  0  0  0
   -1.9617   -0.6007   -0.7481 N   0  0  0  0  0  0  0  0  0  0  0  0
   -2.9129    0.0651   -0.0421 C   0  0  0  0  0  0  0  0  0  0  0  0
   -4.2891   -0.1878   -0.4907 C   0  0  0  0  0  0  0  0  0  0  0  0
   -5.2448   -0.7688    0.3635 C   0  0  0  0  0  0  0  0  0  0  0  0
   -6.5496   -1.0066   -0.0769 C   0  0  0  0  0  0  0  0  0  0  0  0
   -6.9057   -0.6726   -1.3771 C   0  0  0  0  0  0  0  0  0  0  0  0
   -8.1563   -0.9009   -1.7983 F   0  0  0  0  0  0  0  0  0  0  0  0
   -5.9815   -0.1105   -2.2475 C   0  0  0  0  0  0  0  0  0  0  0  0
   -4.6772    0.1269   -1.8066 C   0  0  0  0  0  0  0  0  0  0  0  0
   -4.0733    1.0461    2.5290 H   0  0  0  0  0  0  0  0  0  0  0  0
   -4.3360    2.1398    1.1389 H   0  0  0  0  0  0  0  0  0  0  0  0
   -3.1134    2.5230    2.3413 H   0  0  0  0  0  0  0  0  0  0  0  0
   -0.8816    1.6722    2.1581 H   0  0  0  0  0  0  0  0  0  0  0  0
    1.5490   -0.8465   -0.6622 H   0  0  0  0  0  0  0  0  0  0  0  0
    3.7302   -0.1217    1.2151 H   0  0  0  0  0  0  0  0  0  0  0  0
    3.5528    1.8406   -0.2672 H   0  0  0  0  0  0  0  0  0  0  0  0
    3.5774    0.8165   -1.6941 H   0  0  0  0  0  0  0  0  0  0  0  0
    5.8429    1.1974    0.3233 H   0  0  0  0  0  0  0  0  0  0  0  0
    5.8024    1.7780   -1.3398 H   0  0  0  0  0  0  0  0  0  0  0  0
    7.1821   -0.2929   -1.0899 H   0  0  0  0  0  0  0  0  0  0  0  0
    5.8400   -0.5133   -2.2103 H   0  0  0  0  0  0  0  0  0  0  0  0
    5.9959   -2.4656   -0.7352 H   0  0  0  0  0  0  0  0  0  0  0  0
    5.9613   -1.4434    0.6997 H   0  0  0  0  0  0  0  0  0  0  0  0
    3.7018   -1.8402   -1.3207 H   0  0  0  0  0  0  0  0  0  0  0  0
    3.7416   -2.4253    0.3356 H   0  0  0  0  0  0  0  0  0  0  0  0
   -4.9729   -1.0548    1.3778 H   0  0  0  0  0  0  0  0  0  0  0  0
   -7.2852   -1.4562    0.5826 H   0  0  0  0  0  0  0  0  0  0  0  0
   -6.2770    0.1347   -3.2626 H   0  0  0  0  0  0  0  0  0  0  0  0
   -3.9547    0.5590   -2.4977 H   0  0  0  0  0  0  0  0  0  0  0  0
  1  2  1  0
  2  3  1  0
  3  4  2  0
  4  5  1  0
  5  6  2  0
  5  7  1  0
  7  8  1  0
  8  9  1  0
  9 10  1  0
 10 11  1  0
 11 12  1  0
 12 13  1  0
  4 14  1  0
 14 15  2  0
 15 16  1  0
 16 17  1  0
 17 18  1  0
 18 19  2  0
 19 20  1  0
 20 21  1  0
 20 22  2  0
 22 23  1  0
 16  2  2  0
 23 17  2  0
 13  8  1  0
  1 24  1  0
  1 25  1  0
  1 26  1  0
  3 27  1  0
  7 28  1  0
  8 29  1  0
  9 30  1  0
  9 31  1  0
 10 32  1  0
 10 33  1  0
 11 34  1  0
 11 35  1  0
 12 36  1  0
 12 37  1  0
 13 38  1  0
 13 39  1  0
 18 40  1  0
 19 41  1  0
 22 42  1  0
 23 43  1  0
M  END
>  <_SMILES>  (90) 
Cc1cc(C(=O)NC2CCCCC2)nnc1-c1ccc(F)cc1

$$$$

     RDKit          3D

 40 42  0  0  0  0  0  0  0  0999 V2000
    2.8114   -2.5068    0.8031 C   0  0  0  0  0  0  0  0  0  0  0  0
    1.8074   -1.4183    0.5583 C   0  0  0  0  0  0  0  0  0  0  0  0
    0.4779   -1.6087    0.9583 C   0  0  0  0  0  0  0  0  0  0  0  0
   -0.4560   -0.6108    0.7198 C   0  0  0  0  0  0  0  0  0  0  0  0
   -1.8695   -0.7903    1.1703 C   0  0  0  0  0  0  0  0  0  0  0  0
   -2.0756   -1.5957    2.0824 O   0  0  0  0  0  0  0  0  0  0  0  0
   -2.9152   -0.0722    0.5760 N   0  0  0  0  0  0  0  0  0  0  0  0
   -2.8029    0.6762   -0.6804 C   0  0  0  0  0  0  0  0  0  0  0  0
   -4.1378    0.7787   -1.4121 C   0  0  0  0  0  0  0  0  0  0  0  0
   -5.2242    1.4106   -0.5441 C   0  0  0  0  0  0  0  0  0  0  0  0
   -5.0574    1.0983    0.9429 C   0  0  0  0  0  0  0  0  0  0  0  0
   -4.2436   -0.1682    1.1785 C   0  0  0  0  0  0  0  0  0  0  0  0
   -0.1046    0.5511    0.1349 N   0  0  0  0  0  0  0  0  0  0  0  0
    1.1980    0.7520   -0.2554 N   0  0  0  0  0  0  0  0  0  0  0  0
    2.1417   -0.1985   -0.0381 C   0  0  0  0  0  0  0  0  0  0  0  0
    3.4920    0.1671   -0.4853 C   0  0  0  0  0  0  0  0  0  0  0  0
    4.5649    0.2594    0.4177 C   0  0  0  0  0  0  0  0  0  0  0  0
    5.8457    0.6066   -0.0203 C   0  0  0  0  0  0  0  0  0  0  0  0
    6.0728    0.8750   -1.3680 C   0  0  0  0  0  0  0  0  0  0  0  0
    5.0202    0.8037   -2.2770 C   0  0  0  0  0  0  0  0  0  0  0  0
    3.7401    0.4566   -1.8378 C   0  0  0  0  0  0  0  0  0  0  0  0
    2.3159   -3.4690    0.9732 H   0  0  0  0  0  0  0  0  0  0  0  0
    3.4670   -2.6402   -0.0634 H   0  0  0  0  0  0  0  0  0  0  0  0
    3.4142   -2.2761    1.6866 H   0  0  0  0  0  0  0  0  0  0  0  0
    0.1697   -2.5282    1.4488 H   0  0  0  0  0  0  0  0  0  0  0  0
   -2.4329    1.6782   -0.4352 H   0  0  0  0  0  0  0  0  0  0  0  0
   -2.0785    0.1842   -1.3368 H   0  0  0  0  0  0  0  0  0  0  0  0
   -4.0216    1.3518   -2.3388 H   0  0  0  0  0  0  0  0  0  0  0  0
   -4.4605   -0.2289   -1.7050 H   0  0  0  0  0  0  0  0  0  0  0  0
   -6.2034    1.0598   -0.8917 H   0  0  0  0  0  0  0  0  0  0  0  0
   -5.2242    2.4990   -0.6794 H   0  0  0  0  0  0  0  0  0  0  0  0
   -6.0413    1.0142    1.4177 H   0  0  0  0  0  0  0  0  0  0  0  0
   -4.5473    1.9422    1.4254 H   0  0  0  0  0  0  0  0  0  0  0  0
   -4.7440   -1.0389    0.7382 H   0  0  0  0  0  0  0  0  0  0  0  0
   -4.1528   -0.3517    2.2548 H   0  0  0  0  0  0  0  0  0  0  0  0
    4.4056    0.0743    1.4782 H   0  0  0  0  0  0  0  0  0  0  0  0
    6.6633    0.6755    0.6927 H   0  0  0  0  0  0  0  0  0  0  0  0
    7.0680    1.1495   -1.7084 H   0  0  0  0  0  0  0  0  0  0  0  0
    5.1918    1.0238   -3.3275 H   0  0  0  0  0  0  0  0  0  0  0  0
    2.9260    0.4146   -2.5598 H   0  0  0  0  0  0  0  0  0  0  0  0
  1  2  1  0
  2  3  1  0
  3  4  2  0
  4  5  1  0
  5  6  2  0
  5  7  1  0
  7  8  1  0
  8  9  1  0
  9 10  1  0
 10 11  1  0
 11 12  1  0
  4 13  1  0
 13 14  2  0
 14 15  1  0
 15 16  1  0
 16 17  2  0
 17 18  1  0
 18 19  2  0
 19 20  1  0
 20 21  2  0
 15  2  2  0
 21 16  1  0
 12  7  1  0
  1 22  1  0
  1 23  1  0
  1 24  1  0
  3 25  1  0
  8 26  1  0
  8 27  1  0
  9 28  1  0
  9 29  1  0
 10 30  1  0
 10 31  1  0
 11 32  1  0
 11 33  1  0
 12 34  1  0
 12 35  1  0
 17 36  1  0
 18 37  1  0
 19 38  1  0
 20 39  1  0
 21 40  1  0
M  END
>  <_SMILES>  (91) 
Cc1cc(C(=O)N2CCCCC2)nnc1-c1ccccc1

$$$$

     RDKit          3D

 44 47  0  0  0  0  0  0  0  0999 V2000
    5.9074   -1.2209    0.8417 C   0  0  0  0  0  0  0  0  0  0  0  0
    4.7344   -0.3898    0.4153 C   0  0  0  0  0  0  0  0  0  0  0  0
    3.4343   -0.8722    0.5850 C   0  0  0  0  0  0  0  0  0  0  0  0
    2.3743   -0.0792    0.1806 C   0  0  0  0  0  0  0  0  0  0  0  0
    0.9636   -0.5408    0.3364 C   0  0  0  0  0  0  0  0  0  0  0  0
    0.7192   -1.6365    0.8281 O   0  0  0  0  0  0  0  0  0  0  0  0
    0.0093    0.3519   -0.1095 N   0  0  0  0  0  0  0  0  0  0  0  0
   -1.4385    0.1434   -0.0708 C   0  0  2  0  0  0  0  0  0  0  0  0
   -2.1326    1.3955   -0.6709 C   0  0  0  0  0  0  0  0  0  0  0  0
   -3.6614    1.2375   -0.6585 C   0  0  1  0  0  0  0  0  0  0  0  0
   -4.0471    0.0031   -1.4884 C   0  0  0  0  0  0  0  0  0  0  0  0
   -3.3907   -1.2537   -0.8957 C   0  0  2  0  0  0  0  0  0  0  0  0
   -3.8631   -1.4359    0.5568 C   0  0  0  0  0  0  0  0  0  0  0  0
   -3.4805   -0.2050    1.3964 C   0  0  2  0  0  0  0  0  0  0  0  0
   -4.1364    1.0457    0.7903 C   0  0  0  0  0  0  0  0  0  0  0  0
   -1.9509   -0.0362    1.3797 C   0  0  0  0  0  0  0  0  0  0  0  0
   -1.8611   -1.0855   -0.9135 C   0  0  0  0  0  0  0  0  0  0  0  0
    2.5535    1.1433   -0.3718 N   0  0  0  0  0  0  0  0  0  0  0  0
    3.8221    1.6198   -0.5400 N   0  0  0  0  0  0  0  0  0  0  0  0
    4.8893    0.8755   -0.1575 C   0  0  0  0  0  0  0  0  0  0  0  0
    6.2376    1.4891   -0.3853 C   0  0  0  0  0  0  0  0  0  0  0  0
    5.5873   -2.1781    1.2670 H   0  0  0  0  0  0  0  0  0  0  0  0
    6.4872   -0.6971    1.6083 H   0  0  0  0  0  0  0  0  0  0  0  0
    6.5512   -1.4401   -0.0159 H   0  0  0  0  0  0  0  0  0  0  0  0
    3.2448   -1.8474    1.0238 H   0  0  0  0  0  0  0  0  0  0  0  0
    0.3656    1.2236   -0.4943 H   0  0  0  0  0  0  0  0  0  0  0  0
   -1.8489    2.2924   -0.1039 H   0  0  0  0  0  0  0  0  0  0  0  0
   -1.7864    1.5621   -1.6998 H   0  0  0  0  0  0  0  0  0  0  0  0
   -4.1294    2.1313   -1.0857 H   0  0  0  0  0  0  0  0  0  0  0  0
   -3.7291    0.1367   -2.5297 H   0  0  0  0  0  0  0  0  0  0  0  0
   -5.1377   -0.1141   -1.5012 H   0  0  0  0  0  0  0  0  0  0  0  0
   -3.6720   -2.1313   -1.4885 H   0  0  0  0  0  0  0  0  0  0  0  0
   -4.9501   -1.5813    0.5808 H   0  0  0  0  0  0  0  0  0  0  0  0
   -3.4118   -2.3382    0.9874 H   0  0  0  0  0  0  0  0  0  0  0  0
   -3.8254   -0.3395    2.4277 H   0  0  0  0  0  0  0  0  0  0  0  0
   -3.8826    1.9294    1.3886 H   0  0  0  0  0  0  0  0  0  0  0  0
   -5.2285    0.9464    0.8167 H   0  0  0  0  0  0  0  0  0  0  0  0
   -1.4900   -0.9117    1.8522 H   0  0  0  0  0  0  0  0  0  0  0  0
   -1.6639    0.8293    1.9913 H   0  0  0  0  0  0  0  0  0  0  0  0
   -1.3967   -2.0016   -0.5300 H   0  0  0  0  0  0  0  0  0  0  0  0
   -1.5096   -0.9729   -1.9476 H   0  0  0  0  0  0  0  0  0  0  0  0
    6.8324    0.8654   -1.0594 H   0  0  0  0  0  0  0  0  0  0  0  0
    6.1420    2.4797   -0.8424 H   0  0  0  0  0  0  0  0  0  0  0  0
    6.7685    1.6083    0.5641 H   0  0  0  0  0  0  0  0  0  0  0  0
  1  2  1  0
  2  3  1  0
  3  4  2  0
  4  5  1  0
  5  6  2  0
  5  7  1  0
  8  7  1  1
  8  9  1  0
  9 10  1  0
 10 11  1  0
 11 12  1  0
 12 13  1  0
 13 14  1  0
 14 15  1  0
 14 16  1  0
 12 17  1  0
  4 18  1  0
 18 19  2  0
 19 20  1  0
 20 21  1  0
 20  2  2  0
 16  8  1  0
 17  8  1  0
 15 10  1  0
  1 22  1  0
  1 23  1  0
  1 24  1  0
  3 25  1  0
  7 26  1  0
  9 27  1  0
  9 28  1  0
 10 29  1  6
 11 30  1  0
 11 31  1  0
 12 32  1  6
 13 33  1  0
 13 34  1  0
 14 35  1  1
 15 36  1  0
 15 37  1  0
 16 38  1  0
 16 39  1  0
 17 40  1  0
 17 41  1  0
 21 42  1  0
 21 43  1  0
 21 44  1  0
M  END
>  <_SMILES>  (92) 
Cc1cc(C(=O)N[C@]23C[C@H]4C[C@H](C[C@H](C4)C2)C3)nnc1C

$$$$

     RDKit          3D

 32 34  0  0  0  0  0  0  0  0999 V2000
    4.1316    0.0781   -1.0573 C   0  0  0  0  0  0  0  0  0  0  0  0
    2.7098    0.1919   -0.9890 O   0  0  0  0  0  0  0  0  0  0  0  0
    2.1656   -0.2994    0.1609 C   0  0  0  0  0  0  0  0  0  0  0  0
    2.8125   -0.7995    1.0721 O   0  0  0  0  0  0  0  0  0  0  0  0
    0.6465   -0.1410    0.1566 C   0  0  2  0  0  0  0  0  0  0  0  0
    0.2599    1.3521    0.0479 C   0  0  0  0  0  0  0  0  0  0  0  0
   -1.2706    1.5112    0.0475 C   0  0  1  0  0  0  0  0  0  0  0  0
   -1.8595    0.7356   -1.1437 C   0  0  0  0  0  0  0  0  0  0  0  0
   -1.5040   -0.7572   -1.0320 C   0  0  2  0  0  0  0  0  0  0  0  0
   -2.0725   -1.3160    0.2825 C   0  0  0  0  0  0  0  0  0  0  0  0
   -1.4824   -0.5510    1.4782 C   0  0  2  0  0  0  0  0  0  0  0  0
   -1.8406    0.9390    1.3556 C   0  0  0  0  0  0  0  0  0  0  0  0
    0.0477   -0.7044    1.4698 C   0  0  0  0  0  0  0  0  0  0  0  0
    0.0267   -0.9139   -1.0305 C   0  0  0  0  0  0  0  0  0  0  0  0
    4.4343   -0.9730   -1.0199 H   0  0  0  0  0  0  0  0  0  0  0  0
    4.4593    0.4987   -2.0119 H   0  0  0  0  0  0  0  0  0  0  0  0
    4.6010    0.6473   -0.2488 H   0  0  0  0  0  0  0  0  0  0  0  0
    0.6707    1.7929   -0.8696 H   0  0  0  0  0  0  0  0  0  0  0  0
    0.6963    1.9180    0.8813 H   0  0  0  0  0  0  0  0  0  0  0  0
   -1.5316    2.5720   -0.0365 H   0  0  0  0  0  0  0  0  0  0  0  0
   -2.9492    0.8594   -1.1683 H   0  0  0  0  0  0  0  0  0  0  0  0
   -1.4716    1.1437   -2.0851 H   0  0  0  0  0  0  0  0  0  0  0  0
   -1.9303   -1.3034   -1.8808 H   0  0  0  0  0  0  0  0  0  0  0  0
   -3.1660   -1.2288    0.2848 H   0  0  0  0  0  0  0  0  0  0  0  0
   -1.8381   -2.3841    0.3681 H   0  0  0  0  0  0  0  0  0  0  0  0
   -1.8896   -0.9536    2.4123 H   0  0  0  0  0  0  0  0  0  0  0  0
   -1.4393    1.4929    2.2131 H   0  0  0  0  0  0  0  0  0  0  0  0
   -2.9300    1.0653    1.3765 H   0  0  0  0  0  0  0  0  0  0  0  0
    0.3128   -1.7637    1.5852 H   0  0  0  0  0  0  0  0  0  0  0  0
    0.4753   -0.1839    2.3370 H   0  0  0  0  0  0  0  0  0  0  0  0
    0.2956   -1.9768   -0.9722 H   0  0  0  0  0  0  0  0  0  0  0  0
    0.4298   -0.5482   -1.9837 H   0  0  0  0  0  0  0  0  0  0  0  0
  1  2  1  0
  2  3  1  0
  3  4  2  0
  5  3  1  1
  5  6  1  0
  6  7  1  0
  7  8  1  0
  8  9  1  0
  9 10  1  0
 10 11  1  0
 11 12  1  0
 11 13  1  0
  9 14  1  0
 13  5  1  0
 14  5  1  0
 12  7  1  0
  1 15  1  0
  1 16  1  0
  1 17  1  0
  6 18  1  0
  6 19  1  0
  7 20  1  6
  8 21  1  0
  8 22  1  0
  9 23  1  6
 10 24  1  0
 10 25  1  0
 11 26  1  1
 12 27  1  0
 12 28  1  0
 13 29  1  0
 13 30  1  0
 14 31  1  0
 14 32  1  0
M  END
>  <_SMILES>  (93) 
COC(=O)[C@]12C[C@H]3C[C@H](C[C@H](C3)C1)C2

$$$$

     RDKit          3D

 44 48  0  0  0  0  0  0  0  0999 V2000
    0.6730    0.2910   -1.7730 O   0  0  0  0  0  0  0  0  0  0  0  0
    0.8816    0.1084   -0.5793 C   0  0  0  0  0  0  0  0  0  0  0  0
   -0.1012   -0.0647    0.3745 N   0  0  0  0  0  0  0  0  0  0  0  0
   -1.5431   -0.0594    0.1238 C   0  0  2  0  0  0  0  0  0  0  0  0
   -1.9584   -1.1948   -0.8444 C   0  0  0  0  0  0  0  0  0  0  0  0
   -3.4831   -1.1975   -1.0531 C   0  0  1  0  0  0  0  0  0  0  0  0
   -4.1806   -1.4188    0.2984 C   0  0  0  0  0  0  0  0  0  0  0  0
   -3.8025   -0.2936    1.2744 C   0  0  2  0  0  0  0  0  0  0  0  0
   -4.2392    1.0577    0.6873 C   0  0  0  0  0  0  0  0  0  0  0  0
   -3.5421    1.2935   -0.6619 C   0  0  2  0  0  0  0  0  0  0  0  0
   -3.9172    0.1600   -1.6318 C   0  0  0  0  0  0  0  0  0  0  0  0
   -2.0174    1.2975   -0.4530 C   0  0  0  0  0  0  0  0  0  0  0  0
   -2.2783   -0.2885    1.4716 C   0  0  0  0  0  0  0  0  0  0  0  0
    2.2780    0.0595   -0.0569 C   0  0  0  0  0  0  0  0  0  0  0  0
    3.3612    0.2177   -0.9006 C   0  0  0  0  0  0  0  0  0  0  0  0
    4.6444    0.1615   -0.3498 C   0  0  0  0  0  0  0  0  0  0  0  0
    5.7925    0.3139   -1.1467 C   0  0  0  0  0  0  0  0  0  0  0  0
    7.0615    0.2539   -0.5732 C   0  0  0  0  0  0  0  0  0  0  0  0
    7.1901    0.0420    0.7951 C   0  0  0  0  0  0  0  0  0  0  0  0
    6.0474   -0.1093    1.5854 C   0  0  0  0  0  0  0  0  0  0  0  0
    4.7711   -0.0533    1.0366 C   0  0  0  0  0  0  0  0  0  0  0  0
    3.6820   -0.2010    1.8126 N   0  0  0  0  0  0  0  0  0  0  0  0
    2.4215   -0.1460    1.2725 N   0  0  0  0  0  0  0  0  0  0  0  0
    0.2254   -0.2066    1.3273 H   0  0  0  0  0  0  0  0  0  0  0  0
   -1.6337   -2.1660   -0.4485 H   0  0  0  0  0  0  0  0  0  0  0  0
   -1.4652   -1.0800   -1.8169 H   0  0  0  0  0  0  0  0  0  0  0  0
   -3.7589   -1.9999   -1.7464 H   0  0  0  0  0  0  0  0  0  0  0  0
   -3.8900   -2.3908    0.7156 H   0  0  0  0  0  0  0  0  0  0  0  0
   -5.2683   -1.4445    0.1591 H   0  0  0  0  0  0  0  0  0  0  0  0
   -4.2999   -0.4566    2.2370 H   0  0  0  0  0  0  0  0  0  0  0  0
   -5.3280    1.0745    0.5547 H   0  0  0  0  0  0  0  0  0  0  0  0
   -3.9908    1.8675    1.3843 H   0  0  0  0  0  0  0  0  0  0  0  0
   -3.8597    2.2561   -1.0780 H   0  0  0  0  0  0  0  0  0  0  0  0
   -3.4364    0.3241   -2.6039 H   0  0  0  0  0  0  0  0  0  0  0  0
   -5.0000    0.1621   -1.8079 H   0  0  0  0  0  0  0  0  0  0  0  0
   -1.5265    1.5091   -1.4103 H   0  0  0  0  0  0  0  0  0  0  0  0
   -1.7351    2.1147    0.2237 H   0  0  0  0  0  0  0  0  0  0  0  0
   -1.9599   -1.2402    1.9181 H   0  0  0  0  0  0  0  0  0  0  0  0
   -2.0010    0.4943    2.1905 H   0  0  0  0  0  0  0  0  0  0  0  0
    3.2049    0.3807   -1.9624 H   0  0  0  0  0  0  0  0  0  0  0  0
    5.7047    0.4803   -2.2187 H   0  0  0  0  0  0  0  0  0  0  0  0
    7.9470    0.3723   -1.1932 H   0  0  0  0  0  0  0  0  0  0  0  0
    8.1760   -0.0063    1.2510 H   0  0  0  0  0  0  0  0  0  0  0  0
    6.1544   -0.2748    2.6551 H   0  0  0  0  0  0  0  0  0  0  0  0
  1  2  2  0
  2  3  1  0
  4  3  1  1
  4  5  1  0
  5  6  1  0
  6  7  1  0
  7  8  1  0
  8  9  1  0
  9 10  1  0
 10 11  1  0
 10 12  1  0
  8 13  1  0
  2 14  1  0
 14 15  2  0
 15 16  1  0
 16 17  2  0
 17 18  1  0
 18 19  2  0
 19 20  1  0
 20 21  2  0
 21 22  1  0
 22 23  2  0
 12  4  1  0
 23 14  1  0
 13  4  1  0
 21 16  1  0
 11  6  1  0
  3 24  1  0
  5 25  1  0
  5 26  1  0
  6 27  1  6
  7 28  1  0
  7 29  1  0
  8 30  1  1
  9 31  1  0
  9 32  1  0
 10 33  1  6
 11 34  1  0
 11 35  1  0
 12 36  1  0
 12 37  1  0
 13 38  1  0
 13 39  1  0
 15 40  1  0
 17 41  1  0
 18 42  1  0
 19 43  1  0
 20 44  1  0
M  END
>  <_SMILES>  (94) 
O=C(N[C@]12C[C@H]3C[C@H](C[C@H](C3)C1)C2)c1cc2ccccc2nn1

$$$$

     RDKit          3D

 46 50  0  0  0  0  0  0  0  0999 V2000
   -0.2575    2.3794   -0.7942 O   0  0  0  0  0  0  0  0  0  0  0  0
    0.2872    1.3372   -0.4437 C   0  0  0  0  0  0  0  0  0  0  0  0
   -0.4371    0.2317   -0.0272 N   0  0  0  0  0  0  0  0  0  0  0  0
   -1.9014    0.1706    0.0593 C   0  0  2  0  0  0  0  0  0  0  0  0
   -2.4618    1.2063    1.0658 C   0  0  0  0  0  0  0  0  0  0  0  0
   -3.9918    1.0810    1.1766 C   0  0  1  0  0  0  0  0  0  0  0  0
   -4.6205    1.3106   -0.2085 C   0  0  0  0  0  0  0  0  0  0  0  0
   -4.1008    0.2620   -1.2069 C   0  0  2  0  0  0  0  0  0  0  0  0
   -4.4606   -1.1431   -0.6997 C   0  0  0  0  0  0  0  0  0  0  0  0
   -3.8268   -1.3805    0.6796 C   0  0  2  0  0  0  0  0  0  0  0  0
   -4.3521   -0.3292    1.6693 C   0  0  0  0  0  0  0  0  0  0  0  0
   -2.3004   -1.2443    0.5628 C   0  0  0  0  0  0  0  0  0  0  0  0
   -2.5709    0.3859   -1.3213 C   0  0  0  0  0  0  0  0  0  0  0  0
    1.7232    1.1645   -0.4288 C   0  0  0  0  0  0  0  0  0  0  0  0
    2.5689    0.1212   -0.1196 C   0  0  0  0  0  0  0  0  0  0  0  0
    3.8852    0.6251   -0.3160 C   0  0  0  0  0  0  0  0  0  0  0  0
    5.1672   -0.0640   -0.1300 C   0  0  0  0  0  0  0  0  0  0  0  0
    5.2237   -1.4463    0.1074 C   0  0  0  0  0  0  0  0  0  0  0  0
    6.4518   -2.0920    0.2861 C   0  0  0  0  0  0  0  0  0  0  0  0
    7.6389   -1.3661    0.2295 C   0  0  0  0  0  0  0  0  0  0  0  0
    7.6014    0.0051   -0.0074 C   0  0  0  0  0  0  0  0  0  0  0  0
    6.3748    0.6509   -0.1863 C   0  0  0  0  0  0  0  0  0  0  0  0
    3.8231    1.9037   -0.7189 N   0  0  0  0  0  0  0  0  0  0  0  0
    2.4869    2.2325   -0.7915 O   0  0  0  0  0  0  0  0  0  0  0  0
    0.0725   -0.5809    0.2846 H   0  0  0  0  0  0  0  0  0  0  0  0
   -2.0025    1.0602    2.0523 H   0  0  0  0  0  0  0  0  0  0  0  0
   -2.2104    2.2283    0.7596 H   0  0  0  0  0  0  0  0  0  0  0  0
   -4.3724    1.8270    1.8832 H   0  0  0  0  0  0  0  0  0  0  0  0
   -5.7134    1.2491   -0.1374 H   0  0  0  0  0  0  0  0  0  0  0  0
   -4.3812    2.3196   -0.5662 H   0  0  0  0  0  0  0  0  0  0  0  0
   -4.5583    0.4280   -2.1886 H   0  0  0  0  0  0  0  0  0  0  0  0
   -5.5503   -1.2509   -0.6353 H   0  0  0  0  0  0  0  0  0  0  0  0
   -4.1072   -1.9003   -1.4105 H   0  0  0  0  0  0  0  0  0  0  0  0
   -4.0827   -2.3844    1.0362 H   0  0  0  0  0  0  0  0  0  0  0  0
   -5.4399   -0.4233    1.7740 H   0  0  0  0  0  0  0  0  0  0  0  0
   -3.9207   -0.5007    2.6632 H   0  0  0  0  0  0  0  0  0  0  0  0
   -1.9121   -2.0111   -0.1209 H   0  0  0  0  0  0  0  0  0  0  0  0
   -1.8367   -1.4419    1.5387 H   0  0  0  0  0  0  0  0  0  0  0  0
   -2.1894   -0.3474   -2.0439 H   0  0  0  0  0  0  0  0  0  0  0  0
   -2.3254    1.3733   -1.7289 H   0  0  0  0  0  0  0  0  0  0  0  0
    2.2866   -0.8668    0.2056 H   0  0  0  0  0  0  0  0  0  0  0  0
    4.3210   -2.0485    0.1505 H   0  0  0  0  0  0  0  0  0  0  0  0
    6.4811   -3.1636    0.4672 H   0  0  0  0  0  0  0  0  0  0  0  0
    8.5931   -1.8683    0.3674 H   0  0  0  0  0  0  0  0  0  0  0  0
    8.5251    0.5764   -0.0545 H   0  0  0  0  0  0  0  0  0  0  0  0
    6.3728    1.7243   -0.3700 H   0  0  0  0  0  0  0  0  0  0  0  0
  1  2  2  0
  2  3  1  0
  4  3  1  6
  4  5  1  0
  5  6  1  0
  6  7  1  0
  7  8  1  0
  8  9  1  0
  9 10  1  0
 10 11  1  0
 10 12  1  0
  8 13  1  0
  2 14  1  0
 14 15  2  0
 15 16  1  0
 16 17  1  0
 17 18  2  0
 18 19  1  0
 19 20  2  0
 20 21  1  0
 21 22  2  0
 16 23  2  0
 23 24  1  0
 12  4  1  0
 24 14  1  0
 13  4  1  0
 22 17  1  0
 11  6  1  0
  3 25  1  0
  5 26  1  0
  5 27  1  0
  6 28  1  1
  7 29  1  0
  7 30  1  0
  8 31  1  6
  9 32  1  0
  9 33  1  0
 10 34  1  1
 11 35  1  0
 11 36  1  0
 12 37  1  0
 12 38  1  0
 13 39  1  0
 13 40  1  0
 15 41  1  0
 18 42  1  0
 19 43  1  0
 20 44  1  0
 21 45  1  0
 22 46  1  0
M  END
>  <_SMILES>  (95) 
O=C(N[C@]12C[C@H]3C[C@H](C[C@H](C3)C1)C2)c1cc(-c2ccccc2)no1

$$$$

     RDKit          3D

 43 45  0  0  0  0  0  0  0  0999 V2000
   -3.8611   -2.4468    0.5043 C   0  0  0  0  0  0  0  0  0  0  0  0
   -2.9205   -1.2822    0.3951 C   0  0  0  0  0  0  0  0  0  0  0  0
   -1.5484   -1.4891    0.5834 C   0  0  0  0  0  0  0  0  0  0  0  0
   -0.6912   -0.4061    0.4941 C   0  0  0  0  0  0  0  0  0  0  0  0
    0.7782   -0.5691    0.6884 C   0  0  0  0  0  0  0  0  0  0  0  0
    1.2678   -1.6713    0.9104 O   0  0  0  0  0  0  0  0  0  0  0  0
    1.5170    0.5925    0.5909 N   0  0  0  0  0  0  0  0  0  0  0  0
    2.9610    0.6081    0.7070 C   0  0  0  0  0  0  0  0  0  0  0  0
    3.6474    0.1674   -0.5873 C   0  0  0  0  0  0  0  0  0  0  0  0
    5.1498    0.2271   -0.4708 C   0  0  0  0  0  0  0  0  0  0  0  0
    5.8539    1.3637   -0.8896 C   0  0  0  0  0  0  0  0  0  0  0  0
    7.2425    1.4210   -0.7608 C   0  0  0  0  0  0  0  0  0  0  0  0
    7.9381    0.3463   -0.2096 C   0  0  0  0  0  0  0  0  0  0  0  0
    7.2462   -0.7866    0.2144 C   0  0  0  0  0  0  0  0  0  0  0  0
    5.8579   -0.8463    0.0864 C   0  0  0  0  0  0  0  0  0  0  0  0
   -1.1331    0.8434    0.2276 N   0  0  0  0  0  0  0  0  0  0  0  0
   -2.4726    1.0499    0.0276 N   0  0  0  0  0  0  0  0  0  0  0  0
   -3.3519    0.0156    0.0940 C   0  0  0  0  0  0  0  0  0  0  0  0
   -4.7498    0.3874   -0.1610 C   0  0  0  0  0  0  0  0  0  0  0  0
   -5.4692   -0.1547   -1.2397 C   0  0  0  0  0  0  0  0  0  0  0  0
   -6.7993    0.2062   -1.4709 C   0  0  0  0  0  0  0  0  0  0  0  0
   -7.4295    1.1214   -0.6312 C   0  0  0  0  0  0  0  0  0  0  0  0
   -6.7301    1.6813    0.4349 C   0  0  0  0  0  0  0  0  0  0  0  0
   -5.4002    1.3199    0.6650 C   0  0  0  0  0  0  0  0  0  0  0  0
   -4.1428   -2.8025   -0.4913 H   0  0  0  0  0  0  0  0  0  0  0  0
   -4.7613   -2.1747    1.0648 H   0  0  0  0  0  0  0  0  0  0  0  0
   -3.3958   -3.2802    1.0421 H   0  0  0  0  0  0  0  0  0  0  0  0
   -1.1521   -2.4762    0.8040 H   0  0  0  0  0  0  0  0  0  0  0  0
    1.0209    1.4488    0.3585 H   0  0  0  0  0  0  0  0  0  0  0  0
    3.2499    1.6313    0.9716 H   0  0  0  0  0  0  0  0  0  0  0  0
    3.2494   -0.0462    1.5381 H   0  0  0  0  0  0  0  0  0  0  0  0
    3.3442   -0.8525   -0.8565 H   0  0  0  0  0  0  0  0  0  0  0  0
    3.3153    0.7997   -1.4210 H   0  0  0  0  0  0  0  0  0  0  0  0
    5.3257    2.2112   -1.3202 H   0  0  0  0  0  0  0  0  0  0  0  0
    7.7822    2.3048   -1.0907 H   0  0  0  0  0  0  0  0  0  0  0  0
    9.0193    0.3917   -0.1100 H   0  0  0  0  0  0  0  0  0  0  0  0
    7.7872   -1.6248    0.6456 H   0  0  0  0  0  0  0  0  0  0  0  0
    5.3291   -1.7357    0.4239 H   0  0  0  0  0  0  0  0  0  0  0  0
   -4.9906   -0.8560   -1.9203 H   0  0  0  0  0  0  0  0  0  0  0  0
   -7.3400   -0.2215   -2.3114 H   0  0  0  0  0  0  0  0  0  0  0  0
   -8.4629    1.4056   -0.8130 H   0  0  0  0  0  0  0  0  0  0  0  0
   -7.2157    2.4041    1.0856 H   0  0  0  0  0  0  0  0  0  0  0  0
   -4.8649    1.7738    1.4976 H   0  0  0  0  0  0  0  0  0  0  0  0
  1  2  1  0
  2  3  1  0
  3  4  2  0
  4  5  1  0
  5  6  2  0
  5  7  1  0
  7  8  1  0
  8  9  1  0
  9 10  1  0
 10 11  2  0
 11 12  1  0
 12 13  2  0
 13 14  1  0
 14 15  2  0
  4 16  1  0
 16 17  2  0
 17 18  1  0
 18 19  1  0
 19 20  2  0
 20 21  1  0
 21 22  2  0
 22 23  1  0
 23 24  2  0
 18  2  2  0
 24 19  1  0
 15 10  1  0
  1 25  1  0
  1 26  1  0
  1 27  1  0
  3 28  1  0
  7 29  1  0
  8 30  1  0
  8 31  1  0
  9 32  1  0
  9 33  1  0
 11 34  1  0
 12 35  1  0
 13 36  1  0
 14 37  1  0
 15 38  1  0
 20 39  1  0
 21 40  1  0
 22 41  1  0
 23 42  1  0
 24 43  1  0
M  END
>  <_SMILES>  (96) 
Cc1cc(C(=O)NCCc2ccccc2)nnc1-c1ccccc1

$$$$

     RDKit          3D

 46 48  0  0  0  0  0  0  0  0999 V2000
    4.2159   -2.3269    0.7529 C   0  0  0  0  0  0  0  0  0  0  0  0
    3.1410   -1.4162    0.2350 C   0  0  0  0  0  0  0  0  0  0  0  0
    1.7991   -1.7268    0.4870 C   0  0  0  0  0  0  0  0  0  0  0  0
    0.8161   -0.8742    0.0152 C   0  0  0  0  0  0  0  0  0  0  0  0
   -0.6278   -1.1505    0.2655 C   0  0  0  0  0  0  0  0  0  0  0  0
   -0.9772   -2.1215    0.9279 O   0  0  0  0  0  0  0  0  0  0  0  0
   -1.5046   -0.2392   -0.2904 N   0  0  0  0  0  0  0  0  0  0  0  0
   -2.9326   -0.2644   -0.0217 C   0  0  1  0  0  0  0  0  0  0  0  0
   -3.2431    0.4108    1.3198 C   0  0  0  0  0  0  0  0  0  0  0  0
   -4.7447    0.4569    1.5944 C   0  0  0  0  0  0  0  0  0  0  0  0
   -5.5109    1.1317    0.4495 C   0  0  2  0  0  0  0  0  0  0  0  0
   -7.0133    1.1191    0.7248 C   0  0  0  0  0  0  0  0  0  0  0  0
   -5.2000    0.4517   -0.8900 C   0  0  0  0  0  0  0  0  0  0  0  0
   -3.6985    0.4088   -1.1644 C   0  0  0  0  0  0  0  0  0  0  0  0
    1.1077    0.2481   -0.6799 N   0  0  0  0  0  0  0  0  0  0  0  0
    2.4182    0.5503   -0.9417 N   0  0  0  0  0  0  0  0  0  0  0  0
    3.4176   -0.2641   -0.5114 C   0  0  0  0  0  0  0  0  0  0  0  0
    4.7675    0.1790   -0.8844 C   0  0  0  0  0  0  0  0  0  0  0  0
    5.5997   -0.6075   -1.6992 C   0  0  0  0  0  0  0  0  0  0  0  0
    6.8827   -0.1755   -2.0460 C   0  0  0  0  0  0  0  0  0  0  0  0
    7.3515    1.0541   -1.5896 C   0  0  0  0  0  0  0  0  0  0  0  0
    6.5373    1.8553   -0.7930 C   0  0  0  0  0  0  0  0  0  0  0  0
    5.2547    1.4224   -0.4472 C   0  0  0  0  0  0  0  0  0  0  0  0
    3.8354   -2.9703    1.5538 H   0  0  0  0  0  0  0  0  0  0  0  0
    4.5878   -2.9708   -0.0497 H   0  0  0  0  0  0  0  0  0  0  0  0
    5.0463   -1.7540    1.1780 H   0  0  0  0  0  0  0  0  0  0  0  0
    1.5215   -2.6145    1.0483 H   0  0  0  0  0  0  0  0  0  0  0  0
   -1.0927    0.5860   -0.7188 H   0  0  0  0  0  0  0  0  0  0  0  0
   -3.2413   -1.3162    0.0388 H   0  0  0  0  0  0  0  0  0  0  0  0
   -2.8406    1.4323    1.3242 H   0  0  0  0  0  0  0  0  0  0  0  0
   -2.7415   -0.1215    2.1370 H   0  0  0  0  0  0  0  0  0  0  0  0
   -4.9235    0.9961    2.5323 H   0  0  0  0  0  0  0  0  0  0  0  0
   -5.1155   -0.5658    1.7408 H   0  0  0  0  0  0  0  0  0  0  0  0
   -5.1882    2.1797    0.3883 H   0  0  0  0  0  0  0  0  0  0  0  0
   -7.2399    1.6329    1.6650 H   0  0  0  0  0  0  0  0  0  0  0  0
   -7.5589    1.6295   -0.0758 H   0  0  0  0  0  0  0  0  0  0  0  0
   -7.3970    0.0957    0.7971 H   0  0  0  0  0  0  0  0  0  0  0  0
   -5.5963   -0.5718   -0.8912 H   0  0  0  0  0  0  0  0  0  0  0  0
   -5.7008    0.9867   -1.7058 H   0  0  0  0  0  0  0  0  0  0  0  0
   -3.5135   -0.1265   -2.1038 H   0  0  0  0  0  0  0  0  0  0  0  0
   -3.3275    1.4314   -1.3132 H   0  0  0  0  0  0  0  0  0  0  0  0
    5.2463   -1.5622   -2.0836 H   0  0  0  0  0  0  0  0  0  0  0  0
    7.5121   -0.7958   -2.6790 H   0  0  0  0  0  0  0  0  0  0  0  0
    8.3478    1.3925   -1.8625 H   0  0  0  0  0  0  0  0  0  0  0  0
    6.8961    2.8203   -0.4444 H   0  0  0  0  0  0  0  0  0  0  0  0
    4.6275    2.0649    0.1690 H   0  0  0  0  0  0  0  0  0  0  0  0
  1  2  1  0
  2  3  1  0
  3  4  2  0
  4  5  1  0
  5  6  2  0
  5  7  1  0
  7  8  1  0
  8  9  1  0
  9 10  1  0
 10 11  1  0
 11 12  1  0
 11 13  1  0
 13 14  1  0
  4 15  1  0
 15 16  2  0
 16 17  1  0
 17 18  1  0
 18 19  2  0
 19 20  1  0
 20 21  2  0
 21 22  1  0
 22 23  2  0
 17  2  2  0
 23 18  1  0
 14  8  1  0
  1 24  1  0
  1 25  1  0
  1 26  1  0
  3 27  1  0
  7 28  1  0
  8 29  1  1
  9 30  1  0
  9 31  1  0
 10 32  1  0
 10 33  1  0
 11 34  1  6
 12 35  1  0
 12 36  1  0
 12 37  1  0
 13 38  1  0
 13 39  1  0
 14 40  1  0
 14 41  1  0
 19 42  1  0
 20 43  1  0
 21 44  1  0
 22 45  1  0
 23 46  1  0
M  END
>  <_SMILES>  (97) 
Cc1cc(C(=O)N[C@H]2CC[C@H](C)CC2)nnc1-c1ccccc1

$$$$
