
     RDKit          3D

 53 57  0  0  0  0  0  0  0  0999 V2000
    5.9840   -0.3430  -53.9420 C   0  0  0  0  0  0  0  0  0  0  0  0
    7.4460   -0.5640  -54.0960 C   0  0  0  0  0  0  0  0  0  0  0  0
    8.3430    0.1080  -54.9930 C   0  0  0  0  0  0  0  0  0  0  0  0
    8.0420    1.2000  -55.9410 C   0  0  0  0  0  0  0  0  0  0  0  0
    6.8990    1.5630  -56.2000 O   0  0  0  0  0  0  0  0  0  0  0  0
    9.1710    1.7500  -56.5270 N   0  0  0  0  0  0  0  0  0  0  0  0
    9.1490    2.7670  -57.5810 C   0  0  2  0  0  0  0  0  0  0  0  0
    8.7730    4.1660  -57.0310 C   0  0  0  0  0  0  0  0  0  0  0  0
    8.8150    5.2190  -58.1550 C   0  0  1  0  0  0  0  0  0  0  0  0
   10.2340    5.2850  -58.7370 C   0  0  0  0  0  0  0  0  0  0  0  0
   10.6310    3.9150  -59.3070 C   0  0  2  0  0  0  0  0  0  0  0  0
    9.6420    3.5180  -60.4140 C   0  0  0  0  0  0  0  0  0  0  0  0
    8.2170    3.4420  -59.8430 C   0  0  2  0  0  0  0  0  0  0  0  0
    7.8290    4.8130  -59.2640 C   0  0  0  0  0  0  0  0  0  0  0  0
    8.1740    2.3880  -58.7220 C   0  0  0  0  0  0  0  0  0  0  0  0
   10.5780    2.8680  -58.1840 C   0  0  0  0  0  0  0  0  0  0  0  0
    9.5890   -0.3790  -54.8730 N   0  0  0  0  0  0  0  0  0  0  0  0
    9.4950   -1.3370  -53.9380 N   0  0  0  0  0  0  0  0  0  0  0  0
   10.6760   -2.0960  -53.5920 C   0  0  0  0  0  0  0  0  0  0  0  0
    8.2360   -1.4740  -53.4100 C   0  0  0  0  0  0  0  0  0  0  0  0
    7.8910   -2.4330  -52.3690 C   0  0  0  0  0  0  0  0  0  0  0  0
    7.4430   -3.7140  -52.7120 C   0  0  0  0  0  0  0  0  0  0  0  0
    7.1170   -4.6350  -51.7150 C   0  0  0  0  0  0  0  0  0  0  0  0
    7.2340   -4.2800  -50.3710 C   0  0  0  0  0  0  0  0  0  0  0  0
    7.6760   -3.0040  -50.0230 C   0  0  0  0  0  0  0  0  0  0  0  0
    8.0030   -2.0820  -51.0200 C   0  0  0  0  0  0  0  0  0  0  0  0
    5.7296   -0.3045  -52.8725 H   0  0  0  0  0  0  0  0  0  0  0  0
    5.7045    0.6076  -54.4198 H   0  0  0  0  0  0  0  0  0  0  0  0
    5.4360   -1.1685  -54.4198 H   0  0  0  0  0  0  0  0  0  0  0  0
   10.0130    1.1990  -56.4340 H   0  0  0  0  0  0  0  0  0  0  0  0
    7.7579    4.1278  -56.6090 H   0  0  0  0  0  0  0  0  0  0  0  0
    9.4978    4.4481  -56.2531 H   0  0  0  0  0  0  0  0  0  0  0  0
    8.5361    6.2036  -57.7517 H   0  0  0  0  0  0  0  0  0  0  0  0
   10.2641    6.0364  -59.5398 H   0  0  0  0  0  0  0  0  0  0  0  0
   10.9392    5.5631  -57.9399 H   0  0  0  0  0  0  0  0  0  0  0  0
   11.6485    3.9671  -59.7216 H   0  0  0  0  0  0  0  0  0  0  0  0
    9.6732    4.2692  -61.2169 H   0  0  0  0  0  0  0  0  0  0  0  0
    9.9239    2.5328  -60.8139 H   0  0  0  0  0  0  0  0  0  0  0  0
    7.5130    3.1633  -60.6409 H   0  0  0  0  0  0  0  0  0  0  0  0
    7.8532    5.5661  -60.0654 H   0  0  0  0  0  0  0  0  0  0  0  0
    6.8164    4.7499  -58.8389 H   0  0  0  0  0  0  0  0  0  0  0  0
    7.1519    2.3294  -58.3197 H   0  0  0  0  0  0  0  0  0  0  0  0
    8.4753    1.4152  -59.1378 H   0  0  0  0  0  0  0  0  0  0  0  0
   10.8658    1.8880  -58.5924 H   0  0  0  0  0  0  0  0  0  0  0  0
   11.2727    3.1738  -57.3878 H   0  0  0  0  0  0  0  0  0  0  0  0
   10.7667   -2.1543  -52.4973 H   0  0  0  0  0  0  0  0  0  0  0  0
   10.5943   -3.1111  -54.0077 H   0  0  0  0  0  0  0  0  0  0  0  0
   11.5655   -1.6000  -54.0077 H   0  0  0  0  0  0  0  0  0  0  0  0
    7.3475   -3.9959  -53.7710 H   0  0  0  0  0  0  0  0  0  0  0  0
    6.7676   -5.6413  -51.9893 H   0  0  0  0  0  0  0  0  0  0  0  0
    6.9776   -5.0065  -49.5858 H   0  0  0  0  0  0  0  0  0  0  0  0
    7.7671   -2.7236  -48.9633 H   0  0  0  0  0  0  0  0  0  0  0  0
    8.3501   -1.0756  -50.7429 H   0  0  0  0  0  0  0  0  0  0  0  0
  1  2  1  0
  2  3  1  0
  3  4  1  0
  4  5  2  0
  4  6  1  0
  7  6  1  1
  7  8  1  0
  8  9  1  0
  9 10  1  0
 10 11  1  0
 11 12  1  0
 12 13  1  0
 13 14  1  0
 13 15  1  0
 11 16  1  0
  3 17  2  0
 17 18  1  0
 18 19  1  0
 18 20  1  0
 20 21  1  0
 21 22  2  0
 22 23  1  0
 23 24  2  0
 24 25  1  0
 25 26  2  0
 20  2  2  0
 26 21  1  0
 15  7  1  0
 16  7  1  0
 14  9  1  0
  1 27  1  0
  1 28  1  0
  1 29  1  0
  6 30  1  0
  8 31  1  0
  8 32  1  0
  9 33  1  1
 10 34  1  0
 10 35  1  0
 11 36  1  6
 12 37  1  0
 12 38  1  0
 13 39  1  6
 14 40  1  0
 14 41  1  0
 15 42  1  0
 15 43  1  0
 16 44  1  0
 16 45  1  0
 19 46  1  0
 19 47  1  0
 19 48  1  0
 22 49  1  0
 23 50  1  0
 24 51  1  0
 25 52  1  0
 26 53  1  0
M  END
>  <meeko>  (1) 
{"is_sidechain": false}

$$$$

     RDKit          3D

 62 66  0  0  0  0  0  0  0  0999 V2000
    6.0340   -0.4460  -54.0850 C   0  0  0  0  0  0  0  0  0  0  0  0
    7.5090   -0.6250  -54.1810 C   0  0  0  0  0  0  0  0  0  0  0  0
    8.3970    0.1160  -55.0190 C   0  0  0  0  0  0  0  0  0  0  0  0
    8.0590    1.2170  -55.9460 C   0  0  0  0  0  0  0  0  0  0  0  0
    6.9060    1.5840  -56.1390 O   0  0  0  0  0  0  0  0  0  0  0  0
    9.1690    1.7690  -56.5470 N   0  0  0  0  0  0  0  0  0  0  0  0
    9.1590    2.8170  -57.5660 C   0  0  2  0  0  0  0  0  0  0  0  0
   10.5740    2.9030  -58.1970 C   0  0  0  0  0  0  0  0  0  0  0  0
   10.6290    3.9870  -59.2840 C   0  0  1  0  0  0  0  0  0  0  0  0
    9.6070    3.6540  -60.3810 C   0  0  0  0  0  0  0  0  0  0  0  0
    8.1930    3.5910  -59.7820 C   0  0  2  0  0  0  0  0  0  0  0  0
    7.8500    4.9500  -59.1490 C   0  0  0  0  0  0  0  0  0  0  0  0
    8.8680    5.2930  -58.0470 C   0  0  2  0  0  0  0  0  0  0  0  0
   10.2770    5.3460  -58.6570 C   0  0  0  0  0  0  0  0  0  0  0  0
    8.8240    4.2030  -56.9610 C   0  0  0  0  0  0  0  0  0  0  0  0
    8.1490    2.5010  -58.6960 C   0  0  0  0  0  0  0  0  0  0  0  0
    9.6690   -0.3000  -54.8520 N   0  0  0  0  0  0  0  0  0  0  0  0
    9.5810   -1.3210  -53.9880 N   0  0  0  0  0  0  0  0  0  0  0  0
   10.8210   -1.9640  -53.5910 C   0  0  0  0  0  0  0  0  0  0  0  0
   11.0240   -3.3380  -54.2350 C   0  0  0  0  0  0  0  0  0  0  0  0
   10.6870   -3.4130  -55.7200 C   0  0  0  0  0  0  0  0  0  0  0  0
   11.5000   -2.4550  -56.5090 N   0  0  0  0  0  0  0  0  0  0  0  0
    8.3140   -1.5230  -53.4900 C   0  0  0  0  0  0  0  0  0  0  0  0
    7.9650   -2.4600  -52.4270 C   0  0  0  0  0  0  0  0  0  0  0  0
    8.1210   -2.1210  -51.0790 C   0  0  0  0  0  0  0  0  0  0  0  0
    7.7290   -3.0110  -50.0780 C   0  0  0  0  0  0  0  0  0  0  0  0
    7.1970   -4.2540  -50.4160 C   0  0  0  0  0  0  0  0  0  0  0  0
    7.0660   -4.6150  -51.7560 C   0  0  0  0  0  0  0  0  0  0  0  0
    7.4530   -3.7240  -52.7580 C   0  0  0  0  0  0  0  0  0  0  0  0
    5.7371   -0.4100  -53.0264 H   0  0  0  0  0  0  0  0  0  0  0  0
    5.7458    0.4937  -54.5788 H   0  0  0  0  0  0  0  0  0  0  0  0
    5.5294   -1.2895  -54.5788 H   0  0  0  0  0  0  0  0  0  0  0  0
   10.0420    1.3010  -56.3210 H   0  0  0  0  0  0  0  0  0  0  0  0
   11.3041    3.1452  -57.4106 H   0  0  0  0  0  0  0  0  0  0  0  0
   10.8107    1.9329  -58.6583 H   0  0  0  0  0  0  0  0  0  0  0  0
   11.6383    4.0289  -59.7193 H   0  0  0  0  0  0  0  0  0  0  0  0
    9.6392    4.4328  -61.1572 H   0  0  0  0  0  0  0  0  0  0  0  0
    9.8560    2.6772  -60.8213 H   0  0  0  0  0  0  0  0  0  0  0  0
    7.4660    3.3555  -60.5732 H   0  0  0  0  0  0  0  0  0  0  0  0
    7.8771    5.7296  -59.9245 H   0  0  0  0  0  0  0  0  0  0  0  0
    6.8445    4.8969  -58.7060 H   0  0  0  0  0  0  0  0  0  0  0  0
    8.6209    6.2688  -57.6034 H   0  0  0  0  0  0  0  0  0  0  0  0
   10.3090    6.1247  -59.4332 H   0  0  0  0  0  0  0  0  0  0  0  0
   11.0049    5.5784  -57.8658 H   0  0  0  0  0  0  0  0  0  0  0  0
    9.5585    4.4428  -56.1781 H   0  0  0  0  0  0  0  0  0  0  0  0
    7.8108    4.1682  -56.5342 H   0  0  0  0  0  0  0  0  0  0  0  0
    7.1351    2.4538  -58.2720 H   0  0  0  0  0  0  0  0  0  0  0  0
    8.4163    1.5359  -59.1510 H   0  0  0  0  0  0  0  0  0  0  0  0
   11.6598   -1.3146  -53.8821 H   0  0  0  0  0  0  0  0  0  0  0  0
   10.7742   -2.1180  -52.5028 H   0  0  0  0  0  0  0  0  0  0  0  0
   12.0800   -3.6198  -54.1107 H   0  0  0  0  0  0  0  0  0  0  0  0
   10.3256   -4.0199  -53.7278 H   0  0  0  0  0  0  0  0  0  0  0  0
   10.8856   -4.4330  -56.0809 H   0  0  0  0  0  0  0  0  0  0  0  0
    9.6257   -3.1533  -55.8475 H   0  0  0  0  0  0  0  0  0  0  0  0
   11.4470   -1.5150  -56.0900 H   0  0  0  0  0  0  0  0  0  0  0  0
   11.1740   -2.3660  -57.4790 H   0  0  0  0  0  0  0  0  0  0  0  0
   12.5020   -2.6910  -56.5300 H   0  0  0  0  0  0  0  0  0  0  0  0
    8.5550   -1.1477  -50.8064 H   0  0  0  0  0  0  0  0  0  0  0  0
    7.8402   -2.7308  -49.0201 H   0  0  0  0  0  0  0  0  0  0  0  0
    6.8805   -4.9502  -49.6254 H   0  0  0  0  0  0  0  0  0  0  0  0
    6.6581   -5.6010  -52.0233 H   0  0  0  0  0  0  0  0  0  0  0  0
    7.3560   -4.0145  -53.8145 H   0  0  0  0  0  0  0  0  0  0  0  0
  1  2  1  0
  2  3  1  0
  3  4  1  0
  4  5  2  0
  4  6  1  0
  7  6  1  1
  7  8  1  0
  8  9  1  0
  9 10  1  0
 10 11  1  0
 11 12  1  0
 12 13  1  0
 13 14  1  0
 13 15  1  0
 11 16  1  0
  3 17  2  0
 17 18  1  0
 18 19  1  0
 19 20  1  0
 20 21  1  0
 21 22  1  0
 18 23  1  0
 23 24  1  0
 24 25  2  0
 25 26  1  0
 26 27  2  0
 27 28  1  0
 28 29  2  0
 23  2  2  0
 29 24  1  0
 15  7  1  0
 16  7  1  0
 14  9  1  0
  1 30  1  0
  1 31  1  0
  1 32  1  0
  6 33  1  0
  8 34  1  0
  8 35  1  0
  9 36  1  6
 10 37  1  0
 10 38  1  0
 11 39  1  6
 12 40  1  0
 12 41  1  0
 13 42  1  1
 14 43  1  0
 14 44  1  0
 15 45  1  0
 15 46  1  0
 16 47  1  0
 16 48  1  0
 19 49  1  0
 19 50  1  0
 20 51  1  0
 20 52  1  0
 21 53  1  0
 21 54  1  0
 22 55  1  0
 22 56  1  0
 22 57  1  0
 25 58  1  0
 26 59  1  0
 27 60  1  0
 28 61  1  0
 29 62  1  0
M  CHG  1  22   1
M  END
>  <meeko>  (2) 
{"is_sidechain": false}

$$$$

     RDKit          3D

 65 69  0  0  0  0  0  0  0  0999 V2000
    5.9160   -0.2560  -53.9260 C   0  0  0  0  0  0  0  0  0  0  0  0
    7.3650   -0.5130  -54.1410 C   0  0  0  0  0  0  0  0  0  0  0  0
    8.2500    0.1590  -55.0500 C   0  0  0  0  0  0  0  0  0  0  0  0
    7.9500    1.2460  -56.0070 C   0  0  0  0  0  0  0  0  0  0  0  0
    6.8270    1.7290  -56.1180 O   0  0  0  0  0  0  0  0  0  0  0  0
    9.0460    1.6790  -56.7300 N   0  0  0  0  0  0  0  0  0  0  0  0
    9.0340    2.8040  -57.6710 C   0  0  2  0  0  0  0  0  0  0  0  0
   10.4050    2.8390  -58.4020 C   0  0  0  0  0  0  0  0  0  0  0  0
   10.4660    4.0020  -59.4040 C   0  0  1  0  0  0  0  0  0  0  0  0
    9.3510    3.8290  -60.4460 C   0  0  0  0  0  0  0  0  0  0  0  0
    7.9820    3.8140  -59.7500 C   0  0  2  0  0  0  0  0  0  0  0  0
    7.7830    5.1390  -58.9920 C   0  0  0  0  0  0  0  0  0  0  0  0
    8.8960    5.3220  -57.9450 C   0  0  2  0  0  0  0  0  0  0  0  0
   10.2600    5.3270  -58.6510 C   0  0  0  0  0  0  0  0  0  0  0  0
    8.8460    4.1560  -56.9420 C   0  0  0  0  0  0  0  0  0  0  0  0
    7.9310    2.6470  -58.7490 C   0  0  0  0  0  0  0  0  0  0  0  0
    9.5000   -0.3190  -54.9300 N   0  0  0  0  0  0  0  0  0  0  0  0
    9.4200   -1.2650  -53.9840 N   0  0  0  0  0  0  0  0  0  0  0  0
   10.6560   -1.9150  -53.5810 C   0  0  0  0  0  0  0  0  0  0  0  0
   11.2190   -2.7840  -54.7080 C   0  0  0  0  0  0  0  0  0  0  0  0
   10.2720   -3.9210  -55.0870 C   0  0  0  0  0  0  0  0  0  0  0  0
   10.8880   -4.7890  -56.1750 C   0  0  0  0  0  0  0  0  0  0  0  0
   12.2470   -5.2100  -55.7580 N   0  0  0  0  0  0  0  0  0  0  0  0
    8.1600   -1.4390  -53.4770 C   0  0  0  0  0  0  0  0  0  0  0  0
    7.8230   -2.3860  -52.4240 C   0  0  0  0  0  0  0  0  0  0  0  0
    7.3940   -3.6780  -52.7500 C   0  0  0  0  0  0  0  0  0  0  0  0
    7.0650   -4.5840  -51.7410 C   0  0  0  0  0  0  0  0  0  0  0  0
    7.1650   -4.2050  -50.4030 C   0  0  0  0  0  0  0  0  0  0  0  0
    7.5980   -2.9210  -50.0710 C   0  0  0  0  0  0  0  0  0  0  0  0
    7.9290   -2.0130  -51.0790 C   0  0  0  0  0  0  0  0  0  0  0  0
    5.7064   -0.2188  -52.8468 H   0  0  0  0  0  0  0  0  0  0  0  0
    5.6418    0.7048  -54.3861 H   0  0  0  0  0  0  0  0  0  0  0  0
    5.3281   -1.0639  -54.3861 H   0  0  0  0  0  0  0  0  0  0  0  0
    9.9490    1.3920  -56.3740 H   0  0  0  0  0  0  0  0  0  0  0  0
   11.2060    2.9627  -57.6583 H   0  0  0  0  0  0  0  0  0  0  0  0
   10.5324    1.8953  -58.9527 H   0  0  0  0  0  0  0  0  0  0  0  0
   11.4439    4.0108  -59.9077 H   0  0  0  0  0  0  0  0  0  0  0  0
    9.3874    4.6641  -61.1610 H   0  0  0  0  0  0  0  0  0  0  0  0
    9.4971    2.8772  -60.9777 H   0  0  0  0  0  0  0  0  0  0  0  0
    7.1880    3.6921  -60.5015 H   0  0  0  0  0  0  0  0  0  0  0  0
    7.8145    5.9750  -59.7063 H   0  0  0  0  0  0  0  0  0  0  0  0
    6.8087    5.1189  -58.4818 H   0  0  0  0  0  0  0  0  0  0  0  0
    8.7517    6.2739  -57.4129 H   0  0  0  0  0  0  0  0  0  0  0  0
   10.2973    6.1622  -59.3659 H   0  0  0  0  0  0  0  0  0  0  0  0
   11.0554    5.4436  -57.9001 H   0  0  0  0  0  0  0  0  0  0  0  0
    9.6487    4.2819  -56.2005 H   0  0  0  0  0  0  0  0  0  0  0  0
    7.8652    4.1577  -56.4439 H   0  0  0  0  0  0  0  0  0  0  0  0
    6.9462    2.6337  -58.2592 H   0  0  0  0  0  0  0  0  0  0  0  0
    8.0983    1.7057  -59.2930 H   0  0  0  0  0  0  0  0  0  0  0  0
   11.3965   -1.1454  -53.3176 H   0  0  0  0  0  0  0  0  0  0  0  0
   10.4432   -2.5614  -52.7168 H   0  0  0  0  0  0  0  0  0  0  0  0
   11.3862   -2.1522  -55.5928 H   0  0  0  0  0  0  0  0  0  0  0  0
   12.1590   -3.2313  -54.3525 H   0  0  0  0  0  0  0  0  0  0  0  0
   10.0755   -4.5394  -54.1988 H   0  0  0  0  0  0  0  0  0  0  0  0
    9.3331   -3.4903  -55.4652 H   0  0  0  0  0  0  0  0  0  0  0  0
   10.2608   -5.6786  -56.3340 H   0  0  0  0  0  0  0  0  0  0  0  0
   10.9521   -4.2148  -57.1111 H   0  0  0  0  0  0  0  0  0  0  0  0
   12.2310   -5.6850  -54.8450 H   0  0  0  0  0  0  0  0  0  0  0  0
   12.8920   -4.4120  -55.6850 H   0  0  0  0  0  0  0  0  0  0  0  0
   12.6490   -5.8710  -56.4350 H   0  0  0  0  0  0  0  0  0  0  0  0
    7.3160   -3.9800  -53.8049 H   0  0  0  0  0  0  0  0  0  0  0  0
    6.7266   -5.5977  -52.0014 H   0  0  0  0  0  0  0  0  0  0  0  0
    6.9023   -4.9189  -49.6085 H   0  0  0  0  0  0  0  0  0  0  0  0
    7.6787   -2.6238  -49.0150 H   0  0  0  0  0  0  0  0  0  0  0  0
    8.2738   -1.0023  -50.8154 H   0  0  0  0  0  0  0  0  0  0  0  0
  1  2  1  0
  2  3  1  0
  3  4  1  0
  4  5  2  0
  4  6  1  0
  7  6  1  1
  7  8  1  0
  8  9  1  0
  9 10  1  0
 10 11  1  0
 11 12  1  0
 12 13  1  0
 13 14  1  0
 13 15  1  0
 11 16  1  0
  3 17  2  0
 17 18  1  0
 18 19  1  0
 19 20  1  0
 20 21  1  0
 21 22  1  0
 22 23  1  0
 18 24  1  0
 24 25  1  0
 25 26  2  0
 26 27  1  0
 27 28  2  0
 28 29  1  0
 29 30  2  0
 24  2  2  0
 30 25  1  0
 15  7  1  0
 16  7  1  0
 14  9  1  0
  1 31  1  0
  1 32  1  0
  1 33  1  0
  6 34  1  0
  8 35  1  0
  8 36  1  0
  9 37  1  6
 10 38  1  0
 10 39  1  0
 11 40  1  6
 12 41  1  0
 12 42  1  0
 13 43  1  1
 14 44  1  0
 14 45  1  0
 15 46  1  0
 15 47  1  0
 16 48  1  0
 16 49  1  0
 19 50  1  0
 19 51  1  0
 20 52  1  0
 20 53  1  0
 21 54  1  0
 21 55  1  0
 22 56  1  0
 22 57  1  0
 23 58  1  0
 23 59  1  0
 23 60  1  0
 26 61  1  0
 27 62  1  0
 28 63  1  0
 29 64  1  0
 30 65  1  0
M  CHG  1  23   1
M  END
>  <meeko>  (3) 
{"is_sidechain": false}

$$$$

     RDKit          3D

 60 64  0  0  0  0  0  0  0  0999 V2000
    6.2560   -0.0160  -53.6310 C   0  0  0  0  0  0  0  0  0  0  0  0
    7.6090   -0.5020  -54.0110 C   0  0  0  0  0  0  0  0  0  0  0  0
    8.4630    0.0490  -55.0130 C   0  0  0  0  0  0  0  0  0  0  0  0
    8.2030    1.2140  -55.8860 C   0  0  0  0  0  0  0  0  0  0  0  0
    7.0930    1.7160  -56.0180 O   0  0  0  0  0  0  0  0  0  0  0  0
    9.3420    1.6600  -56.5210 N   0  0  0  0  0  0  0  0  0  0  0  0
    9.4330    2.7910  -57.4390 C   0  0  2  0  0  0  0  0  0  0  0  0
    9.1200    4.1300  -56.7250 C   0  0  0  0  0  0  0  0  0  0  0  0
    9.2700    5.3100  -57.7020 C   0  0  1  0  0  0  0  0  0  0  0  0
   10.7130    5.3540  -58.2280 C   0  0  0  0  0  0  0  0  0  0  0  0
   11.0450    4.0440  -58.9590 C   0  0  2  0  0  0  0  0  0  0  0  0
   10.0740    3.8580  -60.1370 C   0  0  0  0  0  0  0  0  0  0  0  0
    8.6280    3.8060  -59.6210 C   0  0  2  0  0  0  0  0  0  0  0  0
    8.3040    5.1160  -58.8830 C   0  0  0  0  0  0  0  0  0  0  0  0
    8.4770    2.6250  -58.6450 C   0  0  0  0  0  0  0  0  0  0  0  0
   10.8840    2.8670  -57.9830 C   0  0  0  0  0  0  0  0  0  0  0  0
    9.6200   -0.6390  -55.1000 N   0  0  0  0  0  0  0  0  0  0  0  0
    9.5010   -1.6060  -54.1690 N   0  0  0  0  0  0  0  0  0  0  0  0
   10.6070   -2.5310  -53.9880 C   0  0  0  0  0  0  0  0  0  0  0  0
   10.4920   -3.7410  -54.9070 C   0  0  0  0  0  0  0  0  0  0  0  0
   11.5740   -3.7260  -55.9730 C   0  0  0  0  0  0  0  0  0  0  0  0
   11.4770   -2.5350  -56.7410 O   0  0  0  0  0  0  0  0  0  0  0  0
    8.3120   -1.5750  -53.4850 C   0  0  0  0  0  0  0  0  0  0  0  0
    7.9460   -2.5110  -52.4290 C   0  0  0  0  0  0  0  0  0  0  0  0
    8.1720   -2.1880  -51.0870 C   0  0  0  0  0  0  0  0  0  0  0  0
    7.8100   -3.0830  -50.0800 C   0  0  0  0  0  0  0  0  0  0  0  0
    7.2280   -4.3070  -50.4090 C   0  0  0  0  0  0  0  0  0  0  0  0
    7.0100   -4.6380  -51.7460 C   0  0  0  0  0  0  0  0  0  0  0  0
    7.3700   -3.7440  -52.7540 C   0  0  0  0  0  0  0  0  0  0  0  0
    6.1718    0.0142  -52.5346 H   0  0  0  0  0  0  0  0  0  0  0  0
    6.1013    0.9939  -54.0386 H   0  0  0  0  0  0  0  0  0  0  0  0
    5.4940   -0.6966  -54.0386 H   0  0  0  0  0  0  0  0  0  0  0  0
   10.1760    1.1270  -56.2830 H   0  0  0  0  0  0  0  0  0  0  0  0
    8.0884    4.1045  -56.3439 H   0  0  0  0  0  0  0  0  0  0  0  0
    9.8281    4.2640  -55.8940 H   0  0  0  0  0  0  0  0  0  0  0  0
    9.0371    6.2519  -57.1837 H   0  0  0  0  0  0  0  0  0  0  0  0
   10.8212    6.1979  -58.9252 H   0  0  0  0  0  0  0  0  0  0  0  0
   11.4030    5.4800  -57.3806 H   0  0  0  0  0  0  0  0  0  0  0  0
   12.0788    4.0808  -59.3331 H   0  0  0  0  0  0  0  0  0  0  0  0
   10.1819    4.7013  -60.8350 H   0  0  0  0  0  0  0  0  0  0  0  0
   10.3079    2.9152  -60.6531 H   0  0  0  0  0  0  0  0  0  0  0  0
    7.9388    3.6770  -60.4685 H   0  0  0  0  0  0  0  0  0  0  0  0
    8.4067    5.9611  -59.5797 H   0  0  0  0  0  0  0  0  0  0  0  0
    7.2734    5.0688  -58.5012 H   0  0  0  0  0  0  0  0  0  0  0  0
    7.4395    2.5864  -58.2816 H   0  0  0  0  0  0  0  0  0  0  0  0
    8.7295    1.6935  -59.1728 H   0  0  0  0  0  0  0  0  0  0  0  0
   11.1212    1.9296  -58.5075 H   0  0  0  0  0  0  0  0  0  0  0  0
   11.5688    3.0180  -57.1355 H   0  0  0  0  0  0  0  0  0  0  0  0
   11.5488   -2.0064  -54.2069 H   0  0  0  0  0  0  0  0  0  0  0  0
   10.5850   -2.8893  -52.9482 H   0  0  0  0  0  0  0  0  0  0  0  0
   10.5918   -4.6578  -54.3073 H   0  0  0  0  0  0  0  0  0  0  0  0
    9.5118   -3.7081  -55.4051 H   0  0  0  0  0  0  0  0  0  0  0  0
   12.5619   -3.7703  -55.4912 H   0  0  0  0  0  0  0  0  0  0  0  0
   11.4444   -4.5957  -56.6340 H   0  0  0  0  0  0  0  0  0  0  0  0
   10.8730   -2.7080  -57.4840 H   0  0  0  0  0  0  0  0  0  0  0  0
    8.6363   -1.2259  -50.8250 H   0  0  0  0  0  0  0  0  0  0  0  0
    7.9838   -2.8231  -49.0254 H   0  0  0  0  0  0  0  0  0  0  0  0
    6.9410   -5.0111  -49.6141 H   0  0  0  0  0  0  0  0  0  0  0  0
    6.5539   -5.6047  -52.0057 H   0  0  0  0  0  0  0  0  0  0  0  0
    7.2006   -4.0091  -53.8081 H   0  0  0  0  0  0  0  0  0  0  0  0
  1  2  1  0
  2  3  1  0
  3  4  1  0
  4  5  2  0
  4  6  1  0
  7  6  1  1
  7  8  1  0
  8  9  1  0
  9 10  1  0
 10 11  1  0
 11 12  1  0
 12 13  1  0
 13 14  1  0
 13 15  1  0
 11 16  1  0
  3 17  2  0
 17 18  1  0
 18 19  1  0
 19 20  1  0
 20 21  1  0
 21 22  1  0
 18 23  1  0
 23 24  1  0
 24 25  2  0
 25 26  1  0
 26 27  2  0
 27 28  1  0
 28 29  2  0
 23  2  2  0
 29 24  1  0
 15  7  1  0
 16  7  1  0
 14  9  1  0
  1 30  1  0
  1 31  1  0
  1 32  1  0
  6 33  1  0
  8 34  1  0
  8 35  1  0
  9 36  1  1
 10 37  1  0
 10 38  1  0
 11 39  1  6
 12 40  1  0
 12 41  1  0
 13 42  1  6
 14 43  1  0
 14 44  1  0
 15 45  1  0
 15 46  1  0
 16 47  1  0
 16 48  1  0
 19 49  1  0
 19 50  1  0
 20 51  1  0
 20 52  1  0
 21 53  1  0
 21 54  1  0
 22 55  1  0
 25 56  1  0
 26 57  1  0
 27 58  1  0
 28 59  1  0
 29 60  1  0
M  END
>  <meeko>  (4) 
{"is_sidechain": false}

$$$$

     RDKit          3D

 63 67  0  0  0  0  0  0  0  0999 V2000
    6.0420   -0.4060  -54.0150 C   0  0  0  0  0  0  0  0  0  0  0  0
    7.5120   -0.6000  -54.1160 C   0  0  0  0  0  0  0  0  0  0  0  0
    8.4070    0.1060  -54.9740 C   0  0  0  0  0  0  0  0  0  0  0  0
    8.0840    1.1780  -55.9380 C   0  0  0  0  0  0  0  0  0  0  0  0
    6.9380    1.5550  -56.1620 O   0  0  0  0  0  0  0  0  0  0  0  0
    9.2080    1.6980  -56.5430 N   0  0  0  0  0  0  0  0  0  0  0  0
    9.2390    2.7590  -57.5430 C   0  0  2  0  0  0  0  0  0  0  0  0
    8.2720    2.4670  -58.7170 C   0  0  0  0  0  0  0  0  0  0  0  0
    8.3600    3.5770  -59.7800 C   0  0  1  0  0  0  0  0  0  0  0  0
    7.9950    4.9240  -59.1350 C   0  0  0  0  0  0  0  0  0  0  0  0
    8.9700    5.2440  -57.9900 C   0  0  2  0  0  0  0  0  0  0  0  0
   10.4020    5.3050  -58.5440 C   0  0  0  0  0  0  0  0  0  0  0  0
   10.7760    3.9580  -59.1810 C   0  0  2  0  0  0  0  0  0  0  0  0
    9.7960    3.6470  -60.3240 C   0  0  0  0  0  0  0  0  0  0  0  0
   10.6770    2.8510  -58.1180 C   0  0  0  0  0  0  0  0  0  0  0  0
    8.8830    4.1350  -56.9260 C   0  0  0  0  0  0  0  0  0  0  0  0
    9.6760   -0.3210  -54.8130 N   0  0  0  0  0  0  0  0  0  0  0  0
    9.5870   -1.2830  -53.8730 N   0  0  0  0  0  0  0  0  0  0  0  0
   10.8120   -1.9430  -53.4370 C   0  0  0  0  0  0  0  0  0  0  0  0
   10.9250   -3.3590  -53.9980 C   0  0  0  0  0  0  0  0  0  0  0  0
   10.3660   -3.5160  -55.4170 C   0  0  0  0  0  0  0  0  0  0  0  0
   11.3960   -3.2920  -56.5160 C   0  0  0  0  0  0  0  0  0  0  0  0
   11.5600   -1.9030  -56.7650 O   0  0  0  0  0  0  0  0  0  0  0  0
    8.3080   -1.4930  -53.4140 C   0  0  0  0  0  0  0  0  0  0  0  0
    7.9520   -2.4540  -52.3770 C   0  0  0  0  0  0  0  0  0  0  0  0
    8.1340   -2.1430  -51.0250 C   0  0  0  0  0  0  0  0  0  0  0  0
    7.7880   -3.0660  -50.0370 C   0  0  0  0  0  0  0  0  0  0  0  0
    7.2630   -4.3070  -50.3950 C   0  0  0  0  0  0  0  0  0  0  0  0
    7.0880   -4.6290  -51.7410 C   0  0  0  0  0  0  0  0  0  0  0  0
    7.4340   -3.7060  -52.7290 C   0  0  0  0  0  0  0  0  0  0  0  0
    5.7492   -0.3674  -52.9554 H   0  0  0  0  0  0  0  0  0  0  0  0
    5.7619    0.5369  -54.5074 H   0  0  0  0  0  0  0  0  0  0  0  0
    5.5269   -1.2440  -54.5074 H   0  0  0  0  0  0  0  0  0  0  0  0
   10.0730    1.2600  -56.2350 H   0  0  0  0  0  0  0  0  0  0  0  0
    8.5412    1.5044  -59.1763 H   0  0  0  0  0  0  0  0  0  0  0  0
    7.2436    2.4287  -58.3284 H   0  0  0  0  0  0  0  0  0  0  0  0
    7.6638    3.3586  -60.6031 H   0  0  0  0  0  0  0  0  0  0  0  0
    8.0523    5.7181  -59.8941 H   0  0  0  0  0  0  0  0  0  0  0  0
    6.9734    4.8644  -58.7314 H   0  0  0  0  0  0  0  0  0  0  0  0
    8.7072    6.2123  -57.5390 H   0  0  0  0  0  0  0  0  0  0  0  0
   10.4652    6.0976  -59.3041 H   0  0  0  0  0  0  0  0  0  0  0  0
   11.0990    5.5214  -57.7210 H   0  0  0  0  0  0  0  0  0  0  0  0
   11.8021    4.0072  -59.5744 H   0  0  0  0  0  0  0  0  0  0  0  0
    9.8595    4.4395  -61.0842 H   0  0  0  0  0  0  0  0  0  0  0  0
   10.0600    2.6780  -60.7728 H   0  0  0  0  0  0  0  0  0  0  0  0
   10.9434    1.8872  -58.5765 H   0  0  0  0  0  0  0  0  0  0  0  0
   11.3681    3.0912  -57.2966 H   0  0  0  0  0  0  0  0  0  0  0  0
    9.5875    4.3592  -56.1115 H   0  0  0  0  0  0  0  0  0  0  0  0
    7.8543    4.0948  -56.5386 H   0  0  0  0  0  0  0  0  0  0  0  0
   11.6752   -1.3541  -53.7806 H   0  0  0  0  0  0  0  0  0  0  0  0
   10.7911   -2.0112  -52.3393 H   0  0  0  0  0  0  0  0  0  0  0  0
   11.9881   -3.6412  -54.0122 H   0  0  0  0  0  0  0  0  0  0  0  0
   10.3221   -4.0079  -53.3457 H   0  0  0  0  0  0  0  0  0  0  0  0
    9.9658   -4.5354  -55.5204 H   0  0  0  0  0  0  0  0  0  0  0  0
    9.5933   -2.7432  -55.5423 H   0  0  0  0  0  0  0  0  0  0  0  0
   12.3595   -3.7203  -56.2026 H   0  0  0  0  0  0  0  0  0  0  0  0
   11.0469   -3.7810  -57.4374 H   0  0  0  0  0  0  0  0  0  0  0  0
   12.1580   -1.5540  -56.0810 H   0  0  0  0  0  0  0  0  0  0  0  0
    8.5518   -1.1663  -50.7394 H   0  0  0  0  0  0  0  0  0  0  0  0
    7.9295   -2.8143  -48.9756 H   0  0  0  0  0  0  0  0  0  0  0  0
    6.9867   -5.0325  -49.6157 H   0  0  0  0  0  0  0  0  0  0  0  0
    6.6776   -5.6097  -52.0235 H   0  0  0  0  0  0  0  0  0  0  0  0
    7.2990   -3.9636  -53.7898 H   0  0  0  0  0  0  0  0  0  0  0  0
  1  2  1  0
  2  3  1  0
  3  4  1  0
  4  5  2  0
  4  6  1  0
  7  6  1  1
  7  8  1  0
  8  9  1  0
  9 10  1  0
 10 11  1  0
 11 12  1  0
 12 13  1  0
 13 14  1  0
 13 15  1  0
 11 16  1  0
  3 17  2  0
 17 18  1  0
 18 19  1  0
 19 20  1  0
 20 21  1  0
 21 22  1  0
 22 23  1  0
 18 24  1  0
 24 25  1  0
 25 26  2  0
 26 27  1  0
 27 28  2  0
 28 29  1  0
 29 30  2  0
 24  2  2  0
 30 25  1  0
 15  7  1  0
 16  7  1  0
 14  9  1  0
  1 31  1  0
  1 32  1  0
  1 33  1  0
  6 34  1  0
  8 35  1  0
  8 36  1  0
  9 37  1  6
 10 38  1  0
 10 39  1  0
 11 40  1  1
 12 41  1  0
 12 42  1  0
 13 43  1  6
 14 44  1  0
 14 45  1  0
 15 46  1  0
 15 47  1  0
 16 48  1  0
 16 49  1  0
 19 50  1  0
 19 51  1  0
 20 52  1  0
 20 53  1  0
 21 54  1  0
 21 55  1  0
 22 56  1  0
 22 57  1  0
 23 58  1  0
 26 59  1  0
 27 60  1  0
 28 61  1  0
 29 62  1  0
 30 63  1  0
M  END
>  <meeko>  (5) 
{"is_sidechain": false}

$$$$

     RDKit          3D

 57 62  0  0  0  0  0  0  0  0999 V2000
    5.8740    0.1430  -53.5840 C   0  0  0  0  0  0  0  0  0  0  0  0
    7.1940   -0.4230  -53.9630 C   0  0  0  0  0  0  0  0  0  0  0  0
    8.0620    0.0510  -54.9960 C   0  0  0  0  0  0  0  0  0  0  0  0
    7.8420    1.1850  -55.9150 C   0  0  0  0  0  0  0  0  0  0  0  0
    6.7330    1.6570  -56.1380 O   0  0  0  0  0  0  0  0  0  0  0  0
    9.0120    1.6390  -56.4840 N   0  0  0  0  0  0  0  0  0  0  0  0
    9.1420    2.7380  -57.4350 C   0  0  2  0  0  0  0  0  0  0  0  0
   10.6400    2.8900  -57.8090 C   0  0  0  0  0  0  0  0  0  0  0  0
   10.8420    4.0360  -58.8140 C   0  0  1  0  0  0  0  0  0  0  0  0
   10.0330    3.7390  -60.0870 C   0  0  0  0  0  0  0  0  0  0  0  0
    8.5410    3.6100  -59.7420 C   0  0  2  0  0  0  0  0  0  0  0  0
    8.0510    4.9240  -59.1090 C   0  0  0  0  0  0  0  0  0  0  0  0
    8.8540    5.2280  -57.8330 C   0  0  2  0  0  0  0  0  0  0  0  0
   10.3450    5.3490  -58.1880 C   0  0  0  0  0  0  0  0  0  0  0  0
    8.6630    4.0790  -56.8270 C   0  0  0  0  0  0  0  0  0  0  0  0
    8.3490    2.4600  -58.7360 C   0  0  0  0  0  0  0  0  0  0  0  0
    9.1910   -0.6850  -55.0630 N   0  0  0  0  0  0  0  0  0  0  0  0
    9.0270   -1.6160  -54.1120 N   0  0  0  0  0  0  0  0  0  0  0  0
   10.0640   -2.6520  -53.8820 C   0  0  0  0  0  0  0  0  0  0  0  0
   11.1700   -2.4710  -52.8660 C   0  0  0  0  0  0  0  0  0  0  0  0
   11.4970   -2.4740  -54.3290 C   0  0  0  0  0  0  0  0  0  0  0  0
    7.8590   -1.5040  -53.3990 C   0  0  0  0  0  0  0  0  0  0  0  0
    7.4700   -2.3930  -52.3100 C   0  0  0  0  0  0  0  0  0  0  0  0
    7.8890   -2.1400  -50.9990 C   0  0  0  0  0  0  0  0  0  0  0  0
    7.5130   -2.9960  -49.9620 C   0  0  0  0  0  0  0  0  0  0  0  0
    6.7130   -4.1060  -50.2280 C   0  0  0  0  0  0  0  0  0  0  0  0
    6.2860   -4.3610  -51.5310 C   0  0  0  0  0  0  0  0  0  0  0  0
    6.6600   -3.5050  -52.5680 C   0  0  0  0  0  0  0  0  0  0  0  0
    5.7914    0.1784  -52.4877 H   0  0  0  0  0  0  0  0  0  0  0  0
    5.7805    1.1603  -53.9918 H   0  0  0  0  0  0  0  0  0  0  0  0
    5.0726   -0.4906  -53.9918 H   0  0  0  0  0  0  0  0  0  0  0  0
    9.8380    1.1240  -56.1850 H   0  0  0  0  0  0  0  0  0  0  0  0
   11.2185    3.1038  -56.8982 H   0  0  0  0  0  0  0  0  0  0  0  0
   10.9832    1.9528  -58.2716 H   0  0  0  0  0  0  0  0  0  0  0  0
   11.9086    4.1277  -59.0671 H   0  0  0  0  0  0  0  0  0  0  0  0
   10.1711    4.5596  -60.8064 H   0  0  0  0  0  0  0  0  0  0  0  0
   10.3853    2.7945  -60.5272 H   0  0  0  0  0  0  0  0  0  0  0  0
    7.9665    3.4019  -60.6567 H   0  0  0  0  0  0  0  0  0  0  0  0
    8.1849    5.7460  -59.8276 H   0  0  0  0  0  0  0  0  0  0  0  0
    6.9869    4.8234  -58.8492 H   0  0  0  0  0  0  0  0  0  0  0  0
    8.5015    6.1710  -57.3897 H   0  0  0  0  0  0  0  0  0  0  0  0
   10.4834    6.1707  -58.9060 H   0  0  0  0  0  0  0  0  0  0  0  0
   10.9197    5.5541  -57.2728 H   0  0  0  0  0  0  0  0  0  0  0  0
    9.2456    4.2929  -55.9188 H   0  0  0  0  0  0  0  0  0  0  0  0
    7.5939    3.9958  -56.5820 H   0  0  0  0  0  0  0  0  0  0  0  0
    7.2800    2.3650  -58.4948 H   0  0  0  0  0  0  0  0  0  0  0  0
    8.7209    1.5280  -59.1865 H   0  0  0  0  0  0  0  0  0  0  0  0
    9.2787   -3.4016  -54.0590 H   0  0  0  0  0  0  0  0  0  0  0  0
   11.2389   -1.5366  -52.2896 H   0  0  0  0  0  0  0  0  0  0  0  0
   11.5207   -3.0378  -51.9909 H   0  0  0  0  0  0  0  0  0  0  0  0
   11.8059   -1.5418  -54.8245 H   0  0  0  0  0  0  0  0  0  0  0  0
   12.1868   -3.0441  -54.9687 H   0  0  0  0  0  0  0  0  0  0  0  0
    8.5173   -1.2629  -50.7845 H   0  0  0  0  0  0  0  0  0  0  0  0
    7.8485   -2.7942  -48.9340 H   0  0  0  0  0  0  0  0  0  0  0  0
    6.4186   -4.7806  -49.4106 H   0  0  0  0  0  0  0  0  0  0  0  0
    5.6545   -5.2367  -51.7414 H   0  0  0  0  0  0  0  0  0  0  0  0
    6.3164   -3.7053  -53.5936 H   0  0  0  0  0  0  0  0  0  0  0  0
  1  2  1  0
  2  3  1  0
  3  4  1  0
  4  5  2  0
  4  6  1  0
  7  6  1  1
  7  8  1  0
  8  9  1  0
  9 10  1  0
 10 11  1  0
 11 12  1  0
 12 13  1  0
 13 14  1  0
 13 15  1  0
 11 16  1  0
  3 17  2  0
 17 18  1  0
 18 19  1  0
 19 20  1  0
 20 21  1  0
 18 22  1  0
 22 23  1  0
 23 24  2  0
 24 25  1  0
 25 26  2  0
 26 27  1  0
 27 28  2  0
 22  2  2  0
 28 23  1  0
 15  7  1  0
 21 19  1  0
 16  7  1  0
 14  9  1  0
  1 29  1  0
  1 30  1  0
  1 31  1  0
  6 32  1  0
  8 33  1  0
  8 34  1  0
  9 35  1  6
 10 36  1  0
 10 37  1  0
 11 38  1  6
 12 39  1  0
 12 40  1  0
 13 41  1  1
 14 42  1  0
 14 43  1  0
 15 44  1  0
 15 45  1  0
 16 46  1  0
 16 47  1  0
 19 48  1  0
 20 49  1  0
 20 50  1  0
 21 51  1  0
 21 52  1  0
 24 53  1  0
 25 54  1  0
 26 55  1  0
 27 56  1  0
 28 57  1  0
M  END
>  <meeko>  (6) 
{"is_sidechain": false}

$$$$

     RDKit          3D

 57 61  0  0  0  0  0  0  0  0999 V2000
    6.0480   -0.3230  -53.9110 C   0  0  0  0  0  0  0  0  0  0  0  0
    7.5050   -0.5600  -54.0960 C   0  0  0  0  0  0  0  0  0  0  0  0
    8.3900    0.0900  -55.0170 C   0  0  0  0  0  0  0  0  0  0  0  0
    8.0890    1.1810  -55.9680 C   0  0  0  0  0  0  0  0  0  0  0  0
    6.9450    1.5210  -56.2530 O   0  0  0  0  0  0  0  0  0  0  0  0
    9.2180    1.7590  -56.5260 N   0  0  0  0  0  0  0  0  0  0  0  0
    9.1980    2.7860  -57.5720 C   0  0  2  0  0  0  0  0  0  0  0  0
   10.6420    2.9430  -58.1220 C   0  0  0  0  0  0  0  0  0  0  0  0
   10.6970    4.0030  -59.2340 C   0  0  1  0  0  0  0  0  0  0  0  0
    9.7630    3.5820  -60.3790 C   0  0  0  0  0  0  0  0  0  0  0  0
    8.3220    3.4490  -59.8600 C   0  0  2  0  0  0  0  0  0  0  0  0
    7.8640    4.8000  -59.2830 C   0  0  0  0  0  0  0  0  0  0  0  0
    8.7950    5.2290  -58.1350 C   0  0  2  0  0  0  0  0  0  0  0  0
   10.2310    5.3520  -58.6660 C   0  0  0  0  0  0  0  0  0  0  0  0
    8.7510    4.1640  -57.0240 C   0  0  0  0  0  0  0  0  0  0  0  0
    8.2780    2.3820  -58.7500 C   0  0  0  0  0  0  0  0  0  0  0  0
    9.6300   -0.4170  -54.9200 N   0  0  0  0  0  0  0  0  0  0  0  0
    9.5430   -1.3740  -53.9810 N   0  0  0  0  0  0  0  0  0  0  0  0
   10.7310   -2.1440  -53.6670 C   0  0  0  0  0  0  0  0  0  0  0  0
   10.8610   -3.3690  -54.5590 C   0  0  0  0  0  0  0  0  0  0  0  0
   10.7710   -2.9840  -55.9290 O   0  0  0  0  0  0  0  0  0  0  0  0
    8.2950   -1.4800  -53.4210 C   0  0  0  0  0  0  0  0  0  0  0  0
    7.9460   -2.4190  -52.3630 C   0  0  0  0  0  0  0  0  0  0  0  0
    7.4990   -3.7060  -52.6840 C   0  0  0  0  0  0  0  0  0  0  0  0
    7.1610   -4.6040  -51.6690 C   0  0  0  0  0  0  0  0  0  0  0  0
    7.2720   -4.2200  -50.3330 C   0  0  0  0  0  0  0  0  0  0  0  0
    7.7210   -2.9410  -50.0080 C   0  0  0  0  0  0  0  0  0  0  0  0
    8.0600   -2.0420  -51.0210 C   0  0  0  0  0  0  0  0  0  0  0  0
    5.8162   -0.2853  -52.8364 H   0  0  0  0  0  0  0  0  0  0  0  0
    5.7694    0.6323  -54.3799 H   0  0  0  0  0  0  0  0  0  0  0  0
    5.4811   -1.1407  -54.3799 H   0  0  0  0  0  0  0  0  0  0  0  0
   10.0730    1.2310  -56.4170 H   0  0  0  0  0  0  0  0  0  0  0  0
   11.3081    3.2479  -57.3014 H   0  0  0  0  0  0  0  0  0  0  0  0
   10.9634    1.9784  -58.5418 H   0  0  0  0  0  0  0  0  0  0  0  0
   11.7259    4.0957  -59.6120 H   0  0  0  0  0  0  0  0  0  0  0  0
    9.7953    4.3419  -61.1736 H   0  0  0  0  0  0  0  0  0  0  0  0
   10.0944    2.6116  -60.7772 H   0  0  0  0  0  0  0  0  0  0  0  0
    7.6570    3.1533  -60.6848 H   0  0  0  0  0  0  0  0  0  0  0  0
    7.8899    5.5617  -60.0762 H   0  0  0  0  0  0  0  0  0  0  0  0
    6.8396    4.6969  -58.8957 H   0  0  0  0  0  0  0  0  0  0  0  0
    8.4668    6.1985  -57.7321 H   0  0  0  0  0  0  0  0  0  0  0  0
   10.2620    6.1123  -59.4604 H   0  0  0  0  0  0  0  0  0  0  0  0
   10.8973    5.6470  -57.8420 H   0  0  0  0  0  0  0  0  0  0  0  0
    9.4249    4.4645  -56.2082 H   0  0  0  0  0  0  0  0  0  0  0  0
    7.7187    4.0804  -56.6534 H   0  0  0  0  0  0  0  0  0  0  0  0
    7.2452    2.2821  -58.3848 H   0  0  0  0  0  0  0  0  0  0  0  0
    8.6288    1.4247  -59.1629 H   0  0  0  0  0  0  0  0  0  0  0  0
   11.6162   -1.5061  -53.8066 H   0  0  0  0  0  0  0  0  0  0  0  0
   10.6515   -2.4864  -52.6247 H   0  0  0  0  0  0  0  0  0  0  0  0
   11.8337   -3.8499  -54.3785 H   0  0  0  0  0  0  0  0  0  0  0  0
   10.0488   -4.0736  -54.3269 H   0  0  0  0  0  0  0  0  0  0  0  0
   10.5970   -2.0270  -55.9440 H   0  0  0  0  0  0  0  0  0  0  0  0
    7.4138   -4.0107  -53.7375 H   0  0  0  0  0  0  0  0  0  0  0  0
    6.8073   -5.6140  -51.9235 H   0  0  0  0  0  0  0  0  0  0  0  0
    7.0048   -4.9276  -49.5343 H   0  0  0  0  0  0  0  0  0  0  0  0
    7.8082   -2.6400  -48.9536 H   0  0  0  0  0  0  0  0  0  0  0  0
    8.4178   -1.0343  -50.7629 H   0  0  0  0  0  0  0  0  0  0  0  0
  1  2  1  0
  2  3  1  0
  3  4  1  0
  4  5  2  0
  4  6  1  0
  7  6  1  1
  7  8  1  0
  8  9  1  0
  9 10  1  0
 10 11  1  0
 11 12  1  0
 12 13  1  0
 13 14  1  0
 13 15  1  0
 11 16  1  0
  3 17  2  0
 17 18  1  0
 18 19  1  0
 19 20  1  0
 20 21  1  0
 18 22  1  0
 22 23  1  0
 23 24  2  0
 24 25  1  0
 25 26  2  0
 26 27  1  0
 27 28  2  0
 22  2  2  0
 28 23  1  0
 15  7  1  0
 16  7  1  0
 14  9  1  0
  1 29  1  0
  1 30  1  0
  1 31  1  0
  6 32  1  0
  8 33  1  0
  8 34  1  0
  9 35  1  6
 10 36  1  0
 10 37  1  0
 11 38  1  6
 12 39  1  0
 12 40  1  0
 13 41  1  1
 14 42  1  0
 14 43  1  0
 15 44  1  0
 15 45  1  0
 16 46  1  0
 16 47  1  0
 19 48  1  0
 19 49  1  0
 20 50  1  0
 20 51  1  0
 21 52  1  0
 24 53  1  0
 25 54  1  0
 26 55  1  0
 27 56  1  0
 28 57  1  0
M  END
>  <meeko>  (7) 
{"is_sidechain": false}

$$$$

     RDKit          3D

 50 54  0  0  0  0  0  0  0  0999 V2000
    5.9250   -0.3150  -53.9320 C   0  0  0  0  0  0  0  0  0  0  0  0
    7.3840   -0.5400  -54.0940 C   0  0  0  0  0  0  0  0  0  0  0  0
    8.2820    0.1460  -54.9820 C   0  0  0  0  0  0  0  0  0  0  0  0
    7.9620    1.1850  -55.9840 C   0  0  0  0  0  0  0  0  0  0  0  0
    6.8250    1.6010  -56.1740 O   0  0  0  0  0  0  0  0  0  0  0  0
    9.0740    1.6590  -56.6620 N   0  0  0  0  0  0  0  0  0  0  0  0
    9.0540    2.7630  -57.6250 C   0  0  2  0  0  0  0  0  0  0  0  0
    8.0090    2.5360  -58.7480 C   0  0  0  0  0  0  0  0  0  0  0  0
    8.0520    3.6870  -59.7690 C   0  0  1  0  0  0  0  0  0  0  0  0
    7.7610    5.0140  -59.0480 C   0  0  0  0  0  0  0  0  0  0  0  0
    8.8150    5.2680  -57.9570 C   0  0  2  0  0  0  0  0  0  0  0  0
   10.2090    5.3210  -58.6020 C   0  0  0  0  0  0  0  0  0  0  0  0
   10.5080    3.9930  -59.3170 C   0  0  2  0  0  0  0  0  0  0  0  0
    9.4500    3.7500  -60.4040 C   0  0  0  0  0  0  0  0  0  0  0  0
   10.4530    2.8470  -58.2940 C   0  0  0  0  0  0  0  0  0  0  0  0
    8.7710    4.1200  -56.9340 C   0  0  0  0  0  0  0  0  0  0  0  0
    9.5440   -0.2830  -54.8090 N   0  0  0  0  0  0  0  0  0  0  0  0
    9.4550   -1.2100  -53.8500 N   0  0  0  0  0  0  0  0  0  0  0  0
    8.1860   -1.4240  -53.3860 C   0  0  0  0  0  0  0  0  0  0  0  0
    7.8860   -2.4100  -52.3530 C   0  0  0  0  0  0  0  0  0  0  0  0
    7.3570   -3.6600  -52.6990 C   0  0  0  0  0  0  0  0  0  0  0  0
    7.0770   -4.6080  -51.7120 C   0  0  0  0  0  0  0  0  0  0  0  0
    7.3210   -4.3140  -50.3730 C   0  0  0  0  0  0  0  0  0  0  0  0
    7.8440   -3.0730  -50.0170 C   0  0  0  0  0  0  0  0  0  0  0  0
    8.1260   -2.1240  -51.0030 C   0  0  0  0  0  0  0  0  0  0  0  0
    5.6766   -0.2767  -52.8611 H   0  0  0  0  0  0  0  0  0  0  0  0
    5.6458    0.6368  -54.4075 H   0  0  0  0  0  0  0  0  0  0  0  0
    5.3720   -1.1385  -54.4075 H   0  0  0  0  0  0  0  0  0  0  0  0
    9.9640    1.4340  -56.2390 H   0  0  0  0  0  0  0  0  0  0  0  0
    8.2303    1.5888  -59.2616 H   0  0  0  0  0  0  0  0  0  0  0  0
    7.0063    2.4993  -58.2971 H   0  0  0  0  0  0  0  0  0  0  0  0
    7.2980    3.5172  -60.5517 H   0  0  0  0  0  0  0  0  0  0  0  0
    7.7873    5.8371  -59.7773 H   0  0  0  0  0  0  0  0  0  0  0  0
    6.7668    4.9580  -58.5805 H   0  0  0  0  0  0  0  0  0  0  0  0
    8.6048    6.2224  -57.4520 H   0  0  0  0  0  0  0  0  0  0  0  0
   10.2417    6.1432  -59.3320 H   0  0  0  0  0  0  0  0  0  0  0  0
   10.9633    5.4875  -57.8189 H   0  0  0  0  0  0  0  0  0  0  0  0
   11.5065    4.0365  -59.7765 H   0  0  0  0  0  0  0  0  0  0  0  0
    9.4821    4.5719  -61.1343 H   0  0  0  0  0  0  0  0  0  0  0  0
    9.6618    2.7957  -60.9084 H   0  0  0  0  0  0  0  0  0  0  0  0
   10.6639    1.8970  -58.8068 H   0  0  0  0  0  0  0  0  0  0  0  0
   11.2034    3.0389  -57.5129 H   0  0  0  0  0  0  0  0  0  0  0  0
    9.5316    4.2968  -56.1593 H   0  0  0  0  0  0  0  0  0  0  0  0
    7.7686    4.0857  -56.4823 H   0  0  0  0  0  0  0  0  0  0  0  0
   10.3060   -1.6800  -53.5580 H   0  0  0  0  0  0  0  0  0  0  0  0
    7.1607   -3.8967  -53.7551 H   0  0  0  0  0  0  0  0  0  0  0  0
    6.6633   -5.5878  -51.9928 H   0  0  0  0  0  0  0  0  0  0  0  0
    7.1008   -5.0615  -49.5966 H   0  0  0  0  0  0  0  0  0  0  0  0
    8.0351   -2.8400  -48.9591 H   0  0  0  0  0  0  0  0  0  0  0  0
    8.5393   -1.1455  -50.7171 H   0  0  0  0  0  0  0  0  0  0  0  0
  1  2  1  0
  2  3  1  0
  3  4  1  0
  4  5  2  0
  4  6  1  0
  7  6  1  1
  7  8  1  0
  8  9  1  0
  9 10  1  0
 10 11  1  0
 11 12  1  0
 12 13  1  0
 13 14  1  0
 13 15  1  0
 11 16  1  0
  3 17  2  0
 17 18  1  0
 18 19  1  0
 19 20  1  0
 20 21  2  0
 21 22  1  0
 22 23  2  0
 23 24  1  0
 24 25  2  0
 19  2  2  0
 25 20  1  0
 15  7  1  0
 16  7  1  0
 14  9  1  0
  1 26  1  0
  1 27  1  0
  1 28  1  0
  6 29  1  0
  8 30  1  0
  8 31  1  0
  9 32  1  6
 10 33  1  0
 10 34  1  0
 11 35  1  1
 12 36  1  0
 12 37  1  0
 13 38  1  6
 14 39  1  0
 14 40  1  0
 15 41  1  0
 15 42  1  0
 16 43  1  0
 16 44  1  0
 18 45  1  0
 21 46  1  0
 22 47  1  0
 23 48  1  0
 24 49  1  0
 25 50  1  0
M  END
>  <meeko>  (8) 
{"is_sidechain": false}

$$$$

     RDKit          3D

 50 54  0  0  0  0  0  0  0  0999 V2000
    5.8820   -0.2480  -54.0090 C   0  0  0  0  0  0  0  0  0  0  0  0
    7.3440   -0.4940  -54.1360 C   0  0  0  0  0  0  0  0  0  0  0  0
    8.1460   -1.4470  -53.4290 C   0  0  0  0  0  0  0  0  0  0  0  0
    7.7440   -2.3910  -52.3850 C   0  0  0  0  0  0  0  0  0  0  0  0
    7.0380   -3.5540  -52.7240 C   0  0  0  0  0  0  0  0  0  0  0  0
    6.6460   -4.4610  -51.7370 C   0  0  0  0  0  0  0  0  0  0  0  0
    6.9630   -4.2170  -50.4020 C   0  0  0  0  0  0  0  0  0  0  0  0
    7.6780   -3.0720  -50.0540 C   0  0  0  0  0  0  0  0  0  0  0  0
    8.0700   -2.1640  -51.0410 C   0  0  0  0  0  0  0  0  0  0  0  0
    9.4180   -1.4070  -53.8570 N   0  0  0  0  0  0  0  0  0  0  0  0
    9.4400   -0.4060  -54.7410 N   0  0  0  0  0  0  0  0  0  0  0  0
    8.2210    0.1520  -54.9960 C   0  0  0  0  0  0  0  0  0  0  0  0
    7.9880    1.2300  -55.9280 C   0  0  0  0  0  0  0  0  0  0  0  0
    6.8650    1.6150  -56.2270 O   0  0  0  0  0  0  0  0  0  0  0  0
    9.1430    1.7650  -56.4660 N   0  0  0  0  0  0  0  0  0  0  0  0
    9.1620    2.8120  -57.4960 C   0  0  2  0  0  0  0  0  0  0  0  0
    8.8060    4.2060  -56.9190 C   0  0  0  0  0  0  0  0  0  0  0  0
    8.8920    5.2840  -58.0140 C   0  0  1  0  0  0  0  0  0  0  0  0
   10.3240    5.3350  -58.5680 C   0  0  0  0  0  0  0  0  0  0  0  0
   10.7020    3.9700  -59.1660 C   0  0  2  0  0  0  0  0  0  0  0  0
    9.7250    3.6230  -60.3000 C   0  0  0  0  0  0  0  0  0  0  0  0
    8.2890    3.5640  -59.7570 C   0  0  2  0  0  0  0  0  0  0  0  0
    7.9190    4.9290  -59.1520 C   0  0  0  0  0  0  0  0  0  0  0  0
    8.2010    2.4830  -58.6650 C   0  0  0  0  0  0  0  0  0  0  0  0
   10.6040    2.8960  -58.0710 C   0  0  0  0  0  0  0  0  0  0  0  0
    5.6090   -0.2021  -52.9444 H   0  0  0  0  0  0  0  0  0  0  0  0
    5.6271    0.7057  -54.4944 H   0  0  0  0  0  0  0  0  0  0  0  0
    5.3291   -1.0657  -54.4944 H   0  0  0  0  0  0  0  0  0  0  0  0
    6.7906   -3.7539  -53.7770 H   0  0  0  0  0  0  0  0  0  0  0  0
    6.0874   -5.3675  -52.0132 H   0  0  0  0  0  0  0  0  0  0  0  0
    6.6491   -4.9276  -49.6232 H   0  0  0  0  0  0  0  0  0  0  0  0
    7.9339   -2.8831  -49.0010 H   0  0  0  0  0  0  0  0  0  0  0  0
    8.6384   -1.2648  -50.7612 H   0  0  0  0  0  0  0  0  0  0  0  0
   10.3350   -0.1400  -55.1370 H   0  0  0  0  0  0  0  0  0  0  0  0
    9.9530    1.1610  -56.4450 H   0  0  0  0  0  0  0  0  0  0  0  0
    7.7824    4.1801  -56.5169 H   0  0  0  0  0  0  0  0  0  0  0  0
    9.5222    4.4529  -56.1215 H   0  0  0  0  0  0  0  0  0  0  0  0
    8.6259    6.2635  -57.5900 H   0  0  0  0  0  0  0  0  0  0  0  0
   10.3852    6.1057  -59.3505 H   0  0  0  0  0  0  0  0  0  0  0  0
   11.0200    5.5783  -57.7516 H   0  0  0  0  0  0  0  0  0  0  0  0
   11.7281    4.0099  -59.5604 H   0  0  0  0  0  0  0  0  0  0  0  0
    9.7871    4.3934  -61.0827 H   0  0  0  0  0  0  0  0  0  0  0  0
    9.9928    2.6421  -60.7197 H   0  0  0  0  0  0  0  0  0  0  0  0
    7.5943    3.3203  -60.5743 H   0  0  0  0  0  0  0  0  0  0  0  0
    7.9761    5.7009  -59.9336 H   0  0  0  0  0  0  0  0  0  0  0  0
    6.8966    4.8792  -58.7492 H   0  0  0  0  0  0  0  0  0  0  0  0
    7.1702    2.4368  -58.2839 H   0  0  0  0  0  0  0  0  0  0  0  0
    8.4889    1.5144  -59.0998 H   0  0  0  0  0  0  0  0  0  0  0  0
   10.8772    1.9204  -58.4994 H   0  0  0  0  0  0  0  0  0  0  0  0
   11.2902    3.1660  -57.2547 H   0  0  0  0  0  0  0  0  0  0  0  0
  1  2  1  0
  2  3  1  0
  3  4  1  0
  4  5  2  0
  5  6  1  0
  6  7  2  0
  7  8  1  0
  8  9  2  0
  3 10  2  0
 10 11  1  0
 11 12  1  0
 12 13  1  0
 13 14  2  0
 13 15  1  0
 16 15  1  1
 16 17  1  0
 17 18  1  0
 18 19  1  0
 19 20  1  0
 20 21  1  0
 21 22  1  0
 22 23  1  0
 22 24  1  0
 20 25  1  0
 12  2  2  0
 24 16  1  0
  9  4  1  0
 25 16  1  0
 23 18  1  0
  1 26  1  0
  1 27  1  0
  1 28  1  0
  5 29  1  0
  6 30  1  0
  7 31  1  0
  8 32  1  0
  9 33  1  0
 11 34  1  0
 15 35  1  0
 17 36  1  0
 17 37  1  0
 18 38  1  1
 19 39  1  0
 19 40  1  0
 20 41  1  6
 21 42  1  0
 21 43  1  0
 22 44  1  6
 23 45  1  0
 23 46  1  0
 24 47  1  0
 24 48  1  0
 25 49  1  0
 25 50  1  0
M  END
>  <meeko>  (9) 
{"is_sidechain": false}

$$$$

     RDKit          3D

 59 63  0  0  0  0  0  0  0  0999 V2000
    6.0620   -0.3090  -53.8280 C   0  0  0  0  0  0  0  0  0  0  0  0
    7.5200   -0.5360  -54.0360 C   0  0  0  0  0  0  0  0  0  0  0  0
    8.4000    0.1390  -54.9450 C   0  0  0  0  0  0  0  0  0  0  0  0
    8.1460    1.2240  -55.9200 C   0  0  0  0  0  0  0  0  0  0  0  0
    6.9960    1.5490  -56.2020 O   0  0  0  0  0  0  0  0  0  0  0  0
    9.2690    1.7840  -56.4930 N   0  0  0  0  0  0  0  0  0  0  0  0
    9.2490    2.8200  -57.5330 C   0  0  2  0  0  0  0  0  0  0  0  0
    8.2950    2.4430  -58.6940 C   0  0  0  0  0  0  0  0  0  0  0  0
    8.3360    3.5160  -59.7970 C   0  0  1  0  0  0  0  0  0  0  0  0
    7.9180    4.8720  -59.2010 C   0  0  0  0  0  0  0  0  0  0  0  0
    8.8820    5.2740  -58.0720 C   0  0  2  0  0  0  0  0  0  0  0  0
   10.3090    5.3730  -58.6320 C   0  0  0  0  0  0  0  0  0  0  0  0
   10.7350    4.0190  -59.2200 C   0  0  2  0  0  0  0  0  0  0  0  0
    9.7670    3.6250  -60.3470 C   0  0  0  0  0  0  0  0  0  0  0  0
   10.6830    2.9520  -58.1150 C   0  0  0  0  0  0  0  0  0  0  0  0
    8.8420    4.2030  -56.9660 C   0  0  0  0  0  0  0  0  0  0  0  0
    9.6400   -0.3860  -54.8730 N   0  0  0  0  0  0  0  0  0  0  0  0
    9.5520   -1.3600  -53.9510 N   0  0  0  0  0  0  0  0  0  0  0  0
   10.7460   -2.1630  -53.7340 C   0  0  0  0  0  0  0  0  0  0  0  0
   10.8260   -3.3360  -54.7200 C   0  0  0  0  0  0  0  0  0  0  0  0
   11.0930   -2.8810  -56.1160 N   0  0  0  0  0  0  0  0  0  0  0  0
    8.3120   -1.4800  -53.3930 C   0  0  0  0  0  0  0  0  0  0  0  0
    7.9760   -2.4590  -52.3670 C   0  0  0  0  0  0  0  0  0  0  0  0
    7.4580   -3.7080  -52.7280 C   0  0  0  0  0  0  0  0  0  0  0  0
    7.1200   -4.6380  -51.7440 C   0  0  0  0  0  0  0  0  0  0  0  0
    7.2980   -4.3250  -50.3970 C   0  0  0  0  0  0  0  0  0  0  0  0
    7.8210   -3.0850  -50.0320 C   0  0  0  0  0  0  0  0  0  0  0  0
    8.1610   -2.1530  -51.0140 C   0  0  0  0  0  0  0  0  0  0  0  0
    5.8463   -0.2754  -52.7499 H   0  0  0  0  0  0  0  0  0  0  0  0
    5.7699    0.6454  -54.2903 H   0  0  0  0  0  0  0  0  0  0  0  0
    5.4936   -1.1295  -54.2903 H   0  0  0  0  0  0  0  0  0  0  0  0
   10.1350    1.2760  -56.3850 H   0  0  0  0  0  0  0  0  0  0  0  0
    8.6052    1.4765  -59.1178 H   0  0  0  0  0  0  0  0  0  0  0  0
    7.2692    2.3745  -58.3029 H   0  0  0  0  0  0  0  0  0  0  0  0
    7.6474    3.2386  -60.6087 H   0  0  0  0  0  0  0  0  0  0  0  0
    7.9417    5.6386  -59.9895 H   0  0  0  0  0  0  0  0  0  0  0  0
    6.9006    4.7866  -58.7917 H   0  0  0  0  0  0  0  0  0  0  0  0
    8.5808    6.2472  -57.6571 H   0  0  0  0  0  0  0  0  0  0  0  0
   10.3389    6.1389  -59.4210 H   0  0  0  0  0  0  0  0  0  0  0  0
   10.9984    5.6483  -57.8202 H   0  0  0  0  0  0  0  0  0  0  0  0
   11.7569    4.0943  -59.6201 H   0  0  0  0  0  0  0  0  0  0  0  0
    9.7964    4.3903  -61.1366 H   0  0  0  0  0  0  0  0  0  0  0  0
   10.0703    2.6514  -60.7595 H   0  0  0  0  0  0  0  0  0  0  0  0
   10.9905    1.9834  -58.5360 H   0  0  0  0  0  0  0  0  0  0  0  0
   11.3627    3.2544  -57.3047 H   0  0  0  0  0  0  0  0  0  0  0  0
    9.5402    4.4849  -56.1641 H   0  0  0  0  0  0  0  0  0  0  0  0
    7.8171    4.1376  -56.5718 H   0  0  0  0  0  0  0  0  0  0  0  0
   11.6331   -1.5258  -53.8648 H   0  0  0  0  0  0  0  0  0  0  0  0
   10.7034   -2.5735  -52.7144 H   0  0  0  0  0  0  0  0  0  0  0  0
   11.6374   -4.0088  -54.4053 H   0  0  0  0  0  0  0  0  0  0  0  0
    9.8539   -3.8508  -54.7124 H   0  0  0  0  0  0  0  0  0  0  0  0
   10.1670   -2.7250  -56.5840 H   0  0  0  0  0  0  0  0  0  0  0  0
   11.5890   -3.5740  -56.6880 H   0  0  0  0  0  0  0  0  0  0  0  0
   11.5800   -1.9800  -56.1780 H   0  0  0  0  0  0  0  0  0  0  0  0
    7.3169   -3.9573  -53.7901 H   0  0  0  0  0  0  0  0  0  0  0  0
    6.7129   -5.6187  -52.0312 H   0  0  0  0  0  0  0  0  0  0  0  0
    7.0257   -5.0566  -49.6219 H   0  0  0  0  0  0  0  0  0  0  0  0
    7.9658   -2.8410  -48.9692 H   0  0  0  0  0  0  0  0  0  0  0  0
    8.5751   -1.1761  -50.7238 H   0  0  0  0  0  0  0  0  0  0  0  0
  1  2  1  0
  2  3  1  0
  3  4  1  0
  4  5  2  0
  4  6  1  0
  7  6  1  1
  7  8  1  0
  8  9  1  0
  9 10  1  0
 10 11  1  0
 11 12  1  0
 12 13  1  0
 13 14  1  0
 13 15  1  0
 11 16  1  0
  3 17  2  0
 17 18  1  0
 18 19  1  0
 19 20  1  0
 20 21  1  0
 18 22  1  0
 22 23  1  0
 23 24  2  0
 24 25  1  0
 25 26  2  0
 26 27  1  0
 27 28  2  0
 22  2  2  0
 28 23  1  0
 15  7  1  0
 16  7  1  0
 14  9  1  0
  1 29  1  0
  1 30  1  0
  1 31  1  0
  6 32  1  0
  8 33  1  0
  8 34  1  0
  9 35  1  6
 10 36  1  0
 10 37  1  0
 11 38  1  1
 12 39  1  0
 12 40  1  0
 13 41  1  6
 14 42  1  0
 14 43  1  0
 15 44  1  0
 15 45  1  0
 16 46  1  0
 16 47  1  0
 19 48  1  0
 19 49  1  0
 20 50  1  0
 20 51  1  0
 21 52  1  0
 21 53  1  0
 21 54  1  0
 24 55  1  0
 25 56  1  0
 26 57  1  0
 27 58  1  0
 28 59  1  0
M  CHG  1  21   1
M  END
>  <meeko>  (10) 
{"is_sidechain": false}

$$$$

     RDKit          3D

 60 64  0  0  0  0  0  0  0  0999 V2000
   12.0690   -5.1380  -55.9690 C   0  0  0  0  0  0  0  0  0  0  0  0
   11.7510   -4.5170  -54.7300 O   0  0  0  0  0  0  0  0  0  0  0  0
   10.5500   -3.7450  -54.8220 C   0  0  0  0  0  0  0  0  0  0  0  0
   10.6380   -2.5750  -53.8550 C   0  0  0  0  0  0  0  0  0  0  0  0
    9.5640   -1.6220  -54.0630 N   0  0  0  0  0  0  0  0  0  0  0  0
    9.7330   -0.6610  -54.9860 N   0  0  0  0  0  0  0  0  0  0  0  0
    8.5820    0.0340  -54.9770 C   0  0  0  0  0  0  0  0  0  0  0  0
    8.3880    1.1900  -55.8770 C   0  0  0  0  0  0  0  0  0  0  0  0
    7.2810    1.6400  -56.1540 O   0  0  0  0  0  0  0  0  0  0  0  0
    9.5680    1.6920  -56.4020 N   0  0  0  0  0  0  0  0  0  0  0  0
    9.6480    2.7620  -57.3980 C   0  0  2  0  0  0  0  0  0  0  0  0
    9.2380    4.1370  -56.8100 C   0  0  0  0  0  0  0  0  0  0  0  0
    9.3860    5.2440  -57.8680 C   0  0  1  0  0  0  0  0  0  0  0  0
   10.8520    5.3220  -58.3220 C   0  0  0  0  0  0  0  0  0  0  0  0
   11.2840    3.9780  -58.9280 C   0  0  2  0  0  0  0  0  0  0  0  0
   10.3900    3.6520  -60.1350 C   0  0  0  0  0  0  0  0  0  0  0  0
    8.9210    3.5660  -59.6930 C   0  0  2  0  0  0  0  0  0  0  0  0
    8.4970    4.9110  -59.0780 C   0  0  0  0  0  0  0  0  0  0  0  0
    8.7710    2.4560  -58.6370 C   0  0  0  0  0  0  0  0  0  0  0  0
   11.1240    2.8740  -57.8710 C   0  0  0  0  0  0  0  0  0  0  0  0
    7.6740   -0.5020  -54.0060 C   0  0  0  0  0  0  0  0  0  0  0  0
    6.2900   -0.0510  -53.7070 C   0  0  0  0  0  0  0  0  0  0  0  0
    8.3570   -1.5560  -53.4140 C   0  0  0  0  0  0  0  0  0  0  0  0
    7.9430   -2.4650  -52.3540 C   0  0  0  0  0  0  0  0  0  0  0  0
    8.1460   -2.1220  -51.0130 C   0  0  0  0  0  0  0  0  0  0  0  0
    7.7520   -2.9960  -49.9980 C   0  0  0  0  0  0  0  0  0  0  0  0
    7.1530   -4.2140  -50.3190 C   0  0  0  0  0  0  0  0  0  0  0  0
    6.9430   -4.5580  -51.6540 C   0  0  0  0  0  0  0  0  0  0  0  0
    7.3370   -3.6850  -52.6700 C   0  0  0  0  0  0  0  0  0  0  0  0
   12.5629   -6.1025  -55.7796 H   0  0  0  0  0  0  0  0  0  0  0  0
   11.1456   -5.3053  -56.5429 H   0  0  0  0  0  0  0  0  0  0  0  0
   12.7445   -4.4866  -56.5429 H   0  0  0  0  0  0  0  0  0  0  0  0
   10.4323   -3.3671  -55.8483 H   0  0  0  0  0  0  0  0  0  0  0  0
    9.6839   -4.3734  -54.5670 H   0  0  0  0  0  0  0  0  0  0  0  0
   10.5792   -2.9586  -52.8257 H   0  0  0  0  0  0  0  0  0  0  0  0
   11.5928   -2.0577  -54.0303 H   0  0  0  0  0  0  0  0  0  0  0  0
   10.3720    1.0870  -56.3110 H   0  0  0  0  0  0  0  0  0  0  0  0
    8.1899    4.0908  -56.4793 H   0  0  0  0  0  0  0  0  0  0  0  0
    9.8955    4.3693  -55.9593 H   0  0  0  0  0  0  0  0  0  0  0  0
    9.0809    6.2094  -57.4379 H   0  0  0  0  0  0  0  0  0  0  0  0
   10.9580    6.1139  -59.0781 H   0  0  0  0  0  0  0  0  0  0  0  0
   11.4883    5.5491  -57.4539 H   0  0  0  0  0  0  0  0  0  0  0  0
   12.3339    4.0384  -59.2505 H   0  0  0  0  0  0  0  0  0  0  0  0
   10.4970    4.4431  -60.8918 H   0  0  0  0  0  0  0  0  0  0  0  0
   10.6962    2.6849  -60.5604 H   0  0  0  0  0  0  0  0  0  0  0  0
    8.2861    3.3383  -60.5620 H   0  0  0  0  0  0  0  0  0  0  0  0
    8.5987    5.7043  -59.8332 H   0  0  0  0  0  0  0  0  0  0  0  0
    7.4504    4.8408  -58.7467 H   0  0  0  0  0  0  0  0  0  0  0  0
    7.7175    2.3913  -58.3274 H   0  0  0  0  0  0  0  0  0  0  0  0
    9.0973    1.5017  -59.0761 H   0  0  0  0  0  0  0  0  0  0  0  0
   11.4360    1.9128  -58.3054 H   0  0  0  0  0  0  0  0  0  0  0  0
   11.7507    3.1277  -57.0033 H   0  0  0  0  0  0  0  0  0  0  0  0
    6.1469   -0.0044  -52.6173 H   0  0  0  0  0  0  0  0  0  0  0  0
    6.1276    0.9466  -54.1412 H   0  0  0  0  0  0  0  0  0  0  0  0
    5.5710   -0.7613  -54.1412 H   0  0  0  0  0  0  0  0  0  0  0  0
    8.6172   -1.1614  -50.7576 H   0  0  0  0  0  0  0  0  0  0  0  0
    7.9141   -2.7239  -48.9446 H   0  0  0  0  0  0  0  0  0  0  0  0
    6.8461   -4.9035  -49.5188 H   0  0  0  0  0  0  0  0  0  0  0  0
    6.4670   -5.5170  -51.9066 H   0  0  0  0  0  0  0  0  0  0  0  0
    7.1701   -3.9578  -53.7225 H   0  0  0  0  0  0  0  0  0  0  0  0
  1  2  1  0
  2  3  1  0
  3  4  1  0
  4  5  1  0
  5  6  1  0
  6  7  2  0
  7  8  1  0
  8  9  2  0
  8 10  1  0
 11 10  1  1
 11 12  1  0
 12 13  1  0
 13 14  1  0
 14 15  1  0
 15 16  1  0
 16 17  1  0
 17 18  1  0
 17 19  1  0
 15 20  1  0
  7 21  1  0
 21 22  1  0
 21 23  2  0
 23 24  1  0
 24 25  2  0
 25 26  1  0
 26 27  2  0
 27 28  1  0
 28 29  2  0
 23  5  1  0
 29 24  1  0
 19 11  1  0
 20 11  1  0
 18 13  1  0
  1 30  1  0
  1 31  1  0
  1 32  1  0
  3 33  1  0
  3 34  1  0
  4 35  1  0
  4 36  1  0
 10 37  1  0
 12 38  1  0
 12 39  1  0
 13 40  1  1
 14 41  1  0
 14 42  1  0
 15 43  1  6
 16 44  1  0
 16 45  1  0
 17 46  1  6
 18 47  1  0
 18 48  1  0
 19 49  1  0
 19 50  1  0
 20 51  1  0
 20 52  1  0
 22 53  1  0
 22 54  1  0
 22 55  1  0
 25 56  1  0
 26 57  1  0
 27 58  1  0
 28 59  1  0
 29 60  1  0
M  END
>  <meeko>  (11) 
{"is_sidechain": false}

$$$$

     RDKit          3D

 65 69  0  0  0  0  0  0  0  0999 V2000
   11.5950   -3.6590  -57.4930 C   0  0  0  0  0  0  0  0  0  0  0  0
   10.7440   -4.6250  -56.6860 C   0  0  0  0  0  0  0  0  0  0  0  0
   10.3370   -4.0240  -55.3410 C   0  0  0  0  0  0  0  0  0  0  0  0
   11.2350   -2.8470  -54.9630 C   0  0  0  0  0  0  0  0  0  0  0  0
   10.7000   -2.1170  -53.7320 C   0  0  0  0  0  0  0  0  0  0  0  0
    9.5000   -1.3530  -54.0300 N   0  0  0  0  0  0  0  0  0  0  0  0
    9.5670   -0.3860  -54.9680 N   0  0  0  0  0  0  0  0  0  0  0  0
    8.3200    0.1260  -55.0080 C   0  0  0  0  0  0  0  0  0  0  0  0
    7.9810    1.2290  -55.9310 C   0  0  0  0  0  0  0  0  0  0  0  0
    6.8360    1.6320  -56.1000 O   0  0  0  0  0  0  0  0  0  0  0  0
    9.0910    1.7420  -56.5680 N   0  0  0  0  0  0  0  0  0  0  0  0
    9.1050    2.8300  -57.5380 C   0  0  2  0  0  0  0  0  0  0  0  0
    8.8530    4.2010  -56.8630 C   0  0  0  0  0  0  0  0  0  0  0  0
    8.9200    5.3360  -57.9000 C   0  0  1  0  0  0  0  0  0  0  0  0
   10.3140    5.3510  -58.5470 C   0  0  0  0  0  0  0  0  0  0  0  0
   10.5840    4.0080  -59.2430 C   0  0  2  0  0  0  0  0  0  0  0  0
    9.5180    3.7730  -60.3260 C   0  0  0  0  0  0  0  0  0  0  0  0
    8.1190    3.7500  -59.6900 C   0  0  2  0  0  0  0  0  0  0  0  0
    7.8590    5.0920  -58.9870 C   0  0  0  0  0  0  0  0  0  0  0  0
    8.0520    2.6140  -58.6530 C   0  0  0  0  0  0  0  0  0  0  0  0
   10.5050    2.8770  -58.2060 C   0  0  0  0  0  0  0  0  0  0  0  0
    7.4610   -0.5330  -54.0780 C   0  0  0  0  0  0  0  0  0  0  0  0
    6.0230   -0.2460  -53.8380 C   0  0  0  0  0  0  0  0  0  0  0  0
    8.2570   -1.4860  -53.4610 C   0  0  0  0  0  0  0  0  0  0  0  0
    7.9270   -2.4600  -52.4290 C   0  0  0  0  0  0  0  0  0  0  0  0
    8.1460   -2.1590  -51.0800 C   0  0  0  0  0  0  0  0  0  0  0  0
    7.8220   -3.0910  -50.0920 C   0  0  0  0  0  0  0  0  0  0  0  0
    7.2840   -4.3260  -50.4480 C   0  0  0  0  0  0  0  0  0  0  0  0
    7.0720   -4.6350  -51.7920 C   0  0  0  0  0  0  0  0  0  0  0  0
    7.3940   -3.7050  -52.7810 C   0  0  0  0  0  0  0  0  0  0  0  0
   12.1645   -3.0126  -56.8090 H   0  0  0  0  0  0  0  0  0  0  0  0
   12.2922   -4.2262  -58.1271 H   0  0  0  0  0  0  0  0  0  0  0  0
   10.9444   -3.0388  -58.1271 H   0  0  0  0  0  0  0  0  0  0  0  0
    9.8365   -4.8663  -57.2589 H   0  0  0  0  0  0  0  0  0  0  0  0
   11.3381   -5.5305  -56.4937 H   0  0  0  0  0  0  0  0  0  0  0  0
    9.2961   -3.6741  -55.4054 H   0  0  0  0  0  0  0  0  0  0  0  0
   10.4400   -4.8006  -54.5688 H   0  0  0  0  0  0  0  0  0  0  0  0
   12.2461   -3.2222  -54.7464 H   0  0  0  0  0  0  0  0  0  0  0  0
   11.2558   -2.1401  -55.8055 H   0  0  0  0  0  0  0  0  0  0  0  0
   10.4649   -2.8582  -52.9540 H   0  0  0  0  0  0  0  0  0  0  0  0
   11.4742   -1.4138  -53.3912 H   0  0  0  0  0  0  0  0  0  0  0  0
    9.9590    1.2820  -56.3020 H   0  0  0  0  0  0  0  0  0  0  0  0
    7.8571    4.1964  -56.3960 H   0  0  0  0  0  0  0  0  0  0  0  0
    9.6294    4.3696  -56.1022 H   0  0  0  0  0  0  0  0  0  0  0  0
    8.7308    6.3006  -57.4063 H   0  0  0  0  0  0  0  0  0  0  0  0
   10.3629    6.1620  -59.2885 H   0  0  0  0  0  0  0  0  0  0  0  0
   11.0727    5.5128  -57.7671 H   0  0  0  0  0  0  0  0  0  0  0  0
   11.5831    4.0242  -59.7028 H   0  0  0  0  0  0  0  0  0  0  0  0
    9.5676    4.5836  -61.0680 H   0  0  0  0  0  0  0  0  0  0  0  0
    9.7079    2.8067  -60.8160 H   0  0  0  0  0  0  0  0  0  0  0  0
    7.3605    3.5867  -60.4697 H   0  0  0  0  0  0  0  0  0  0  0  0
    7.9033    5.9046  -59.7271 H   0  0  0  0  0  0  0  0  0  0  0  0
    6.8642    5.0652  -58.5183 H   0  0  0  0  0  0  0  0  0  0  0  0
    7.0483    2.5940  -58.2032 H   0  0  0  0  0  0  0  0  0  0  0  0
    8.2619    1.6599  -59.1586 H   0  0  0  0  0  0  0  0  0  0  0  0
   10.6970    1.9164  -58.7064 H   0  0  0  0  0  0  0  0  0  0  0  0
   11.2585    3.0636  -57.4266 H   0  0  0  0  0  0  0  0  0  0  0  0
    5.8324   -0.2080  -52.7553 H   0  0  0  0  0  0  0  0  0  0  0  0
    5.7618    0.7220  -54.2905 H   0  0  0  0  0  0  0  0  0  0  0  0
    5.4102   -1.0396  -54.2905 H   0  0  0  0  0  0  0  0  0  0  0  0
    8.5743   -1.1860  -50.7973 H   0  0  0  0  0  0  0  0  0  0  0  0
    7.9916   -2.8501  -49.0322 H   0  0  0  0  0  0  0  0  0  0  0  0
    7.0261   -5.0582  -49.6686 H   0  0  0  0  0  0  0  0  0  0  0  0
    6.6510   -5.6119  -52.0719 H   0  0  0  0  0  0  0  0  0  0  0  0
    7.2284   -3.9512  -53.8402 H   0  0  0  0  0  0  0  0  0  0  0  0
  1  2  1  0
  2  3  1  0
  3  4  1  0
  4  5  1  0
  5  6  1  0
  6  7  1  0
  7  8  2  0
  8  9  1  0
  9 10  2  0
  9 11  1  0
 12 11  1  1
 12 13  1  0
 13 14  1  0
 14 15  1  0
 15 16  1  0
 16 17  1  0
 17 18  1  0
 18 19  1  0
 18 20  1  0
 16 21  1  0
  8 22  1  0
 22 23  1  0
 22 24  2  0
 24 25  1  0
 25 26  2  0
 26 27  1  0
 27 28  2  0
 28 29  1  0
 29 30  2  0
 24  6  1  0
 30 25  1  0
 20 12  1  0
 21 12  1  0
 19 14  1  0
  1 31  1  0
  1 32  1  0
  1 33  1  0
  2 34  1  0
  2 35  1  0
  3 36  1  0
  3 37  1  0
  4 38  1  0
  4 39  1  0
  5 40  1  0
  5 41  1  0
 11 42  1  0
 13 43  1  0
 13 44  1  0
 14 45  1  1
 15 46  1  0
 15 47  1  0
 16 48  1  6
 17 49  1  0
 17 50  1  0
 18 51  1  6
 19 52  1  0
 19 53  1  0
 20 54  1  0
 20 55  1  0
 21 56  1  0
 21 57  1  0
 23 58  1  0
 23 59  1  0
 23 60  1  0
 26 61  1  0
 27 62  1  0
 28 63  1  0
 29 64  1  0
 30 65  1  0
M  END
>  <meeko>  (12) 
{"is_sidechain": false}

$$$$

     RDKit          3D

 58 60  0  0  0  0  0  0  0  0999 V2000
    6.6090    0.2340  -53.7940 C   0  0  0  0  0  0  0  0  0  0  0  0
    7.9140   -0.4200  -54.0760 C   0  0  0  0  0  0  0  0  0  0  0  0
    8.9060   -0.0290  -55.0340 C   0  0  0  0  0  0  0  0  0  0  0  0
    8.8990    1.1390  -55.9360 C   0  0  0  0  0  0  0  0  0  0  0  0
    7.9250    1.8720  -56.0840 O   0  0  0  0  0  0  0  0  0  0  0  0
   10.0890    1.3350  -56.6180 N   0  0  0  0  0  0  0  0  0  0  0  0
   10.3040    2.4830  -57.4820 C   0  0  0  0  0  0  0  0  0  0  0  0
   11.7850    2.8690  -57.5190 C   0  0  0  0  0  0  0  0  0  0  0  0
   12.0230    4.1380  -58.3410 C   0  0  0  0  0  0  0  0  0  0  0  0
   10.9880    4.3550  -59.4470 C   0  0  0  0  0  0  0  0  0  0  0  0
   10.4540    3.0360  -59.9850 C   0  0  0  0  0  0  0  0  0  0  0  0
    9.7710    2.2040  -58.8960 C   0  0  0  0  0  0  0  0  0  0  0  0
    9.9330   -0.8950  -55.0360 N   0  0  0  0  0  0  0  0  0  0  0  0
    9.6150   -1.8100  -54.1060 N   0  0  0  0  0  0  0  0  0  0  0  0
   10.5400   -2.9070  -53.8630 C   0  0  0  0  0  0  0  0  0  0  0  0
   10.2410   -4.1090  -54.7580 C   0  0  0  0  0  0  0  0  0  0  0  0
   11.4400   -4.5400  -55.6080 C   0  0  0  0  0  0  0  0  0  0  0  0
   11.1480   -4.5120  -57.1120 C   0  0  0  0  0  0  0  0  0  0  0  0
   11.8490   -3.3600  -57.8230 C   0  0  0  0  0  0  0  0  0  0  0  0
   11.8410   -2.1890  -57.0190 O   0  0  0  0  0  0  0  0  0  0  0  0
    8.4190   -1.5660  -53.4790 C   0  0  0  0  0  0  0  0  0  0  0  0
    7.8590   -2.4000  -52.4240 C   0  0  0  0  0  0  0  0  0  0  0  0
    8.2090   -2.1750  -51.0890 C   0  0  0  0  0  0  0  0  0  0  0  0
    7.6800   -2.9790  -50.0780 C   0  0  0  0  0  0  0  0  0  0  0  0
    6.7960   -4.0080  -50.3980 C   0  0  0  0  0  0  0  0  0  0  0  0
    6.4370   -4.2330  -51.7260 C   0  0  0  0  0  0  0  0  0  0  0  0
    6.9640   -3.4300  -52.7380 C   0  0  0  0  0  0  0  0  0  0  0  0
    6.4630    0.3072  -52.7062 H   0  0  0  0  0  0  0  0  0  0  0  0
    6.6016    1.2423  -54.2336 H   0  0  0  0  0  0  0  0  0  0  0  0
    5.7968   -0.3636  -54.2336 H   0  0  0  0  0  0  0  0  0  0  0  0
   10.8380    0.6750  -56.4710 H   0  0  0  0  0  0  0  0  0  0  0  0
    9.7446    3.3349  -57.0681 H   0  0  0  0  0  0  0  0  0  0  0  0
   12.1336    3.0411  -56.4900 H   0  0  0  0  0  0  0  0  0  0  0  0
   12.3403    2.0463  -57.9931 H   0  0  0  0  0  0  0  0  0  0  0  0
   11.9928    5.0029  -57.6620 H   0  0  0  0  0  0  0  0  0  0  0  0
   13.0008    4.0254  -58.8321 H   0  0  0  0  0  0  0  0  0  0  0  0
   10.1496    4.9398  -59.0408 H   0  0  0  0  0  0  0  0  0  0  0  0
   11.4775    4.8897  -60.2744 H   0  0  0  0  0  0  0  0  0  0  0  0
    9.7241    3.2469  -60.7804 H   0  0  0  0  0  0  0  0  0  0  0  0
   11.3066    2.4568  -60.3691 H   0  0  0  0  0  0  0  0  0  0  0  0
    8.6941    2.4276  -58.9119 H   0  0  0  0  0  0  0  0  0  0  0  0
    9.9828    1.1475  -59.1174 H   0  0  0  0  0  0  0  0  0  0  0  0
   11.5645   -2.5600  -54.0630 H   0  0  0  0  0  0  0  0  0  0  0  0
   10.4278   -3.2238  -52.8156 H   0  0  0  0  0  0  0  0  0  0  0  0
    9.9423   -4.9542  -54.1204 H   0  0  0  0  0  0  0  0  0  0  0  0
    9.4396   -3.8107  -55.4499 H   0  0  0  0  0  0  0  0  0  0  0  0
   12.2792   -3.8596  -55.4010 H   0  0  0  0  0  0  0  0  0  0  0  0
   11.6783   -5.5794  -55.3381 H   0  0  0  0  0  0  0  0  0  0  0  0
   11.4890   -5.4594  -57.5550 H   0  0  0  0  0  0  0  0  0  0  0  0
   10.0643   -4.3723  -57.2388 H   0  0  0  0  0  0  0  0  0  0  0  0
   12.8903   -3.6461  -58.0324 H   0  0  0  0  0  0  0  0  0  0  0  0
   11.3136   -3.1470  -58.7600 H   0  0  0  0  0  0  0  0  0  0  0  0
   11.1600   -1.5920  -57.3700 H   0  0  0  0  0  0  0  0  0  0  0  0
    8.9040   -1.3612  -50.8345 H   0  0  0  0  0  0  0  0  0  0  0  0
    7.9606   -2.8006  -49.0295 H   0  0  0  0  0  0  0  0  0  0  0  0
    6.3811   -4.6433  -49.6016 H   0  0  0  0  0  0  0  0  0  0  0  0
    5.7376   -5.0443  -51.9763 H   0  0  0  0  0  0  0  0  0  0  0  0
    6.6757   -3.6065  -53.7848 H   0  0  0  0  0  0  0  0  0  0  0  0
  1  2  1  0
  2  3  1  0
  3  4  1  0
  4  5  2  0
  4  6  1  0
  6  7  1  0
  7  8  1  0
  8  9  1  0
  9 10  1  0
 10 11  1  0
 11 12  1  0
  3 13  2  0
 13 14  1  0
 14 15  1  0
 15 16  1  0
 16 17  1  0
 17 18  1  0
 18 19  1  0
 19 20  1  0
 14 21  1  0
 21 22  1  0
 22 23  2  0
 23 24  1  0
 24 25  2  0
 25 26  1  0
 26 27  2  0
 21  2  2  0
 27 22  1  0
 12  7  1  0
  1 28  1  0
  1 29  1  0
  1 30  1  0
  6 31  1  0
  7 32  1  0
  8 33  1  0
  8 34  1  0
  9 35  1  0
  9 36  1  0
 10 37  1  0
 10 38  1  0
 11 39  1  0
 11 40  1  0
 12 41  1  0
 12 42  1  0
 15 43  1  0
 15 44  1  0
 16 45  1  0
 16 46  1  0
 17 47  1  0
 17 48  1  0
 18 49  1  0
 18 50  1  0
 19 51  1  0
 19 52  1  0
 20 53  1  0
 23 54  1  0
 24 55  1  0
 25 56  1  0
 26 57  1  0
 27 58  1  0
M  END
>  <meeko>  (13) 
{"is_sidechain": false}

$$$$

     RDKit          3D

 62 66  0  0  0  0  0  0  0  0999 V2000
    6.1980    0.0690  -53.7460 C   0  0  0  0  0  0  0  0  0  0  0  0
    7.5610   -0.3540  -54.1580 C   0  0  0  0  0  0  0  0  0  0  0  0
    8.3660    0.2380  -55.1750 C   0  0  0  0  0  0  0  0  0  0  0  0
    8.0320    1.3850  -56.0450 C   0  0  0  0  0  0  0  0  0  0  0  0
    6.9140    1.8880  -56.0890 O   0  0  0  0  0  0  0  0  0  0  0  0
    9.1090    1.8130  -56.7900 N   0  0  0  0  0  0  0  0  0  0  0  0
    9.1180    2.9140  -57.7460 C   0  0  2  0  0  0  0  0  0  0  0  0
    7.9580    2.7930  -58.7640 C   0  0  0  0  0  0  0  0  0  0  0  0
    8.0180    3.9390  -59.7910 C   0  0  1  0  0  0  0  0  0  0  0  0
    7.9180    5.2850  -59.0530 C   0  0  0  0  0  0  0  0  0  0  0  0
    9.0850    5.4330  -58.0620 C   0  0  2  0  0  0  0  0  0  0  0  0
   10.4140    5.3590  -58.8290 C   0  0  0  0  0  0  0  0  0  0  0  0
   10.5230    4.0130  -59.5620 C   0  0  2  0  0  0  0  0  0  0  0  0
    9.3530    3.8730  -60.5480 C   0  0  0  0  0  0  0  0  0  0  0  0
   10.4540    2.8720  -58.5340 C   0  0  0  0  0  0  0  0  0  0  0  0
    9.0260    4.2880  -57.0350 C   0  0  0  0  0  0  0  0  0  0  0  0
    9.5550   -0.3890  -55.2830 N   0  0  0  0  0  0  0  0  0  0  0  0
    9.4970   -1.3750  -54.3660 N   0  0  0  0  0  0  0  0  0  0  0  0
   10.6410   -2.2660  -54.2380 C   0  0  0  0  0  0  0  0  0  0  0  0
   10.7990   -3.2430  -55.4170 C   0  0  0  0  0  0  0  0  0  0  0  0
   11.5470   -2.5550  -56.5610 C   0  0  0  0  0  0  0  0  0  0  0  0
   11.5370   -4.5190  -55.0090 C   0  0  0  0  0  0  0  0  0  0  0  0
    8.3280   -1.3900  -53.6440 C   0  0  0  0  0  0  0  0  0  0  0  0
    8.0250   -2.3400  -52.5810 C   0  0  0  0  0  0  0  0  0  0  0  0
    7.6180   -3.6410  -52.8960 C   0  0  0  0  0  0  0  0  0  0  0  0
    7.3300   -4.5530  -51.8790 C   0  0  0  0  0  0  0  0  0  0  0  0
    7.4420   -4.1660  -50.5430 C   0  0  0  0  0  0  0  0  0  0  0  0
    7.8370   -2.8680  -50.2240 C   0  0  0  0  0  0  0  0  0  0  0  0
    8.1260   -1.9550  -51.2400 C   0  0  0  0  0  0  0  0  0  0  0  0
    6.1363    0.0882  -52.6479 H   0  0  0  0  0  0  0  0  0  0  0  0
    5.9904    1.0738  -54.1425 H   0  0  0  0  0  0  0  0  0  0  0  0
    5.4580   -0.6417  -54.1425 H   0  0  0  0  0  0  0  0  0  0  0  0
    9.9570    1.2730  -56.6240 H   0  0  0  0  0  0  0  0  0  0  0  0
    8.0379    1.8306  -59.2908 H   0  0  0  0  0  0  0  0  0  0  0  0
    7.0025    2.8513  -58.2222 H   0  0  0  0  0  0  0  0  0  0  0  0
    7.1849    3.8433  -60.5029 H   0  0  0  0  0  0  0  0  0  0  0  0
    7.9564    6.1050  -59.7852 H   0  0  0  0  0  0  0  0  0  0  0  0
    6.9685    5.3218  -58.4988 H   0  0  0  0  0  0  0  0  0  0  0  0
    9.0109    6.4002  -57.5433 H   0  0  0  0  0  0  0  0  0  0  0  0
   10.4576    6.1778  -59.5623 H   0  0  0  0  0  0  0  0  0  0  0  0
   11.2475    5.4512  -58.1172 H   0  0  0  0  0  0  0  0  0  0  0  0
   11.4760    3.9666  -60.1095 H   0  0  0  0  0  0  0  0  0  0  0  0
    9.3960    4.6904  -61.2829 H   0  0  0  0  0  0  0  0  0  0  0  0
    9.4287    2.9041  -61.0633 H   0  0  0  0  0  0  0  0  0  0  0  0
   10.5315    1.9089  -59.0597 H   0  0  0  0  0  0  0  0  0  0  0  0
   11.2845    2.9904  -57.8225 H   0  0  0  0  0  0  0  0  0  0  0  0
    9.8663    4.3887  -56.3323 H   0  0  0  0  0  0  0  0  0  0  0  0
    8.0697    4.3448  -56.4943 H   0  0  0  0  0  0  0  0  0  0  0  0
   11.5523   -1.6537  -54.1698 H   0  0  0  0  0  0  0  0  0  0  0  0
   10.4757   -2.8741  -53.3364 H   0  0  0  0  0  0  0  0  0  0  0  0
    9.7909   -3.5332  -55.7478 H   0  0  0  0  0  0  0  0  0  0  0  0
   12.2969   -1.8653  -56.1463 H   0  0  0  0  0  0  0  0  0  0  0  0
   12.0489   -3.3136  -57.1795 H   0  0  0  0  0  0  0  0  0  0  0  0
   10.8329   -1.9915  -57.1795 H   0  0  0  0  0  0  0  0  0  0  0  0
   11.5754   -4.5854  -53.9117 H   0  0  0  0  0  0  0  0  0  0  0  0
   11.0057   -5.3943  -55.4109 H   0  0  0  0  0  0  0  0  0  0  0  0
   12.5607   -4.4950  -55.4109 H   0  0  0  0  0  0  0  0  0  0  0  0
    7.5246   -3.9463  -53.9486 H   0  0  0  0  0  0  0  0  0  0  0  0
    7.0149   -5.5764  -52.1308 H   0  0  0  0  0  0  0  0  0  0  0  0
    7.2185   -4.8855  -49.7415 H   0  0  0  0  0  0  0  0  0  0  0  0
    7.9211   -2.5626  -49.1706 H   0  0  0  0  0  0  0  0  0  0  0  0
    8.4339   -0.9302  -50.9853 H   0  0  0  0  0  0  0  0  0  0  0  0
  1  2  1  0
  2  3  1  0
  3  4  1  0
  4  5  2  0
  4  6  1  0
  7  6  1  1
  7  8  1  0
  8  9  1  0
  9 10  1  0
 10 11  1  0
 11 12  1  0
 12 13  1  0
 13 14  1  0
 13 15  1  0
 11 16  1  0
  3 17  2  0
 17 18  1  0
 18 19  1  0
 19 20  1  0
 20 21  1  0
 20 22  1  0
 18 23  1  0
 23 24  1  0
 24 25  2  0
 25 26  1  0
 26 27  2  0
 27 28  1  0
 28 29  2  0
 23  2  2  0
 29 24  1  0
 15  7  1  0
 16  7  1  0
 14  9  1  0
  1 30  1  0
  1 31  1  0
  1 32  1  0
  6 33  1  0
  8 34  1  0
  8 35  1  0
  9 36  1  6
 10 37  1  0
 10 38  1  0
 11 39  1  1
 12 40  1  0
 12 41  1  0
 13 42  1  6
 14 43  1  0
 14 44  1  0
 15 45  1  0
 15 46  1  0
 16 47  1  0
 16 48  1  0
 19 49  1  0
 19 50  1  0
 20 51  1  0
 21 52  1  0
 21 53  1  0
 21 54  1  0
 22 55  1  0
 22 56  1  0
 22 57  1  0
 25 58  1  0
 26 59  1  0
 27 60  1  0
 28 61  1  0
 29 62  1  0
M  END
>  <meeko>  (14) 
{"is_sidechain": false}

$$$$

     RDKit          3D

 59 63  0  0  0  0  0  0  0  0999 V2000
    6.3440   -0.1030  -53.6930 C   0  0  0  0  0  0  0  0  0  0  0  0
    7.7240   -0.5190  -54.0590 C   0  0  0  0  0  0  0  0  0  0  0  0
    8.5780    0.0680  -55.0450 C   0  0  0  0  0  0  0  0  0  0  0  0
    8.2850    1.1860  -55.9650 C   0  0  0  0  0  0  0  0  0  0  0  0
    7.1640    1.6710  -56.0890 O   0  0  0  0  0  0  0  0  0  0  0  0
    9.3990    1.6480  -56.6480 N   0  0  0  0  0  0  0  0  0  0  0  0
    9.4080    2.8140  -57.5340 C   0  0  2  0  0  0  0  0  0  0  0  0
   10.8110    2.9090  -58.1920 C   0  0  0  0  0  0  0  0  0  0  0  0
   10.8980    4.1200  -59.1350 C   0  0  1  0  0  0  0  0  0  0  0  0
    9.8400    3.9750  -60.2390 C   0  0  0  0  0  0  0  0  0  0  0  0
    8.4380    3.9020  -59.6140 C   0  0  2  0  0  0  0  0  0  0  0  0
    8.1740    5.1840  -58.8080 C   0  0  0  0  0  0  0  0  0  0  0  0
    9.2290    5.3400  -57.6980 C   0  0  2  0  0  0  0  0  0  0  0  0
   10.6260    5.4040  -58.3350 C   0  0  0  0  0  0  0  0  0  0  0  0
    9.1540    4.1270  -56.7540 C   0  0  0  0  0  0  0  0  0  0  0  0
    8.3630    2.6870  -58.6720 C   0  0  0  0  0  0  0  0  0  0  0  0
    9.7680   -0.5490  -55.0670 N   0  0  0  0  0  0  0  0  0  0  0  0
    9.6920   -1.5100  -54.1240 N   0  0  0  0  0  0  0  0  0  0  0  0
   10.8850   -2.3320  -53.9240 C   0  0  0  0  0  0  0  0  0  0  0  0
   10.8120   -3.6930  -54.6140 C   0  0  0  0  0  0  0  0  0  0  0  0
   11.2790   -2.4560  -52.4530 C   0  0  0  0  0  0  0  0  0  0  0  0
    8.4690   -1.5470  -53.4950 C   0  0  0  0  0  0  0  0  0  0  0  0
    8.0750   -2.4760  -52.4420 C   0  0  0  0  0  0  0  0  0  0  0  0
    7.6100   -3.7550  -52.7690 C   0  0  0  0  0  0  0  0  0  0  0  0
    7.2020   -4.6340  -51.7640 C   0  0  0  0  0  0  0  0  0  0  0  0
    7.2430   -4.2340  -50.4290 C   0  0  0  0  0  0  0  0  0  0  0  0
    7.6850   -2.9540  -50.0980 C   0  0  0  0  0  0  0  0  0  0  0  0
    8.0930   -2.0740  -51.1020 C   0  0  0  0  0  0  0  0  0  0  0  0
    6.2481   -0.0741  -52.5976 H   0  0  0  0  0  0  0  0  0  0  0  0
    6.1408    0.8963  -54.1054 H   0  0  0  0  0  0  0  0  0  0  0  0
    5.6223   -0.8235  -54.1054 H   0  0  0  0  0  0  0  0  0  0  0  0
   10.2880    1.3480  -56.2710 H   0  0  0  0  0  0  0  0  0  0  0  0
   11.5714    3.0118  -57.4039 H   0  0  0  0  0  0  0  0  0  0  0  0
   10.9846    1.9952  -58.7792 H   0  0  0  0  0  0  0  0  0  0  0  0
   11.9000    4.1708  -59.5860 H   0  0  0  0  0  0  0  0  0  0  0  0
    9.8943    4.8431  -60.9124 H   0  0  0  0  0  0  0  0  0  0  0  0
   10.0322    3.0520  -60.8057 H   0  0  0  0  0  0  0  0  0  0  0  0
    7.6843    3.8016  -60.4089 H   0  0  0  0  0  0  0  0  0  0  0  0
    8.2230    6.0529  -59.4808 H   0  0  0  0  0  0  0  0  0  0  0  0
    7.1763    5.1207  -58.3490 H   0  0  0  0  0  0  0  0  0  0  0  0
    9.0386    6.2625  -57.1299 H   0  0  0  0  0  0  0  0  0  0  0  0
   10.6796    6.2715  -59.0092 H   0  0  0  0  0  0  0  0  0  0  0  0
   11.3809    5.5016  -57.5409 H   0  0  0  0  0  0  0  0  0  0  0  0
    9.9154    4.2334  -55.9673 H   0  0  0  0  0  0  0  0  0  0  0  0
    8.1494    4.0861  -56.3077 H   0  0  0  0  0  0  0  0  0  0  0  0
    7.3558    2.6312  -58.2334 H   0  0  0  0  0  0  0  0  0  0  0  0
    8.5771    1.7760  -59.2502 H   0  0  0  0  0  0  0  0  0  0  0  0
   11.6958   -1.7831  -54.4252 H   0  0  0  0  0  0  0  0  0  0  0  0
   10.7694   -4.4874  -53.8543 H   0  0  0  0  0  0  0  0  0  0  0  0
    9.9102   -3.7377  -55.2423 H   0  0  0  0  0  0  0  0  0  0  0  0
   11.7039   -3.8339  -55.2423 H   0  0  0  0  0  0  0  0  0  0  0  0
   10.4211   -2.1860  -51.8196 H   0  0  0  0  0  0  0  0  0  0  0  0
   11.5801   -3.4923  -52.2402 H   0  0  0  0  0  0  0  0  0  0  0  0
   12.1194   -1.7789  -52.2402 H   0  0  0  0  0  0  0  0  0  0  0  0
    7.5658   -4.0690  -53.8223 H   0  0  0  0  0  0  0  0  0  0  0  0
    6.8482   -5.6422  -52.0254 H   0  0  0  0  0  0  0  0  0  0  0  0
    6.9265   -4.9285  -49.6368 H   0  0  0  0  0  0  0  0  0  0  0  0
    7.7123   -2.6372  -49.0450 H   0  0  0  0  0  0  0  0  0  0  0  0
    8.4300   -1.0606  -50.8385 H   0  0  0  0  0  0  0  0  0  0  0  0
  1  2  1  0
  2  3  1  0
  3  4  1  0
  4  5  2  0
  4  6  1  0
  7  6  1  1
  7  8  1  0
  8  9  1  0
  9 10  1  0
 10 11  1  0
 11 12  1  0
 12 13  1  0
 13 14  1  0
 13 15  1  0
 11 16  1  0
  3 17  2  0
 17 18  1  0
 18 19  1  0
 19 20  1  0
 19 21  1  0
 18 22  1  0
 22 23  1  0
 23 24  2  0
 24 25  1  0
 25 26  2  0
 26 27  1  0
 27 28  2  0
 22  2  2  0
 28 23  1  0
 15  7  1  0
 16  7  1  0
 14  9  1  0
  1 29  1  0
  1 30  1  0
  1 31  1  0
  6 32  1  0
  8 33  1  0
  8 34  1  0
  9 35  1  6
 10 36  1  0
 10 37  1  0
 11 38  1  6
 12 39  1  0
 12 40  1  0
 13 41  1  1
 14 42  1  0
 14 43  1  0
 15 44  1  0
 15 45  1  0
 16 46  1  0
 16 47  1  0
 19 48  1  0
 20 49  1  0
 20 50  1  0
 20 51  1  0
 21 52  1  0
 21 53  1  0
 21 54  1  0
 24 55  1  0
 25 56  1  0
 26 57  1  0
 27 58  1  0
 28 59  1  0
M  END
>  <meeko>  (15) 
{"is_sidechain": false}

$$$$

     RDKit          3D

 62 66  0  0  0  0  0  0  0  0999 V2000
   11.5160   -2.9730  -56.6360 C   0  0  0  0  0  0  0  0  0  0  0  0
   10.4820   -3.5350  -55.6720 C   0  0  0  0  0  0  0  0  0  0  0  0
   10.8610   -3.3580  -54.1990 C   0  0  0  0  0  0  0  0  0  0  0  0
   10.7820   -1.9240  -53.6690 C   0  0  0  0  0  0  0  0  0  0  0  0
    9.5590   -1.2280  -54.0300 N   0  0  0  0  0  0  0  0  0  0  0  0
    9.6220   -0.2660  -54.9660 N   0  0  0  0  0  0  0  0  0  0  0  0
    8.3630    0.1840  -55.0890 C   0  0  0  0  0  0  0  0  0  0  0  0
    8.0280    1.2460  -56.0590 C   0  0  0  0  0  0  0  0  0  0  0  0
    6.8960    1.7010  -56.1880 O   0  0  0  0  0  0  0  0  0  0  0  0
    9.1200    1.6980  -56.7830 N   0  0  0  0  0  0  0  0  0  0  0  0
    9.0880    2.8190  -57.7240 C   0  0  2  0  0  0  0  0  0  0  0  0
   10.4560    2.8720  -58.4590 C   0  0  0  0  0  0  0  0  0  0  0  0
   10.4990    4.0360  -59.4630 C   0  0  1  0  0  0  0  0  0  0  0  0
    9.3830    3.8450  -60.5020 C   0  0  0  0  0  0  0  0  0  0  0  0
    8.0160    3.8130  -59.8020 C   0  0  2  0  0  0  0  0  0  0  0  0
    7.8010    5.1340  -59.0460 C   0  0  0  0  0  0  0  0  0  0  0  0
    8.9130    5.3360  -58.0030 C   0  0  2  0  0  0  0  0  0  0  0  0
   10.2770    5.3580  -58.7130 C   0  0  0  0  0  0  0  0  0  0  0  0
    8.8830    4.1700  -56.9980 C   0  0  0  0  0  0  0  0  0  0  0  0
    7.9850    2.6460  -58.7990 C   0  0  0  0  0  0  0  0  0  0  0  0
    7.4870   -0.5070  -54.1880 C   0  0  0  0  0  0  0  0  0  0  0  0
    6.0340   -0.2760  -53.9770 C   0  0  0  0  0  0  0  0  0  0  0  0
    8.2960   -1.4170  -53.5230 C   0  0  0  0  0  0  0  0  0  0  0  0
    7.9560   -2.3900  -52.4920 C   0  0  0  0  0  0  0  0  0  0  0  0
    7.4480   -3.6430  -52.8490 C   0  0  0  0  0  0  0  0  0  0  0  0
    7.1180   -4.5750  -51.8630 C   0  0  0  0  0  0  0  0  0  0  0  0
    7.2870   -4.2550  -50.5160 C   0  0  0  0  0  0  0  0  0  0  0  0
    7.7830   -3.0040  -50.1530 C   0  0  0  0  0  0  0  0  0  0  0  0
    8.1150   -2.0710  -51.1390 C   0  0  0  0  0  0  0  0  0  0  0  0
   12.3426   -2.5237  -56.0661 H   0  0  0  0  0  0  0  0  0  0  0  0
   11.9054   -3.7836  -57.2695 H   0  0  0  0  0  0  0  0  0  0  0  0
   11.0476   -2.2053  -57.2695 H   0  0  0  0  0  0  0  0  0  0  0  0
    9.5253   -3.0220  -55.8495 H   0  0  0  0  0  0  0  0  0  0  0  0
   10.4167   -4.6165  -55.8617 H   0  0  0  0  0  0  0  0  0  0  0  0
   10.1827   -3.9803  -53.5968 H   0  0  0  0  0  0  0  0  0  0  0  0
   11.9178   -3.6527  -54.1202 H   0  0  0  0  0  0  0  0  0  0  0  0
   10.8507   -1.9564  -52.5716 H   0  0  0  0  0  0  0  0  0  0  0  0
   11.6125   -1.3682  -54.1288 H   0  0  0  0  0  0  0  0  0  0  0  0
   10.0220    1.4380  -56.4070 H   0  0  0  0  0  0  0  0  0  0  0  0
   11.2574    3.0069  -57.7177 H   0  0  0  0  0  0  0  0  0  0  0  0
   10.5941    1.9298  -59.0096 H   0  0  0  0  0  0  0  0  0  0  0  0
   11.4758    4.0584  -59.9684 H   0  0  0  0  0  0  0  0  0  0  0  0
    9.4060    4.6787  -61.2192 H   0  0  0  0  0  0  0  0  0  0  0  0
    9.5407    2.8939  -61.0318 H   0  0  0  0  0  0  0  0  0  0  0  0
    7.2213    3.6802  -60.5509 H   0  0  0  0  0  0  0  0  0  0  0  0
    7.8180    5.9692  -59.7617 H   0  0  0  0  0  0  0  0  0  0  0  0
    6.8290    5.0995  -58.5323 H   0  0  0  0  0  0  0  0  0  0  0  0
    8.7559    6.2871  -57.4731 H   0  0  0  0  0  0  0  0  0  0  0  0
   10.3014    6.1922  -59.4296 H   0  0  0  0  0  0  0  0  0  0  0  0
   11.0724    5.4868  -57.9641 H   0  0  0  0  0  0  0  0  0  0  0  0
    9.6862    4.3088  -56.2593 H   0  0  0  0  0  0  0  0  0  0  0  0
    7.9034    4.1584  -56.4978 H   0  0  0  0  0  0  0  0  0  0  0  0
    7.0018    2.6190  -58.3066 H   0  0  0  0  0  0  0  0  0  0  0  0
    8.1650    1.7070  -59.3429 H   0  0  0  0  0  0  0  0  0  0  0  0
    5.8210   -0.2421  -52.8984 H   0  0  0  0  0  0  0  0  0  0  0  0
    5.7439    0.6796  -54.4382 H   0  0  0  0  0  0  0  0  0  0  0  0
    5.4618   -1.0945  -54.4382 H   0  0  0  0  0  0  0  0  0  0  0  0
    7.3079   -3.8953  -53.9105 H   0  0  0  0  0  0  0  0  0  0  0  0
    6.7247   -5.5618  -52.1486 H   0  0  0  0  0  0  0  0  0  0  0  0
    7.0287   -4.9903  -49.7397 H   0  0  0  0  0  0  0  0  0  0  0  0
    7.9131   -2.7511  -49.0904 H   0  0  0  0  0  0  0  0  0  0  0  0
    8.5025   -1.0828  -50.8505 H   0  0  0  0  0  0  0  0  0  0  0  0
  1  2  1  0
  2  3  1  0
  3  4  1  0
  4  5  1  0
  5  6  1  0
  6  7  2  0
  7  8  1  0
  8  9  2  0
  8 10  1  0
 11 10  1  1
 11 12  1  0
 12 13  1  0
 13 14  1  0
 14 15  1  0
 15 16  1  0
 16 17  1  0
 17 18  1  0
 17 19  1  0
 15 20  1  0
  7 21  1  0
 21 22  1  0
 21 23  2  0
 23 24  1  0
 24 25  2  0
 25 26  1  0
 26 27  2  0
 27 28  1  0
 28 29  2  0
 23  5  1  0
 29 24  1  0
 19 11  1  0
 20 11  1  0
 18 13  1  0
  1 30  1  0
  1 31  1  0
  1 32  1  0
  2 33  1  0
  2 34  1  0
  3 35  1  0
  3 36  1  0
  4 37  1  0
  4 38  1  0
 10 39  1  0
 12 40  1  0
 12 41  1  0
 13 42  1  6
 14 43  1  0
 14 44  1  0
 15 45  1  6
 16 46  1  0
 16 47  1  0
 17 48  1  1
 18 49  1  0
 18 50  1  0
 19 51  1  0
 19 52  1  0
 20 53  1  0
 20 54  1  0
 22 55  1  0
 22 56  1  0
 22 57  1  0
 25 58  1  0
 26 59  1  0
 27 60  1  0
 28 61  1  0
 29 62  1  0
M  END
>  <meeko>  (16) 
{"is_sidechain": false}

$$$$

     RDKit          3D

 68 72  0  0  0  0  0  0  0  0999 V2000
    6.0240   -0.2380  -53.8720 C   0  0  0  0  0  0  0  0  0  0  0  0
    7.4650   -0.5340  -54.0880 C   0  0  0  0  0  0  0  0  0  0  0  0
    8.3380    0.1210  -55.0070 C   0  0  0  0  0  0  0  0  0  0  0  0
    8.0160    1.2320  -55.9270 C   0  0  0  0  0  0  0  0  0  0  0  0
    6.8680    1.5980  -56.1510 O   0  0  0  0  0  0  0  0  0  0  0  0
    9.1400    1.7950  -56.4950 N   0  0  0  0  0  0  0  0  0  0  0  0
    9.1530    2.8290  -57.5260 C   0  0  2  0  0  0  0  0  0  0  0  0
    8.1470    2.5120  -58.6600 C   0  0  0  0  0  0  0  0  0  0  0  0
    8.2160    3.5870  -59.7590 C   0  0  1  0  0  0  0  0  0  0  0  0
    7.8890    4.9600  -59.1470 C   0  0  0  0  0  0  0  0  0  0  0  0
    8.9030    5.3020  -58.0420 C   0  0  2  0  0  0  0  0  0  0  0  0
   10.3180    5.3260  -58.6420 C   0  0  0  0  0  0  0  0  0  0  0  0
   10.6540    3.9540  -59.2480 C   0  0  2  0  0  0  0  0  0  0  0  0
    9.6350    3.6200  -60.3490 C   0  0  0  0  0  0  0  0  0  0  0  0
   10.5750    2.8850  -58.1460 C   0  0  0  0  0  0  0  0  0  0  0  0
    8.8350    4.2280  -56.9420 C   0  0  0  0  0  0  0  0  0  0  0  0
    9.5810   -0.4030  -54.9560 N   0  0  0  0  0  0  0  0  0  0  0  0
    9.4940   -1.3700  -54.0220 N   0  0  0  0  0  0  0  0  0  0  0  0
   10.7020   -2.1020  -53.6800 C   0  0  0  0  0  0  0  0  0  0  0  0
   11.2550   -2.9510  -54.8320 C   0  0  0  0  0  0  0  0  0  0  0  0
   10.3150   -4.0910  -55.2440 C   0  0  0  0  0  0  0  0  0  0  0  0
   10.6910   -4.7420  -56.5780 C   0  0  0  0  0  0  0  0  0  0  0  0
   11.4410   -3.8060  -57.5150 C   0  0  0  0  0  0  0  0  0  0  0  0
   11.7930   -4.5450  -58.7530 N   0  0  0  0  0  0  0  0  0  0  0  0
    8.2460   -1.4970  -53.4640 C   0  0  0  0  0  0  0  0  0  0  0  0
    7.8990   -2.4520  -52.4170 C   0  0  0  0  0  0  0  0  0  0  0  0
    7.3850   -3.7090  -52.7570 C   0  0  0  0  0  0  0  0  0  0  0  0
    7.0520   -4.6290  -51.7600 C   0  0  0  0  0  0  0  0  0  0  0  0
    7.2370   -4.2980  -50.4190 C   0  0  0  0  0  0  0  0  0  0  0  0
    7.7600   -3.0520  -50.0720 C   0  0  0  0  0  0  0  0  0  0  0  0
    8.0940   -2.1330  -51.0680 C   0  0  0  0  0  0  0  0  0  0  0  0
    5.8162   -0.1953  -52.7926 H   0  0  0  0  0  0  0  0  0  0  0  0
    5.7756    0.7299  -54.3318 H   0  0  0  0  0  0  0  0  0  0  0  0
    5.4141   -1.0296  -54.3318 H   0  0  0  0  0  0  0  0  0  0  0  0
   10.0000    1.3070  -56.2590 H   0  0  0  0  0  0  0  0  0  0  0  0
    8.3907    1.5322  -59.0965 H   0  0  0  0  0  0  0  0  0  0  0  0
    7.1305    2.4981  -58.2397 H   0  0  0  0  0  0  0  0  0  0  0  0
    7.4908    3.3524  -60.5521 H   0  0  0  0  0  0  0  0  0  0  0  0
    7.9343    5.7285  -59.9327 H   0  0  0  0  0  0  0  0  0  0  0  0
    6.8794    4.9285  -58.7115 H   0  0  0  0  0  0  0  0  0  0  0  0
    8.6666    6.2870  -57.6131 H   0  0  0  0  0  0  0  0  0  0  0  0
   10.3676    6.0937  -59.4282 H   0  0  0  0  0  0  0  0  0  0  0  0
   11.0434    5.5582  -57.8484 H   0  0  0  0  0  0  0  0  0  0  0  0
   11.6669    3.9758  -59.6765 H   0  0  0  0  0  0  0  0  0  0  0  0
    9.6846    4.3868  -61.1361 H   0  0  0  0  0  0  0  0  0  0  0  0
    9.8726    2.6336  -60.7739 H   0  0  0  0  0  0  0  0  0  0  0  0
   10.8175    1.9033  -58.5791 H   0  0  0  0  0  0  0  0  0  0  0  0
   11.2927    3.1447  -57.3538 H   0  0  0  0  0  0  0  0  0  0  0  0
    9.5677    4.4673  -56.1573 H   0  0  0  0  0  0  0  0  0  0  0  0
    7.8185    4.2144  -56.5219 H   0  0  0  0  0  0  0  0  0  0  0  0
   11.4739   -1.3778  -53.3805 H   0  0  0  0  0  0  0  0  0  0  0  0
   10.4390   -2.7949  -52.8672 H   0  0  0  0  0  0  0  0  0  0  0  0
   11.4158   -2.2979  -55.7024 H   0  0  0  0  0  0  0  0  0  0  0  0
   12.1920   -3.4086  -54.4819 H   0  0  0  0  0  0  0  0  0  0  0  0
   10.3400   -4.8630  -54.4608 H   0  0  0  0  0  0  0  0  0  0  0  0
    9.3130   -3.6546  -55.3685 H   0  0  0  0  0  0  0  0  0  0  0  0
   11.3281   -5.6150  -56.3731 H   0  0  0  0  0  0  0  0  0  0  0  0
    9.7529   -5.0218  -57.0796 H   0  0  0  0  0  0  0  0  0  0  0  0
   10.8026   -2.9464  -57.7671 H   0  0  0  0  0  0  0  0  0  0  0  0
   12.3564   -3.4430  -57.0248 H   0  0  0  0  0  0  0  0  0  0  0  0
   11.6760   -5.5610  -58.6330 H   0  0  0  0  0  0  0  0  0  0  0  0
   11.2070   -4.2580  -59.5470 H   0  0  0  0  0  0  0  0  0  0  0  0
   12.7730   -4.3800  -59.0190 H   0  0  0  0  0  0  0  0  0  0  0  0
    7.2426   -3.9737  -53.8151 H   0  0  0  0  0  0  0  0  0  0  0  0
    6.6443   -5.6135  -52.0330 H   0  0  0  0  0  0  0  0  0  0  0  0
    6.9703   -5.0200  -49.6331 H   0  0  0  0  0  0  0  0  0  0  0  0
    7.9092   -2.7938  -49.0132 H   0  0  0  0  0  0  0  0  0  0  0  0
    8.5123   -1.1539  -50.7917 H   0  0  0  0  0  0  0  0  0  0  0  0
  1  2  1  0
  2  3  1  0
  3  4  1  0
  4  5  2  0
  4  6  1  0
  7  6  1  1
  7  8  1  0
  8  9  1  0
  9 10  1  0
 10 11  1  0
 11 12  1  0
 12 13  1  0
 13 14  1  0
 13 15  1  0
 11 16  1  0
  3 17  2  0
 17 18  1  0
 18 19  1  0
 19 20  1  0
 20 21  1  0
 21 22  1  0
 22 23  1  0
 23 24  1  0
 18 25  1  0
 25 26  1  0
 26 27  2  0
 27 28  1  0
 28 29  2  0
 29 30  1  0
 30 31  2  0
 25  2  2  0
 31 26  1  0
 15  7  1  0
 16  7  1  0
 14  9  1  0
  1 32  1  0
  1 33  1  0
  1 34  1  0
  6 35  1  0
  8 36  1  0
  8 37  1  0
  9 38  1  6
 10 39  1  0
 10 40  1  0
 11 41  1  1
 12 42  1  0
 12 43  1  0
 13 44  1  6
 14 45  1  0
 14 46  1  0
 15 47  1  0
 15 48  1  0
 16 49  1  0
 16 50  1  0
 19 51  1  0
 19 52  1  0
 20 53  1  0
 20 54  1  0
 21 55  1  0
 21 56  1  0
 22 57  1  0
 22 58  1  0
 23 59  1  0
 23 60  1  0
 24 61  1  0
 24 62  1  0
 24 63  1  0
 27 64  1  0
 28 65  1  0
 29 66  1  0
 30 67  1  0
 31 68  1  0
M  CHG  1  24   1
M  END
>  <meeko>  (17) 
{"is_sidechain": false}

$$$$

     RDKit          3D

 60 65  0  0  0  0  0  0  0  0999 V2000
    6.0880   -0.1010  -53.7880 C   0  0  0  0  0  0  0  0  0  0  0  0
    7.5000   -0.4480  -54.0930 C   0  0  0  0  0  0  0  0  0  0  0  0
    8.3380    0.1710  -55.0690 C   0  0  0  0  0  0  0  0  0  0  0  0
    8.0000    1.2830  -55.9810 C   0  0  0  0  0  0  0  0  0  0  0  0
    6.8650    1.7300  -56.1020 O   0  0  0  0  0  0  0  0  0  0  0  0
    9.0990    1.7530  -56.6680 N   0  0  0  0  0  0  0  0  0  0  0  0
    9.1140    2.8490  -57.6300 C   0  0  2  0  0  0  0  0  0  0  0  0
   10.4840    2.8450  -58.3590 C   0  0  0  0  0  0  0  0  0  0  0  0
   10.5620    3.9820  -59.3910 C   0  0  1  0  0  0  0  0  0  0  0  0
    9.4420    3.8010  -60.4270 C   0  0  0  0  0  0  0  0  0  0  0  0
    8.0730    3.8280  -59.7290 C   0  0  2  0  0  0  0  0  0  0  0  0
    7.8980    5.1730  -59.0040 C   0  0  0  0  0  0  0  0  0  0  0  0
    9.0160    5.3630  -57.9640 C   0  0  2  0  0  0  0  0  0  0  0  0
   10.3790    5.3280  -58.6730 C   0  0  0  0  0  0  0  0  0  0  0  0
    8.9480    4.2220  -56.9340 C   0  0  0  0  0  0  0  0  0  0  0  0
    8.0050    2.6860  -58.6980 C   0  0  0  0  0  0  0  0  0  0  0  0
    9.5640   -0.3920  -55.0890 N   0  0  0  0  0  0  0  0  0  0  0  0
    9.5090   -1.3410  -54.1310 N   0  0  0  0  0  0  0  0  0  0  0  0
   10.7010   -2.1460  -53.8710 C   0  0  0  0  0  0  0  0  0  0  0  0
   11.1440   -2.9070  -55.0860 C   0  0  0  0  0  0  0  0  0  0  0  0
   11.5620   -4.3520  -54.9630 C   0  0  0  0  0  0  0  0  0  0  0  0
   10.2840   -3.9980  -55.6720 C   0  0  0  0  0  0  0  0  0  0  0  0
    8.2860   -1.4270  -53.5080 C   0  0  0  0  0  0  0  0  0  0  0  0
    7.9710   -2.3720  -52.4440 C   0  0  0  0  0  0  0  0  0  0  0  0
    7.4920   -3.6490  -52.7570 C   0  0  0  0  0  0  0  0  0  0  0  0
    7.1870   -4.5530  -51.7380 C   0  0  0  0  0  0  0  0  0  0  0  0
    7.3670   -4.1880  -50.4050 C   0  0  0  0  0  0  0  0  0  0  0  0
    7.8540   -2.9210  -50.0870 C   0  0  0  0  0  0  0  0  0  0  0  0
    8.1580   -2.0150  -51.1040 C   0  0  0  0  0  0  0  0  0  0  0  0
    5.9463   -0.0662  -52.6977 H   0  0  0  0  0  0  0  0  0  0  0  0
    5.8505    0.8822  -54.2202 H   0  0  0  0  0  0  0  0  0  0  0  0
    5.4218   -0.8621  -54.2202 H   0  0  0  0  0  0  0  0  0  0  0  0
    9.9620    1.2680  -56.4320 H   0  0  0  0  0  0  0  0  0  0  0  0
   11.2863    2.9761  -57.6179 H   0  0  0  0  0  0  0  0  0  0  0  0
   10.5984    1.8857  -58.8850 H   0  0  0  0  0  0  0  0  0  0  0  0
   11.5392    3.9617  -59.8957 H   0  0  0  0  0  0  0  0  0  0  0  0
    9.4917    4.6163  -61.1638 H   0  0  0  0  0  0  0  0  0  0  0  0
    9.5707    2.8331  -60.9335 H   0  0  0  0  0  0  0  0  0  0  0  0
    7.2756    3.7024  -60.4762 H   0  0  0  0  0  0  0  0  0  0  0  0
    7.9418    5.9906  -59.7386 H   0  0  0  0  0  0  0  0  0  0  0  0
    6.9247    5.1816  -58.4916 H   0  0  0  0  0  0  0  0  0  0  0  0
    8.8895    6.3297  -57.4546 H   0  0  0  0  0  0  0  0  0  0  0  0
   10.4278    6.1436  -59.4095 H   0  0  0  0  0  0  0  0  0  0  0  0
   11.1779    5.4515  -57.9270 H   0  0  0  0  0  0  0  0  0  0  0  0
    9.7530    4.3528  -56.1959 H   0  0  0  0  0  0  0  0  0  0  0  0
    7.9673    4.2512  -56.4366 H   0  0  0  0  0  0  0  0  0  0  0  0
    7.0223    2.7029  -58.2041 H   0  0  0  0  0  0  0  0  0  0  0  0
    8.1526    1.7286  -59.2192 H   0  0  0  0  0  0  0  0  0  0  0  0
   11.5165   -1.4798  -53.5528 H   0  0  0  0  0  0  0  0  0  0  0  0
   10.4526   -2.8756  -53.0862 H   0  0  0  0  0  0  0  0  0  0  0  0
   11.6045   -1.9887  -55.4792 H   0  0  0  0  0  0  0  0  0  0  0  0
   12.4233   -4.7259  -55.5360 H   0  0  0  0  0  0  0  0  0  0  0  0
   11.8295   -5.0156  -54.1275 H   0  0  0  0  0  0  0  0  0  0  0  0
   10.2108   -4.1136  -56.7635 H   0  0  0  0  0  0  0  0  0  0  0  0
    9.2302   -4.2962  -55.5692 H   0  0  0  0  0  0  0  0  0  0  0  0
    7.3555   -3.9412  -53.8087 H   0  0  0  0  0  0  0  0  0  0  0  0
    6.8045   -5.5538  -51.9872 H   0  0  0  0  0  0  0  0  0  0  0  0
    7.1245   -4.9005  -49.6028 H   0  0  0  0  0  0  0  0  0  0  0  0
    7.9986   -2.6355  -49.0346 H   0  0  0  0  0  0  0  0  0  0  0  0
    8.5458   -1.0171  -50.8514 H   0  0  0  0  0  0  0  0  0  0  0  0
  1  2  1  0
  2  3  1  0
  3  4  1  0
  4  5  2  0
  4  6  1  0
  7  6  1  1
  7  8  1  0
  8  9  1  0
  9 10  1  0
 10 11  1  0
 11 12  1  0
 12 13  1  0
 13 14  1  0
 13 15  1  0
 11 16  1  0
  3 17  2  0
 17 18  1  0
 18 19  1  0
 19 20  1  0
 20 21  1  0
 21 22  1  0
 18 23  1  0
 23 24  1  0
 24 25  2  0
 25 26  1  0
 26 27  2  0
 27 28  1  0
 28 29  2  0
 23  2  2  0
 29 24  1  0
 15  7  1  0
 22 20  1  0
 16  7  1  0
 14  9  1  0
  1 30  1  0
  1 31  1  0
  1 32  1  0
  6 33  1  0
  8 34  1  0
  8 35  1  0
  9 36  1  6
 10 37  1  0
 10 38  1  0
 11 39  1  6
 12 40  1  0
 12 41  1  0
 13 42  1  1
 14 43  1  0
 14 44  1  0
 15 45  1  0
 15 46  1  0
 16 47  1  0
 16 48  1  0
 19 49  1  0
 19 50  1  0
 20 51  1  0
 21 52  1  0
 21 53  1  0
 22 54  1  0
 22 55  1  0
 25 56  1  0
 26 57  1  0
 27 58  1  0
 28 59  1  0
 29 60  1  0
M  END
>  <meeko>  (18) 
{"is_sidechain": false}

$$$$

     RDKit          3D

 57 61  0  0  0  0  0  0  0  0999 V2000
    5.5330   -4.3120  -50.4860 C   0  0  0  0  0  0  0  0  0  0  0  0
    6.9330   -4.5540  -50.5340 O   0  0  0  0  0  0  0  0  0  0  0  0
    7.6620   -3.7980  -51.4080 C   0  0  0  0  0  0  0  0  0  0  0  0
    7.1570   -3.7640  -52.7110 C   0  0  0  0  0  0  0  0  0  0  0  0
    7.8040   -3.0300  -53.7080 C   0  0  0  0  0  0  0  0  0  0  0  0
    8.9710   -2.3220  -53.4110 C   0  0  0  0  0  0  0  0  0  0  0  0
    9.6590   -1.5560  -54.4450 C   0  0  0  0  0  0  0  0  0  0  0  0
    9.4410   -0.2670  -54.9040 C   0  0  0  0  0  0  0  0  0  0  0  0
    8.4070    0.7050  -54.4620 C   0  0  0  0  0  0  0  0  0  0  0  0
   10.4260   -0.0590  -55.9170 C   0  0  0  0  0  0  0  0  0  0  0  0
   10.6450    1.1520  -56.7350 C   0  0  0  0  0  0  0  0  0  0  0  0
   11.7170    1.7440  -56.7800 O   0  0  0  0  0  0  0  0  0  0  0  0
    9.5170    1.5280  -57.4330 N   0  0  0  0  0  0  0  0  0  0  0  0
    9.3970    2.6720  -58.3310 C   0  0  2  0  0  0  0  0  0  0  0  0
    7.9250    2.7630  -58.8170 C   0  0  0  0  0  0  0  0  0  0  0  0
    7.7340    3.9530  -59.7700 C   0  0  1  0  0  0  0  0  0  0  0  0
    8.1020    5.2520  -59.0350 C   0  0  0  0  0  0  0  0  0  0  0  0
    9.5640    5.1930  -58.5670 C   0  0  2  0  0  0  0  0  0  0  0  0
   10.4810    5.0100  -59.7880 C   0  0  0  0  0  0  0  0  0  0  0  0
   10.1210    3.7110  -60.5300 C   0  0  2  0  0  0  0  0  0  0  0  0
    8.6550    3.7790  -60.9870 C   0  0  0  0  0  0  0  0  0  0  0  0
   10.3030    2.5170  -59.5770 C   0  0  0  0  0  0  0  0  0  0  0  0
    9.7450    3.9990  -57.6130 C   0  0  0  0  0  0  0  0  0  0  0  0
   11.2010   -1.1520  -56.0750 N   0  0  0  0  0  0  0  0  0  0  0  0
   10.7250   -2.0280  -55.1710 N   0  0  0  0  0  0  0  0  0  0  0  0
   11.3620   -3.3200  -55.0470 C   0  0  0  0  0  0  0  0  0  0  0  0
    9.4740   -2.3500  -52.1060 C   0  0  0  0  0  0  0  0  0  0  0  0
    8.8240   -3.0860  -51.1080 C   0  0  0  0  0  0  0  0  0  0  0  0
    5.2064   -4.2555  -49.4371 H   0  0  0  0  0  0  0  0  0  0  0  0
    5.3076   -3.3616  -50.9919 H   0  0  0  0  0  0  0  0  0  0  0  0
    5.0017   -5.1316  -50.9919 H   0  0  0  0  0  0  0  0  0  0  0  0
    6.2402   -4.3212  -52.9539 H   0  0  0  0  0  0  0  0  0  0  0  0
    7.3939   -3.0095  -54.7285 H   0  0  0  0  0  0  0  0  0  0  0  0
    8.3766    0.7335  -53.3628 H   0  0  0  0  0  0  0  0  0  0  0  0
    8.6547    1.7048  -54.8481 H   0  0  0  0  0  0  0  0  0  0  0  0
    7.4244    0.3960  -54.8481 H   0  0  0  0  0  0  0  0  0  0  0  0
    8.7200    0.9150  -57.2770 H   0  0  0  0  0  0  0  0  0  0  0  0
    7.6618    1.8340  -59.3439 H   0  0  0  0  0  0  0  0  0  0  0  0
    7.2744    2.9063  -57.9416 H   0  0  0  0  0  0  0  0  0  0  0  0
    6.6866    3.9995  -60.1029 H   0  0  0  0  0  0  0  0  0  0  0  0
    7.9715    6.1058  -59.7162 H   0  0  0  0  0  0  0  0  0  0  0  0
    7.4465    5.3704  -58.1596 H   0  0  0  0  0  0  0  0  0  0  0  0
    9.8231    6.1262  -58.0454 H   0  0  0  0  0  0  0  0  0  0  0  0
   10.3551    5.8647  -60.4689 H   0  0  0  0  0  0  0  0  0  0  0  0
   11.5256    4.9527  -59.4482 H   0  0  0  0  0  0  0  0  0  0  0  0
   10.7757    3.5887  -61.4055 H   0  0  0  0  0  0  0  0  0  0  0  0
    8.5247    4.6332  -61.6678 H   0  0  0  0  0  0  0  0  0  0  0  0
    8.3947    2.8452  -61.5068 H   0  0  0  0  0  0  0  0  0  0  0  0
   10.0366    1.5893  -60.1046 H   0  0  0  0  0  0  0  0  0  0  0  0
   11.3527    2.4806  -59.2502 H   0  0  0  0  0  0  0  0  0  0  0  0
   10.7905    3.9629  -57.2729 H   0  0  0  0  0  0  0  0  0  0  0  0
    9.0702    4.1255  -56.7536 H   0  0  0  0  0  0  0  0  0  0  0  0
   11.4842   -3.5679  -53.9823 H   0  0  0  0  0  0  0  0  0  0  0  0
   10.7377   -4.0847  -55.5322 H   0  0  0  0  0  0  0  0  0  0  0  0
   12.3488   -3.2904  -55.5322 H   0  0  0  0  0  0  0  0  0  0  0  0
   10.3881   -1.7889  -51.8618 H   0  0  0  0  0  0  0  0  0  0  0  0
    9.2300   -3.1030  -50.0858 H   0  0  0  0  0  0  0  0  0  0  0  0
  1  2  1  0
  2  3  1  0
  3  4  1  0
  4  5  2  0
  5  6  1  0
  6  7  1  0
  7  8  2  0
  8  9  1  0
  8 10  1  0
 10 11  1  0
 11 12  2  0
 11 13  1  0
 14 13  1  1
 14 15  1  0
 15 16  1  0
 16 17  1  0
 17 18  1  0
 18 19  1  0
 19 20  1  0
 20 21  1  0
 20 22  1  0
 18 23  1  0
 10 24  2  0
 24 25  1  0
 25 26  1  0
  6 27  2  0
 27 28  1  0
 28  3  2  0
 25  7  1  0
 22 14  1  0
 23 14  1  0
 21 16  1  0
  1 29  1  0
  1 30  1  0
  1 31  1  0
  4 32  1  0
  5 33  1  0
  9 34  1  0
  9 35  1  0
  9 36  1  0
 13 37  1  0
 15 38  1  0
 15 39  1  0
 16 40  1  6
 17 41  1  0
 17 42  1  0
 18 43  1  1
 19 44  1  0
 19 45  1  0
 20 46  1  6
 21 47  1  0
 21 48  1  0
 22 49  1  0
 22 50  1  0
 23 51  1  0
 23 52  1  0
 26 53  1  0
 26 54  1  0
 26 55  1  0
 27 56  1  0
 28 57  1  0
M  END
>  <meeko>  (19) 
{"is_sidechain": false}

$$$$

     RDKit          3D

 57 61  0  0  0  0  0  0  0  0999 V2000
    5.9160   -0.2900  -54.1390 C   0  0  0  0  0  0  0  0  0  0  0  0
    7.3820   -0.4940  -54.2810 C   0  0  0  0  0  0  0  0  0  0  0  0
    8.2880    0.2230  -55.1300 C   0  0  0  0  0  0  0  0  0  0  0  0
    7.9880    1.3020  -56.0940 C   0  0  0  0  0  0  0  0  0  0  0  0
    6.8650    1.7800  -56.2220 O   0  0  0  0  0  0  0  0  0  0  0  0
    9.0920    1.7380  -56.8080 N   0  0  0  0  0  0  0  0  0  0  0  0
    9.0870    2.8640  -57.7440 C   0  0  2  0  0  0  0  0  0  0  0  0
    7.9510    2.7430  -58.7930 C   0  0  0  0  0  0  0  0  0  0  0  0
    8.0080    3.9130  -59.7910 C   0  0  1  0  0  0  0  0  0  0  0  0
    7.8690    5.2400  -59.0240 C   0  0  0  0  0  0  0  0  0  0  0  0
    9.0130    5.3870  -58.0070 C   0  0  2  0  0  0  0  0  0  0  0  0
   10.3580    5.3550  -58.7500 C   0  0  0  0  0  0  0  0  0  0  0  0
   10.5070    4.0280  -59.5110 C   0  0  2  0  0  0  0  0  0  0  0  0
    9.3590    3.8900  -60.5240 C   0  0  0  0  0  0  0  0  0  0  0  0
   10.4370    2.8620  -58.5110 C   0  0  0  0  0  0  0  0  0  0  0  0
    8.9560    4.2200  -57.0070 C   0  0  0  0  0  0  0  0  0  0  0  0
    9.5480   -0.2080  -54.9510 N   0  0  0  0  0  0  0  0  0  0  0  0
    9.4540   -1.1830  -54.0270 N   0  0  0  0  0  0  0  0  0  0  0  0
   10.6800   -1.8430  -53.6030 C   0  0  0  0  0  0  0  0  0  0  0  0
   10.9650   -3.0830  -54.4440 C   0  0  0  0  0  0  0  0  0  0  0  0
   10.7640   -2.8300  -55.8330 O   0  0  0  0  0  0  0  0  0  0  0  0
    8.1720   -1.4050  -53.5930 C   0  0  0  0  0  0  0  0  0  0  0  0
    7.8020   -2.3920  -52.5890 C   0  0  0  0  0  0  0  0  0  0  0  0
    7.3990   -3.6750  -52.9780 C   0  0  0  0  0  0  0  0  0  0  0  0
    7.0440   -4.6200  -52.0140 C   0  0  0  0  0  0  0  0  0  0  0  0
    7.0940   -4.2770  -50.6670 C   0  0  0  0  0  0  0  0  0  0  0  0
    6.7530   -5.1840  -49.7430 F   0  0  0  0  0  0  0  0  0  0  0  0
    7.4880   -3.0060  -50.2650 C   0  0  0  0  0  0  0  0  0  0  0  0
    7.8410   -2.0590  -51.2270 C   0  0  0  0  0  0  0  0  0  0  0  0
    5.6526   -0.2533  -53.0716 H   0  0  0  0  0  0  0  0  0  0  0  0
    5.6292    0.6567  -54.6202 H   0  0  0  0  0  0  0  0  0  0  0  0
    5.3817   -1.1224  -54.6202 H   0  0  0  0  0  0  0  0  0  0  0  0
    9.9880    1.4610  -56.4300 H   0  0  0  0  0  0  0  0  0  0  0  0
    8.0637    1.7954  -59.3401 H   0  0  0  0  0  0  0  0  0  0  0  0
    6.9828    2.7687  -58.2716 H   0  0  0  0  0  0  0  0  0  0  0  0
    7.1900    3.8183  -60.5203 H   0  0  0  0  0  0  0  0  0  0  0  0
    7.9062    6.0773  -59.7365 H   0  0  0  0  0  0  0  0  0  0  0  0
    6.9086    5.2461  -58.4877 H   0  0  0  0  0  0  0  0  0  0  0  0
    8.9105    6.3405  -57.4682 H   0  0  0  0  0  0  0  0  0  0  0  0
   10.3998    6.1909  -59.4638 H   0  0  0  0  0  0  0  0  0  0  0  0
   11.1759    5.4463  -58.0201 H   0  0  0  0  0  0  0  0  0  0  0  0
   11.4719    4.0114  -60.0389 H   0  0  0  0  0  0  0  0  0  0  0  0
    9.4006    4.7255  -61.2383 H   0  0  0  0  0  0  0  0  0  0  0  0
    9.4631    2.9357  -61.0611 H   0  0  0  0  0  0  0  0  0  0  0  0
   10.5381    1.9130  -59.0580 H   0  0  0  0  0  0  0  0  0  0  0  0
   11.2531    2.9770  -57.7824 H   0  0  0  0  0  0  0  0  0  0  0  0
    9.7808    4.3209  -56.2862 H   0  0  0  0  0  0  0  0  0  0  0  0
    7.9885    4.2477  -56.4843 H   0  0  0  0  0  0  0  0  0  0  0  0
   11.5193   -1.1396  -53.7069 H   0  0  0  0  0  0  0  0  0  0  0  0
   10.5598   -2.1559  -52.5553 H   0  0  0  0  0  0  0  0  0  0  0  0
   12.0088   -3.3911  -54.2842 H   0  0  0  0  0  0  0  0  0  0  0  0
   10.2703   -3.8775  -54.1339 H   0  0  0  0  0  0  0  0  0  0  0  0
   11.6590   -2.7920  -56.2420 H   0  0  0  0  0  0  0  0  0  0  0  0
    7.3620   -3.9389  -54.0452 H   0  0  0  0  0  0  0  0  0  0  0  0
    6.7270   -5.6287  -52.3174 H   0  0  0  0  0  0  0  0  0  0  0  0
    7.5213   -2.7486  -49.1961 H   0  0  0  0  0  0  0  0  0  0  0  0
    8.1503   -1.0500  -50.9169 H   0  0  0  0  0  0  0  0  0  0  0  0
  1  2  1  0
  2  3  1  0
  3  4  1  0
  4  5  2  0
  4  6  1  0
  7  6  1  1
  7  8  1  0
  8  9  1  0
  9 10  1  0
 10 11  1  0
 11 12  1  0
 12 13  1  0
 13 14  1  0
 13 15  1  0
 11 16  1  0
  3 17  2  0
 17 18  1  0
 18 19  1  0
 19 20  1  0
 20 21  1  0
 18 22  1  0
 22 23  1  0
 23 24  1  0
 24 25  2  0
 25 26  1  0
 26 27  1  0
 26 28  2  0
 28 29  1  0
 22  2  2  0
 29 23  2  0
 15  7  1  0
 16  7  1  0
 14  9  1  0
  1 30  1  0
  1 31  1  0
  1 32  1  0
  6 33  1  0
  8 34  1  0
  8 35  1  0
  9 36  1  6
 10 37  1  0
 10 38  1  0
 11 39  1  1
 12 40  1  0
 12 41  1  0
 13 42  1  6
 14 43  1  0
 14 44  1  0
 15 45  1  0
 15 46  1  0
 16 47  1  0
 16 48  1  0
 19 49  1  0
 19 50  1  0
 20 51  1  0
 20 52  1  0
 21 53  1  0
 24 54  1  0
 25 55  1  0
 28 56  1  0
 29 57  1  0
M  END
>  <meeko>  (20) 
{"is_sidechain": false}

$$$$

     RDKit          3D

 67 71  0  0  0  0  0  0  0  0999 V2000
    6.1770   -0.3810  -53.9390 C   0  0  0  0  0  0  0  0  0  0  0  0
    7.6440   -0.5950  -54.1190 C   0  0  0  0  0  0  0  0  0  0  0  0
    8.5150    0.1280  -55.0080 C   0  0  0  0  0  0  0  0  0  0  0  0
    8.2500    1.2450  -55.9180 C   0  0  0  0  0  0  0  0  0  0  0  0
    7.1110    1.6120  -56.1800 O   0  0  0  0  0  0  0  0  0  0  0  0
    9.3830    1.7880  -56.4840 N   0  0  0  0  0  0  0  0  0  0  0  0
    9.3870    2.8360  -57.5060 C   0  0  2  0  0  0  0  0  0  0  0  0
    9.0800    4.2330  -56.9090 C   0  0  0  0  0  0  0  0  0  0  0  0
    9.1460    5.3170  -57.9990 C   0  0  1  0  0  0  0  0  0  0  0  0
   10.5570    5.3410  -58.6080 C   0  0  0  0  0  0  0  0  0  0  0  0
   10.8830    3.9730  -59.2280 C   0  0  2  0  0  0  0  0  0  0  0  0
    9.8560    3.6530  -60.3250 C   0  0  0  0  0  0  0  0  0  0  0  0
    8.4400    3.6190  -59.7270 C   0  0  2  0  0  0  0  0  0  0  0  0
    8.1230    4.9880  -59.1000 C   0  0  0  0  0  0  0  0  0  0  0  0
    8.3740    2.5340  -58.6370 C   0  0  0  0  0  0  0  0  0  0  0  0
   10.8060    2.8940  -58.1360 C   0  0  0  0  0  0  0  0  0  0  0  0
    9.7600   -0.4580  -54.8820 C   0  0  0  0  0  0  0  0  0  0  0  0
    9.6980   -1.4620  -53.9530 N   0  0  0  0  0  0  0  0  0  0  0  0
   10.8600   -2.2550  -53.5690 C   0  0  0  0  0  0  0  0  0  0  0  0
   11.3850   -3.1650  -54.6840 C   0  0  0  0  0  0  0  0  0  0  0  0
   10.3340   -4.0830  -55.3130 C   0  0  0  0  0  0  0  0  0  0  0  0
   10.7340   -4.7220  -56.6500 C   0  0  0  0  0  0  0  0  0  0  0  0
   11.5120   -3.8060  -57.5890 C   0  0  0  0  0  0  0  0  0  0  0  0
   11.8080   -4.4590  -58.8140 O   0  0  0  0  0  0  0  0  0  0  0  0
    8.4160   -1.5470  -53.4510 C   0  0  0  0  0  0  0  0  0  0  0  0
    7.9970   -2.5000  -52.4240 C   0  0  0  0  0  0  0  0  0  0  0  0
    8.1340   -2.1850  -51.0680 C   0  0  0  0  0  0  0  0  0  0  0  0
    7.7250   -3.0920  -50.0880 C   0  0  0  0  0  0  0  0  0  0  0  0
    7.1700   -4.3160  -50.4600 C   0  0  0  0  0  0  0  0  0  0  0  0
    7.0210   -4.6330  -51.8100 C   0  0  0  0  0  0  0  0  0  0  0  0
    7.4300   -3.7270  -52.7890 C   0  0  0  0  0  0  0  0  0  0  0  0
    5.9405   -0.3465  -52.8653 H   0  0  0  0  0  0  0  0  0  0  0  0
    5.8846    0.5693  -54.4096 H   0  0  0  0  0  0  0  0  0  0  0  0
    5.6253   -1.2082  -54.4096 H   0  0  0  0  0  0  0  0  0  0  0  0
   10.2170    1.2240  -56.4000 H   0  0  0  0  0  0  0  0  0  0  0  0
    8.0718    4.2241  -56.4693 H   0  0  0  0  0  0  0  0  0  0  0  0
    9.8308    4.4607  -56.1380 H   0  0  0  0  0  0  0  0  0  0  0  0
    8.9173    6.2993  -57.5600 H   0  0  0  0  0  0  0  0  0  0  0  0
   10.6045    6.1154  -59.3878 H   0  0  0  0  0  0  0  0  0  0  0  0
   11.2887    5.5637  -57.8174 H   0  0  0  0  0  0  0  0  0  0  0  0
   11.8935    3.9949  -59.6621 H   0  0  0  0  0  0  0  0  0  0  0  0
    9.9033    4.4271  -61.1051 H   0  0  0  0  0  0  0  0  0  0  0  0
   10.0875    2.6696  -60.7602 H   0  0  0  0  0  0  0  0  0  0  0  0
    7.7089    3.3939  -60.5174 H   0  0  0  0  0  0  0  0  0  0  0  0
    8.1656    5.7633  -59.8792 H   0  0  0  0  0  0  0  0  0  0  0  0
    7.1165    4.9559  -58.6572 H   0  0  0  0  0  0  0  0  0  0  0  0
    7.3585    2.5067  -58.2151 H   0  0  0  0  0  0  0  0  0  0  0  0
    8.6248    1.5625  -59.0878 H   0  0  0  0  0  0  0  0  0  0  0  0
   11.0421    1.9158  -58.5803 H   0  0  0  0  0  0  0  0  0  0  0  0
   11.5291    3.1444  -57.3458 H   0  0  0  0  0  0  0  0  0  0  0  0
   10.6606   -0.1638  -55.4409 H   0  0  0  0  0  0  0  0  0  0  0  0
   11.6666   -1.5676  -53.2741 H   0  0  0  0  0  0  0  0  0  0  0  0
   10.5418   -2.9102  -52.7447 H   0  0  0  0  0  0  0  0  0  0  0  0
   11.8015   -2.5277  -55.4779 H   0  0  0  0  0  0  0  0  0  0  0  0
   12.1327   -3.8242  -54.2188 H   0  0  0  0  0  0  0  0  0  0  0  0
   10.1205   -4.8930  -54.6001 H   0  0  0  0  0  0  0  0  0  0  0  0
    9.4647   -3.4448  -55.5300 H   0  0  0  0  0  0  0  0  0  0  0  0
   11.3581   -5.6021  -56.4356 H   0  0  0  0  0  0  0  0  0  0  0  0
    9.7957   -4.9711  -57.1673 H   0  0  0  0  0  0  0  0  0  0  0  0
   10.9093   -2.9095  -57.7967 H   0  0  0  0  0  0  0  0  0  0  0  0
   12.4597   -3.5319  -57.1024 H   0  0  0  0  0  0  0  0  0  0  0  0
   12.4790   -5.1380  -58.6300 H   0  0  0  0  0  0  0  0  0  0  0  0
    8.5662   -1.2177  -50.7720 H   0  0  0  0  0  0  0  0  0  0  0  0
    7.8406   -2.8410  -49.0233 H   0  0  0  0  0  0  0  0  0  0  0  0
    6.8496   -5.0317  -49.6885 H   0  0  0  0  0  0  0  0  0  0  0  0
    6.5809   -5.5976  -52.1030 H   0  0  0  0  0  0  0  0  0  0  0  0
    7.3064   -3.9779  -53.8528 H   0  0  0  0  0  0  0  0  0  0  0  0
  1  2  1  0
  2  3  1  0
  3  4  1  0
  4  5  2  0
  4  6  1  0
  7  6  1  1
  7  8  1  0
  8  9  1  0
  9 10  1  0
 10 11  1  0
 11 12  1  0
 12 13  1  0
 13 14  1  0
 13 15  1  0
 11 16  1  0
  3 17  2  0
 17 18  1  0
 18 19  1  0
 19 20  1  0
 20 21  1  0
 21 22  1  0
 22 23  1  0
 23 24  1  0
 18 25  1  0
 25 26  1  0
 26 27  2  0
 27 28  1  0
 28 29  2  0
 29 30  1  0
 30 31  2  0
 25  2  2  0
 31 26  1  0
 15  7  1  0
 16  7  1  0
 14  9  1  0
  1 32  1  0
  1 33  1  0
  1 34  1  0
  6 35  1  0
  8 36  1  0
  8 37  1  0
  9 38  1  1
 10 39  1  0
 10 40  1  0
 11 41  1  6
 12 42  1  0
 12 43  1  0
 13 44  1  6
 14 45  1  0
 14 46  1  0
 15 47  1  0
 15 48  1  0
 16 49  1  0
 16 50  1  0
 17 51  1  0
 19 52  1  0
 19 53  1  0
 20 54  1  0
 20 55  1  0
 21 56  1  0
 21 57  1  0
 22 58  1  0
 22 59  1  0
 23 60  1  0
 23 61  1  0
 24 62  1  0
 27 63  1  0
 28 64  1  0
 29 65  1  0
 30 66  1  0
 31 67  1  0
M  END
>  <meeko>  (21) 
{"is_sidechain": false}

$$$$

     RDKit          3D

 53 57  0  0  0  0  0  0  0  0999 V2000
    8.0120    0.7280  -54.4340 C   0  0  0  0  0  0  0  0  0  0  0  0
    9.1080   -0.2050  -54.8040 C   0  0  0  0  0  0  0  0  0  0  0  0
   10.1660    0.0210  -55.7470 C   0  0  0  0  0  0  0  0  0  0  0  0
   10.3960    1.2050  -56.5990 C   0  0  0  0  0  0  0  0  0  0  0  0
   11.5160    1.6350  -56.8550 O   0  0  0  0  0  0  0  0  0  0  0  0
    9.2300    1.7640  -57.0980 N   0  0  0  0  0  0  0  0  0  0  0  0
    9.1800    2.8730  -58.0530 C   0  0  2  0  0  0  0  0  0  0  0  0
    9.9320    4.1250  -57.5300 C   0  0  0  0  0  0  0  0  0  0  0  0
    9.8130    5.2860  -58.5330 C   0  0  1  0  0  0  0  0  0  0  0  0
   10.4060    4.8500  -59.8840 C   0  0  0  0  0  0  0  0  0  0  0  0
    9.6410    3.6330  -60.4300 C   0  0  2  0  0  0  0  0  0  0  0  0
    8.1590    4.0010  -60.6050 C   0  0  0  0  0  0  0  0  0  0  0  0
    7.5620    4.4290  -59.2560 C   0  0  2  0  0  0  0  0  0  0  0  0
    8.3310    5.6460  -58.7200 C   0  0  0  0  0  0  0  0  0  0  0  0
    7.6930    3.2700  -58.2560 C   0  0  0  0  0  0  0  0  0  0  0  0
    9.7610    2.4680  -59.4300 C   0  0  0  0  0  0  0  0  0  0  0  0
   10.9910   -1.0380  -55.7980 N   0  0  0  0  0  0  0  0  0  0  0  0
   10.4890   -1.9090  -54.9110 N   0  0  0  0  0  0  0  0  0  0  0  0
   11.1780   -3.1620  -54.6940 C   0  0  0  0  0  0  0  0  0  0  0  0
    9.3380   -1.4780  -54.3010 C   0  0  0  0  0  0  0  0  0  0  0  0
    8.5970   -2.2530  -53.3150 C   0  0  0  0  0  0  0  0  0  0  0  0
    9.0120   -2.2760  -51.9780 C   0  0  0  0  0  0  0  0  0  0  0  0
    8.2990   -3.0190  -51.0330 C   0  0  0  0  0  0  0  0  0  0  0  0
    7.1730   -3.7400  -51.4250 C   0  0  0  0  0  0  0  0  0  0  0  0
    6.2970   -4.6540  -50.2620 Cl  0  0  0  0  0  0  0  0  0  0  0  0
    6.7530   -3.7260  -52.7550 C   0  0  0  0  0  0  0  0  0  0  0  0
    7.4660   -2.9830  -53.6990 C   0  0  0  0  0  0  0  0  0  0  0  0
    7.9382    0.7908  -53.3383 H   0  0  0  0  0  0  0  0  0  0  0  0
    8.2255    1.7258  -54.8449 H   0  0  0  0  0  0  0  0  0  0  0  0
    7.0611    0.3580  -54.8449 H   0  0  0  0  0  0  0  0  0  0  0  0
    8.4110    1.1740  -57.0340 H   0  0  0  0  0  0  0  0  0  0  0  0
    9.4968    4.4325  -56.5677 H   0  0  0  0  0  0  0  0  0  0  0  0
   10.9953    3.8731  -57.4033 H   0  0  0  0  0  0  0  0  0  0  0  0
   10.3599    6.1618  -58.1536 H   0  0  0  0  0  0  0  0  0  0  0  0
   10.3271    5.6806  -60.6008 H   0  0  0  0  0  0  0  0  0  0  0  0
   11.4620    4.5767  -59.7418 H   0  0  0  0  0  0  0  0  0  0  0  0
   10.0645    3.3341  -61.4002 H   0  0  0  0  0  0  0  0  0  0  0  0
    8.0717    4.8308  -61.3218 H   0  0  0  0  0  0  0  0  0  0  0  0
    7.6109    3.1245  -60.9810 H   0  0  0  0  0  0  0  0  0  0  0  0
    6.5019    4.6909  -59.3883 H   0  0  0  0  0  0  0  0  0  0  0  0
    8.2448    6.4765  -59.4361 H   0  0  0  0  0  0  0  0  0  0  0  0
    7.9056    5.9456  -57.7509 H   0  0  0  0  0  0  0  0  0  0  0  0
    7.2686    3.5795  -57.2895 H   0  0  0  0  0  0  0  0  0  0  0  0
    7.1505    2.4005  -58.6556 H   0  0  0  0  0  0  0  0  0  0  0  0
    9.2055    1.6007  -59.8163 H   0  0  0  0  0  0  0  0  0  0  0  0
   10.8240    2.2133  -59.3066 H   0  0  0  0  0  0  0  0  0  0  0  0
   11.2777   -3.3433  -53.6136 H   0  0  0  0  0  0  0  0  0  0  0  0
   10.6032   -3.9806  -55.1517 H   0  0  0  0  0  0  0  0  0  0  0  0
   12.1772   -3.1151  -55.1517 H   0  0  0  0  0  0  0  0  0  0  0  0
    9.9020   -1.7075  -51.6704 H   0  0  0  0  0  0  0  0  0  0  0  0
    8.6259   -3.0345  -49.9828 H   0  0  0  0  0  0  0  0  0  0  0  0
    5.8639   -4.2977  -53.0594 H   0  0  0  0  0  0  0  0  0  0  0  0
    7.1372   -2.9715  -54.7487 H   0  0  0  0  0  0  0  0  0  0  0  0
  1  2  1  0
  2  3  1  0
  3  4  1  0
  4  5  2  0
  4  6  1  0
  7  6  1  1
  7  8  1  0
  8  9  1  0
  9 10  1  0
 10 11  1  0
 11 12  1  0
 12 13  1  0
 13 14  1  0
 13 15  1  0
 11 16  1  0
  3 17  2  0
 17 18  1  0
 18 19  1  0
 18 20  1  0
 20 21  1  0
 21 22  1  0
 22 23  2  0
 23 24  1  0
 24 25  1  0
 24 26  2  0
 26 27  1  0
 20  2  2  0
 27 21  2  0
 15  7  1  0
 16  7  1  0
 14  9  1  0
  1 28  1  0
  1 29  1  0
  1 30  1  0
  6 31  1  0
  8 32  1  0
  8 33  1  0
  9 34  1  1
 10 35  1  0
 10 36  1  0
 11 37  1  6
 12 38  1  0
 12 39  1  0
 13 40  1  6
 14 41  1  0
 14 42  1  0
 15 43  1  0
 15 44  1  0
 16 45  1  0
 16 46  1  0
 19 47  1  0
 19 48  1  0
 19 49  1  0
 22 50  1  0
 23 51  1  0
 26 52  1  0
 27 53  1  0
M  END
>  <meeko>  (22) 
{"is_sidechain": false}

$$$$

     RDKit          3D

 59 63  0  0  0  0  0  0  0  0999 V2000
   10.3140   -4.0280  -55.1630 C   0  0  0  0  0  0  0  0  0  0  0  0
   11.1800   -2.8150  -54.8610 C   0  0  0  0  0  0  0  0  0  0  0  0
   10.6340   -2.0260  -53.6750 C   0  0  0  0  0  0  0  0  0  0  0  0
    9.4220   -1.2970  -54.0150 N   0  0  0  0  0  0  0  0  0  0  0  0
    9.4920   -0.3410  -54.9560 N   0  0  0  0  0  0  0  0  0  0  0  0
    8.2480    0.1580  -55.0360 C   0  0  0  0  0  0  0  0  0  0  0  0
    7.9240    1.2410  -55.9860 C   0  0  0  0  0  0  0  0  0  0  0  0
    6.8000    1.7230  -56.0930 O   0  0  0  0  0  0  0  0  0  0  0  0
    9.0150    1.6780  -56.7210 N   0  0  0  0  0  0  0  0  0  0  0  0
    8.9950    2.8100  -57.6490 C   0  0  2  0  0  0  0  0  0  0  0  0
    8.8060    4.1560  -56.9050 C   0  0  0  0  0  0  0  0  0  0  0  0
    8.8480    5.3310  -57.8970 C   0  0  1  0  0  0  0  0  0  0  0  0
   10.2090    5.3480  -58.6090 C   0  0  0  0  0  0  0  0  0  0  0  0
   10.4170    4.0320  -59.3760 C   0  0  2  0  0  0  0  0  0  0  0  0
    9.2980    3.8660  -60.4140 C   0  0  0  0  0  0  0  0  0  0  0  0
    7.9310    3.8410  -59.7130 C   0  0  2  0  0  0  0  0  0  0  0  0
    7.7320    5.1560  -58.9410 C   0  0  0  0  0  0  0  0  0  0  0  0
    7.8880    2.6620  -58.7240 C   0  0  0  0  0  0  0  0  0  0  0  0
   10.3620    2.8580  -58.3850 C   0  0  0  0  0  0  0  0  0  0  0  0
    7.3740   -0.5070  -54.1140 C   0  0  0  0  0  0  0  0  0  0  0  0
    5.9350   -0.2300  -53.8630 C   0  0  0  0  0  0  0  0  0  0  0  0
    8.1660   -1.4570  -53.4840 C   0  0  0  0  0  0  0  0  0  0  0  0
    7.8250   -2.4310  -52.4560 C   0  0  0  0  0  0  0  0  0  0  0  0
    7.9360   -2.0940  -51.1040 C   0  0  0  0  0  0  0  0  0  0  0  0
    7.6070   -3.0270  -50.1190 C   0  0  0  0  0  0  0  0  0  0  0  0
    7.1700   -4.3000  -50.4820 C   0  0  0  0  0  0  0  0  0  0  0  0
    7.0640   -4.6430  -51.8300 C   0  0  0  0  0  0  0  0  0  0  0  0
    7.3920   -3.7110  -52.8160 C   0  0  0  0  0  0  0  0  0  0  0  0
    9.9855   -4.4881  -54.2194 H   0  0  0  0  0  0  0  0  0  0  0  0
    9.4341   -3.7148  -55.7440 H   0  0  0  0  0  0  0  0  0  0  0  0
   10.8960   -4.7585  -55.7440 H   0  0  0  0  0  0  0  0  0  0  0  0
   12.2006   -3.1525  -54.6276 H   0  0  0  0  0  0  0  0  0  0  0  0
   11.1795   -2.1593  -55.7442 H   0  0  0  0  0  0  0  0  0  0  0  0
   10.4094   -2.7257  -52.8565 H   0  0  0  0  0  0  0  0  0  0  0  0
   11.3975   -1.2932  -53.3749 H   0  0  0  0  0  0  0  0  0  0  0  0
    9.9160    1.3920  -56.3610 H   0  0  0  0  0  0  0  0  0  0  0  0
    7.8339    4.1516  -56.3902 H   0  0  0  0  0  0  0  0  0  0  0  0
    9.6209    4.2768  -56.1760 H   0  0  0  0  0  0  0  0  0  0  0  0
    8.7027    6.2766  -57.3542 H   0  0  0  0  0  0  0  0  0  0  0  0
   10.2400    6.1904  -59.3157 H   0  0  0  0  0  0  0  0  0  0  0  0
   11.0071    5.4598  -57.8603 H   0  0  0  0  0  0  0  0  0  0  0  0
   11.3930    4.0491  -59.8830 H   0  0  0  0  0  0  0  0  0  0  0  0
    9.3294    4.7078  -61.1214 H   0  0  0  0  0  0  0  0  0  0  0  0
    9.4442    2.9192  -60.9545 H   0  0  0  0  0  0  0  0  0  0  0  0
    7.1338    3.7261  -60.4621 H   0  0  0  0  0  0  0  0  0  0  0  0
    7.7585    5.9995  -59.6465 H   0  0  0  0  0  0  0  0  0  0  0  0
    6.7598    5.1278  -58.4271 H   0  0  0  0  0  0  0  0  0  0  0  0
    6.9053    2.6402  -58.2302 H   0  0  0  0  0  0  0  0  0  0  0  0
    8.0560    1.7274  -59.2793 H   0  0  0  0  0  0  0  0  0  0  0  0
   10.5069    1.9166  -58.9352 H   0  0  0  0  0  0  0  0  0  0  0  0
   11.1566    2.9953  -57.6368 H   0  0  0  0  0  0  0  0  0  0  0  0
    5.7520   -0.1948  -52.7789 H   0  0  0  0  0  0  0  0  0  0  0  0
    5.6639    0.7368  -54.3122 H   0  0  0  0  0  0  0  0  0  0  0  0
    5.3244   -1.0271  -54.3122 H   0  0  0  0  0  0  0  0  0  0  0  0
    8.2835   -1.0910  -50.8154 H   0  0  0  0  0  0  0  0  0  0  0  0
    7.6926   -2.7575  -49.0560 H   0  0  0  0  0  0  0  0  0  0  0  0
    6.9088   -5.0340  -49.7055 H   0  0  0  0  0  0  0  0  0  0  0  0
    6.7217   -5.6485  -52.1161 H   0  0  0  0  0  0  0  0  0  0  0  0
    7.3097   -3.9840  -53.8784 H   0  0  0  0  0  0  0  0  0  0  0  0
  1  2  1  0
  2  3  1  0
  3  4  1  0
  4  5  1  0
  5  6  2  0
  6  7  1  0
  7  8  2  0
  7  9  1  0
 10  9  1  1
 10 11  1  0
 11 12  1  0
 12 13  1  0
 13 14  1  0
 14 15  1  0
 15 16  1  0
 16 17  1  0
 16 18  1  0
 14 19  1  0
  6 20  1  0
 20 21  1  0
 20 22  2  0
 22 23  1  0
 23 24  2  0
 24 25  1  0
 25 26  2  0
 26 27  1  0
 27 28  2  0
 22  4  1  0
 28 23  1  0
 18 10  1  0
 19 10  1  0
 17 12  1  0
  1 29  1  0
  1 30  1  0
  1 31  1  0
  2 32  1  0
  2 33  1  0
  3 34  1  0
  3 35  1  0
  9 36  1  0
 11 37  1  0
 11 38  1  0
 12 39  1  1
 13 40  1  0
 13 41  1  0
 14 42  1  6
 15 43  1  0
 15 44  1  0
 16 45  1  6
 17 46  1  0
 17 47  1  0
 18 48  1  0
 18 49  1  0
 19 50  1  0
 19 51  1  0
 21 52  1  0
 21 53  1  0
 21 54  1  0
 24 55  1  0
 25 56  1  0
 26 57  1  0
 27 58  1  0
 28 59  1  0
M  END
>  <meeko>  (23) 
{"is_sidechain": false}

$$$$

     RDKit          3D

 57 61  0  0  0  0  0  0  0  0999 V2000
    8.4100    0.7500  -54.5080 C   0  0  0  0  0  0  0  0  0  0  0  0
    9.4470   -0.2180  -54.9530 C   0  0  0  0  0  0  0  0  0  0  0  0
   10.4370   -0.0050  -55.9600 C   0  0  0  0  0  0  0  0  0  0  0  0
   10.6570    1.2140  -56.7670 C   0  0  0  0  0  0  0  0  0  0  0  0
   11.7390    1.7880  -56.8250 O   0  0  0  0  0  0  0  0  0  0  0  0
    9.5230    1.6170  -57.4390 N   0  0  0  0  0  0  0  0  0  0  0  0
    9.4170    2.7540  -58.3490 C   0  0  2  0  0  0  0  0  0  0  0  0
    7.9530    2.8460  -58.8520 C   0  0  0  0  0  0  0  0  0  0  0  0
    7.7770    4.0270  -59.8210 C   0  0  1  0  0  0  0  0  0  0  0  0
    8.1420    5.3320  -59.0950 C   0  0  0  0  0  0  0  0  0  0  0  0
    9.5990    5.2720  -58.6090 C   0  0  2  0  0  0  0  0  0  0  0  0
   10.5290    5.0730  -59.8170 C   0  0  0  0  0  0  0  0  0  0  0  0
   10.1730    3.7680  -60.5490 C   0  0  2  0  0  0  0  0  0  0  0  0
    8.7130    3.8360  -61.0250 C   0  0  0  0  0  0  0  0  0  0  0  0
   10.3380    2.5830  -59.5820 C   0  0  0  0  0  0  0  0  0  0  0  0
    9.7640    4.0870  -57.6410 C   0  0  0  0  0  0  0  0  0  0  0  0
   11.2080   -1.1000  -56.1230 N   0  0  0  0  0  0  0  0  0  0  0  0
   10.7380   -1.9770  -55.2100 N   0  0  0  0  0  0  0  0  0  0  0  0
   11.3760   -3.2830  -55.1220 C   0  0  0  0  0  0  0  0  0  0  0  0
   10.8290   -4.2330  -56.1800 C   0  0  0  0  0  0  0  0  0  0  0  0
   11.1380   -3.7810  -57.4970 O   0  0  0  0  0  0  0  0  0  0  0  0
    9.6630   -1.5100  -54.4970 C   0  0  0  0  0  0  0  0  0  0  0  0
    8.9520   -2.2770  -53.4840 C   0  0  0  0  0  0  0  0  0  0  0  0
    9.4360   -2.3260  -52.1710 C   0  0  0  0  0  0  0  0  0  0  0  0
    8.7560   -3.0650  -51.2000 C   0  0  0  0  0  0  0  0  0  0  0  0
    7.5910   -3.7500  -51.5400 C   0  0  0  0  0  0  0  0  0  0  0  0
    6.7550   -4.6600  -50.3440 Cl  0  0  0  0  0  0  0  0  0  0  0  0
    7.0970   -3.7000  -52.8430 C   0  0  0  0  0  0  0  0  0  0  0  0
    7.7770   -2.9620  -53.8150 C   0  0  0  0  0  0  0  0  0  0  0  0
    8.3812    0.7769  -53.4087 H   0  0  0  0  0  0  0  0  0  0  0  0
    8.6537    1.7512  -54.8930 H   0  0  0  0  0  0  0  0  0  0  0  0
    7.4279    0.4381  -54.8930 H   0  0  0  0  0  0  0  0  0  0  0  0
    8.7270    0.9970  -57.3130 H   0  0  0  0  0  0  0  0  0  0  0  0
    7.6917    1.9123  -59.3715 H   0  0  0  0  0  0  0  0  0  0  0  0
    7.2936    3.0021  -57.9855 H   0  0  0  0  0  0  0  0  0  0  0  0
    6.7340    4.0741  -60.1673 H   0  0  0  0  0  0  0  0  0  0  0  0
    8.0230    6.1793  -59.7863 H   0  0  0  0  0  0  0  0  0  0  0  0
    7.4769    5.4620  -58.2286 H   0  0  0  0  0  0  0  0  0  0  0  0
    9.8559    6.2093  -58.0938 H   0  0  0  0  0  0  0  0  0  0  0  0
   10.4139    5.9209  -60.5083 H   0  0  0  0  0  0  0  0  0  0  0  0
   11.5695    5.0158  -59.4647 H   0  0  0  0  0  0  0  0  0  0  0  0
   10.8385    3.6347  -61.4146 H   0  0  0  0  0  0  0  0  0  0  0  0
    8.5943    4.6829  -61.7169 H   0  0  0  0  0  0  0  0  0  0  0  0
    8.4558    2.8973  -61.5375 H   0  0  0  0  0  0  0  0  0  0  0  0
   10.0745    1.6511  -60.1037 H   0  0  0  0  0  0  0  0  0  0  0  0
   11.3833    2.5457  -59.2416 H   0  0  0  0  0  0  0  0  0  0  0  0
   10.8056    4.0494  -57.2895 H   0  0  0  0  0  0  0  0  0  0  0  0
    9.0807    4.2256  -56.7902 H   0  0  0  0  0  0  0  0  0  0  0  0
   12.4594   -3.1644  -55.2713 H   0  0  0  0  0  0  0  0  0  0  0  0
   11.1668   -3.7079  -54.1292 H   0  0  0  0  0  0  0  0  0  0  0  0
   11.2724   -5.2285  -56.0303 H   0  0  0  0  0  0  0  0  0  0  0  0
    9.7346   -4.2727  -56.0762 H   0  0  0  0  0  0  0  0  0  0  0  0
   10.4130   -3.1780  -57.7640 H   0  0  0  0  0  0  0  0  0  0  0  0
   10.3536   -1.7814  -51.9036 H   0  0  0  0  0  0  0  0  0  0  0  0
    9.1391   -3.1061  -50.1697 H   0  0  0  0  0  0  0  0  0  0  0  0
    6.1750   -4.2398  -53.1047 H   0  0  0  0  0  0  0  0  0  0  0  0
    7.3881   -2.9191  -54.8430 H   0  0  0  0  0  0  0  0  0  0  0  0
  1  2  1  0
  2  3  1  0
  3  4  1  0
  4  5  2  0
  4  6  1  0
  7  6  1  1
  7  8  1  0
  8  9  1  0
  9 10  1  0
 10 11  1  0
 11 12  1  0
 12 13  1  0
 13 14  1  0
 13 15  1  0
 11 16  1  0
  3 17  2  0
 17 18  1  0
 18 19  1  0
 19 20  1  0
 20 21  1  0
 18 22  1  0
 22 23  1  0
 23 24  1  0
 24 25  2  0
 25 26  1  0
 26 27  1  0
 26 28  2  0
 28 29  1  0
 22  2  2  0
 29 23  2  0
 15  7  1  0
 16  7  1  0
 14  9  1  0
  1 30  1  0
  1 31  1  0
  1 32  1  0
  6 33  1  0
  8 34  1  0
  8 35  1  0
  9 36  1  6
 10 37  1  0
 10 38  1  0
 11 39  1  1
 12 40  1  0
 12 41  1  0
 13 42  1  6
 14 43  1  0
 14 44  1  0
 15 45  1  0
 15 46  1  0
 16 47  1  0
 16 48  1  0
 19 49  1  0
 19 50  1  0
 20 51  1  0
 20 52  1  0
 21 53  1  0
 24 54  1  0
 25 55  1  0
 28 56  1  0
 29 57  1  0
M  END
>  <meeko>  (24) 
{"is_sidechain": false}

$$$$

     RDKit          3D

 53 57  0  0  0  0  0  0  0  0999 V2000
    6.2510   -0.0570  -54.2940 C   0  0  0  0  0  0  0  0  0  0  0  0
    7.7080   -0.3130  -54.4370 C   0  0  0  0  0  0  0  0  0  0  0  0
    8.6350    0.3580  -55.3000 C   0  0  0  0  0  0  0  0  0  0  0  0
    8.3810    1.4930  -56.2130 C   0  0  0  0  0  0  0  0  0  0  0  0
    7.2680    1.9830  -56.3720 O   0  0  0  0  0  0  0  0  0  0  0  0
    9.5120    1.9260  -56.8860 N   0  0  0  0  0  0  0  0  0  0  0  0
    9.5160    2.9580  -57.9260 C   0  0  2  0  0  0  0  0  0  0  0  0
    8.4240    2.7010  -58.9930 C   0  0  0  0  0  0  0  0  0  0  0  0
    8.4910    3.7640  -60.1030 C   0  0  1  0  0  0  0  0  0  0  0  0
    8.2910    5.1580  -59.4820 C   0  0  0  0  0  0  0  0  0  0  0  0
    9.3940    5.4410  -58.4480 C   0  0  2  0  0  0  0  0  0  0  0  0
   10.7660    5.3730  -59.1370 C   0  0  0  0  0  0  0  0  0  0  0  0
   10.9740    3.9800  -59.7490 C   0  0  2  0  0  0  0  0  0  0  0  0
    9.8690    3.7050  -60.7810 C   0  0  0  0  0  0  0  0  0  0  0  0
   10.8970    2.9230  -58.6360 C   0  0  0  0  0  0  0  0  0  0  0  0
    9.3280    4.3790  -57.3360 C   0  0  0  0  0  0  0  0  0  0  0  0
    9.8610   -0.1810  -55.1930 N   0  0  0  0  0  0  0  0  0  0  0  0
    9.7290   -1.1580  -54.2840 N   0  0  0  0  0  0  0  0  0  0  0  0
   10.8930   -1.9360  -53.9270 C   0  0  0  0  0  0  0  0  0  0  0  0
    8.4560   -1.2860  -53.7880 C   0  0  0  0  0  0  0  0  0  0  0  0
    8.0550   -2.2800  -52.7990 C   0  0  0  0  0  0  0  0  0  0  0  0
    7.6700   -3.5630  -53.2100 C   0  0  0  0  0  0  0  0  0  0  0  0
    7.2890   -4.5170  -52.2660 C   0  0  0  0  0  0  0  0  0  0  0  0
    7.2990   -4.1880  -50.9150 C   0  0  0  0  0  0  0  0  0  0  0  0
    6.9340   -5.1040  -50.0100 F   0  0  0  0  0  0  0  0  0  0  0  0
    7.6850   -2.9220  -50.4900 C   0  0  0  0  0  0  0  0  0  0  0  0
    8.0670   -1.9650  -51.4330 C   0  0  0  0  0  0  0  0  0  0  0  0
    5.9898   -0.0111  -53.2264 H   0  0  0  0  0  0  0  0  0  0  0  0
    5.9978    0.8994  -54.7749 H   0  0  0  0  0  0  0  0  0  0  0  0
    5.6870   -0.8698  -54.7749 H   0  0  0  0  0  0  0  0  0  0  0  0
   10.2940    1.2860  -56.8700 H   0  0  0  0  0  0  0  0  0  0  0  0
    8.5781    1.7059  -59.4356 H   0  0  0  0  0  0  0  0  0  0  0  0
    7.4370    2.7539  -58.5103 H   0  0  0  0  0  0  0  0  0  0  0  0
    7.7041    3.5721  -60.8472 H   0  0  0  0  0  0  0  0  0  0  0  0
    8.3326    5.9188  -60.2754 H   0  0  0  0  0  0  0  0  0  0  0  0
    7.3121    5.1913  -58.9814 H   0  0  0  0  0  0  0  0  0  0  0  0
    9.2493    6.4415  -58.0143 H   0  0  0  0  0  0  0  0  0  0  0  0
   10.8130    6.1316  -59.9321 H   0  0  0  0  0  0  0  0  0  0  0  0
   11.5546    5.5641  -58.3943 H   0  0  0  0  0  0  0  0  0  0  0  0
   11.9576    3.9361  -60.2396 H   0  0  0  0  0  0  0  0  0  0  0  0
    9.9165    4.4632  -61.5765 H   0  0  0  0  0  0  0  0  0  0  0  0
   10.0175    2.7036  -61.2112 H   0  0  0  0  0  0  0  0  0  0  0  0
   11.0496    1.9264  -59.0759 H   0  0  0  0  0  0  0  0  0  0  0  0
   11.6777    3.1412  -57.8924 H   0  0  0  0  0  0  0  0  0  0  0  0
   10.1241    4.5739  -56.6024 H   0  0  0  0  0  0  0  0  0  0  0  0
    8.3419    4.4340  -56.8516 H   0  0  0  0  0  0  0  0  0  0  0  0
   10.9753   -1.9910  -52.8315 H   0  0  0  0  0  0  0  0  0  0  0  0
   10.7958   -2.9513  -54.3389 H   0  0  0  0  0  0  0  0  0  0  0  0
   11.7940   -1.4579  -54.3389 H   0  0  0  0  0  0  0  0  0  0  0  0
    7.6681   -3.8187  -54.2799 H   0  0  0  0  0  0  0  0  0  0  0  0
    6.9826   -5.5231  -52.5884 H   0  0  0  0  0  0  0  0  0  0  0  0
    7.6896   -2.6755  -49.4180 H   0  0  0  0  0  0  0  0  0  0  0  0
    8.3777   -0.9626  -51.1033 H   0  0  0  0  0  0  0  0  0  0  0  0
  1  2  1  0
  2  3  1  0
  3  4  1  0
  4  5  2  0
  4  6  1  0
  7  6  1  1
  7  8  1  0
  8  9  1  0
  9 10  1  0
 10 11  1  0
 11 12  1  0
 12 13  1  0
 13 14  1  0
 13 15  1  0
 11 16  1  0
  3 17  2  0
 17 18  1  0
 18 19  1  0
 18 20  1  0
 20 21  1  0
 21 22  1  0
 22 23  2  0
 23 24  1  0
 24 25  1  0
 24 26  2  0
 26 27  1  0
 20  2  2  0
 27 21  2  0
 15  7  1  0
 16  7  1  0
 14  9  1  0
  1 28  1  0
  1 29  1  0
  1 30  1  0
  6 31  1  0
  8 32  1  0
  8 33  1  0
  9 34  1  6
 10 35  1  0
 10 36  1  0
 11 37  1  1
 12 38  1  0
 12 39  1  0
 13 40  1  6
 14 41  1  0
 14 42  1  0
 15 43  1  0
 15 44  1  0
 16 45  1  0
 16 46  1  0
 19 47  1  0
 19 48  1  0
 19 49  1  0
 22 50  1  0
 23 51  1  0
 26 52  1  0
 27 53  1  0
M  END
>  <meeko>  (25) 
{"is_sidechain": false}

$$$$

     RDKit          3D

 68 72  0  0  0  0  0  0  0  0999 V2000
   11.8900   -4.5410  -58.6940 C   0  0  0  0  0  0  0  0  0  0  0  0
   11.5070   -3.7780  -57.4350 C   0  0  0  0  0  0  0  0  0  0  0  0
   10.7530   -4.6710  -56.4490 C   0  0  0  0  0  0  0  0  0  0  0  0
   10.3080   -3.9390  -55.1790 C   0  0  0  0  0  0  0  0  0  0  0  0
   11.2260   -2.8080  -54.7090 C   0  0  0  0  0  0  0  0  0  0  0  0
   10.6510   -2.0110  -53.5390 C   0  0  0  0  0  0  0  0  0  0  0  0
    9.4480   -1.2840  -53.9150 N   0  0  0  0  0  0  0  0  0  0  0  0
    9.5460   -0.3290  -54.8550 N   0  0  0  0  0  0  0  0  0  0  0  0
    8.2960    0.1390  -55.0030 C   0  0  0  0  0  0  0  0  0  0  0  0
    8.0010    1.2260  -55.9590 C   0  0  0  0  0  0  0  0  0  0  0  0
    6.8600    1.5860  -56.2290 O   0  0  0  0  0  0  0  0  0  0  0  0
    9.1340    1.7760  -56.5390 N   0  0  0  0  0  0  0  0  0  0  0  0
    9.1190    2.7870  -57.5990 C   0  0  2  0  0  0  0  0  0  0  0  0
   10.5560    2.9010  -58.1790 C   0  0  0  0  0  0  0  0  0  0  0  0
   10.6160    3.9440  -59.3060 C   0  0  1  0  0  0  0  0  0  0  0  0
    9.6500    3.5300  -60.4280 C   0  0  0  0  0  0  0  0  0  0  0  0
    8.2170    3.4400  -59.8800 C   0  0  2  0  0  0  0  0  0  0  0  0
    7.8030    4.8100  -59.3140 C   0  0  0  0  0  0  0  0  0  0  0  0
    8.7650    5.2320  -58.1910 C   0  0  2  0  0  0  0  0  0  0  0  0
   10.1940    5.3120  -58.7500 C   0  0  0  0  0  0  0  0  0  0  0  0
    8.7160    4.1840  -57.0640 C   0  0  0  0  0  0  0  0  0  0  0  0
    8.1670    2.3910  -58.7540 C   0  0  0  0  0  0  0  0  0  0  0  0
    7.3900   -0.5460  -54.1280 C   0  0  0  0  0  0  0  0  0  0  0  0
    5.9210   -0.3540  -54.0100 C   0  0  0  0  0  0  0  0  0  0  0  0
    8.1770   -1.4460  -53.4250 C   0  0  0  0  0  0  0  0  0  0  0  0
    7.8100   -2.4090  -52.3950 C   0  0  0  0  0  0  0  0  0  0  0  0
    7.4000   -3.6980  -52.7500 C   0  0  0  0  0  0  0  0  0  0  0  0
    7.0440   -4.6190  -51.7620 C   0  0  0  0  0  0  0  0  0  0  0  0
    7.1000   -4.2550  -50.4170 C   0  0  0  0  0  0  0  0  0  0  0  0
    7.5140   -2.9730  -50.0580 C   0  0  0  0  0  0  0  0  0  0  0  0
    7.8700   -2.0520  -51.0440 C   0  0  0  0  0  0  0  0  0  0  0  0
   12.3674   -5.4920  -58.4154 H   0  0  0  0  0  0  0  0  0  0  0  0
   10.9871   -4.7443  -59.2885 H   0  0  0  0  0  0  0  0  0  0  0  0
   12.5925   -3.9384  -59.2885 H   0  0  0  0  0  0  0  0  0  0  0  0
   12.4213   -3.4033  -56.9515 H   0  0  0  0  0  0  0  0  0  0  0  0
   10.8478   -2.9454  -57.7219 H   0  0  0  0  0  0  0  0  0  0  0  0
    9.8597   -5.0691  -56.9526 H   0  0  0  0  0  0  0  0  0  0  0  0
   11.4459   -5.4667  -56.1380 H   0  0  0  0  0  0  0  0  0  0  0  0
    9.3126   -3.5103  -55.3671 H   0  0  0  0  0  0  0  0  0  0  0  0
   10.3250   -4.6919  -54.3772 H   0  0  0  0  0  0  0  0  0  0  0  0
   12.1860   -3.2445  -54.3961 H   0  0  0  0  0  0  0  0  0  0  0  0
   11.3432   -2.1113  -55.5521 H   0  0  0  0  0  0  0  0  0  0  0  0
   10.4056   -2.7058  -52.7222 H   0  0  0  0  0  0  0  0  0  0  0  0
   11.4071   -1.2773  -53.2228 H   0  0  0  0  0  0  0  0  0  0  0  0
    9.9770    1.2280  -56.4370 H   0  0  0  0  0  0  0  0  0  0  0  0
   11.2452    3.2001  -57.3755 H   0  0  0  0  0  0  0  0  0  0  0  0
   10.8450    1.9232  -58.5918 H   0  0  0  0  0  0  0  0  0  0  0  0
   11.6399    4.0062  -59.7033 H   0  0  0  0  0  0  0  0  0  0  0  0
    9.6857    4.2778  -61.2340 H   0  0  0  0  0  0  0  0  0  0  0  0
    9.9500    2.5465  -60.8187 H   0  0  0  0  0  0  0  0  0  0  0  0
    7.5301    3.1488  -60.6883 H   0  0  0  0  0  0  0  0  0  0  0  0
    7.8322    5.5596  -60.1185 H   0  0  0  0  0  0  0  0  0  0  0  0
    6.7841    4.7373  -58.9060 H   0  0  0  0  0  0  0  0  0  0  0  0
    8.4682    6.2151  -57.7967 H   0  0  0  0  0  0  0  0  0  0  0  0
   10.2288    6.0597  -59.5561 H   0  0  0  0  0  0  0  0  0  0  0  0
   10.8825    5.6025  -57.9428 H   0  0  0  0  0  0  0  0  0  0  0  0
    9.4121    4.4796  -56.2652 H   0  0  0  0  0  0  0  0  0  0  0  0
    7.6888    4.1311  -56.6740 H   0  0  0  0  0  0  0  0  0  0  0  0
    7.1391    2.3231  -58.3683 H   0  0  0  0  0  0  0  0  0  0  0  0
    8.4857    1.4194  -59.1595 H   0  0  0  0  0  0  0  0  0  0  0  0
    5.6402   -0.3173  -52.9471 H   0  0  0  0  0  0  0  0  0  0  0  0
    5.6341    0.5893  -54.4978 H   0  0  0  0  0  0  0  0  0  0  0  0
    5.4013   -1.1919  -54.4978 H   0  0  0  0  0  0  0  0  0  0  0  0
    7.3577   -3.9875  -53.8104 H   0  0  0  0  0  0  0  0  0  0  0  0
    6.7195   -5.6313  -52.0449 H   0  0  0  0  0  0  0  0  0  0  0  0
    6.8175   -4.9796  -49.6391 H   0  0  0  0  0  0  0  0  0  0  0  0
    7.5600   -2.6873  -48.9967 H   0  0  0  0  0  0  0  0  0  0  0  0
    8.1988   -1.0421  -50.7579 H   0  0  0  0  0  0  0  0  0  0  0  0
  1  2  1  0
  2  3  1  0
  3  4  1  0
  4  5  1  0
  5  6  1  0
  6  7  1  0
  7  8  1  0
  8  9  2  0
  9 10  1  0
 10 11  2  0
 10 12  1  0
 13 12  1  1
 13 14  1  0
 14 15  1  0
 15 16  1  0
 16 17  1  0
 17 18  1  0
 18 19  1  0
 19 20  1  0
 19 21  1  0
 17 22  1  0
  9 23  1  0
 23 24  1  0
 23 25  2  0
 25 26  1  0
 26 27  2  0
 27 28  1  0
 28 29  2  0
 29 30  1  0
 30 31  2  0
 25  7  1  0
 31 26  1  0
 21 13  1  0
 22 13  1  0
 20 15  1  0
  1 32  1  0
  1 33  1  0
  1 34  1  0
  2 35  1  0
  2 36  1  0
  3 37  1  0
  3 38  1  0
  4 39  1  0
  4 40  1  0
  5 41  1  0
  5 42  1  0
  6 43  1  0
  6 44  1  0
 12 45  1  0
 14 46  1  0
 14 47  1  0
 15 48  1  6
 16 49  1  0
 16 50  1  0
 17 51  1  6
 18 52  1  0
 18 53  1  0
 19 54  1  1
 20 55  1  0
 20 56  1  0
 21 57  1  0
 21 58  1  0
 22 59  1  0
 22 60  1  0
 24 61  1  0
 24 62  1  0
 24 63  1  0
 27 64  1  0
 28 65  1  0
 29 66  1  0
 30 67  1  0
 31 68  1  0
M  END
>  <meeko>  (26) 
{"is_sidechain": false}

$$$$

     RDKit          3D

 50 54  0  0  0  0  0  0  0  0999 V2000
   10.8010   -2.0170  -53.5750 C   0  0  0  0  0  0  0  0  0  0  0  0
    9.6010   -1.3070  -53.9540 N   0  0  0  0  0  0  0  0  0  0  0  0
    9.6790   -0.3690  -54.9210 N   0  0  0  0  0  0  0  0  0  0  0  0
    8.4330    0.1430  -54.9850 C   0  0  0  0  0  0  0  0  0  0  0  0
    8.0810    1.2250  -55.9200 C   0  0  0  0  0  0  0  0  0  0  0  0
    6.9240    1.5900  -56.1010 O   0  0  0  0  0  0  0  0  0  0  0  0
    9.1820    1.7640  -56.5470 N   0  0  0  0  0  0  0  0  0  0  0  0
    9.1750    2.8450  -57.5260 C   0  0  2  0  0  0  0  0  0  0  0  0
    8.8620    4.2100  -56.8660 C   0  0  0  0  0  0  0  0  0  0  0  0
    8.9080    5.3400  -57.9100 C   0  0  1  0  0  0  0  0  0  0  0  0
   10.3120    5.4000  -58.5310 C   0  0  0  0  0  0  0  0  0  0  0  0
   10.6410    4.0630  -59.2130 C   0  0  2  0  0  0  0  0  0  0  0  0
    9.6050    3.7830  -60.3130 C   0  0  0  0  0  0  0  0  0  0  0  0
    8.1970    3.7130  -59.7010 C   0  0  2  0  0  0  0  0  0  0  0  0
    7.8750    5.0520  -59.0130 C   0  0  0  0  0  0  0  0  0  0  0  0
    8.1510    2.5840  -58.6580 C   0  0  0  0  0  0  0  0  0  0  0  0
   10.5850    2.9370  -58.1690 C   0  0  0  0  0  0  0  0  0  0  0  0
    7.5750   -0.4980  -54.0590 C   0  0  0  0  0  0  0  0  0  0  0  0
    8.3420   -1.4500  -53.4190 C   0  0  0  0  0  0  0  0  0  0  0  0
    7.9710   -2.4010  -52.3770 C   0  0  0  0  0  0  0  0  0  0  0  0
    8.1260   -2.0790  -51.0230 C   0  0  0  0  0  0  0  0  0  0  0  0
    7.7690   -2.9960  -50.0320 C   0  0  0  0  0  0  0  0  0  0  0  0
    7.2590   -4.2440  -50.3890 C   0  0  0  0  0  0  0  0  0  0  0  0
    7.1100   -4.5770  -51.7340 C   0  0  0  0  0  0  0  0  0  0  0  0
    7.4680   -3.6610  -52.7240 C   0  0  0  0  0  0  0  0  0  0  0  0
   10.8714   -2.0587  -52.4780 H   0  0  0  0  0  0  0  0  0  0  0  0
   10.7652   -3.0394  -53.9792 H   0  0  0  0  0  0  0  0  0  0  0  0
   11.6799   -1.4935  -53.9792 H   0  0  0  0  0  0  0  0  0  0  0  0
   10.0620    1.3320  -56.2700 H   0  0  0  0  0  0  0  0  0  0  0  0
    7.8583    4.1729  -56.4174 H   0  0  0  0  0  0  0  0  0  0  0  0
    9.6175    4.4112  -56.0922 H   0  0  0  0  0  0  0  0  0  0  0  0
    8.6766    6.3011  -57.4276 H   0  0  0  0  0  0  0  0  0  0  0  0
   10.3465    6.2078  -59.2768 H   0  0  0  0  0  0  0  0  0  0  0  0
   11.0500    5.5930  -57.7385 H   0  0  0  0  0  0  0  0  0  0  0  0
   11.6466    4.1118  -59.6562 H   0  0  0  0  0  0  0  0  0  0  0  0
    9.6384    4.5904  -61.0593 H   0  0  0  0  0  0  0  0  0  0  0  0
    9.8387    2.8217  -60.7939 H   0  0  0  0  0  0  0  0  0  0  0  0
    7.4594    3.5157  -60.4929 H   0  0  0  0  0  0  0  0  0  0  0  0
    7.9034    5.8604  -59.7584 H   0  0  0  0  0  0  0  0  0  0  0  0
    6.8731    4.9942  -58.5625 H   0  0  0  0  0  0  0  0  0  0  0  0
    7.1406    2.5317  -58.2263 H   0  0  0  0  0  0  0  0  0  0  0  0
    8.4035    1.6343  -59.1523 H   0  0  0  0  0  0  0  0  0  0  0  0
   10.8204    1.9804  -58.6585 H   0  0  0  0  0  0  0  0  0  0  0  0
   11.3176    3.1553  -57.3780 H   0  0  0  0  0  0  0  0  0  0  0  0
    6.5108   -0.2808  -53.8847 H   0  0  0  0  0  0  0  0  0  0  0  0
    8.5317   -1.0971  -50.7380 H   0  0  0  0  0  0  0  0  0  0  0  0
    7.8900   -2.7341  -48.9705 H   0  0  0  0  0  0  0  0  0  0  0  0
    6.9744   -4.9655  -49.6090 H   0  0  0  0  0  0  0  0  0  0  0  0
    6.7100   -5.5623  -52.0154 H   0  0  0  0  0  0  0  0  0  0  0  0
    7.3543   -3.9306  -53.7844 H   0  0  0  0  0  0  0  0  0  0  0  0
  1  2  1  0
  2  3  1  0
  3  4  2  0
  4  5  1  0
  5  6  2  0
  5  7  1  0
  8  7  1  1
  8  9  1  0
  9 10  1  0
 10 11  1  0
 11 12  1  0
 12 13  1  0
 13 14  1  0
 14 15  1  0
 14 16  1  0
 12 17  1  0
  4 18  1  0
 18 19  2  0
 19 20  1  0
 20 21  2  0
 21 22  1  0
 22 23  2  0
 23 24  1  0
 24 25  2  0
 19  2  1  0
 25 20  1  0
 16  8  1  0
 17  8  1  0
 15 10  1  0
  1 26  1  0
  1 27  1  0
  1 28  1  0
  7 29  1  0
  9 30  1  0
  9 31  1  0
 10 32  1  1
 11 33  1  0
 11 34  1  0
 12 35  1  6
 13 36  1  0
 13 37  1  0
 14 38  1  6
 15 39  1  0
 15 40  1  0
 16 41  1  0
 16 42  1  0
 17 43  1  0
 17 44  1  0
 18 45  1  0
 21 46  1  0
 22 47  1  0
 23 48  1  0
 24 49  1  0
 25 50  1  0
M  END
>  <meeko>  (27) 
{"is_sidechain": false}

$$$$

     RDKit          3D

 56 60  0  0  0  0  0  0  0  0999 V2000
   10.9370   -3.2640  -54.4130 C   0  0  0  0  0  0  0  0  0  0  0  0
   10.7630   -1.9930  -53.6010 C   0  0  0  0  0  0  0  0  0  0  0  0
    9.5460   -1.2800  -53.9510 N   0  0  0  0  0  0  0  0  0  0  0  0
    9.6090   -0.3260  -54.9010 N   0  0  0  0  0  0  0  0  0  0  0  0
    8.3440    0.1320  -54.9960 C   0  0  0  0  0  0  0  0  0  0  0  0
    7.9960    1.2080  -55.9480 C   0  0  0  0  0  0  0  0  0  0  0  0
    6.8510    1.6170  -56.1070 O   0  0  0  0  0  0  0  0  0  0  0  0
    9.0970    1.6860  -56.6270 N   0  0  0  0  0  0  0  0  0  0  0  0
    9.1000    2.7430  -57.6320 C   0  0  2  0  0  0  0  0  0  0  0  0
    8.8330    4.1320  -57.0010 C   0  0  0  0  0  0  0  0  0  0  0  0
    8.8910    5.2340  -58.0740 C   0  0  1  0  0  0  0  0  0  0  0  0
   10.2840    5.2420  -58.7210 C   0  0  0  0  0  0  0  0  0  0  0  0
   10.5680    3.8800  -59.3750 C   0  0  2  0  0  0  0  0  0  0  0  0
    9.5050    3.6010  -60.4490 C   0  0  0  0  0  0  0  0  0  0  0  0
    8.1060    3.5830  -59.8120 C   0  0  2  0  0  0  0  0  0  0  0  0
    7.8320    4.9460  -59.1520 C   0  0  0  0  0  0  0  0  0  0  0  0
    8.0490    2.4800  -58.7390 C   0  0  0  0  0  0  0  0  0  0  0  0
   10.5000    2.7820  -58.3020 C   0  0  0  0  0  0  0  0  0  0  0  0
    7.4780   -0.5490  -54.0890 C   0  0  0  0  0  0  0  0  0  0  0  0
    6.0220   -0.3170  -53.9070 C   0  0  0  0  0  0  0  0  0  0  0  0
    8.2890   -1.4570  -53.4270 C   0  0  0  0  0  0  0  0  0  0  0  0
    7.9610   -2.4240  -52.3880 C   0  0  0  0  0  0  0  0  0  0  0  0
    7.4440   -3.6790  -52.7310 C   0  0  0  0  0  0  0  0  0  0  0  0
    7.1330   -4.6060  -51.7350 C   0  0  0  0  0  0  0  0  0  0  0  0
    7.3330   -4.2820  -50.3930 C   0  0  0  0  0  0  0  0  0  0  0  0
    7.8400   -3.0320  -50.0450 C   0  0  0  0  0  0  0  0  0  0  0  0
    8.1510   -2.1020  -51.0390 C   0  0  0  0  0  0  0  0  0  0  0  0
   11.0543   -4.1205  -53.7328 H   0  0  0  0  0  0  0  0  0  0  0  0
   10.0516   -3.4180  -55.0473 H   0  0  0  0  0  0  0  0  0  0  0  0
   11.8313   -3.1744  -55.0473 H   0  0  0  0  0  0  0  0  0  0  0  0
   10.7244   -2.2570  -52.5338 H   0  0  0  0  0  0  0  0  0  0  0  0
   11.6156   -1.3333  -53.8198 H   0  0  0  0  0  0  0  0  0  0  0  0
    9.9660    1.2260  -56.3660 H   0  0  0  0  0  0  0  0  0  0  0  0
    7.8362    4.1323  -56.5359 H   0  0  0  0  0  0  0  0  0  0  0  0
    9.6058    4.3325  -56.2443 H   0  0  0  0  0  0  0  0  0  0  0  0
    8.6940    6.2122  -57.6112 H   0  0  0  0  0  0  0  0  0  0  0  0
   10.3250    6.0298  -59.4876 H   0  0  0  0  0  0  0  0  0  0  0  0
   11.0407    5.4353  -57.9464 H   0  0  0  0  0  0  0  0  0  0  0  0
   11.5668    3.8910  -59.8357 H   0  0  0  0  0  0  0  0  0  0  0  0
    9.5461    4.3889  -61.2155 H   0  0  0  0  0  0  0  0  0  0  0  0
    9.7049    2.6220  -60.9091 H   0  0  0  0  0  0  0  0  0  0  0  0
    7.3497    3.3860  -60.5861 H   0  0  0  0  0  0  0  0  0  0  0  0
    7.8685    5.7349  -59.9177 H   0  0  0  0  0  0  0  0  0  0  0  0
    6.8373    4.9253  -58.6829 H   0  0  0  0  0  0  0  0  0  0  0  0
    7.0455    2.4649  -58.2888 H   0  0  0  0  0  0  0  0  0  0  0  0
    8.2674    1.5118  -59.2131 H   0  0  0  0  0  0  0  0  0  0  0  0
   10.7012    1.8077  -58.7714 H   0  0  0  0  0  0  0  0  0  0  0  0
   11.2517    3.0008  -57.5293 H   0  0  0  0  0  0  0  0  0  0  0  0
    5.7881   -0.2797  -52.8328 H   0  0  0  0  0  0  0  0  0  0  0  0
    5.7412    0.6372  -54.3767 H   0  0  0  0  0  0  0  0  0  0  0  0
    5.4586   -1.1367  -54.3767 H   0  0  0  0  0  0  0  0  0  0  0  0
    7.2824   -3.9352  -53.7885 H   0  0  0  0  0  0  0  0  0  0  0  0
    6.7301   -5.5924  -52.0083 H   0  0  0  0  0  0  0  0  0  0  0  0
    7.0902   -5.0142  -49.6088 H   0  0  0  0  0  0  0  0  0  0  0  0
    7.9955   -2.7774  -48.9862 H   0  0  0  0  0  0  0  0  0  0  0  0
    8.5463   -1.1138  -50.7613 H   0  0  0  0  0  0  0  0  0  0  0  0
  1  2  1  0
  2  3  1  0
  3  4  1  0
  4  5  2  0
  5  6  1  0
  6  7  2  0
  6  8  1  0
  9  8  1  1
  9 10  1  0
 10 11  1  0
 11 12  1  0
 12 13  1  0
 13 14  1  0
 14 15  1  0
 15 16  1  0
 15 17  1  0
 13 18  1  0
  5 19  1  0
 19 20  1  0
 19 21  2  0
 21 22  1  0
 22 23  2  0
 23 24  1  0
 24 25  2  0
 25 26  1  0
 26 27  2  0
 21  3  1  0
 27 22  1  0
 17  9  1  0
 18  9  1  0
 16 11  1  0
  1 28  1  0
  1 29  1  0
  1 30  1  0
  2 31  1  0
  2 32  1  0
  8 33  1  0
 10 34  1  0
 10 35  1  0
 11 36  1  1
 12 37  1  0
 12 38  1  0
 13 39  1  6
 14 40  1  0
 14 41  1  0
 15 42  1  6
 16 43  1  0
 16 44  1  0
 17 45  1  0
 17 46  1  0
 18 47  1  0
 18 48  1  0
 20 49  1  0
 20 50  1  0
 20 51  1  0
 23 52  1  0
 24 53  1  0
 25 54  1  0
 26 55  1  0
 27 56  1  0
M  END
>  <meeko>  (28) 
{"is_sidechain": false}

$$$$

     RDKit          3D

 56 60  0  0  0  0  0  0  0  0999 V2000
   10.7360   -2.3860  -53.7100 C   0  0  0  0  0  0  0  0  0  0  0  0
    9.5380   -1.5510  -53.9900 C   0  0  0  0  0  0  0  0  0  0  0  0
    9.4390   -0.4990  -54.9510 C   0  0  0  0  0  0  0  0  0  0  0  0
   10.4900   -0.0010  -55.8610 C   0  0  0  0  0  0  0  0  0  0  0  0
   11.5030   -0.6350  -56.1350 O   0  0  0  0  0  0  0  0  0  0  0  0
   10.2120    1.2540  -56.3580 N   0  0  0  0  0  0  0  0  0  0  0  0
   11.1030    1.9960  -57.2190 C   0  0  0  0  0  0  0  0  0  0  0  0
   10.3770    2.9660  -58.1780 C   0  0  2  0  0  0  0  0  0  0  0  0
    9.2070    2.2640  -58.9160 C   0  0  0  0  0  0  0  0  0  0  0  0
    8.5300    3.2300  -59.9030 C   0  0  1  0  0  0  0  0  0  0  0  0
    7.9870    4.4450  -59.1330 C   0  0  0  0  0  0  0  0  0  0  0  0
    9.1390    5.1730  -58.4180 C   0  0  2  0  0  0  0  0  0  0  0  0
   10.1670    5.6390  -59.4600 C   0  0  0  0  0  0  0  0  0  0  0  0
   10.7190    4.4300  -60.2320 C   0  0  2  0  0  0  0  0  0  0  0  0
    9.5620    3.7050  -60.9380 C   0  0  0  0  0  0  0  0  0  0  0  0
   11.3920    3.4640  -59.2430 C   0  0  0  0  0  0  0  0  0  0  0  0
    9.8150    4.2030  -57.4320 C   0  0  0  0  0  0  0  0  0  0  0  0
    8.2050    0.0460  -54.9520 N   0  0  0  0  0  0  0  0  0  0  0  0
    7.5410   -0.6390  -54.0010 N   0  0  0  0  0  0  0  0  0  0  0  0
    6.1690   -0.2840  -53.7120 C   0  0  0  0  0  0  0  0  0  0  0  0
    8.2860   -1.6220  -53.3990 C   0  0  0  0  0  0  0  0  0  0  0  0
    7.7850   -2.4980  -52.3470 C   0  0  0  0  0  0  0  0  0  0  0  0
    8.0200   -2.1970  -51.0000 C   0  0  0  0  0  0  0  0  0  0  0  0
    7.5420   -3.0410  -49.9960 C   0  0  0  0  0  0  0  0  0  0  0  0
    6.8250   -4.1880  -50.3320 C   0  0  0  0  0  0  0  0  0  0  0  0
    6.5800   -4.4910  -51.6720 C   0  0  0  0  0  0  0  0  0  0  0  0
    7.0570   -3.6470  -52.6760 C   0  0  0  0  0  0  0  0  0  0  0  0
   10.8712   -2.4802  -52.6224 H   0  0  0  0  0  0  0  0  0  0  0  0
   10.5980   -3.3846  -54.1502 H   0  0  0  0  0  0  0  0  0  0  0  0
   11.6251   -1.9109  -54.1502 H   0  0  0  0  0  0  0  0  0  0  0  0
    9.3450    1.6640  -56.0200 H   0  0  0  0  0  0  0  0  0  0  0  0
   11.7888    2.5803  -56.5879 H   0  0  0  0  0  0  0  0  0  0  0  0
   11.6308    1.2611  -57.8446 H   0  0  0  0  0  0  0  0  0  0  0  0
    9.5973    1.3971  -59.4693 H   0  0  0  0  0  0  0  0  0  0  0  0
    8.4640    1.9391  -58.1728 H   0  0  0  0  0  0  0  0  0  0  0  0
    7.7028    2.7161  -60.4145 H   0  0  0  0  0  0  0  0  0  0  0  0
    7.5015    5.1358  -59.8381 H   0  0  0  0  0  0  0  0  0  0  0  0
    7.2574    4.1016  -58.3848 H   0  0  0  0  0  0  0  0  0  0  0  0
    8.7475    6.0434  -57.8711 H   0  0  0  0  0  0  0  0  0  0  0  0
    9.6830    6.3310  -60.1648 H   0  0  0  0  0  0  0  0  0  0  0  0
   10.9958    6.1482  -58.9465 H   0  0  0  0  0  0  0  0  0  0  0  0
   11.4520    4.7707  -60.9781 H   0  0  0  0  0  0  0  0  0  0  0  0
    9.0778    4.3943  -61.6454 H   0  0  0  0  0  0  0  0  0  0  0  0
    9.9586    2.8332  -61.4789 H   0  0  0  0  0  0  0  0  0  0  0  0
   11.7870    2.5992  -59.7963 H   0  0  0  0  0  0  0  0  0  0  0  0
   12.2067    3.9965  -58.7305 H   0  0  0  0  0  0  0  0  0  0  0  0
   10.6398    4.7228  -56.9225 H   0  0  0  0  0  0  0  0  0  0  0  0
    9.0668    3.8646  -56.7001 H   0  0  0  0  0  0  0  0  0  0  0  0
    6.0218   -0.2459  -52.6226 H   0  0  0  0  0  0  0  0  0  0  0  0
    5.9459    0.7015  -54.1468 H   0  0  0  0  0  0  0  0  0  0  0  0
    5.4959   -1.0376  -54.1468 H   0  0  0  0  0  0  0  0  0  0  0  0
    8.5838   -1.2914  -50.7316 H   0  0  0  0  0  0  0  0  0  0  0  0
    7.7313   -2.8007  -48.9394 H   0  0  0  0  0  0  0  0  0  0  0  0
    6.4521   -4.8547  -49.5406 H   0  0  0  0  0  0  0  0  0  0  0  0
    6.0112   -5.3945  -51.9368 H   0  0  0  0  0  0  0  0  0  0  0  0
    6.8597   -3.8862  -53.7314 H   0  0  0  0  0  0  0  0  0  0  0  0
  1  2  1  0
  2  3  1  0
  3  4  1  0
  4  5  2  0
  4  6  1  0
  6  7  1  0
  8  7  1  1
  8  9  1  0
  9 10  1  0
 10 11  1  0
 11 12  1  0
 12 13  1  0
 13 14  1  0
 14 15  1  0
 14 16  1  0
 12 17  1  0
  3 18  2  0
 18 19  1  0
 19 20  1  0
 19 21  1  0
 21 22  1  0
 22 23  2  0
 23 24  1  0
 24 25  2  0
 25 26  1  0
 26 27  2  0
 21  2  2  0
 27 22  1  0
 16  8  1  0
 17  8  1  0
 15 10  1  0
  1 28  1  0
  1 29  1  0
  1 30  1  0
  6 31  1  0
  7 32  1  0
  7 33  1  0
  9 34  1  0
  9 35  1  0
 10 36  1  6
 11 37  1  0
 11 38  1  0
 12 39  1  1
 13 40  1  0
 13 41  1  0
 14 42  1  6
 15 43  1  0
 15 44  1  0
 16 45  1  0
 16 46  1  0
 17 47  1  0
 17 48  1  0
 20 49  1  0
 20 50  1  0
 20 51  1  0
 23 52  1  0
 24 53  1  0
 25 54  1  0
 26 55  1  0
 27 56  1  0
M  END
>  <meeko>  (29) 
{"is_sidechain": false}

$$$$

     RDKit          3D

 57 61  0  0  0  0  0  0  0  0999 V2000
   10.3700   -4.0960  -55.2290 C   0  0  0  0  0  0  0  0  0  0  0  0
   11.1330   -3.0820  -54.7970 C   0  0  0  0  0  0  0  0  0  0  0  0
   10.7490   -2.1320  -53.6960 C   0  0  0  0  0  0  0  0  0  0  0  0
    9.5370   -1.3770  -54.0090 N   0  0  0  0  0  0  0  0  0  0  0  0
    9.6020   -0.3920  -54.9310 N   0  0  0  0  0  0  0  0  0  0  0  0
    8.3440    0.0910  -54.9930 C   0  0  0  0  0  0  0  0  0  0  0  0
    7.9970    1.1880  -55.9200 C   0  0  0  0  0  0  0  0  0  0  0  0
    6.8470    1.5690  -56.1070 O   0  0  0  0  0  0  0  0  0  0  0  0
    9.1060    1.7210  -56.5430 N   0  0  0  0  0  0  0  0  0  0  0  0
    9.1110    2.7930  -57.5310 C   0  0  2  0  0  0  0  0  0  0  0  0
    8.0970    2.5220  -58.6700 C   0  0  0  0  0  0  0  0  0  0  0  0
    8.1550    3.6400  -59.7250 C   0  0  1  0  0  0  0  0  0  0  0  0
    7.8310    4.9860  -59.0540 C   0  0  0  0  0  0  0  0  0  0  0  0
    8.8520    5.2840  -57.9440 C   0  0  2  0  0  0  0  0  0  0  0  0
   10.2620    5.3360  -58.5520 C   0  0  0  0  0  0  0  0  0  0  0  0
   10.5950    3.9900  -59.2170 C   0  0  2  0  0  0  0  0  0  0  0  0
    9.5700    3.7010  -60.3240 C   0  0  0  0  0  0  0  0  0  0  0  0
   10.5270    2.8760  -58.1610 C   0  0  0  0  0  0  0  0  0  0  0  0
    8.7930    4.1660  -56.8890 C   0  0  0  0  0  0  0  0  0  0  0  0
    7.4830   -0.5900  -54.0800 C   0  0  0  0  0  0  0  0  0  0  0  0
    6.0360   -0.3300  -53.8630 C   0  0  0  0  0  0  0  0  0  0  0  0
    8.2880   -1.5280  -53.4530 C   0  0  0  0  0  0  0  0  0  0  0  0
    7.9550   -2.5150  -52.4320 C   0  0  0  0  0  0  0  0  0  0  0  0
    7.4380   -3.7600  -52.8030 C   0  0  0  0  0  0  0  0  0  0  0  0
    7.1220   -4.7080  -51.8270 C   0  0  0  0  0  0  0  0  0  0  0  0
    7.3170   -4.4120  -50.4790 C   0  0  0  0  0  0  0  0  0  0  0  0
    7.8230   -3.1680  -50.1030 C   0  0  0  0  0  0  0  0  0  0  0  0
    8.1390   -2.2190  -51.0770 C   0  0  0  0  0  0  0  0  0  0  0  0
   10.7271   -4.7456  -56.0417 H   0  0  0  0  0  0  0  0  0  0  0  0
    9.3868   -4.2785  -54.7708 H   0  0  0  0  0  0  0  0  0  0  0  0
   12.1091   -2.9343  -55.2821 H   0  0  0  0  0  0  0  0  0  0  0  0
   10.5779   -2.7090  -52.7752 H   0  0  0  0  0  0  0  0  0  0  0  0
   11.5708   -1.4112  -53.5731 H   0  0  0  0  0  0  0  0  0  0  0  0
    9.9770    1.2640  -56.2800 H   0  0  0  0  0  0  0  0  0  0  0  0
    8.3387    1.5612  -59.1480 H   0  0  0  0  0  0  0  0  0  0  0  0
    7.0840    2.4906  -58.2424 H   0  0  0  0  0  0  0  0  0  0  0  0
    7.4244    3.4358  -60.5215 H   0  0  0  0  0  0  0  0  0  0  0  0
    7.8693    5.7864  -59.8076 H   0  0  0  0  0  0  0  0  0  0  0  0
    6.8248    4.9344  -58.6124 H   0  0  0  0  0  0  0  0  0  0  0  0
    8.6175    6.2502  -57.4734 H   0  0  0  0  0  0  0  0  0  0  0  0
   10.3049    6.1358  -59.3059 H   0  0  0  0  0  0  0  0  0  0  0  0
   10.9930    5.5369  -57.7549 H   0  0  0  0  0  0  0  0  0  0  0  0
   11.6048    4.0312  -59.6512 H   0  0  0  0  0  0  0  0  0  0  0  0
    9.6125    4.5007  -61.0781 H   0  0  0  0  0  0  0  0  0  0  0  0
    9.8065    2.7344  -60.7928 H   0  0  0  0  0  0  0  0  0  0  0  0
   10.7658    1.9137  -58.6373 H   0  0  0  0  0  0  0  0  0  0  0  0
   11.2520    3.1024  -57.3653 H   0  0  0  0  0  0  0  0  0  0  0  0
    9.5296    4.3750  -56.0992 H   0  0  0  0  0  0  0  0  0  0  0  0
    7.7788    4.1324  -56.4644 H   0  0  0  0  0  0  0  0  0  0  0  0
    5.8280   -0.2926  -52.7835 H   0  0  0  0  0  0  0  0  0  0  0  0
    5.7633    0.6315  -54.3224 H   0  0  0  0  0  0  0  0  0  0  0  0
    5.4456   -1.1364  -54.3224 H   0  0  0  0  0  0  0  0  0  0  0  0
    7.2797   -3.9935  -53.8662 H   0  0  0  0  0  0  0  0  0  0  0  0
    6.7193   -5.6881  -52.1222 H   0  0  0  0  0  0  0  0  0  0  0  0
    7.0716   -5.1603  -49.7110 H   0  0  0  0  0  0  0  0  0  0  0  0
    7.9732   -2.9344  -49.0386 H   0  0  0  0  0  0  0  0  0  0  0  0
    8.5335   -1.2365  -50.7785 H   0  0  0  0  0  0  0  0  0  0  0  0
  1  2  2  0
  2  3  1  0
  3  4  1  0
  4  5  1  0
  5  6  2  0
  6  7  1  0
  7  8  2  0
  7  9  1  0
 10  9  1  1
 10 11  1  0
 11 12  1  0
 12 13  1  0
 13 14  1  0
 14 15  1  0
 15 16  1  0
 16 17  1  0
 16 18  1  0
 14 19  1  0
  6 20  1  0
 20 21  1  0
 20 22  2  0
 22 23  1  0
 23 24  2  0
 24 25  1  0
 25 26  2  0
 26 27  1  0
 27 28  2  0
 22  4  1  0
 28 23  1  0
 18 10  1  0
 19 10  1  0
 17 12  1  0
  1 29  1  0
  1 30  1  0
  2 31  1  0
  3 32  1  0
  3 33  1  0
  9 34  1  0
 11 35  1  0
 11 36  1  0
 12 37  1  6
 13 38  1  0
 13 39  1  0
 14 40  1  1
 15 41  1  0
 15 42  1  0
 16 43  1  6
 17 44  1  0
 17 45  1  0
 18 46  1  0
 18 47  1  0
 19 48  1  0
 19 49  1  0
 21 50  1  0
 21 51  1  0
 21 52  1  0
 24 53  1  0
 25 54  1  0
 26 55  1  0
 27 56  1  0
 28 57  1  0
M  END
>  <meeko>  (30) 
{"is_sidechain": false}

$$$$

     RDKit          3D

 62 66  0  0  0  0  0  0  0  0999 V2000
    6.0200   -0.2800  -53.9760 C   0  0  0  0  0  0  0  0  0  0  0  0
    7.4740   -0.5140  -54.1750 C   0  0  0  0  0  0  0  0  0  0  0  0
    8.3520    0.1680  -55.0790 C   0  0  0  0  0  0  0  0  0  0  0  0
    8.0220    1.2290  -56.0540 C   0  0  0  0  0  0  0  0  0  0  0  0
    6.8870    1.6740  -56.1940 O   0  0  0  0  0  0  0  0  0  0  0  0
    9.1180    1.6870  -56.7660 N   0  0  0  0  0  0  0  0  0  0  0  0
    9.0870    2.8050  -57.7120 C   0  0  2  0  0  0  0  0  0  0  0  0
   10.4520    2.8520  -58.4500 C   0  0  0  0  0  0  0  0  0  0  0  0
   10.4970    4.0100  -59.4590 C   0  0  1  0  0  0  0  0  0  0  0  0
    9.3780    3.8200  -60.4950 C   0  0  0  0  0  0  0  0  0  0  0  0
    8.0120    3.7940  -59.7910 C   0  0  2  0  0  0  0  0  0  0  0  0
    7.8030    5.1200  -59.0390 C   0  0  0  0  0  0  0  0  0  0  0  0
    8.9190    5.3210  -57.9990 C   0  0  2  0  0  0  0  0  0  0  0  0
   10.2800    5.3370  -58.7130 C   0  0  0  0  0  0  0  0  0  0  0  0
    8.8880    4.1600  -56.9900 C   0  0  0  0  0  0  0  0  0  0  0  0
    7.9800    2.6300  -58.7830 C   0  0  0  0  0  0  0  0  0  0  0  0
    9.6090   -0.2910  -54.9580 N   0  0  0  0  0  0  0  0  0  0  0  0
    9.5440   -1.2300  -54.0010 N   0  0  0  0  0  0  0  0  0  0  0  0
   10.7700   -1.9050  -53.6140 C   0  0  0  0  0  0  0  0  0  0  0  0
   10.8530   -3.3600  -54.0820 C   0  0  0  0  0  0  0  0  0  0  0  0
   10.4360   -3.5500  -55.5440 C   0  0  0  0  0  0  0  0  0  0  0  0
   11.5270   -3.0550  -56.4860 C   0  0  0  0  0  0  0  0  0  0  0  0
   11.5450   -4.0110  -57.9840 Cl  0  0  0  0  0  0  0  0  0  0  0  0
    8.2770   -1.4330  -53.5130 C   0  0  0  0  0  0  0  0  0  0  0  0
    7.9360   -2.4050  -52.4810 C   0  0  0  0  0  0  0  0  0  0  0  0
    7.4150   -3.6550  -52.8360 C   0  0  0  0  0  0  0  0  0  0  0  0
    7.0870   -4.5860  -51.8480 C   0  0  0  0  0  0  0  0  0  0  0  0
    7.2830   -4.2750  -50.5040 C   0  0  0  0  0  0  0  0  0  0  0  0
    7.8090   -3.0340  -50.1440 C   0  0  0  0  0  0  0  0  0  0  0  0
    8.1380   -2.1020  -51.1300 C   0  0  0  0  0  0  0  0  0  0  0  0
    5.7984   -0.2443  -52.8992 H   0  0  0  0  0  0  0  0  0  0  0  0
    5.7354    0.6755  -54.4408 H   0  0  0  0  0  0  0  0  0  0  0  0
    5.4500   -1.0980  -54.4408 H   0  0  0  0  0  0  0  0  0  0  0  0
   10.0180    1.4350  -56.3810 H   0  0  0  0  0  0  0  0  0  0  0  0
   11.2552    2.9883  -57.7109 H   0  0  0  0  0  0  0  0  0  0  0  0
   10.5855    1.9071  -58.9971 H   0  0  0  0  0  0  0  0  0  0  0  0
   11.4727    4.0255  -59.9668 H   0  0  0  0  0  0  0  0  0  0  0  0
    9.4018    4.6519  -61.2143 H   0  0  0  0  0  0  0  0  0  0  0  0
    9.5314    2.8673  -61.0230 H   0  0  0  0  0  0  0  0  0  0  0  0
    7.2148    3.6602  -60.5370 H   0  0  0  0  0  0  0  0  0  0  0  0
    7.8216    5.9525  -59.7578 H   0  0  0  0  0  0  0  0  0  0  0  0
    6.8318    5.0916  -58.5233 H   0  0  0  0  0  0  0  0  0  0  0  0
    8.7665    6.2739  -57.4711 H   0  0  0  0  0  0  0  0  0  0  0  0
   10.3040    6.1681  -59.4332 H   0  0  0  0  0  0  0  0  0  0  0  0
   11.0780    5.4671  -57.9672 H   0  0  0  0  0  0  0  0  0  0  0  0
    9.6935    4.2991  -56.2540 H   0  0  0  0  0  0  0  0  0  0  0  0
    7.9098    4.1534  -56.4869 H   0  0  0  0  0  0  0  0  0  0  0  0
    6.9981    2.6076  -58.2877 H   0  0  0  0  0  0  0  0  0  0  0  0
    8.1552    1.6880  -59.3234 H   0  0  0  0  0  0  0  0  0  0  0  0
   11.6191   -1.3540  -54.0446 H   0  0  0  0  0  0  0  0  0  0  0  0
   10.7907   -1.9223  -52.5143 H   0  0  0  0  0  0  0  0  0  0  0  0
   11.8911   -3.7052  -53.9671 H   0  0  0  0  0  0  0  0  0  0  0  0
   10.1526   -3.9417  -53.4647 H   0  0  0  0  0  0  0  0  0  0  0  0
   10.2550   -4.6187  -55.7315 H   0  0  0  0  0  0  0  0  0  0  0  0
    9.5204   -2.9688  -55.7282 H   0  0  0  0  0  0  0  0  0  0  0  0
   11.3391   -1.9998  -56.7333 H   0  0  0  0  0  0  0  0  0  0  0  0
   12.5011   -3.1623  -55.9863 H   0  0  0  0  0  0  0  0  0  0  0  0
    7.2635   -3.9047  -53.8965 H   0  0  0  0  0  0  0  0  0  0  0  0
    6.6737   -5.5653  -52.1310 H   0  0  0  0  0  0  0  0  0  0  0  0
    7.0229   -5.0083  -49.7264 H   0  0  0  0  0  0  0  0  0  0  0  0
    7.9646   -2.7897  -49.0828 H   0  0  0  0  0  0  0  0  0  0  0  0
    8.5574   -1.1262  -50.8438 H   0  0  0  0  0  0  0  0  0  0  0  0
  1  2  1  0
  2  3  1  0
  3  4  1  0
  4  5  2  0
  4  6  1  0
  7  6  1  1
  7  8  1  0
  8  9  1  0
  9 10  1  0
 10 11  1  0
 11 12  1  0
 12 13  1  0
 13 14  1  0
 13 15  1  0
 11 16  1  0
  3 17  2  0
 17 18  1  0
 18 19  1  0
 19 20  1  0
 20 21  1  0
 21 22  1  0
 22 23  1  0
 18 24  1  0
 24 25  1  0
 25 26  2  0
 26 27  1  0
 27 28  2  0
 28 29  1  0
 29 30  2  0
 24  2  2  0
 30 25  1  0
 15  7  1  0
 16  7  1  0
 14  9  1  0
  1 31  1  0
  1 32  1  0
  1 33  1  0
  6 34  1  0
  8 35  1  0
  8 36  1  0
  9 37  1  6
 10 38  1  0
 10 39  1  0
 11 40  1  6
 12 41  1  0
 12 42  1  0
 13 43  1  1
 14 44  1  0
 14 45  1  0
 15 46  1  0
 15 47  1  0
 16 48  1  0
 16 49  1  0
 19 50  1  0
 19 51  1  0
 20 52  1  0
 20 53  1  0
 21 54  1  0
 21 55  1  0
 22 56  1  0
 22 57  1  0
 26 58  1  0
 27 59  1  0
 28 60  1  0
 29 61  1  0
 30 62  1  0
M  END
>  <meeko>  (31) 
{"is_sidechain": false}

$$$$

     RDKit          3D

 50 54  0  0  0  0  0  0  0  0999 V2000
    6.1690   -0.1660  -53.8350 C   0  0  0  0  0  0  0  0  0  0  0  0
    7.6000   -0.4840  -54.0790 C   0  0  0  0  0  0  0  0  0  0  0  0
    8.4890    0.1390  -55.0180 C   0  0  0  0  0  0  0  0  0  0  0  0
    8.2160    1.2740  -55.9240 C   0  0  0  0  0  0  0  0  0  0  0  0
    7.1030    1.5020  -56.3880 O   0  0  0  0  0  0  0  0  0  0  0  0
    9.3380    2.0320  -56.2150 N   0  0  0  0  0  0  0  0  0  0  0  0
    9.3780    3.1320  -57.1600 C   0  0  2  0  0  0  0  0  0  0  0  0
    9.0880    2.6010  -58.6110 C   0  0  0  0  0  0  0  0  0  0  0  0
    9.1070    3.7400  -59.6680 C   0  0  2  0  0  0  0  0  0  0  0  0
   10.4300    4.5010  -59.5760 C   0  0  0  0  0  0  0  0  0  0  0  0
   10.3370    5.0640  -58.1520 C   0  0  2  0  0  0  0  0  0  0  0  0
   10.6970    3.9240  -57.1860 C   0  0  0  0  0  0  0  0  0  0  0  0
    8.7990    5.3020  -57.9260 C   0  0  1  0  0  0  0  0  0  0  0  0
    8.1500    4.8530  -59.2410 C   0  0  0  0  0  0  0  0  0  0  0  0
    8.4050    4.2800  -56.8480 C   0  0  0  0  0  0  0  0  0  0  0  0
    9.6960   -0.4480  -54.9910 N   0  0  0  0  0  0  0  0  0  0  0  0
    9.5920   -1.4090  -54.0610 N   0  0  0  0  0  0  0  0  0  0  0  0
   10.7450   -2.2330  -53.7750 C   0  0  0  0  0  0  0  0  0  0  0  0
    8.3540   -1.4790  -53.4720 C   0  0  0  0  0  0  0  0  0  0  0  0
    7.9890   -2.4430  -52.4410 C   0  0  0  0  0  0  0  0  0  0  0  0
    8.1510   -2.1280  -51.0870 C   0  0  0  0  0  0  0  0  0  0  0  0
    7.8000   -3.0550  -50.1030 C   0  0  0  0  0  0  0  0  0  0  0  0
    7.2900   -4.3000  -50.4670 C   0  0  0  0  0  0  0  0  0  0  0  0
    7.1320   -4.6220  -51.8140 C   0  0  0  0  0  0  0  0  0  0  0  0
    7.4820   -3.6960  -52.8000 C   0  0  0  0  0  0  0  0  0  0  0  0
    5.9822   -0.1245  -52.7518 H   0  0  0  0  0  0  0  0  0  0  0  0
    5.9276    0.8077  -54.2863 H   0  0  0  0  0  0  0  0  0  0  0  0
    5.5380   -0.9458  -54.2863 H   0  0  0  0  0  0  0  0  0  0  0  0
   10.2200    1.5940  -55.9850 H   0  0  0  0  0  0  0  0  0  0  0  0
    9.8551    1.8587  -58.8764 H   0  0  0  0  0  0  0  0  0  0  0  0
    8.0822    2.1557  -58.6127 H   0  0  0  0  0  0  0  0  0  0  0  0
    8.8908    3.2707  -60.6391 H   0  0  0  0  0  0  0  0  0  0  0  0
   11.2930    3.8285  -59.6902 H   0  0  0  0  0  0  0  0  0  0  0  0
   10.5747    5.2606  -60.3583 H   0  0  0  0  0  0  0  0  0  0  0  0
   10.9704    5.9516  -58.0073 H   0  0  0  0  0  0  0  0  0  0  0  0
   11.5267    3.3140  -57.5727 H   0  0  0  0  0  0  0  0  0  0  0  0
   11.0431    4.2602  -56.1975 H   0  0  0  0  0  0  0  0  0  0  0  0
    8.5225    6.3298  -57.6483 H   0  0  0  0  0  0  0  0  0  0  0  0
    7.1311    4.4710  -59.0797 H   0  0  0  0  0  0  0  0  0  0  0  0
    8.0240    5.6548  -59.9835 H   0  0  0  0  0  0  0  0  0  0  0  0
    8.5637    4.6797  -55.8356 H   0  0  0  0  0  0  0  0  0  0  0  0
    7.3437    3.9911  -56.8644 H   0  0  0  0  0  0  0  0  0  0  0  0
   10.8705   -2.3227  -52.6859 H   0  0  0  0  0  0  0  0  0  0  0  0
   10.5987   -3.2323  -54.2108 H   0  0  0  0  0  0  0  0  0  0  0  0
   11.6431   -1.7709  -54.2108 H   0  0  0  0  0  0  0  0  0  0  0  0
    8.5560   -1.1473  -50.7969 H   0  0  0  0  0  0  0  0  0  0  0  0
    7.9262   -2.8023  -49.0399 H   0  0  0  0  0  0  0  0  0  0  0  0
    7.0121   -5.0286  -49.6912 H   0  0  0  0  0  0  0  0  0  0  0  0
    6.7316   -5.6056  -52.1008 H   0  0  0  0  0  0  0  0  0  0  0  0
    7.3584   -3.9534  -53.8623 H   0  0  0  0  0  0  0  0  0  0  0  0
  1  2  1  0
  2  3  1  0
  3  4  1  0
  4  5  2  0
  4  6  1  0
  7  6  1  1
  7  8  1  0
  8  9  1  0
  9 10  1  0
 10 11  1  0
 11 12  1  0
 11 13  1  0
 13 14  1  0
 13 15  1  0
  3 16  2  0
 16 17  1  0
 17 18  1  0
 17 19  1  0
 19 20  1  0
 20 21  2  0
 21 22  1  0
 22 23  2  0
 23 24  1  0
 24 25  2  0
 19  2  2  0
 25 20  1  0
 12  7  1  0
 15  7  1  0
 14  9  1  0
  1 26  1  0
  1 27  1  0
  1 28  1  0
  6 29  1  0
  8 30  1  0
  8 31  1  0
  9 32  1  6
 10 33  1  0
 10 34  1  0
 11 35  1  6
 12 36  1  0
 12 37  1  0
 13 38  1  1
 14 39  1  0
 14 40  1  0
 15 41  1  0
 15 42  1  0
 18 43  1  0
 18 44  1  0
 18 45  1  0
 21 46  1  0
 22 47  1  0
 23 48  1  0
 24 49  1  0
 25 50  1  0
M  END
>  <meeko>  (32) 
{"is_sidechain": false}

$$$$

     RDKit          3D

 53 57  0  0  0  0  0  0  0  0999 V2000
   11.5340   -0.8780  -56.0930 C   0  0  0  0  0  0  0  0  0  0  0  0
   10.3850   -1.1840  -55.2020 C   0  0  0  0  0  0  0  0  0  0  0  0
    9.1950   -0.4240  -55.0280 C   0  0  0  0  0  0  0  0  0  0  0  0
    8.7900    0.8200  -55.7120 C   0  0  0  0  0  0  0  0  0  0  0  0
    7.6450    1.2570  -55.6780 O   0  0  0  0  0  0  0  0  0  0  0  0
    9.8210    1.4220  -56.4170 N   0  0  0  0  0  0  0  0  0  0  0  0
    9.6640    2.6000  -57.2750 C   0  0  2  0  0  0  0  0  0  0  0  0
    8.5100    2.4160  -58.2900 C   0  0  0  0  0  0  0  0  0  0  0  0
    8.4050    3.6410  -59.2180 C   0  0  1  0  0  0  0  0  0  0  0  0
    8.1530    4.8990  -58.3690 C   0  0  0  0  0  0  0  0  0  0  0  0
    9.3130    5.1130  -57.3820 C   0  0  2  0  0  0  0  0  0  0  0  0
   10.6250    5.2710  -58.1660 C   0  0  0  0  0  0  0  0  0  0  0  0
   10.8870    4.0130  -59.0070 C   0  0  2  0  0  0  0  0  0  0  0  0
    9.7230    3.8060  -59.9900 C   0  0  0  0  0  0  0  0  0  0  0  0
   10.9800    2.7940  -58.0750 C   0  0  0  0  0  0  0  0  0  0  0  0
    9.4190    3.8910  -56.4530 C   0  0  0  0  0  0  0  0  0  0  0  0
    8.3850   -1.0090  -54.1390 N   0  0  0  0  0  0  0  0  0  0  0  0
    9.0590   -2.0810  -53.6520 N   0  0  0  0  0  0  0  0  0  0  0  0
    8.4890   -2.8030  -52.5530 C   0  0  0  0  0  0  0  0  0  0  0  0
    8.9140   -2.6310  -51.2310 C   0  0  0  0  0  0  0  0  0  0  0  0
    8.3180   -3.3600  -50.1940 C   0  0  0  0  0  0  0  0  0  0  0  0
    7.2890   -4.2590  -50.4640 C   0  0  0  0  0  0  0  0  0  0  0  0
    6.8400   -4.4220  -51.7710 C   0  0  0  0  0  0  0  0  0  0  0  0
    7.4300   -3.6950  -52.8080 C   0  0  0  0  0  0  0  0  0  0  0  0
   10.2340   -2.2870  -54.3700 C   0  0  0  0  0  0  0  0  0  0  0  0
   11.1160   -3.4810  -54.2720 C   0  0  0  0  0  0  0  0  0  0  0  0
   12.4185   -0.6424  -55.4829 H   0  0  0  0  0  0  0  0  0  0  0  0
   11.7482   -1.7504  -56.7278 H   0  0  0  0  0  0  0  0  0  0  0  0
   11.2859   -0.0146  -56.7278 H   0  0  0  0  0  0  0  0  0  0  0  0
   10.6270    0.8350  -56.5850 H   0  0  0  0  0  0  0  0  0  0  0  0
    8.7013    1.5183  -58.8963 H   0  0  0  0  0  0  0  0  0  0  0  0
    7.5651    2.3072  -57.7374 H   0  0  0  0  0  0  0  0  0  0  0  0
    7.5759    3.4998  -59.9270 H   0  0  0  0  0  0  0  0  0  0  0  0
    8.0724    5.7741  -59.0306 H   0  0  0  0  0  0  0  0  0  0  0  0
    7.2186    4.7696  -57.8031 H   0  0  0  0  0  0  0  0  0  0  0  0
    9.1293    6.0181  -56.7845 H   0  0  0  0  0  0  0  0  0  0  0  0
   10.5498    6.1445  -58.8303 H   0  0  0  0  0  0  0  0  0  0  0  0
   11.4549    5.4122  -57.4579 H   0  0  0  0  0  0  0  0  0  0  0  0
   11.8276    4.1306  -59.5651 H   0  0  0  0  0  0  0  0  0  0  0  0
    9.6485    4.6790  -60.6551 H   0  0  0  0  0  0  0  0  0  0  0  0
    9.9093    2.8989  -60.5836 H   0  0  0  0  0  0  0  0  0  0  0  0
   11.1695    1.8941  -58.6785 H   0  0  0  0  0  0  0  0  0  0  0  0
   11.8007    2.9614  -57.3619 H   0  0  0  0  0  0  0  0  0  0  0  0
   10.2560    4.0393  -55.7548 H   0  0  0  0  0  0  0  0  0  0  0  0
    8.4750    3.7844  -55.8984 H   0  0  0  0  0  0  0  0  0  0  0  0
    9.7212   -1.9188  -51.0047 H   0  0  0  0  0  0  0  0  0  0  0  0
    8.6650   -3.2216  -49.1594 H   0  0  0  0  0  0  0  0  0  0  0  0
    6.8331   -4.8379  -49.6473 H   0  0  0  0  0  0  0  0  0  0  0  0
    6.0206   -5.1232  -51.9877 H   0  0  0  0  0  0  0  0  0  0  0  0
    7.0623   -3.8212  -53.8370 H   0  0  0  0  0  0  0  0  0  0  0  0
   11.2928   -3.7203  -53.2130 H   0  0  0  0  0  0  0  0  0  0  0  0
   10.6313   -4.3364  -54.7653 H   0  0  0  0  0  0  0  0  0  0  0  0
   12.0761   -3.2691  -54.7653 H   0  0  0  0  0  0  0  0  0  0  0  0
  1  2  1  0
  2  3  1  0
  3  4  1  0
  4  5  2  0
  4  6  1  0
  7  6  1  1
  7  8  1  0
  8  9  1  0
  9 10  1  0
 10 11  1  0
 11 12  1  0
 12 13  1  0
 13 14  1  0
 13 15  1  0
 11 16  1  0
  3 17  2  0
 17 18  1  0
 18 19  1  0
 19 20  2  0
 20 21  1  0
 21 22  2  0
 22 23  1  0
 23 24  2  0
 18 25  1  0
 25 26  1  0
 25  2  2  0
 15  7  1  0
 24 19  1  0
 16  7  1  0
 14  9  1  0
  1 27  1  0
  1 28  1  0
  1 29  1  0
  6 30  1  0
  8 31  1  0
  8 32  1  0
  9 33  1  6
 10 34  1  0
 10 35  1  0
 11 36  1  1
 12 37  1  0
 12 38  1  0
 13 39  1  6
 14 40  1  0
 14 41  1  0
 15 42  1  0
 15 43  1  0
 16 44  1  0
 16 45  1  0
 20 46  1  0
 21 47  1  0
 22 48  1  0
 23 49  1  0
 24 50  1  0
 26 51  1  0
 26 52  1  0
 26 53  1  0
M  END
>  <meeko>  (33) 
{"is_sidechain": false}

$$$$

     RDKit          3D

 60 64  0  0  0  0  0  0  0  0999 V2000
    6.9440    1.5540  -56.1070 O   0  0  0  0  0  0  0  0  0  0  0  0
    8.1020    1.1990  -55.9180 C   0  0  0  0  0  0  0  0  0  0  0  0
    9.2010    1.7370  -56.5500 N   0  0  0  0  0  0  0  0  0  0  0  0
    9.1880    2.8070  -57.5410 C   0  0  2  0  0  0  0  0  0  0  0  0
    8.9300    4.1870  -56.8870 C   0  0  0  0  0  0  0  0  0  0  0  0
    8.9710    5.3040  -57.9440 C   0  0  1  0  0  0  0  0  0  0  0  0
   10.3550    5.3230  -58.6120 C   0  0  0  0  0  0  0  0  0  0  0  0
   10.6300    3.9700  -59.2880 C   0  0  2  0  0  0  0  0  0  0  0  0
    9.5520    3.7040  -60.3510 C   0  0  0  0  0  0  0  0  0  0  0  0
    8.1630    3.6770  -59.6940 C   0  0  2  0  0  0  0  0  0  0  0  0
    7.8970    5.0300  -59.0120 C   0  0  0  0  0  0  0  0  0  0  0  0
    8.1220    2.5600  -58.6360 C   0  0  0  0  0  0  0  0  0  0  0  0
   10.5790    2.8570  -58.2290 C   0  0  0  0  0  0  0  0  0  0  0  0
    8.4610    0.1310  -54.9700 C   0  0  0  0  0  0  0  0  0  0  0  0
    7.5890   -0.5680  -54.1010 C   0  0  0  0  0  0  0  0  0  0  0  0
    8.3770   -1.4710  -53.4160 C   0  0  0  0  0  0  0  0  0  0  0  0
    8.0040   -2.4450  -52.4020 C   0  0  0  0  0  0  0  0  0  0  0  0
    8.1740   -2.1490  -51.0450 C   0  0  0  0  0  0  0  0  0  0  0  0
    7.8190   -3.0850  -50.0720 C   0  0  0  0  0  0  0  0  0  0  0  0
    7.2870   -4.3160  -50.4500 C   0  0  0  0  0  0  0  0  0  0  0  0
    7.1060   -4.6140  -51.8010 C   0  0  0  0  0  0  0  0  0  0  0  0
    7.4620   -3.6790  -52.7750 C   0  0  0  0  0  0  0  0  0  0  0  0
    9.6530   -1.2560  -53.8770 N   0  0  0  0  0  0  0  0  0  0  0  0
   10.8700   -1.9360  -53.4700 C   0  0  0  0  0  0  0  0  0  0  0  0
   11.0130   -3.3530  -54.0320 C   0  0  0  0  0  0  0  0  0  0  0  0
   10.3490   -3.5270  -55.4030 C   0  0  0  0  0  0  0  0  0  0  0  0
   11.3420   -3.3620  -56.5460 C   0  0  0  0  0  0  0  0  0  0  0  0
   11.5780   -1.9820  -56.7870 O   0  0  0  0  0  0  0  0  0  0  0  0
    9.7300   -0.3080  -54.8380 N   0  0  0  0  0  0  0  0  0  0  0  0
   10.0820    1.3130  -56.2670 H   0  0  0  0  0  0  0  0  0  0  0  0
    7.9404    4.1800  -56.4068 H   0  0  0  0  0  0  0  0  0  0  0  0
    9.7145    4.3772  -56.1398 H   0  0  0  0  0  0  0  0  0  0  0  0
    8.7793    6.2747  -57.4635 H   0  0  0  0  0  0  0  0  0  0  0  0
   10.3836    6.1209  -59.3686 H   0  0  0  0  0  0  0  0  0  0  0  0
   11.1233    5.5075  -57.8467 H   0  0  0  0  0  0  0  0  0  0  0  0
   11.6221    3.9884  -59.7628 H   0  0  0  0  0  0  0  0  0  0  0  0
    9.5818    4.5017  -61.1079 H   0  0  0  0  0  0  0  0  0  0  0  0
    9.7458    2.7314  -60.8270 H   0  0  0  0  0  0  0  0  0  0  0  0
    7.3959    3.4904  -60.4600 H   0  0  0  0  0  0  0  0  0  0  0  0
    7.9226    5.8294  -59.7672 H   0  0  0  0  0  0  0  0  0  0  0  0
    6.9087    5.0021  -58.5299 H   0  0  0  0  0  0  0  0  0  0  0  0
    7.1251    2.5384  -58.1716 H   0  0  0  0  0  0  0  0  0  0  0  0
    8.3341    1.5987  -59.1269 H   0  0  0  0  0  0  0  0  0  0  0  0
   10.7753    1.8895  -58.7142 H   0  0  0  0  0  0  0  0  0  0  0  0
   11.3411    3.0660  -57.4639 H   0  0  0  0  0  0  0  0  0  0  0  0
    6.5041   -0.4214  -53.9935 H   0  0  0  0  0  0  0  0  0  0  0  0
    8.5887   -1.1757  -50.7439 H   0  0  0  0  0  0  0  0  0  0  0  0
    7.9593   -2.8506  -49.0065 H   0  0  0  0  0  0  0  0  0  0  0  0
    7.0094   -5.0536  -49.6826 H   0  0  0  0  0  0  0  0  0  0  0  0
    6.6831   -5.5849  -52.0986 H   0  0  0  0  0  0  0  0  0  0  0  0
    7.3156   -3.9139  -53.8396 H   0  0  0  0  0  0  0  0  0  0  0  0
   11.7292   -1.3405  -53.8121 H   0  0  0  0  0  0  0  0  0  0  0  0
   10.8283   -2.0321  -52.3750 H   0  0  0  0  0  0  0  0  0  0  0  0
   12.0840   -3.5841  -54.1300 H   0  0  0  0  0  0  0  0  0  0  0  0
   10.5062   -4.0352  -53.3336 H   0  0  0  0  0  0  0  0  0  0  0  0
    9.9084   -4.5334  -55.4585 H   0  0  0  0  0  0  0  0  0  0  0  0
    9.5795   -2.7479  -55.5079 H   0  0  0  0  0  0  0  0  0  0  0  0
   12.2896   -3.8528  -56.2794 H   0  0  0  0  0  0  0  0  0  0  0  0
   10.9272   -3.8223  -57.4549 H   0  0  0  0  0  0  0  0  0  0  0  0
   10.7350   -1.5190  -56.6430 H   0  0  0  0  0  0  0  0  0  0  0  0
  1  2  2  0
  2  3  1  0
  4  3  1  1
  4  5  1  0
  5  6  1  0
  6  7  1  0
  7  8  1  0
  8  9  1  0
  9 10  1  0
 10 11  1  0
 10 12  1  0
  8 13  1  0
  2 14  1  0
 14 15  1  0
 15 16  2  0
 16 17  1  0
 17 18  2  0
 18 19  1  0
 19 20  2  0
 20 21  1  0
 21 22  2  0
 16 23  1  0
 23 24  1  0
 24 25  1  0
 25 26  1  0
 26 27  1  0
 27 28  1  0
 23 29  1  0
 12  4  1  0
 29 14  2  0
 13  4  1  0
 22 17  1  0
 11  6  1  0
  3 30  1  0
  5 31  1  0
  5 32  1  0
  6 33  1  1
  7 34  1  0
  7 35  1  0
  8 36  1  6
  9 37  1  0
  9 38  1  0
 10 39  1  6
 11 40  1  0
 11 41  1  0
 12 42  1  0
 12 43  1  0
 13 44  1  0
 13 45  1  0
 15 46  1  0
 18 47  1  0
 19 48  1  0
 20 49  1  0
 21 50  1  0
 22 51  1  0
 24 52  1  0
 24 53  1  0
 25 54  1  0
 25 55  1  0
 26 56  1  0
 26 57  1  0
 27 58  1  0
 27 59  1  0
 28 60  1  0
M  END
>  <meeko>  (34) 
{"is_sidechain": false}

$$$$

     RDKit          3D

 65 69  0  0  0  0  0  0  0  0999 V2000
    6.0250   -0.2960  -53.9020 C   0  0  0  0  0  0  0  0  0  0  0  0
    7.4760   -0.5470  -54.1040 C   0  0  0  0  0  0  0  0  0  0  0  0
    8.3640    0.1140  -55.0140 C   0  0  0  0  0  0  0  0  0  0  0  0
    8.0730    1.2360  -55.9320 C   0  0  0  0  0  0  0  0  0  0  0  0
    6.9340    1.6270  -56.1640 O   0  0  0  0  0  0  0  0  0  0  0  0
    9.2020    1.7770  -56.5260 N   0  0  0  0  0  0  0  0  0  0  0  0
    9.1840    2.8200  -57.5540 C   0  0  2  0  0  0  0  0  0  0  0  0
    8.1450    2.5140  -58.6610 C   0  0  0  0  0  0  0  0  0  0  0  0
    8.1890    3.5940  -59.7560 C   0  0  1  0  0  0  0  0  0  0  0  0
    7.8890    4.9660  -59.1300 C   0  0  0  0  0  0  0  0  0  0  0  0
    8.9380    5.2980  -58.0550 C   0  0  2  0  0  0  0  0  0  0  0  0
   10.3330    5.3160  -58.6960 C   0  0  0  0  0  0  0  0  0  0  0  0
   10.6430    3.9440  -59.3150 C   0  0  2  0  0  0  0  0  0  0  0  0
    9.5900    3.6210  -60.3870 C   0  0  0  0  0  0  0  0  0  0  0  0
   10.5880    2.8720  -58.2160 C   0  0  0  0  0  0  0  0  0  0  0  0
    8.8950    4.2210  -56.9570 C   0  0  0  0  0  0  0  0  0  0  0  0
    9.5960   -0.4180  -54.9470 N   0  0  0  0  0  0  0  0  0  0  0  0
    9.5060   -1.3870  -54.0200 N   0  0  0  0  0  0  0  0  0  0  0  0
   10.6980   -2.1620  -53.7190 C   0  0  0  0  0  0  0  0  0  0  0  0
   11.2650   -2.9090  -54.9300 C   0  0  0  0  0  0  0  0  0  0  0  0
   10.3850   -4.0820  -55.3680 C   0  0  0  0  0  0  0  0  0  0  0  0
   10.7510   -4.6280  -56.7480 C   0  0  0  0  0  0  0  0  0  0  0  0
   11.5810   -3.6680  -57.5840 C   0  0  0  0  0  0  0  0  0  0  0  0
   11.7210   -4.1980  -58.8300 F   0  0  0  0  0  0  0  0  0  0  0  0
    8.2550   -1.5030  -53.4670 C   0  0  0  0  0  0  0  0  0  0  0  0
    7.8930   -2.4700  -52.4400 C   0  0  0  0  0  0  0  0  0  0  0  0
    8.0440   -2.1520  -51.0860 C   0  0  0  0  0  0  0  0  0  0  0  0
    7.6950   -3.0810  -50.1030 C   0  0  0  0  0  0  0  0  0  0  0  0
    7.1980   -4.3300  -50.4700 C   0  0  0  0  0  0  0  0  0  0  0  0
    7.0530   -4.6560  -51.8180 C   0  0  0  0  0  0  0  0  0  0  0  0
    7.4020   -3.7300  -52.8020 C   0  0  0  0  0  0  0  0  0  0  0  0
    5.8059   -0.2581  -52.8247 H   0  0  0  0  0  0  0  0  0  0  0  0
    5.7507    0.6629  -54.3659 H   0  0  0  0  0  0  0  0  0  0  0  0
    5.4445   -1.1071  -54.3659 H   0  0  0  0  0  0  0  0  0  0  0  0
   10.0380    1.2120  -56.4600 H   0  0  0  0  0  0  0  0  0  0  0  0
    8.3712    1.5351  -59.1089 H   0  0  0  0  0  0  0  0  0  0  0  0
    7.1406    2.5033  -58.2125 H   0  0  0  0  0  0  0  0  0  0  0  0
    7.4390    3.3673  -60.5281 H   0  0  0  0  0  0  0  0  0  0  0  0
    7.9151    5.7371  -59.9141 H   0  0  0  0  0  0  0  0  0  0  0  0
    6.8928    4.9389  -58.6643 H   0  0  0  0  0  0  0  0  0  0  0  0
    8.7215    6.2832  -57.6162 H   0  0  0  0  0  0  0  0  0  0  0  0
   10.3634    6.0856  -59.4814 H   0  0  0  0  0  0  0  0  0  0  0  0
   11.0830    5.5423  -57.9238 H   0  0  0  0  0  0  0  0  0  0  0  0
   11.6437    3.9605  -59.7713 H   0  0  0  0  0  0  0  0  0  0  0  0
    9.6212    4.3909  -61.1720 H   0  0  0  0  0  0  0  0  0  0  0  0
    9.8089    2.6350  -60.8228 H   0  0  0  0  0  0  0  0  0  0  0  0
   10.8123    1.8908  -58.6599 H   0  0  0  0  0  0  0  0  0  0  0  0
   11.3288    3.1258  -57.4435 H   0  0  0  0  0  0  0  0  0  0  0  0
    9.6531    4.4521  -56.1943 H   0  0  0  0  0  0  0  0  0  0  0  0
    7.8914    4.2140  -56.5068 H   0  0  0  0  0  0  0  0  0  0  0  0
   11.4710   -1.4778  -53.3391 H   0  0  0  0  0  0  0  0  0  0  0  0
   10.4105   -2.9213  -52.9769 H   0  0  0  0  0  0  0  0  0  0  0  0
   11.3529   -2.2030  -55.7690 H   0  0  0  0  0  0  0  0  0  0  0  0
   12.2430   -3.3193  -54.6381 H   0  0  0  0  0  0  0  0  0  0  0  0
   10.4914   -4.8926  -54.6320 H   0  0  0  0  0  0  0  0  0  0  0  0
    9.3514   -3.7104  -55.4275 H   0  0  0  0  0  0  0  0  0  0  0  0
   11.3250   -5.5566  -56.6131 H   0  0  0  0  0  0  0  0  0  0  0  0
    9.8076   -4.7928  -57.2892 H   0  0  0  0  0  0  0  0  0  0  0  0
   11.0718   -2.6951  -57.6486 H   0  0  0  0  0  0  0  0  0  0  0  0
   12.5682   -3.5192  -57.1222 H   0  0  0  0  0  0  0  0  0  0  0  0
    8.4387   -1.1675  -50.7946 H   0  0  0  0  0  0  0  0  0  0  0  0
    7.8125   -2.8266  -49.0393 H   0  0  0  0  0  0  0  0  0  0  0  0
    6.9197   -5.0597  -49.6954 H   0  0  0  0  0  0  0  0  0  0  0  0
    6.6633   -5.6436  -52.1059 H   0  0  0  0  0  0  0  0  0  0  0  0
    7.2910   -3.9909  -53.8648 H   0  0  0  0  0  0  0  0  0  0  0  0
  1  2  1  0
  2  3  1  0
  3  4  1  0
  4  5  2  0
  4  6  1  0
  7  6  1  1
  7  8  1  0
  8  9  1  0
  9 10  1  0
 10 11  1  0
 11 12  1  0
 12 13  1  0
 13 14  1  0
 13 15  1  0
 11 16  1  0
  3 17  2  0
 17 18  1  0
 18 19  1  0
 19 20  1  0
 20 21  1  0
 21 22  1  0
 22 23  1  0
 23 24  1  0
 18 25  1  0
 25 26  1  0
 26 27  2  0
 27 28  1  0
 28 29  2  0
 29 30  1  0
 30 31  2  0
 25  2  2  0
 31 26  1  0
 15  7  1  0
 16  7  1  0
 14  9  1  0
  1 32  1  0
  1 33  1  0
  1 34  1  0
  6 35  1  0
  8 36  1  0
  8 37  1  0
  9 38  1  6
 10 39  1  0
 10 40  1  0
 11 41  1  1
 12 42  1  0
 12 43  1  0
 13 44  1  6
 14 45  1  0
 14 46  1  0
 15 47  1  0
 15 48  1  0
 16 49  1  0
 16 50  1  0
 19 51  1  0
 19 52  1  0
 20 53  1  0
 20 54  1  0
 21 55  1  0
 21 56  1  0
 22 57  1  0
 22 58  1  0
 23 59  1  0
 23 60  1  0
 27 61  1  0
 28 62  1  0
 29 63  1  0
 30 64  1  0
 31 65  1  0
M  END
>  <meeko>  (35) 
{"is_sidechain": false}

$$$$

     RDKit          3D

 63 67  0  0  0  0  0  0  0  0999 V2000
    6.9300    1.6130  -56.1200 O   0  0  0  0  0  0  0  0  0  0  0  0
    8.0810    1.2230  -55.9670 C   0  0  0  0  0  0  0  0  0  0  0  0
    9.1770    1.7290  -56.6310 N   0  0  0  0  0  0  0  0  0  0  0  0
    9.1690    2.7970  -57.6230 C   0  0  2  0  0  0  0  0  0  0  0  0
   10.5590    2.8440  -58.3110 C   0  0  0  0  0  0  0  0  0  0  0  0
   10.6120    3.9550  -59.3710 C   0  0  1  0  0  0  0  0  0  0  0  0
    9.5350    3.6890  -60.4340 C   0  0  0  0  0  0  0  0  0  0  0  0
    8.1450    3.6640  -59.7780 C   0  0  2  0  0  0  0  0  0  0  0  0
    7.8810    5.0200  -59.0990 C   0  0  0  0  0  0  0  0  0  0  0  0
    8.9540    5.2940  -58.0320 C   0  0  2  0  0  0  0  0  0  0  0  0
   10.3390    5.3090  -58.6980 C   0  0  0  0  0  0  0  0  0  0  0  0
    8.9110    4.1790  -56.9720 C   0  0  0  0  0  0  0  0  0  0  0  0
    8.1020    2.5500  -58.7180 C   0  0  0  0  0  0  0  0  0  0  0  0
    8.4360    0.1410  -55.0320 C   0  0  0  0  0  0  0  0  0  0  0  0
    7.5740   -0.5250  -54.1310 C   0  0  0  0  0  0  0  0  0  0  0  0
    8.3490   -1.4650  -53.4790 C   0  0  0  0  0  0  0  0  0  0  0  0
    7.9510   -2.4220  -52.4540 C   0  0  0  0  0  0  0  0  0  0  0  0
    8.1430   -2.1410  -51.0960 C   0  0  0  0  0  0  0  0  0  0  0  0
    7.7650   -3.0680  -50.1220 C   0  0  0  0  0  0  0  0  0  0  0  0
    7.2030   -4.2870  -50.5000 C   0  0  0  0  0  0  0  0  0  0  0  0
    7.0220   -4.5810  -51.8500 C   0  0  0  0  0  0  0  0  0  0  0  0
    7.3980   -3.6540  -52.8240 C   0  0  0  0  0  0  0  0  0  0  0  0
    9.6180   -1.2910  -53.9800 N   0  0  0  0  0  0  0  0  0  0  0  0
   10.8480   -1.9710  -53.6030 C   0  0  0  0  0  0  0  0  0  0  0  0
   10.9760   -3.3710  -54.2100 C   0  0  0  0  0  0  0  0  0  0  0  0
   10.5860   -3.4700  -55.6870 C   0  0  0  0  0  0  0  0  0  0  0  0
   11.5320   -2.7990  -56.6930 C   0  0  0  0  0  0  0  0  0  0  0  0
   11.9290   -3.6780  -57.8730 C   0  0  0  0  0  0  0  0  0  0  0  0
   11.1190   -4.8450  -57.9090 O   0  0  0  0  0  0  0  0  0  0  0  0
    9.6900   -0.3430  -54.9460 N   0  0  0  0  0  0  0  0  0  0  0  0
   10.0530    1.2760  -56.3760 H   0  0  0  0  0  0  0  0  0  0  0  0
   11.3304    3.0354  -57.5505 H   0  0  0  0  0  0  0  0  0  0  0  0
   10.7373    1.8783  -58.8066 H   0  0  0  0  0  0  0  0  0  0  0  0
   11.6045    3.9713  -59.8450 H   0  0  0  0  0  0  0  0  0  0  0  0
    9.5661    4.4858  -61.1917 H   0  0  0  0  0  0  0  0  0  0  0  0
    9.7282    2.7157  -60.9087 H   0  0  0  0  0  0  0  0  0  0  0  0
    7.3779    3.4757  -60.5436 H   0  0  0  0  0  0  0  0  0  0  0  0
    7.9086    5.8176  -59.8561 H   0  0  0  0  0  0  0  0  0  0  0  0
    6.8923    4.9953  -58.6175 H   0  0  0  0  0  0  0  0  0  0  0  0
    8.7629    6.2664  -57.5545 H   0  0  0  0  0  0  0  0  0  0  0  0
   10.3703    6.1056  -59.4559 H   0  0  0  0  0  0  0  0  0  0  0  0
   11.1066    5.4932  -57.9319 H   0  0  0  0  0  0  0  0  0  0  0  0
    9.6842    4.3713  -56.2136 H   0  0  0  0  0  0  0  0  0  0  0  0
    7.9145    4.1709  -56.5062 H   0  0  0  0  0  0  0  0  0  0  0  0
    7.1051    2.5315  -58.2535 H   0  0  0  0  0  0  0  0  0  0  0  0
    8.3123    1.5874  -59.2069 H   0  0  0  0  0  0  0  0  0  0  0  0
    6.5015   -0.3334  -53.9794 H   0  0  0  0  0  0  0  0  0  0  0  0
    8.5943   -1.1843  -50.7942 H   0  0  0  0  0  0  0  0  0  0  0  0
    7.9106   -2.8365  -49.0566 H   0  0  0  0  0  0  0  0  0  0  0  0
    6.9028   -5.0160  -49.7329 H   0  0  0  0  0  0  0  0  0  0  0  0
    6.5825   -5.5442  -52.1486 H   0  0  0  0  0  0  0  0  0  0  0  0
    7.2589   -3.8930  -53.8887 H   0  0  0  0  0  0  0  0  0  0  0  0
   11.7005   -1.3641  -53.9419 H   0  0  0  0  0  0  0  0  0  0  0  0
   10.8328   -2.0899  -52.5095 H   0  0  0  0  0  0  0  0  0  0  0  0
   12.0233   -3.6923  -54.1106 H   0  0  0  0  0  0  0  0  0  0  0  0
   10.2706   -4.0117  -53.6605 H   0  0  0  0  0  0  0  0  0  0  0  0
   10.5260   -4.5375  -55.9457 H   0  0  0  0  0  0  0  0  0  0  0  0
    9.6350   -2.9240  -55.7736 H   0  0  0  0  0  0  0  0  0  0  0  0
   11.0336   -1.9008  -57.0865 H   0  0  0  0  0  0  0  0  0  0  0  0
   12.4594   -2.5728  -56.1464 H   0  0  0  0  0  0  0  0  0  0  0  0
   11.7953   -3.1138  -58.8078 H   0  0  0  0  0  0  0  0  0  0  0  0
   12.9823   -3.9750  -57.7614 H   0  0  0  0  0  0  0  0  0  0  0  0
   11.4680   -5.4500  -57.2300 H   0  0  0  0  0  0  0  0  0  0  0  0
  1  2  2  0
  2  3  1  0
  4  3  1  1
  4  5  1  0
  5  6  1  0
  6  7  1  0
  7  8  1  0
  8  9  1  0
  9 10  1  0
 10 11  1  0
 10 12  1  0
  8 13  1  0
  2 14  1  0
 14 15  1  0
 15 16  2  0
 16 17  1  0
 17 18  2  0
 18 19  1  0
 19 20  2  0
 20 21  1  0
 21 22  2  0
 16 23  1  0
 23 24  1  0
 24 25  1  0
 25 26  1  0
 26 27  1  0
 27 28  1  0
 28 29  1  0
 23 30  1  0
 12  4  1  0
 30 14  2  0
 13  4  1  0
 22 17  1  0
 11  6  1  0
  3 31  1  0
  5 32  1  0
  5 33  1  0
  6 34  1  6
  7 35  1  0
  7 36  1  0
  8 37  1  6
  9 38  1  0
  9 39  1  0
 10 40  1  1
 11 41  1  0
 11 42  1  0
 12 43  1  0
 12 44  1  0
 13 45  1  0
 13 46  1  0
 15 47  1  0
 18 48  1  0
 19 49  1  0
 20 50  1  0
 21 51  1  0
 22 52  1  0
 24 53  1  0
 24 54  1  0
 25 55  1  0
 25 56  1  0
 26 57  1  0
 26 58  1  0
 27 59  1  0
 27 60  1  0
 28 61  1  0
 28 62  1  0
 29 63  1  0
M  END
>  <meeko>  (36) 
{"is_sidechain": false}

$$$$

     RDKit          3D

 66 70  0  0  0  0  0  0  0  0999 V2000
    6.3720   -0.3200  -53.7850 C   0  0  0  0  0  0  0  0  0  0  0  0
    7.7660   -0.6130  -54.0250 N   0  0  0  0  0  0  0  0  0  0  0  0
    8.5640    0.0450  -54.9350 C   0  0  0  0  0  0  0  0  0  0  0  0
    8.1610    1.1090  -55.8470 C   0  0  0  0  0  0  0  0  0  0  0  0
    6.9970    1.4490  -56.0350 O   0  0  0  0  0  0  0  0  0  0  0  0
    9.2390    1.6870  -56.4820 N   0  0  0  0  0  0  0  0  0  0  0  0
    9.1900    2.7560  -57.4750 C   0  0  2  0  0  0  0  0  0  0  0  0
    8.8830    4.1270  -56.8250 C   0  0  0  0  0  0  0  0  0  0  0  0
    8.8850    5.2420  -57.8860 C   0  0  1  0  0  0  0  0  0  0  0  0
   10.2690    5.3070  -58.5510 C   0  0  0  0  0  0  0  0  0  0  0  0
   10.5920    3.9630  -59.2240 C   0  0  2  0  0  0  0  0  0  0  0  0
    9.5250    3.6570  -60.2870 C   0  0  0  0  0  0  0  0  0  0  0  0
    8.1370    3.5820  -59.6320 C   0  0  2  0  0  0  0  0  0  0  0  0
    7.8240    4.9270  -58.9530 C   0  0  0  0  0  0  0  0  0  0  0  0
    8.1340    2.4670  -58.5710 C   0  0  0  0  0  0  0  0  0  0  0  0
   10.5790    2.8520  -58.1620 C   0  0  0  0  0  0  0  0  0  0  0  0
    9.8030   -0.4240  -54.8910 N   0  0  0  0  0  0  0  0  0  0  0  0
    9.7960   -1.4210  -53.9460 C   0  0  0  0  0  0  0  0  0  0  0  0
   11.0470   -2.1830  -53.6610 C   0  0  0  0  0  0  0  0  0  0  0  0
   11.0540   -3.5910  -54.2620 C   0  0  0  0  0  0  0  0  0  0  0  0
   10.3240   -3.7400  -55.6030 C   0  0  0  0  0  0  0  0  0  0  0  0
   10.8670   -4.8250  -56.5410 C   0  0  0  0  0  0  0  0  0  0  0  0
   11.5360   -4.3070  -57.8090 C   0  0  0  0  0  0  0  0  0  0  0  0
   11.8530   -2.9270  -57.6970 O   0  0  0  0  0  0  0  0  0  0  0  0
    8.5340   -1.5690  -53.3930 C   0  0  0  0  0  0  0  0  0  0  0  0
    8.0530   -2.4980  -52.3800 C   0  0  0  0  0  0  0  0  0  0  0  0
    7.4790   -3.7170  -52.7570 C   0  0  0  0  0  0  0  0  0  0  0  0
    7.0220   -4.6080  -51.7840 C   0  0  0  0  0  0  0  0  0  0  0  0
    7.1400   -4.2870  -50.4330 C   0  0  0  0  0  0  0  0  0  0  0  0
    7.7160   -3.0760  -50.0520 C   0  0  0  0  0  0  0  0  0  0  0  0
    8.1740   -2.1830  -51.0230 C   0  0  0  0  0  0  0  0  0  0  0  0
    6.1868   -0.2811  -52.7014 H   0  0  0  0  0  0  0  0  0  0  0  0
    6.1186    0.6510  -54.2354 H   0  0  0  0  0  0  0  0  0  0  0  0
    5.7491   -1.1068  -54.2354 H   0  0  0  0  0  0  0  0  0  0  0  0
   10.1350    1.2760  -56.2290 H   0  0  0  0  0  0  0  0  0  0  0  0
    7.8940    4.0863  -56.3452 H   0  0  0  0  0  0  0  0  0  0  0  0
    9.6596    4.3471  -56.0777 H   0  0  0  0  0  0  0  0  0  0  0  0
    8.6575    6.2072  -57.4100 H   0  0  0  0  0  0  0  0  0  0  0  0
   10.2720    6.1041  -59.3090 H   0  0  0  0  0  0  0  0  0  0  0  0
   11.0287    5.5189  -57.7842 H   0  0  0  0  0  0  0  0  0  0  0  0
   11.5830    4.0148  -59.6985 H   0  0  0  0  0  0  0  0  0  0  0  0
    9.5273    4.4538  -61.0454 H   0  0  0  0  0  0  0  0  0  0  0  0
    9.7536    2.6907  -60.7604 H   0  0  0  0  0  0  0  0  0  0  0  0
    7.3778    3.3662  -60.3982 H   0  0  0  0  0  0  0  0  0  0  0  0
    7.8222    5.7248  -59.7104 H   0  0  0  0  0  0  0  0  0  0  0  0
    6.8372    4.8649  -58.4709 H   0  0  0  0  0  0  0  0  0  0  0  0
    7.1379    2.4112  -58.1078 H   0  0  0  0  0  0  0  0  0  0  0  0
    8.3804    1.5122  -59.0585 H   0  0  0  0  0  0  0  0  0  0  0  0
   10.8091    1.8905  -58.6443 H   0  0  0  0  0  0  0  0  0  0  0  0
   11.3330    3.0893  -57.3970 H   0  0  0  0  0  0  0  0  0  0  0  0
   11.8981   -1.6230  -54.0758 H   0  0  0  0  0  0  0  0  0  0  0  0
   11.1153   -2.2967  -52.5690 H   0  0  0  0  0  0  0  0  0  0  0  0
   12.1018   -3.8906  -54.4114 H   0  0  0  0  0  0  0  0  0  0  0  0
   10.5086   -4.2266  -53.5489 H   0  0  0  0  0  0  0  0  0  0  0  0
    9.2706   -3.9744  -55.3897 H   0  0  0  0  0  0  0  0  0  0  0  0
   10.4718   -2.7866  -56.1314 H   0  0  0  0  0  0  0  0  0  0  0  0
   11.6065   -5.4187  -55.9836 H   0  0  0  0  0  0  0  0  0  0  0  0
    9.9954   -5.4094  -56.8709 H   0  0  0  0  0  0  0  0  0  0  0  0
   12.4620   -4.8746  -57.9834 H   0  0  0  0  0  0  0  0  0  0  0  0
   10.8371   -4.4362  -58.6486 H   0  0  0  0  0  0  0  0  0  0  0  0
   11.0500   -2.4200  -57.9000 H   0  0  0  0  0  0  0  0  0  0  0  0
    7.3875   -3.9741  -53.8226 H   0  0  0  0  0  0  0  0  0  0  0  0
    6.5684   -5.5642  -52.0841 H   0  0  0  0  0  0  0  0  0  0  0  0
    6.7786   -4.9892  -49.6673 H   0  0  0  0  0  0  0  0  0  0  0  0
    7.8098   -2.8236  -48.9855 H   0  0  0  0  0  0  0  0  0  0  0  0
    8.6310   -1.2295  -50.7197 H   0  0  0  0  0  0  0  0  0  0  0  0
  1  2  1  0
  2  3  1  0
  3  4  1  0
  4  5  2  0
  4  6  1  0
  7  6  1  1
  7  8  1  0
  8  9  1  0
  9 10  1  0
 10 11  1  0
 11 12  1  0
 12 13  1  0
 13 14  1  0
 13 15  1  0
 11 16  1  0
  3 17  2  0
 17 18  1  0
 18 19  1  0
 19 20  1  0
 20 21  1  0
 21 22  1  0
 22 23  1  0
 23 24  1  0
 18 25  2  0
 25 26  1  0
 26 27  2  0
 27 28  1  0
 28 29  2  0
 29 30  1  0
 30 31  2  0
 25  2  1  0
 31 26  1  0
 15  7  1  0
 16  7  1  0
 14  9  1  0
  1 32  1  0
  1 33  1  0
  1 34  1  0
  6 35  1  0
  8 36  1  0
  8 37  1  0
  9 38  1  1
 10 39  1  0
 10 40  1  0
 11 41  1  6
 12 42  1  0
 12 43  1  0
 13 44  1  6
 14 45  1  0
 14 46  1  0
 15 47  1  0
 15 48  1  0
 16 49  1  0
 16 50  1  0
 19 51  1  0
 19 52  1  0
 20 53  1  0
 20 54  1  0
 21 55  1  0
 21 56  1  0
 22 57  1  0
 22 58  1  0
 23 59  1  0
 23 60  1  0
 24 61  1  0
 27 62  1  0
 28 63  1  0
 29 64  1  0
 30 65  1  0
 31 66  1  0
M  END
>  <meeko>  (37) 
{"is_sidechain": false}

$$$$

     RDKit          3D

 67 71  0  0  0  0  0  0  0  0999 V2000
    6.6860    0.1170  -53.6270 C   0  0  0  0  0  0  0  0  0  0  0  0
    7.9860   -0.4290  -54.0340 N   0  0  0  0  0  0  0  0  0  0  0  0
    8.7190    0.1280  -55.0300 C   0  0  0  0  0  0  0  0  0  0  0  0
    8.3390    1.1470  -55.9540 C   0  0  0  0  0  0  0  0  0  0  0  0
    7.1670    1.4870  -56.0600 O   0  0  0  0  0  0  0  0  0  0  0  0
    9.3900    1.6990  -56.6770 N   0  0  0  0  0  0  0  0  0  0  0  0
    9.2260    2.7940  -57.6500 C   0  0  2  0  0  0  0  0  0  0  0  0
    8.8270    4.1180  -56.9550 C   0  0  0  0  0  0  0  0  0  0  0  0
    8.7210    5.2580  -57.9850 C   0  0  1  0  0  0  0  0  0  0  0  0
   10.0810    5.4500  -58.6740 C   0  0  0  0  0  0  0  0  0  0  0  0
   10.4940    4.1550  -59.3920 C   0  0  2  0  0  0  0  0  0  0  0  0
    9.4340    3.7960  -60.4440 C   0  0  0  0  0  0  0  0  0  0  0  0
    8.0700    3.5940  -59.7660 C   0  0  2  0  0  0  0  0  0  0  0  0
    7.6660    4.8890  -59.0420 C   0  0  0  0  0  0  0  0  0  0  0  0
    8.1760    2.4520  -58.7390 C   0  0  0  0  0  0  0  0  0  0  0  0
   10.5880    3.0170  -58.3640 C   0  0  0  0  0  0  0  0  0  0  0  0
    9.9130   -0.4890  -54.9700 N   0  0  0  0  0  0  0  0  0  0  0  0
    9.9470   -1.4840  -54.0070 C   0  0  0  0  0  0  0  0  0  0  0  0
   11.1600   -2.3350  -53.8700 C   0  0  0  0  0  0  0  0  0  0  0  0
   10.9410   -3.7470  -54.4180 C   0  0  0  0  0  0  0  0  0  0  0  0
   10.4860   -3.7500  -55.8820 C   0  0  0  0  0  0  0  0  0  0  0  0
   11.5200   -3.2110  -56.8750 C   0  0  0  0  0  0  0  0  0  0  0  0
   11.8230   -4.1470  -58.0370 C   0  0  0  0  0  0  0  0  0  0  0  0
   13.1100   -4.7240  -57.8990 O   0  0  0  0  0  0  0  0  0  0  0  0
    8.6790   -1.4990  -53.4290 C   0  0  0  0  0  0  0  0  0  0  0  0
    8.1190   -2.5130  -52.3460 C   0  0  0  0  0  0  0  0  0  0  0  0
    8.2180   -2.2440  -50.9780 C   0  0  0  0  0  0  0  0  0  0  0  0
    7.7270   -3.1590  -50.0420 C   0  0  0  0  0  0  0  0  0  0  0  0
    7.1440   -4.3500  -50.4660 C   0  0  0  0  0  0  0  0  0  0  0  0
    7.0510   -4.6300  -51.8250 C   0  0  0  0  0  0  0  0  0  0  0  0
    7.5370   -3.7150  -52.7640 C   0  0  0  0  0  0  0  0  0  0  0  0
    6.6264    0.1420  -52.5289 H   0  0  0  0  0  0  0  0  0  0  0  0
    6.5764    1.1372  -54.0235 H   0  0  0  0  0  0  0  0  0  0  0  0
    5.8808   -0.5190  -54.0235 H   0  0  0  0  0  0  0  0  0  0  0  0
   10.3250    1.5950  -56.3060 H   0  0  0  0  0  0  0  0  0  0  0  0
    7.8541    3.9872  -56.4586 H   0  0  0  0  0  0  0  0  0  0  0  0
    9.5987    4.3778  -56.2154 H   0  0  0  0  0  0  0  0  0  0  0  0
    8.4292    6.1890  -57.4769 H   0  0  0  0  0  0  0  0  0  0  0  0
   10.0054    6.2655  -59.4083 H   0  0  0  0  0  0  0  0  0  0  0  0
   10.8379    5.6997  -57.9158 H   0  0  0  0  0  0  0  0  0  0  0  0
   11.4684    4.2983  -59.8819 H   0  0  0  0  0  0  0  0  0  0  0  0
    9.3587    4.6113  -61.1786 H   0  0  0  0  0  0  0  0  0  0  0  0
    9.7277    2.8646  -60.9501 H   0  0  0  0  0  0  0  0  0  0  0  0
    7.3145    3.3415  -60.5246 H   0  0  0  0  0  0  0  0  0  0  0  0
    7.5853    5.7051  -59.7751 H   0  0  0  0  0  0  0  0  0  0  0  0
    6.6975    4.7345  -58.5438 H   0  0  0  0  0  0  0  0  0  0  0  0
    7.1961    2.3023  -58.2622 H   0  0  0  0  0  0  0  0  0  0  0  0
    8.4898    1.5349  -59.2591 H   0  0  0  0  0  0  0  0  0  0  0  0
   10.8792    2.0901  -58.8798 H   0  0  0  0  0  0  0  0  0  0  0  0
   11.3383    3.2907  -57.6076 H   0  0  0  0  0  0  0  0  0  0  0  0
   10.6580   -0.3060  -55.6370 H   0  0  0  0  0  0  0  0  0  0  0  0
   11.9867   -1.8649  -54.4227 H   0  0  0  0  0  0  0  0  0  0  0  0
   11.3925   -2.4212  -52.7983 H   0  0  0  0  0  0  0  0  0  0  0  0
   11.8863   -4.3043  -54.3422 H   0  0  0  0  0  0  0  0  0  0  0  0
   10.1438   -4.2147  -53.8216 H   0  0  0  0  0  0  0  0  0  0  0  0
   10.2474   -4.7860  -56.1644 H   0  0  0  0  0  0  0  0  0  0  0  0
    9.6193   -3.0751  -55.9392 H   0  0  0  0  0  0  0  0  0  0  0  0
   11.1411   -2.2636  -57.2860 H   0  0  0  0  0  0  0  0  0  0  0  0
   12.4595   -3.0903  -56.3157 H   0  0  0  0  0  0  0  0  0  0  0  0
   11.0697   -4.9482  -58.0600 H   0  0  0  0  0  0  0  0  0  0  0  0
   11.7960   -3.5674  -58.9715 H   0  0  0  0  0  0  0  0  0  0  0  0
   13.5510   -4.7260  -58.7660 H   0  0  0  0  0  0  0  0  0  0  0  0
    8.6843   -1.3082  -50.6363 H   0  0  0  0  0  0  0  0  0  0  0  0
    7.8015   -2.9372  -48.9672 H   0  0  0  0  0  0  0  0  0  0  0  0
    6.7577   -5.0680  -49.7276 H   0  0  0  0  0  0  0  0  0  0  0  0
    6.5945   -5.5725  -52.1617 H   0  0  0  0  0  0  0  0  0  0  0  0
    7.4614   -3.9414  -53.8378 H   0  0  0  0  0  0  0  0  0  0  0  0
  1  2  1  0
  2  3  1  0
  3  4  1  0
  4  5  2  0
  4  6  1  0
  7  6  1  1
  7  8  1  0
  8  9  1  0
  9 10  1  0
 10 11  1  0
 11 12  1  0
 12 13  1  0
 13 14  1  0
 13 15  1  0
 11 16  1  0
  3 17  2  0
 17 18  1  0
 18 19  1  0
 19 20  1  0
 20 21  1  0
 21 22  1  0
 22 23  1  0
 23 24  1  0
 18 25  2  0
 25 26  1  0
 26 27  2  0
 27 28  1  0
 28 29  2  0
 29 30  1  0
 30 31  2  0
 25  2  1  0
 31 26  1  0
 15  7  1  0
 16  7  1  0
 14  9  1  0
  1 32  1  0
  1 33  1  0
  1 34  1  0
  6 35  1  0
  8 36  1  0
  8 37  1  0
  9 38  1  1
 10 39  1  0
 10 40  1  0
 11 41  1  6
 12 42  1  0
 12 43  1  0
 13 44  1  6
 14 45  1  0
 14 46  1  0
 15 47  1  0
 15 48  1  0
 16 49  1  0
 16 50  1  0
 17 51  1  0
 19 52  1  0
 19 53  1  0
 20 54  1  0
 20 55  1  0
 21 56  1  0
 21 57  1  0
 22 58  1  0
 22 59  1  0
 23 60  1  0
 23 61  1  0
 24 62  1  0
 27 63  1  0
 28 64  1  0
 29 65  1  0
 30 66  1  0
 31 67  1  0
M  CHG  1  17   1
M  END
>  <meeko>  (38) 
{"is_sidechain": false}

$$$$

     RDKit          3D

 63 67  0  0  0  0  0  0  0  0999 V2000
    8.3030    0.6230  -54.1880 C   0  0  0  0  0  0  0  0  0  0  0  0
    9.3170   -0.3770  -54.6110 C   0  0  0  0  0  0  0  0  0  0  0  0
   10.2930   -0.2180  -55.6390 C   0  0  0  0  0  0  0  0  0  0  0  0
   10.5190    0.9590  -56.5030 C   0  0  0  0  0  0  0  0  0  0  0  0
   11.6260    1.4510  -56.6880 O   0  0  0  0  0  0  0  0  0  0  0  0
    9.3530    1.4280  -57.0680 N   0  0  0  0  0  0  0  0  0  0  0  0
    9.2200    2.5900  -57.9390 C   0  0  2  0  0  0  0  0  0  0  0  0
    9.9580    3.8220  -57.3620 C   0  0  0  0  0  0  0  0  0  0  0  0
    9.7630    5.0460  -58.2750 C   0  0  1  0  0  0  0  0  0  0  0  0
   10.3110    4.7260  -59.6750 C   0  0  0  0  0  0  0  0  0  0  0  0
    9.5620    3.5240  -60.2750 C   0  0  2  0  0  0  0  0  0  0  0  0
    8.0640    3.8550  -60.3680 C   0  0  0  0  0  0  0  0  0  0  0  0
    7.5090    4.1670  -58.9700 C   0  0  2  0  0  0  0  0  0  0  0  0
    8.2640    5.3680  -58.3790 C   0  0  0  0  0  0  0  0  0  0  0  0
    7.7140    2.9460  -58.0600 C   0  0  0  0  0  0  0  0  0  0  0  0
    9.7570    2.3000  -59.3630 C   0  0  0  0  0  0  0  0  0  0  0  0
   11.0570   -1.3250  -55.7620 N   0  0  0  0  0  0  0  0  0  0  0  0
   10.5610   -2.1760  -54.8410 N   0  0  0  0  0  0  0  0  0  0  0  0
   11.1840   -3.4850  -54.7000 C   0  0  0  0  0  0  0  0  0  0  0  0
   10.6040   -4.4910  -55.6940 C   0  0  0  0  0  0  0  0  0  0  0  0
   11.6340   -5.0770  -56.6650 C   0  0  0  0  0  0  0  0  0  0  0  0
   11.5690   -4.4980  -58.0720 C   0  0  0  0  0  0  0  0  0  0  0  0
   11.9840   -3.1410  -58.0530 O   0  0  0  0  0  0  0  0  0  0  0  0
    9.5220   -1.6540  -54.1080 C   0  0  0  0  0  0  0  0  0  0  0  0
    8.8360   -2.3600  -53.0270 C   0  0  0  0  0  0  0  0  0  0  0  0
    9.5290   -2.5750  -51.8260 C   0  0  0  0  0  0  0  0  0  0  0  0
    8.9200   -3.2440  -50.7630 C   0  0  0  0  0  0  0  0  0  0  0  0
    7.6100   -3.7030  -50.8880 C   0  0  0  0  0  0  0  0  0  0  0  0
    6.9070   -3.4910  -52.0740 C   0  0  0  0  0  0  0  0  0  0  0  0
    7.5140   -2.8210  -53.1400 C   0  0  0  0  0  0  0  0  0  0  0  0
    6.5840   -2.5890  -54.5800 Cl  0  0  0  0  0  0  0  0  0  0  0  0
    8.2630    0.6625  -53.0894 H   0  0  0  0  0  0  0  0  0  0  0  0
    8.5783    1.6130  -54.5807 H   0  0  0  0  0  0  0  0  0  0  0  0
    7.3170    0.3340  -54.5807 H   0  0  0  0  0  0  0  0  0  0  0  0
    8.5260    0.9060  -56.7810 H   0  0  0  0  0  0  0  0  0  0  0  0
    9.5572    4.0485  -56.3630 H   0  0  0  0  0  0  0  0  0  0  0  0
   11.0323    3.5944  -57.2980 H   0  0  0  0  0  0  0  0  0  0  0  0
   10.2989    5.9101  -57.8554 H   0  0  0  0  0  0  0  0  0  0  0  0
   10.1756    5.6013  -60.3273 H   0  0  0  0  0  0  0  0  0  0  0  0
   11.3801    4.4800  -59.5950 H   0  0  0  0  0  0  0  0  0  0  0  0
    9.9549    3.3048  -61.2788 H   0  0  0  0  0  0  0  0  0  0  0  0
    7.9237    4.7301  -61.0196 H   0  0  0  0  0  0  0  0  0  0  0  0
    7.5276    2.9902  -60.7856 H   0  0  0  0  0  0  0  0  0  0  0  0
    6.4369    4.4021  -59.0426 H   0  0  0  0  0  0  0  0  0  0  0  0
    8.1236    6.2431  -59.0305 H   0  0  0  0  0  0  0  0  0  0  0  0
    7.8702    5.5839  -57.3749 H   0  0  0  0  0  0  0  0  0  0  0  0
    7.3161    3.1719  -57.0597 H   0  0  0  0  0  0  0  0  0  0  0  0
    7.1849    2.0878  -58.5000 H   0  0  0  0  0  0  0  0  0  0  0  0
    9.2131    1.4430  -59.7869 H   0  0  0  0  0  0  0  0  0  0  0  0
   10.8316    2.0740  -59.2976 H   0  0  0  0  0  0  0  0  0  0  0  0
   12.2649   -3.3877  -54.8794 H   0  0  0  0  0  0  0  0  0  0  0  0
   10.9878   -3.8530  -53.6821 H   0  0  0  0  0  0  0  0  0  0  0  0
   10.1555   -5.3189  -55.1254 H   0  0  0  0  0  0  0  0  0  0  0  0
    9.8682   -3.9460  -56.3035 H   0  0  0  0  0  0  0  0  0  0  0  0
   12.6382   -4.8847  -56.2594 H   0  0  0  0  0  0  0  0  0  0  0  0
   11.4075   -6.1497  -56.7550 H   0  0  0  0  0  0  0  0  0  0  0  0
   12.2321   -5.0734  -58.7347 H   0  0  0  0  0  0  0  0  0  0  0  0
   10.5345   -4.5563  -58.4413 H   0  0  0  0  0  0  0  0  0  0  0  0
   12.1110   -2.8670  -58.9790 H   0  0  0  0  0  0  0  0  0  0  0  0
   10.5623   -2.2128  -51.7212 H   0  0  0  0  0  0  0  0  0  0  0  0
    9.4738   -3.4089  -49.8270 H   0  0  0  0  0  0  0  0  0  0  0  0
    7.1305   -4.2324  -50.0515 H   0  0  0  0  0  0  0  0  0  0  0  0
    5.8724   -3.8520  -52.1706 H   0  0  0  0  0  0  0  0  0  0  0  0
  1  2  1  0
  2  3  1  0
  3  4  1  0
  4  5  2  0
  4  6  1  0
  7  6  1  1
  7  8  1  0
  8  9  1  0
  9 10  1  0
 10 11  1  0
 11 12  1  0
 12 13  1  0
 13 14  1  0
 13 15  1  0
 11 16  1  0
  3 17  2  0
 17 18  1  0
 18 19  1  0
 19 20  1  0
 20 21  1  0
 21 22  1  0
 22 23  1  0
 18 24  1  0
 24 25  1  0
 25 26  2  0
 26 27  1  0
 27 28  2  0
 28 29  1  0
 29 30  2  0
 30 31  1  0
 24  2  2  0
 30 25  1  0
 15  7  1  0
 16  7  1  0
 14  9  1  0
  1 32  1  0
  1 33  1  0
  1 34  1  0
  6 35  1  0
  8 36  1  0
  8 37  1  0
  9 38  1  1
 10 39  1  0
 10 40  1  0
 11 41  1  6
 12 42  1  0
 12 43  1  0
 13 44  1  6
 14 45  1  0
 14 46  1  0
 15 47  1  0
 15 48  1  0
 16 49  1  0
 16 50  1  0
 19 51  1  0
 19 52  1  0
 20 53  1  0
 20 54  1  0
 21 55  1  0
 21 56  1  0
 22 57  1  0
 22 58  1  0
 23 59  1  0
 26 60  1  0
 27 61  1  0
 28 62  1  0
 29 63  1  0
M  END
>  <meeko>  (39) 
{"is_sidechain": false}

$$$$

     RDKit          3D

 63 67  0  0  0  0  0  0  0  0999 V2000
    6.6160    0.0910  -53.4940 C   0  0  0  0  0  0  0  0  0  0  0  0
    7.9030   -0.5190  -53.9190 C   0  0  0  0  0  0  0  0  0  0  0  0
    8.8010   -0.0490  -54.9340 C   0  0  0  0  0  0  0  0  0  0  0  0
    8.6910    1.1680  -55.7610 C   0  0  0  0  0  0  0  0  0  0  0  0
    7.6170    1.6370  -56.1260 O   0  0  0  0  0  0  0  0  0  0  0  0
    9.9160    1.7140  -56.1130 N   0  0  0  0  0  0  0  0  0  0  0  0
   10.0580    2.8500  -56.9950 C   0  0  1  0  0  0  0  0  0  0  0  0
   11.5250    3.0360  -57.4460 C   0  0  0  0  0  0  0  0  0  0  0  0
   11.3400    3.8170  -58.7480 C   0  0  2  0  0  0  0  0  0  0  0  0
   10.6800    5.1910  -58.4450 C   0  0  0  0  0  0  0  0  0  0  0  0
    9.3600    5.0230  -57.6410 C   0  0  1  0  0  0  0  0  0  0  0  0
    8.4270    4.0590  -58.3780 C   0  0  0  0  0  0  0  0  0  0  0  0
    9.2560    2.7640  -58.3520 C   0  0  1  0  0  0  0  0  0  0  0  0
   10.3310    2.8990  -59.4410 C   0  0  0  0  0  0  0  0  0  0  0  0
    9.6260    4.2000  -56.3780 C   0  0  0  0  0  0  0  0  0  0  0  0
    9.8450   -0.8840  -55.0680 N   0  0  0  0  0  0  0  0  0  0  0  0
    9.6260   -1.8580  -54.1700 N   0  0  0  0  0  0  0  0  0  0  0  0
   10.5880   -2.9460  -54.0740 C   0  0  0  0  0  0  0  0  0  0  0  0
   10.1930   -4.1410  -54.9400 C   0  0  0  0  0  0  0  0  0  0  0  0
   11.3930   -4.6730  -55.7250 C   0  0  0  0  0  0  0  0  0  0  0  0
   11.1930   -4.6170  -57.2440 C   0  0  0  0  0  0  0  0  0  0  0  0
   11.9310   -3.4700  -57.9290 C   0  0  0  0  0  0  0  0  0  0  0  0
   11.8230   -2.2780  -57.1660 O   0  0  0  0  0  0  0  0  0  0  0  0
    8.4800   -1.6830  -53.4350 C   0  0  0  0  0  0  0  0  0  0  0  0
    8.0190   -2.6000  -52.4010 C   0  0  0  0  0  0  0  0  0  0  0  0
    7.1230   -3.6250  -52.7180 C   0  0  0  0  0  0  0  0  0  0  0  0
    6.6830   -4.5060  -51.7280 C   0  0  0  0  0  0  0  0  0  0  0  0
    7.1340   -4.3610  -50.4160 C   0  0  0  0  0  0  0  0  0  0  0  0
    8.0230   -3.3350  -50.0930 C   0  0  0  0  0  0  0  0  0  0  0  0
    8.4630   -2.4540  -51.0830 C   0  0  0  0  0  0  0  0  0  0  0  0
    6.5665    0.1145  -52.3954 H   0  0  0  0  0  0  0  0  0  0  0  0
    6.5492    1.1166  -53.8860 H   0  0  0  0  0  0  0  0  0  0  0  0
    5.7798   -0.5066  -53.8860 H   0  0  0  0  0  0  0  0  0  0  0  0
   10.7210    1.1180  -55.9720 H   0  0  0  0  0  0  0  0  0  0  0  0
   12.1031    3.6126  -56.7089 H   0  0  0  0  0  0  0  0  0  0  0  0
   12.0846    2.0958  -57.5596 H   0  0  0  0  0  0  0  0  0  0  0  0
   12.2584    4.0330  -59.3137 H   0  0  0  0  0  0  0  0  0  0  0  0
   11.3809    5.8027  -57.8580 H   0  0  0  0  0  0  0  0  0  0  0  0
   10.4421    5.6786  -59.4019 H   0  0  0  0  0  0  0  0  0  0  0  0
    8.9648    6.0360  -57.4750 H   0  0  0  0  0  0  0  0  0  0  0  0
    7.4717    3.9370  -57.8465 H   0  0  0  0  0  0  0  0  0  0  0  0
    8.1392    4.3911  -59.3864 H   0  0  0  0  0  0  0  0  0  0  0  0
    8.6417    1.8598  -58.4749 H   0  0  0  0  0  0  0  0  0  0  0  0
   10.7769    1.9249  -59.6906 H   0  0  0  0  0  0  0  0  0  0  0  0
    9.9560    3.2826  -60.4013 H   0  0  0  0  0  0  0  0  0  0  0  0
   10.4285    4.6416  -55.7690 H   0  0  0  0  0  0  0  0  0  0  0  0
    8.7698    4.1325  -55.6907 H   0  0  0  0  0  0  0  0  0  0  0  0
   11.5717   -2.5796  -54.4027 H   0  0  0  0  0  0  0  0  0  0  0  0
   10.6163   -3.2814  -53.0268 H   0  0  0  0  0  0  0  0  0  0  0  0
    9.8041   -4.9408  -54.2927 H   0  0  0  0  0  0  0  0  0  0  0  0
    9.4242   -3.8146  -55.6559 H   0  0  0  0  0  0  0  0  0  0  0  0
   12.2756   -4.0698  -55.4660 H   0  0  0  0  0  0  0  0  0  0  0  0
   11.5207   -5.7305  -55.4506 H   0  0  0  0  0  0  0  0  0  0  0  0
   11.5510   -5.5638  -57.6745 H   0  0  0  0  0  0  0  0  0  0  0  0
   10.1194   -4.4504  -57.4161 H   0  0  0  0  0  0  0  0  0  0  0  0
   12.9931   -3.7360  -58.0350 H   0  0  0  0  0  0  0  0  0  0  0  0
   11.4801   -3.2994  -58.9177 H   0  0  0  0  0  0  0  0  0  0  0  0
   11.3690   -1.6170  -57.7160 H   0  0  0  0  0  0  0  0  0  0  0  0
    6.7631   -3.7380  -53.7513 H   0  0  0  0  0  0  0  0  0  0  0  0
    5.9812   -5.3139  -51.9826 H   0  0  0  0  0  0  0  0  0  0  0  0
    6.7888   -5.0555  -49.6359 H   0  0  0  0  0  0  0  0  0  0  0  0
    8.3773   -3.2202  -49.0580 H   0  0  0  0  0  0  0  0  0  0  0  0
    9.1605   -1.6433  -50.8255 H   0  0  0  0  0  0  0  0  0  0  0  0
  1  2  1  0
  2  3  1  0
  3  4  1  0
  4  5  2  0
  4  6  1  0
  7  6  1  1
  7  8  1  0
  8  9  1  0
  9 10  1  0
 10 11  1  0
 11 12  1  0
 12 13  1  0
 13 14  1  0
 11 15  1  0
  3 16  2  0
 16 17  1  0
 17 18  1  0
 18 19  1  0
 19 20  1  0
 20 21  1  0
 21 22  1  0
 22 23  1  0
 17 24  1  0
 24 25  1  0
 25 26  2  0
 26 27  1  0
 27 28  2  0
 28 29  1  0
 29 30  2  0
 24  2  2  0
 30 25  1  0
 13  7  1  0
 15  7  1  0
 14  9  1  0
  1 31  1  0
  1 32  1  0
  1 33  1  0
  6 34  1  0
  8 35  1  0
  8 36  1  0
  9 37  1  6
 10 38  1  0
 10 39  1  0
 11 40  1  1
 12 41  1  0
 12 42  1  0
 13 43  1  6
 14 44  1  0
 14 45  1  0
 15 46  1  0
 15 47  1  0
 18 48  1  0
 18 49  1  0
 19 50  1  0
 19 51  1  0
 20 52  1  0
 20 53  1  0
 21 54  1  0
 21 55  1  0
 22 56  1  0
 22 57  1  0
 23 58  1  0
 26 59  1  0
 27 60  1  0
 28 61  1  0
 29 62  1  0
 30 63  1  0
M  END
>  <meeko>  (40) 
{"is_sidechain": false}

$$$$

     RDKit          3D

 63 67  0  0  0  0  0  0  0  0999 V2000
   11.8990   -3.7420  -57.9860 C   0  0  0  0  0  0  0  0  0  0  0  0
   11.1470   -3.3260  -56.8540 O   0  0  0  0  0  0  0  0  0  0  0  0
   11.5270   -3.9960  -55.6510 C   0  0  0  0  0  0  0  0  0  0  0  0
   10.4630   -3.7970  -54.5750 C   0  0  0  0  0  0  0  0  0  0  0  0
   10.6110   -2.4800  -53.8220 C   0  0  0  0  0  0  0  0  0  0  0  0
    9.5270   -1.5430  -54.0580 N   0  0  0  0  0  0  0  0  0  0  0  0
    9.6970   -0.5910  -54.9970 N   0  0  0  0  0  0  0  0  0  0  0  0
    8.5360    0.0970  -54.9870 C   0  0  0  0  0  0  0  0  0  0  0  0
    8.3200    1.2380  -55.9010 C   0  0  0  0  0  0  0  0  0  0  0  0
    7.2220    1.7540  -56.0800 O   0  0  0  0  0  0  0  0  0  0  0  0
    9.4830    1.6450  -56.5210 N   0  0  0  0  0  0  0  0  0  0  0  0
    9.6130    2.7270  -57.4890 C   0  0  2  0  0  0  0  0  0  0  0  0
    9.2370    4.0960  -56.8700 C   0  0  0  0  0  0  0  0  0  0  0  0
    9.4300    5.2260  -57.8980 C   0  0  1  0  0  0  0  0  0  0  0  0
   10.9010    5.2670  -58.3390 C   0  0  0  0  0  0  0  0  0  0  0  0
   11.2960    3.9260  -58.9760 C   0  0  2  0  0  0  0  0  0  0  0  0
   10.4020    3.6610  -60.1980 C   0  0  0  0  0  0  0  0  0  0  0  0
    8.9270    3.6100  -59.7680 C   0  0  2  0  0  0  0  0  0  0  0  0
    8.5410    4.9520  -59.1230 C   0  0  0  0  0  0  0  0  0  0  0  0
    8.7360    2.4800  -58.7420 C   0  0  0  0  0  0  0  0  0  0  0  0
   11.0940    2.8010  -57.9500 C   0  0  0  0  0  0  0  0  0  0  0  0
    7.6310   -0.4320  -54.0190 C   0  0  0  0  0  0  0  0  0  0  0  0
    6.2620    0.0610  -53.7180 C   0  0  0  0  0  0  0  0  0  0  0  0
    8.3070   -1.4900  -53.4300 C   0  0  0  0  0  0  0  0  0  0  0  0
    7.8840   -2.4060  -52.3800 C   0  0  0  0  0  0  0  0  0  0  0  0
    8.2340   -2.1590  -51.0470 C   0  0  0  0  0  0  0  0  0  0  0  0
    7.8270   -3.0350  -50.0400 C   0  0  0  0  0  0  0  0  0  0  0  0
    7.0730   -4.1640  -50.3600 C   0  0  0  0  0  0  0  0  0  0  0  0
    6.7290   -4.4200  -51.6870 C   0  0  0  0  0  0  0  0  0  0  0  0
    7.1350   -3.5450  -52.6960 C   0  0  0  0  0  0  0  0  0  0  0  0
   12.8158   -4.2492  -57.6509 H   0  0  0  0  0  0  0  0  0  0  0  0
   11.2969   -4.4353  -58.5916 H   0  0  0  0  0  0  0  0  0  0  0  0
   12.1664   -2.8635  -58.5916 H   0  0  0  0  0  0  0  0  0  0  0  0
   11.6405   -5.0710  -55.8547 H   0  0  0  0  0  0  0  0  0  0  0  0
   12.4796   -3.5775  -55.2940 H   0  0  0  0  0  0  0  0  0  0  0  0
    9.4730   -3.8167  -55.0541 H   0  0  0  0  0  0  0  0  0  0  0  0
   10.5829   -4.6084  -53.8420 H   0  0  0  0  0  0  0  0  0  0  0  0
   10.6510   -2.6994  -52.7448 H   0  0  0  0  0  0  0  0  0  0  0  0
   11.5314   -2.0031  -54.1900 H   0  0  0  0  0  0  0  0  0  0  0  0
   10.2970    1.0950  -56.2570 H   0  0  0  0  0  0  0  0  0  0  0  0
    8.1842    4.0722  -56.5521 H   0  0  0  0  0  0  0  0  0  0  0  0
    9.8908    4.2865  -56.0061 H   0  0  0  0  0  0  0  0  0  0  0  0
    9.1533    6.1896  -57.4454 H   0  0  0  0  0  0  0  0  0  0  0  0
   11.0387    6.0739  -59.0738 H   0  0  0  0  0  0  0  0  0  0  0  0
   11.5365    5.4504  -57.4601 H   0  0  0  0  0  0  0  0  0  0  0  0
   12.3501    3.9607  -59.2885 H   0  0  0  0  0  0  0  0  0  0  0  0
   10.5398    4.4683  -60.9323 H   0  0  0  0  0  0  0  0  0  0  0  0
   10.6810    2.6967  -60.6477 H   0  0  0  0  0  0  0  0  0  0  0  0
    8.2909    3.4239  -60.6459 H   0  0  0  0  0  0  0  0  0  0  0  0
    8.6745    5.7601  -59.8573 H   0  0  0  0  0  0  0  0  0  0  0  0
    7.4899    4.9074  -58.8017 H   0  0  0  0  0  0  0  0  0  0  0  0
    7.6787    2.4399  -58.4410 H   0  0  0  0  0  0  0  0  0  0  0  0
    9.0368    1.5277  -59.2032 H   0  0  0  0  0  0  0  0  0  0  0  0
   11.3765    1.8416  -58.4080 H   0  0  0  0  0  0  0  0  0  0  0  0
   11.7239    3.0098  -57.0727 H   0  0  0  0  0  0  0  0  0  0  0  0
    6.1218    0.1115  -52.6281 H   0  0  0  0  0  0  0  0  0  0  0  0
    6.1296    1.0633  -54.1515 H   0  0  0  0  0  0  0  0  0  0  0  0
    5.5210   -0.6268  -54.1515 H   0  0  0  0  0  0  0  0  0  0  0  0
    8.8319   -1.2714  -50.7927 H   0  0  0  0  0  0  0  0  0  0  0  0
    8.1008   -2.8352  -48.9935 H   0  0  0  0  0  0  0  0  0  0  0  0
    6.7496   -4.8526  -49.5655 H   0  0  0  0  0  0  0  0  0  0  0  0
    6.1371   -5.3123  -51.9388 H   0  0  0  0  0  0  0  0  0  0  0  0
    6.8654   -3.7514  -53.7423 H   0  0  0  0  0  0  0  0  0  0  0  0
  1  2  1  0
  2  3  1  0
  3  4  1  0
  4  5  1  0
  5  6  1  0
  6  7  1  0
  7  8  2  0
  8  9  1  0
  9 10  2  0
  9 11  1  0
 12 11  1  1
 12 13  1  0
 13 14  1  0
 14 15  1  0
 15 16  1  0
 16 17  1  0
 17 18  1  0
 18 19  1  0
 18 20  1  0
 16 21  1  0
  8 22  1  0
 22 23  1  0
 22 24  2  0
 24 25  1  0
 25 26  2  0
 26 27  1  0
 27 28  2  0
 28 29  1  0
 29 30  2  0
 24  6  1  0
 30 25  1  0
 20 12  1  0
 21 12  1  0
 19 14  1  0
  1 31  1  0
  1 32  1  0
  1 33  1  0
  3 34  1  0
  3 35  1  0
  4 36  1  0
  4 37  1  0
  5 38  1  0
  5 39  1  0
 11 40  1  0
 13 41  1  0
 13 42  1  0
 14 43  1  1
 15 44  1  0
 15 45  1  0
 16 46  1  6
 17 47  1  0
 17 48  1  0
 18 49  1  6
 19 50  1  0
 19 51  1  0
 20 52  1  0
 20 53  1  0
 21 54  1  0
 21 55  1  0
 23 56  1  0
 23 57  1  0
 23 58  1  0
 26 59  1  0
 27 60  1  0
 28 61  1  0
 29 62  1  0
 30 63  1  0
M  END
>  <meeko>  (41) 
{"is_sidechain": false}

$$$$

     RDKit          3D

 56 60  0  0  0  0  0  0  0  0999 V2000
    6.7950    0.1800  -53.6380 C   0  0  0  0  0  0  0  0  0  0  0  0
    8.1020   -0.2860  -54.1670 C   0  0  0  0  0  0  0  0  0  0  0  0
    8.8130    0.2650  -55.2760 C   0  0  0  0  0  0  0  0  0  0  0  0
    8.4150    1.3970  -56.1390 C   0  0  0  0  0  0  0  0  0  0  0  0
    7.2770    1.8550  -56.1630 O   0  0  0  0  0  0  0  0  0  0  0  0
    9.4600    1.8700  -56.9030 N   0  0  0  0  0  0  0  0  0  0  0  0
    9.4030    2.9660  -57.8630 C   0  0  2  0  0  0  0  0  0  0  0  0
    8.2450    2.7790  -58.8730 C   0  0  0  0  0  0  0  0  0  0  0  0
    8.2360    3.9220  -59.9040 C   0  0  1  0  0  0  0  0  0  0  0  0
    8.0700    5.2640  -59.1710 C   0  0  0  0  0  0  0  0  0  0  0  0
    9.2340    5.4780  -58.1890 C   0  0  2  0  0  0  0  0  0  0  0  0
   10.5600    5.4720  -58.9650 C   0  0  0  0  0  0  0  0  0  0  0  0
   10.7360    4.1300  -59.6930 C   0  0  2  0  0  0  0  0  0  0  0  0
    9.5680    3.9250  -60.6710 C   0  0  0  0  0  0  0  0  0  0  0  0
   10.7350    2.9920  -58.6610 C   0  0  0  0  0  0  0  0  0  0  0  0
    9.2430    4.3360  -57.1580 C   0  0  0  0  0  0  0  0  0  0  0  0
    9.9730   -0.3920  -55.4860 N   0  0  0  0  0  0  0  0  0  0  0  0
   10.0070   -1.3330  -54.5190 N   0  0  0  0  0  0  0  0  0  0  0  0
   11.1490   -2.2440  -54.4670 C   0  0  0  0  0  0  0  0  0  0  0  0
   11.2560   -3.1140  -55.6950 C   0  0  0  0  0  0  0  0  0  0  0  0
   11.8750   -2.6280  -56.8570 C   0  0  0  0  0  0  0  0  0  0  0  0
   11.9900   -3.4350  -57.9900 C   0  0  0  0  0  0  0  0  0  0  0  0
   11.4940   -4.7370  -57.9750 C   0  0  0  0  0  0  0  0  0  0  0  0
   10.8870   -5.2360  -56.8240 C   0  0  0  0  0  0  0  0  0  0  0  0
   10.7720   -4.4320  -55.6890 C   0  0  0  0  0  0  0  0  0  0  0  0
    8.8930   -1.3300  -53.7140 C   0  0  0  0  0  0  0  0  0  0  0  0
    8.6970   -2.2820  -52.5910 C   0  0  0  0  0  0  0  0  0  0  0  0
    6.8203    0.1710  -52.5383 H   0  0  0  0  0  0  0  0  0  0  0  0
    6.5999    1.2031  -53.9919 H   0  0  0  0  0  0  0  0  0  0  0  0
    5.9967   -0.4889  -53.9919 H   0  0  0  0  0  0  0  0  0  0  0  0
   10.3290    1.3590  -56.7600 H   0  0  0  0  0  0  0  0  0  0  0  0
    8.3735    1.8204  -59.3970 H   0  0  0  0  0  0  0  0  0  0  0  0
    7.2913    2.7880  -58.3250 H   0  0  0  0  0  0  0  0  0  0  0  0
    7.4037    3.7784  -60.6087 H   0  0  0  0  0  0  0  0  0  0  0  0
    8.0600    6.0816  -59.9069 H   0  0  0  0  0  0  0  0  0  0  0  0
    7.1237    5.2531  -58.6103 H   0  0  0  0  0  0  0  0  0  0  0  0
    9.1120    6.4420  -57.6734 H   0  0  0  0  0  0  0  0  0  0  0  0
   10.5546    6.2885  -59.7021 H   0  0  0  0  0  0  0  0  0  0  0  0
   11.3922    5.6123  -58.2595 H   0  0  0  0  0  0  0  0  0  0  0  0
   11.6867    4.1310  -60.2463 H   0  0  0  0  0  0  0  0  0  0  0  0
    9.5623    4.7414  -61.4082 H   0  0  0  0  0  0  0  0  0  0  0  0
    9.6916    2.9602  -61.1847 H   0  0  0  0  0  0  0  0  0  0  0  0
   10.8601    2.0322  -59.1837 H   0  0  0  0  0  0  0  0  0  0  0  0
   11.5629    3.1574  -57.9559 H   0  0  0  0  0  0  0  0  0  0  0  0
   10.0815    4.4843  -56.4616 H   0  0  0  0  0  0  0  0  0  0  0  0
    8.2884    4.3442  -56.6115 H   0  0  0  0  0  0  0  0  0  0  0  0
   12.0698   -1.6492  -54.3758 H   0  0  0  0  0  0  0  0  0  0  0  0
   11.0058   -2.9073  -53.6012 H   0  0  0  0  0  0  0  0  0  0  0  0
   12.2728   -1.6026  -56.8750 H   0  0  0  0  0  0  0  0  0  0  0  0
   12.4733   -3.0423  -58.8968 H   0  0  0  0  0  0  0  0  0  0  0  0
   11.5814   -5.3701  -58.8703 H   0  0  0  0  0  0  0  0  0  0  0  0
   10.4980   -6.2648  -56.8101 H   0  0  0  0  0  0  0  0  0  0  0  0
   10.2980   -4.8345  -54.7816 H   0  0  0  0  0  0  0  0  0  0  0  0
    8.8067   -1.7490  -51.6351 H   0  0  0  0  0  0  0  0  0  0  0  0
    7.6899   -2.7199  -52.6531 H   0  0  0  0  0  0  0  0  0  0  0  0
    9.4492   -3.0822  -52.6531 H   0  0  0  0  0  0  0  0  0  0  0  0
  1  2  1  0
  2  3  1  0
  3  4  1  0
  4  5  2  0
  4  6  1  0
  7  6  1  1
  7  8  1  0
  8  9  1  0
  9 10  1  0
 10 11  1  0
 11 12  1  0
 12 13  1  0
 13 14  1  0
 13 15  1  0
 11 16  1  0
  3 17  2  0
 17 18  1  0
 18 19  1  0
 19 20  1  0
 20 21  2  0
 21 22  1  0
 22 23  2  0
 23 24  1  0
 24 25  2  0
 18 26  1  0
 26 27  1  0
 26  2  2  0
 15  7  1  0
 25 20  1  0
 16  7  1  0
 14  9  1  0
  1 28  1  0
  1 29  1  0
  1 30  1  0
  6 31  1  0
  8 32  1  0
  8 33  1  0
  9 34  1  6
 10 35  1  0
 10 36  1  0
 11 37  1  1
 12 38  1  0
 12 39  1  0
 13 40  1  6
 14 41  1  0
 14 42  1  0
 15 43  1  0
 15 44  1  0
 16 45  1  0
 16 46  1  0
 19 47  1  0
 19 48  1  0
 21 49  1  0
 22 50  1  0
 23 51  1  0
 24 52  1  0
 25 53  1  0
 27 54  1  0
 27 55  1  0
 27 56  1  0
M  END
>  <meeko>  (42) 
{"is_sidechain": false}

$$$$

     RDKit          3D

 60 64  0  0  0  0  0  0  0  0999 V2000
    6.6350    0.1760  -53.7670 C   0  0  0  0  0  0  0  0  0  0  0  0
    7.9120   -0.5120  -54.0900 C   0  0  0  0  0  0  0  0  0  0  0  0
    8.8720   -0.1130  -55.0690 C   0  0  0  0  0  0  0  0  0  0  0  0
    8.8160    1.0560  -55.9700 C   0  0  0  0  0  0  0  0  0  0  0  0
    7.7900    1.6970  -56.1770 O   0  0  0  0  0  0  0  0  0  0  0  0
   10.0380    1.3490  -56.5370 N   0  0  0  0  0  0  0  0  0  0  0  0
   10.3180    2.5190  -57.3340 C   0  0  2  0  0  0  0  0  0  0  0  0
    9.6780    2.4590  -58.7610 C   0  0  0  0  0  0  0  0  0  0  0  0
    9.9590    3.7570  -59.5720 C   0  0  2  0  0  0  0  0  0  0  0  0
   11.4650    4.0320  -59.5970 C   0  0  0  0  0  0  0  0  0  0  0  0
   11.7460    4.2500  -58.1030 C   0  0  2  0  0  0  0  0  0  0  0  0
   11.8130    2.8630  -57.4470 C   0  0  0  0  0  0  0  0  0  0  0  0
   10.4230    4.8840  -57.5470 C   0  0  1  0  0  0  0  0  0  0  0  0
    9.5010    4.9780  -58.7710 C   0  0  0  0  0  0  0  0  0  0  0  0
    9.8440    3.8020  -56.6270 C   0  0  0  0  0  0  0  0  0  0  0  0
    9.9220   -0.9610  -55.0970 N   0  0  0  0  0  0  0  0  0  0  0  0
    9.6280   -1.8810  -54.1570 N   0  0  0  0  0  0  0  0  0  0  0  0
   10.5690   -2.9690  -53.9350 C   0  0  0  0  0  0  0  0  0  0  0  0
   10.3760   -4.1050  -54.9380 C   0  0  0  0  0  0  0  0  0  0  0  0
   11.5930   -4.3260  -55.8350 C   0  0  0  0  0  0  0  0  0  0  0  0
   11.4760   -3.6570  -57.1990 C   0  0  0  0  0  0  0  0  0  0  0  0
   11.7750   -2.2730  -57.0800 O   0  0  0  0  0  0  0  0  0  0  0  0
    8.4340   -1.6610  -53.5170 C   0  0  0  0  0  0  0  0  0  0  0  0
    7.9010   -2.5110  -52.4610 C   0  0  0  0  0  0  0  0  0  0  0  0
    7.1450   -3.6430  -52.7840 C   0  0  0  0  0  0  0  0  0  0  0  0
    6.6410   -4.4620  -51.7730 C   0  0  0  0  0  0  0  0  0  0  0  0
    6.8840   -4.1500  -50.4350 C   0  0  0  0  0  0  0  0  0  0  0  0
    7.6270   -3.0170  -50.1080 C   0  0  0  0  0  0  0  0  0  0  0  0
    8.1330   -2.1970  -51.1180 C   0  0  0  0  0  0  0  0  0  0  0  0
    6.5184    0.2388  -52.6750 H   0  0  0  0  0  0  0  0  0  0  0  0
    6.6467    1.1899  -54.1935 H   0  0  0  0  0  0  0  0  0  0  0  0
    5.7947   -0.3915  -54.1935 H   0  0  0  0  0  0  0  0  0  0  0  0
   10.8020    0.7780  -56.1770 H   0  0  0  0  0  0  0  0  0  0  0  0
   10.0990    1.6005  -59.3049 H   0  0  0  0  0  0  0  0  0  0  0  0
    8.5890    2.3559  -58.6447 H   0  0  0  0  0  0  0  0  0  0  0  0
    9.4788    3.6204  -60.5522 H   0  0  0  0  0  0  0  0  0  0  0  0
   12.0263    3.1728  -59.9928 H   0  0  0  0  0  0  0  0  0  0  0  0
   11.7627    4.8716  -60.2423 H   0  0  0  0  0  0  0  0  0  0  0  0
   12.6553    4.8432  -57.9260 H   0  0  0  0  0  0  0  0  0  0  0  0
   12.3467    2.1410  -58.0825 H   0  0  0  0  0  0  0  0  0  0  0  0
   12.3572    2.8393  -56.4913 H   0  0  0  0  0  0  0  0  0  0  0  0
   10.5473    5.8512  -57.0379 H   0  0  0  0  0  0  0  0  0  0  0  0
    8.4414    4.9006  -58.4861 H   0  0  0  0  0  0  0  0  0  0  0  0
    9.5661    5.9306  -59.3172 H   0  0  0  0  0  0  0  0  0  0  0  0
   10.2552    3.8764  -55.6095 H   0  0  0  0  0  0  0  0  0  0  0  0
    8.7544    3.8639  -56.4891 H   0  0  0  0  0  0  0  0  0  0  0  0
   11.5928   -2.5788  -54.0328 H   0  0  0  0  0  0  0  0  0  0  0  0
   10.3917   -3.3716  -52.9268 H   0  0  0  0  0  0  0  0  0  0  0  0
   10.1779   -5.0331  -54.3818 H   0  0  0  0  0  0  0  0  0  0  0  0
    9.5343   -3.8276  -55.5897 H   0  0  0  0  0  0  0  0  0  0  0  0
   12.4793   -3.9214  -55.3243 H   0  0  0  0  0  0  0  0  0  0  0  0
   11.6699   -5.4088  -56.0127 H   0  0  0  0  0  0  0  0  0  0  0  0
   12.1843   -4.1255  -57.8982 H   0  0  0  0  0  0  0  0  0  0  0  0
   10.4501   -3.7772  -57.5773 H   0  0  0  0  0  0  0  0  0  0  0  0
   11.2620   -1.9190  -56.3330 H   0  0  0  0  0  0  0  0  0  0  0  0
    6.9474   -3.8881  -53.8380 H   0  0  0  0  0  0  0  0  0  0  0  0
    6.0517   -5.3543  -52.0310 H   0  0  0  0  0  0  0  0  0  0  0  0
    6.4894   -4.7979  -49.6385 H   0  0  0  0  0  0  0  0  0  0  0  0
    7.8148   -2.7688  -49.0530 H   0  0  0  0  0  0  0  0  0  0  0  0
    8.7158   -1.3014  -50.8569 H   0  0  0  0  0  0  0  0  0  0  0  0
  1  2  1  0
  2  3  1  0
  3  4  1  0
  4  5  2  0
  4  6  1  0
  7  6  1  1
  7  8  1  0
  8  9  1  0
  9 10  1  0
 10 11  1  0
 11 12  1  0
 11 13  1  0
 13 14  1  0
 13 15  1  0
  3 16  2  0
 16 17  1  0
 17 18  1  0
 18 19  1  0
 19 20  1  0
 20 21  1  0
 21 22  1  0
 17 23  1  0
 23 24  1  0
 24 25  2  0
 25 26  1  0
 26 27  2  0
 27 28  1  0
 28 29  2  0
 23  2  2  0
 29 24  1  0
 12  7  1  0
 15  7  1  0
 14  9  1  0
  1 30  1  0
  1 31  1  0
  1 32  1  0
  6 33  1  0
  8 34  1  0
  8 35  1  0
  9 36  1  6
 10 37  1  0
 10 38  1  0
 11 39  1  6
 12 40  1  0
 12 41  1  0
 13 42  1  1
 14 43  1  0
 14 44  1  0
 15 45  1  0
 15 46  1  0
 18 47  1  0
 18 48  1  0
 19 49  1  0
 19 50  1  0
 20 51  1  0
 20 52  1  0
 21 53  1  0
 21 54  1  0
 22 55  1  0
 25 56  1  0
 26 57  1  0
 27 58  1  0
 28 59  1  0
 29 60  1  0
M  END
>  <meeko>  (43) 
{"is_sidechain": false}

$$$$

     RDKit          3D

 49 53  0  0  0  0  0  0  0  0999 V2000
    5.9310   -0.4630  -54.1920 C   0  0  0  0  0  0  0  0  0  0  0  0
    7.3680   -0.5710  -54.2160 N   0  0  0  0  0  0  0  0  0  0  0  0
    8.2090    0.1280  -55.0470 C   0  0  0  0  0  0  0  0  0  0  0  0
    7.8680    1.1950  -55.9680 C   0  0  0  0  0  0  0  0  0  0  0  0
    6.7250    1.6110  -56.1280 O   0  0  0  0  0  0  0  0  0  0  0  0
    8.9620    1.6980  -56.6400 N   0  0  0  0  0  0  0  0  0  0  0  0
    8.9500    2.7880  -57.6140 C   0  0  2  0  0  0  0  0  0  0  0  0
    8.6900    4.1560  -56.9340 C   0  0  0  0  0  0  0  0  0  0  0  0
    8.7320    5.2910  -57.9720 C   0  0  1  0  0  0  0  0  0  0  0  0
   10.1170    5.3230  -58.6360 C   0  0  0  0  0  0  0  0  0  0  0  0
   10.3950    3.9840  -59.3360 C   0  0  2  0  0  0  0  0  0  0  0  0
    9.3190    3.7370  -60.4060 C   0  0  0  0  0  0  0  0  0  0  0  0
    7.9280    3.6970  -59.7520 C   0  0  2  0  0  0  0  0  0  0  0  0
    7.6610    5.0360  -59.0450 C   0  0  0  0  0  0  0  0  0  0  0  0
    7.8870    2.5600  -58.7160 C   0  0  0  0  0  0  0  0  0  0  0  0
   10.3410    2.8520  -58.2980 C   0  0  0  0  0  0  0  0  0  0  0  0
    9.4370   -0.3270  -54.8840 N   0  0  0  0  0  0  0  0  0  0  0  0
    9.4030   -1.3040  -53.9220 N   0  0  0  0  0  0  0  0  0  0  0  0
    8.1630   -1.4230  -53.4830 C   0  0  0  0  0  0  0  0  0  0  0  0
    7.7260   -2.3330  -52.4280 C   0  0  0  0  0  0  0  0  0  0  0  0
    7.1450   -3.5600  -52.7730 C   0  0  0  0  0  0  0  0  0  0  0  0
    6.7230   -4.4510  -51.7840 C   0  0  0  0  0  0  0  0  0  0  0  0
    6.8890   -4.1270  -50.4390 C   0  0  0  0  0  0  0  0  0  0  0  0
    7.4850   -2.9200  -50.0820 C   0  0  0  0  0  0  0  0  0  0  0  0
    7.9070   -2.0280  -51.0720 C   0  0  0  0  0  0  0  0  0  0  0  0
    5.5826   -0.4368  -53.1489 H   0  0  0  0  0  0  0  0  0  0  0  0
    5.6241    0.4607  -54.7044 H   0  0  0  0  0  0  0  0  0  0  0  0
    5.4895   -1.3305  -54.7044 H   0  0  0  0  0  0  0  0  0  0  0  0
    9.8520    1.2730  -56.3880 H   0  0  0  0  0  0  0  0  0  0  0  0
    7.6997    4.1398  -56.4553 H   0  0  0  0  0  0  0  0  0  0  0  0
    9.4724    4.3333  -56.1814 H   0  0  0  0  0  0  0  0  0  0  0  0
    8.5384    6.2532  -57.4754 H   0  0  0  0  0  0  0  0  0  0  0  0
   10.1468    6.1349  -59.3776 H   0  0  0  0  0  0  0  0  0  0  0  0
   10.8831    5.4935  -57.8653 H   0  0  0  0  0  0  0  0  0  0  0  0
   11.3883    4.0118  -59.8078 H   0  0  0  0  0  0  0  0  0  0  0  0
    9.3497    4.5485  -61.1479 H   0  0  0  0  0  0  0  0  0  0  0  0
    9.5143    2.7735  -60.8995 H   0  0  0  0  0  0  0  0  0  0  0  0
    7.1616    3.5251  -60.5221 H   0  0  0  0  0  0  0  0  0  0  0  0
    7.6868    5.8494  -59.7850 H   0  0  0  0  0  0  0  0  0  0  0  0
    6.6724    4.9979  -58.5642 H   0  0  0  0  0  0  0  0  0  0  0  0
    6.8891    2.5274  -58.2544 H   0  0  0  0  0  0  0  0  0  0  0  0
    8.1023    1.6088  -59.2248 H   0  0  0  0  0  0  0  0  0  0  0  0
   10.5387    1.8938  -58.8007 H   0  0  0  0  0  0  0  0  0  0  0  0
   11.1009    3.0479  -57.5272 H   0  0  0  0  0  0  0  0  0  0  0  0
    7.0199   -3.8243  -53.8334 H   0  0  0  0  0  0  0  0  0  0  0  0
    6.2599   -5.4079  -52.0665 H   0  0  0  0  0  0  0  0  0  0  0  0
    6.5493   -4.8245  -49.6592 H   0  0  0  0  0  0  0  0  0  0  0  0
    7.6238   -2.6684  -49.0202 H   0  0  0  0  0  0  0  0  0  0  0  0
    8.3847   -1.0797  -50.7848 H   0  0  0  0  0  0  0  0  0  0  0  0
  1  2  1  0
  2  3  1  0
  3  4  1  0
  4  5  2  0
  4  6  1  0
  7  6  1  1
  7  8  1  0
  8  9  1  0
  9 10  1  0
 10 11  1  0
 11 12  1  0
 12 13  1  0
 13 14  1  0
 13 15  1  0
 11 16  1  0
  3 17  2  0
 17 18  1  0
 18 19  2  0
 19 20  1  0
 20 21  2  0
 21 22  1  0
 22 23  2  0
 23 24  1  0
 24 25  2  0
 19  2  1  0
 25 20  1  0
 15  7  1  0
 16  7  1  0
 14  9  1  0
  1 26  1  0
  1 27  1  0
  1 28  1  0
  6 29  1  0
  8 30  1  0
  8 31  1  0
  9 32  1  1
 10 33  1  0
 10 34  1  0
 11 35  1  6
 12 36  1  0
 12 37  1  0
 13 38  1  6
 14 39  1  0
 14 40  1  0
 15 41  1  0
 15 42  1  0
 16 43  1  0
 16 44  1  0
 21 45  1  0
 22 46  1  0
 23 47  1  0
 24 48  1  0
 25 49  1  0
M  END
>  <meeko>  (44) 
{"is_sidechain": false}

$$$$

     RDKit          3D

 49 53  0  0  0  0  0  0  0  0999 V2000
    5.7770   -0.3700  -54.1330 C   0  0  0  0  0  0  0  0  0  0  0  0
    7.2480   -0.5460  -54.2110 C   0  0  0  0  0  0  0  0  0  0  0  0
    8.1550    0.1560  -55.0670 C   0  0  0  0  0  0  0  0  0  0  0  0
    7.8580    1.2250  -56.0310 C   0  0  0  0  0  0  0  0  0  0  0  0
    6.7230    1.6530  -56.2110 O   0  0  0  0  0  0  0  0  0  0  0  0
    8.9730    1.6930  -56.6960 N   0  0  0  0  0  0  0  0  0  0  0  0
    8.9920    2.7600  -57.6950 C   0  0  2  0  0  0  0  0  0  0  0  0
    8.7420    4.1470  -57.0540 C   0  0  0  0  0  0  0  0  0  0  0  0
    8.8160    5.2570  -58.1180 C   0  0  1  0  0  0  0  0  0  0  0  0
   10.2110    5.2530  -58.7600 C   0  0  0  0  0  0  0  0  0  0  0  0
   10.4790    3.8920  -59.4240 C   0  0  2  0  0  0  0  0  0  0  0  0
    9.4170    3.6350  -60.5040 C   0  0  0  0  0  0  0  0  0  0  0  0
    8.0160    3.6300  -59.8720 C   0  0  2  0  0  0  0  0  0  0  0  0
    7.7570    4.9900  -59.2020 C   0  0  0  0  0  0  0  0  0  0  0  0
    7.9420    2.5190  -58.8080 C   0  0  0  0  0  0  0  0  0  0  0  0
   10.3940    2.7870  -58.3600 C   0  0  0  0  0  0  0  0  0  0  0  0
    9.4130   -0.2880  -54.8960 N   0  0  0  0  0  0  0  0  0  0  0  0
    9.3440   -1.2640  -53.9250 O   0  0  0  0  0  0  0  0  0  0  0  0
    8.0560   -1.4130  -53.5030 C   0  0  0  0  0  0  0  0  0  0  0  0
    7.8600   -2.3970  -52.4460 C   0  0  0  0  0  0  0  0  0  0  0  0
    7.3300   -3.6630  -52.7310 C   0  0  0  0  0  0  0  0  0  0  0  0
    7.1450   -4.6040  -51.7150 C   0  0  0  0  0  0  0  0  0  0  0  0
    7.4850   -4.2900  -50.4000 C   0  0  0  0  0  0  0  0  0  0  0  0
    8.0070   -3.0340  -50.1000 C   0  0  0  0  0  0  0  0  0  0  0  0
    8.1910   -2.0930  -51.1170 C   0  0  0  0  0  0  0  0  0  0  0  0
    5.4676   -0.3330  -53.0781 H   0  0  0  0  0  0  0  0  0  0  0  0
    5.4931    0.5685  -54.6315 H   0  0  0  0  0  0  0  0  0  0  0  0
    5.2797   -1.2150  -54.6315 H   0  0  0  0  0  0  0  0  0  0  0  0
    9.8490    1.2530  -56.4270 H   0  0  0  0  0  0  0  0  0  0  0  0
    7.7445    4.1565  -56.5905 H   0  0  0  0  0  0  0  0  0  0  0  0
    9.5163    4.3315  -56.2947 H   0  0  0  0  0  0  0  0  0  0  0  0
    8.6286    6.2339  -57.6484 H   0  0  0  0  0  0  0  0  0  0  0  0
   10.2647    6.0463  -59.5201 H   0  0  0  0  0  0  0  0  0  0  0  0
   10.9678    5.4310  -57.9818 H   0  0  0  0  0  0  0  0  0  0  0  0
   11.4793    3.8937  -59.8817 H   0  0  0  0  0  0  0  0  0  0  0  0
    9.4710    4.4282  -61.2642 H   0  0  0  0  0  0  0  0  0  0  0  0
    9.6061    2.6573  -60.9713 H   0  0  0  0  0  0  0  0  0  0  0  0
    7.2598    3.4493  -60.6502 H   0  0  0  0  0  0  0  0  0  0  0  0
    7.8055    5.7845  -59.9612 H   0  0  0  0  0  0  0  0  0  0  0  0
    6.7607    4.9772  -58.7359 H   0  0  0  0  0  0  0  0  0  0  0  0
    6.9367    2.5123  -58.3615 H   0  0  0  0  0  0  0  0  0  0  0  0
    8.1507    1.5522  -59.2894 H   0  0  0  0  0  0  0  0  0  0  0  0
   10.5848    1.8140  -58.8362 H   0  0  0  0  0  0  0  0  0  0  0  0
   11.1458    2.9906  -57.5833 H   0  0  0  0  0  0  0  0  0  0  0  0
    7.0569   -3.9183  -53.7655 H   0  0  0  0  0  0  0  0  0  0  0  0
    6.7302   -5.5946  -51.9532 H   0  0  0  0  0  0  0  0  0  0  0  0
    7.3414   -5.0324  -49.6012 H   0  0  0  0  0  0  0  0  0  0  0  0
    8.2744   -2.7827  -49.0630 H   0  0  0  0  0  0  0  0  0  0  0  0
    8.6004   -1.1018  -50.8723 H   0  0  0  0  0  0  0  0  0  0  0  0
  1  2  1  0
  2  3  1  0
  3  4  1  0
  4  5  2  0
  4  6  1  0
  7  6  1  1
  7  8  1  0
  8  9  1  0
  9 10  1  0
 10 11  1  0
 11 12  1  0
 12 13  1  0
 13 14  1  0
 13 15  1  0
 11 16  1  0
  3 17  2  0
 17 18  1  0
 18 19  1  0
 19 20  1  0
 20 21  2  0
 21 22  1  0
 22 23  2  0
 23 24  1  0
 24 25  2  0
 19  2  2  0
 25 20  1  0
 15  7  1  0
 16  7  1  0
 14  9  1  0
  1 26  1  0
  1 27  1  0
  1 28  1  0
  6 29  1  0
  8 30  1  0
  8 31  1  0
  9 32  1  1
 10 33  1  0
 10 34  1  0
 11 35  1  6
 12 36  1  0
 12 37  1  0
 13 38  1  6
 14 39  1  0
 14 40  1  0
 15 41  1  0
 15 42  1  0
 16 43  1  0
 16 44  1  0
 21 45  1  0
 22 46  1  0
 23 47  1  0
 24 48  1  0
 25 49  1  0
M  END
>  <meeko>  (45) 
{"is_sidechain": false}

$$$$

     RDKit          3D

 57 61  0  0  0  0  0  0  0  0999 V2000
    6.2920    0.0630  -53.7600 C   0  0  0  0  0  0  0  0  0  0  0  0
    7.6590   -0.4430  -54.0490 C   0  0  0  0  0  0  0  0  0  0  0  0
    8.5720    0.0770  -55.0140 C   0  0  0  0  0  0  0  0  0  0  0  0
    8.3740    1.2140  -55.9350 C   0  0  0  0  0  0  0  0  0  0  0  0
    7.2730    1.6940  -56.1850 O   0  0  0  0  0  0  0  0  0  0  0  0
    9.5580    1.6740  -56.4710 N   0  0  0  0  0  0  0  0  0  0  0  0
    9.6930    2.8590  -57.2820 C   0  0  2  0  0  0  0  0  0  0  0  0
    8.8740    2.7880  -58.6140 C   0  0  0  0  0  0  0  0  0  0  0  0
    9.0050    4.1020  -59.4390 C   0  0  2  0  0  0  0  0  0  0  0  0
   10.4840    4.4270  -59.6580 C   0  0  0  0  0  0  0  0  0  0  0  0
   10.9520    4.6430  -58.2110 C   0  0  2  0  0  0  0  0  0  0  0  0
   11.1480    3.2540  -57.5850 C   0  0  0  0  0  0  0  0  0  0  0  0
    9.6930    5.2260  -57.4800 C   0  0  1  0  0  0  0  0  0  0  0  0
    8.6160    5.3000  -58.5700 C   0  0  0  0  0  0  0  0  0  0  0  0
    9.2750    4.1190  -56.5040 C   0  0  0  0  0  0  0  0  0  0  0  0
    9.7290   -0.6150  -55.0100 N   0  0  0  0  0  0  0  0  0  0  0  0
    9.5510   -1.5640  -54.0720 N   0  0  0  0  0  0  0  0  0  0  0  0
   10.6230   -2.5160  -53.8290 C   0  0  0  0  0  0  0  0  0  0  0  0
   10.5070   -3.7800  -54.6840 C   0  0  0  0  0  0  0  0  0  0  0  0
   11.5180   -3.8210  -55.8220 C   0  0  0  0  0  0  0  0  0  0  0  0
   11.3920   -2.6580  -56.6300 O   0  0  0  0  0  0  0  0  0  0  0  0
    8.3250   -1.5030  -53.4530 C   0  0  0  0  0  0  0  0  0  0  0  0
    7.8850   -2.4150  -52.4060 C   0  0  0  0  0  0  0  0  0  0  0  0
    8.1660   -2.1400  -51.0630 C   0  0  0  0  0  0  0  0  0  0  0  0
    7.7450   -3.0170  -50.0620 C   0  0  0  0  0  0  0  0  0  0  0  0
    7.0350   -4.1680  -50.3970 C   0  0  0  0  0  0  0  0  0  0  0  0
    6.7420   -4.4440  -51.7320 C   0  0  0  0  0  0  0  0  0  0  0  0
    7.1630   -3.5680  -52.7350 C   0  0  0  0  0  0  0  0  0  0  0  0
    6.1439    0.1178  -52.6714 H   0  0  0  0  0  0  0  0  0  0  0  0
    6.1719    1.0652  -54.1973 H   0  0  0  0  0  0  0  0  0  0  0  0
    5.5483   -0.6194  -54.1973 H   0  0  0  0  0  0  0  0  0  0  0  0
   10.3850    1.2230  -56.0810 H   0  0  0  0  0  0  0  0  0  0  0  0
    9.2478    1.9484  -59.2184 H   0  0  0  0  0  0  0  0  0  0  0  0
    7.8135    2.6469  -58.3583 H   0  0  0  0  0  0  0  0  0  0  0  0
    8.4055    3.9576  -60.3499 H   0  0  0  0  0  0  0  0  0  0  0  0
   11.0157    3.5900  -60.1342 H   0  0  0  0  0  0  0  0  0  0  0  0
   10.6672    5.2809  -60.3268 H   0  0  0  0  0  0  0  0  0  0  0  0
   11.8572    5.2648  -58.1478 H   0  0  0  0  0  0  0  0  0  0  0  0
   11.6171    2.5547  -58.2928 H   0  0  0  0  0  0  0  0  0  0  0  0
   11.8124    3.2420  -56.7084 H   0  0  0  0  0  0  0  0  0  0  0  0
    9.8519    6.1929  -56.9801 H   0  0  0  0  0  0  0  0  0  0  0  0
    7.6060    5.1844  -58.1497 H   0  0  0  0  0  0  0  0  0  0  0  0
    8.5770    6.2590  -59.1074 H   0  0  0  0  0  0  0  0  0  0  0  0
    9.8139    4.1998  -55.5485 H   0  0  0  0  0  0  0  0  0  0  0  0
    8.2118    4.1434  -56.2230 H   0  0  0  0  0  0  0  0  0  0  0  0
   11.5827   -2.0278  -54.0539 H   0  0  0  0  0  0  0  0  0  0  0  0
   10.5556   -2.8247  -52.7754 H   0  0  0  0  0  0  0  0  0  0  0  0
   10.6691   -4.6561  -54.0389 H   0  0  0  0  0  0  0  0  0  0  0  0
    9.5033   -3.7829  -55.1341 H   0  0  0  0  0  0  0  0  0  0  0  0
   12.5345   -3.8652  -55.4041 H   0  0  0  0  0  0  0  0  0  0  0  0
   11.3282   -4.7109  -56.4401 H   0  0  0  0  0  0  0  0  0  0  0  0
   11.7410   -2.8720  -57.5120 H   0  0  0  0  0  0  0  0  0  0  0  0
    8.7210   -1.2289  -50.7950 H   0  0  0  0  0  0  0  0  0  0  0  0
    7.9739   -2.7993  -49.0083 H   0  0  0  0  0  0  0  0  0  0  0  0
    6.7053   -4.8596  -49.6077 H   0  0  0  0  0  0  0  0  0  0  0  0
    6.1792   -5.3517  -51.9952 H   0  0  0  0  0  0  0  0  0  0  0  0
    6.9263   -3.7850  -53.7871 H   0  0  0  0  0  0  0  0  0  0  0  0
  1  2  1  0
  2  3  1  0
  3  4  1  0
  4  5  2  0
  4  6  1  0
  7  6  1  1
  7  8  1  0
  8  9  1  0
  9 10  1  0
 10 11  1  0
 11 12  1  0
 11 13  1  0
 13 14  1  0
 13 15  1  0
  3 16  2  0
 16 17  1  0
 17 18  1  0
 18 19  1  0
 19 20  1  0
 20 21  1  0
 17 22  1  0
 22 23  1  0
 23 24  2  0
 24 25  1  0
 25 26  2  0
 26 27  1  0
 27 28  2  0
 22  2  2  0
 28 23  1  0
 12  7  1  0
 15  7  1  0
 14  9  1  0
  1 29  1  0
  1 30  1  0
  1 31  1  0
  6 32  1  0
  8 33  1  0
  8 34  1  0
  9 35  1  6
 10 36  1  0
 10 37  1  0
 11 38  1  6
 12 39  1  0
 12 40  1  0
 13 41  1  1
 14 42  1  0
 14 43  1  0
 15 44  1  0
 15 45  1  0
 18 46  1  0
 18 47  1  0
 19 48  1  0
 19 49  1  0
 20 50  1  0
 20 51  1  0
 21 52  1  0
 24 53  1  0
 25 54  1  0
 26 55  1  0
 27 56  1  0
 28 57  1  0
M  END
>  <meeko>  (46) 
{"is_sidechain": false}

$$$$

     RDKit          3D

 56 59  0  0  0  0  0  0  0  0999 V2000
    6.2640    0.3650  -53.7240 C   0  0  0  0  0  0  0  0  0  0  0  0
    7.6450   -0.0390  -54.1020 C   0  0  0  0  0  0  0  0  0  0  0  0
    8.4780    0.4040  -55.1250 C   0  0  0  0  0  0  0  0  0  0  0  0
    8.1750    1.4060  -56.1420 C   0  0  0  0  0  0  0  0  0  0  0  0
    7.0380    1.8190  -56.3350 O   0  0  0  0  0  0  0  0  0  0  0  0
    9.2760    1.8540  -56.8440 N   0  0  0  0  0  0  0  0  0  0  0  0
    9.2440    2.9100  -57.8600 C   0  0  2  0  0  0  0  0  0  0  0  0
    8.8960    4.2870  -57.2430 C   0  0  0  0  0  0  0  0  0  0  0  0
    8.9260    5.3870  -58.3190 C   0  0  1  0  0  0  0  0  0  0  0  0
   10.3330    5.4600  -58.9310 C   0  0  0  0  0  0  0  0  0  0  0  0
   10.6980    4.1130  -59.5730 C   0  0  2  0  0  0  0  0  0  0  0  0
    9.6790    3.7800  -60.6730 C   0  0  0  0  0  0  0  0  0  0  0  0
    8.2680    3.6950  -60.0710 C   0  0  2  0  0  0  0  0  0  0  0  0
    7.9100    5.0430  -59.4220 C   0  0  0  0  0  0  0  0  0  0  0  0
    8.2390    2.5930  -58.9970 C   0  0  0  0  0  0  0  0  0  0  0  0
   10.6570    3.0150  -58.4980 C   0  0  0  0  0  0  0  0  0  0  0  0
    9.6550   -0.3600  -54.9540 C   0  0  0  0  0  0  0  0  0  0  0  0
    9.5940   -1.1930  -53.9170 N   0  0  0  0  0  0  0  0  0  0  0  0
    8.3520   -1.0080  -53.4310 N   0  0  0  0  0  0  0  0  0  0  0  0
    7.9310   -1.8070  -52.2920 C   0  0  0  0  0  0  0  0  0  0  0  0
    9.0270   -2.7290  -51.7500 C   0  0  0  0  0  0  0  0  0  0  0  0
    8.6230   -3.4240  -50.4460 C   0  0  0  0  0  0  0  0  0  0  0  0
    7.1290   -3.2950  -50.1250 C   0  0  0  0  0  0  0  0  0  0  0  0
    6.2860   -4.5070  -50.5060 C   0  0  0  0  0  0  0  0  0  0  0  0
    4.9270   -4.2860  -50.1610 O   0  0  0  0  0  0  0  0  0  0  0  0
    6.1765    0.3906  -52.6278 H   0  0  0  0  0  0  0  0  0  0  0  0
    6.0494    1.3636  -54.1324 H   0  0  0  0  0  0  0  0  0  0  0  0
    5.5450   -0.3605  -54.1324 H   0  0  0  0  0  0  0  0  0  0  0  0
   10.1820    1.6160  -56.4660 H   0  0  0  0  0  0  0  0  0  0  0  0
    7.8897    4.2411  -56.8012 H   0  0  0  0  0  0  0  0  0  0  0  0
    9.6409    4.5272  -56.4700 H   0  0  0  0  0  0  0  0  0  0  0  0
    8.6691    6.3560  -57.8663 H   0  0  0  0  0  0  0  0  0  0  0  0
   10.3557    6.2474  -59.6988 H   0  0  0  0  0  0  0  0  0  0  0  0
   11.0598    5.6905  -58.1381 H   0  0  0  0  0  0  0  0  0  0  0  0
   11.7062    4.1719  -60.0089 H   0  0  0  0  0  0  0  0  0  0  0  0
    9.7010    4.5673  -61.4409 H   0  0  0  0  0  0  0  0  0  0  0  0
    9.9384    2.8115  -61.1255 H   0  0  0  0  0  0  0  0  0  0  0  0
    7.5421    3.4603  -60.8634 H   0  0  0  0  0  0  0  0  0  0  0  0
    7.9254    5.8313  -60.1891 H   0  0  0  0  0  0  0  0  0  0  0  0
    6.9066    4.9723  -58.9769 H   0  0  0  0  0  0  0  0  0  0  0  0
    7.2254    2.5266  -58.5750 H   0  0  0  0  0  0  0  0  0  0  0  0
    8.5216    1.6374  -59.4628 H   0  0  0  0  0  0  0  0  0  0  0  0
   10.9155    2.0505  -58.9594 H   0  0  0  0  0  0  0  0  0  0  0  0
   11.3789    3.2715  -57.7086 H   0  0  0  0  0  0  0  0  0  0  0  0
   10.5328   -0.2749  -55.6114 H   0  0  0  0  0  0  0  0  0  0  0  0
    7.6195   -1.1263  -51.4861 H   0  0  0  0  0  0  0  0  0  0  0  0
    7.1091   -2.4517  -52.6369 H   0  0  0  0  0  0  0  0  0  0  0  0
    9.2456   -3.4980  -52.5056 H   0  0  0  0  0  0  0  0  0  0  0  0
    9.9087   -2.1071  -51.5359 H   0  0  0  0  0  0  0  0  0  0  0  0
    8.8709   -4.4925  -50.5290 H   0  0  0  0  0  0  0  0  0  0  0  0
    9.1740   -2.9316  -49.6312 H   0  0  0  0  0  0  0  0  0  0  0  0
    7.0245   -3.1323  -49.0421 H   0  0  0  0  0  0  0  0  0  0  0  0
    6.7541   -2.4551  -50.7284 H   0  0  0  0  0  0  0  0  0  0  0  0
    6.3628   -4.6769  -51.5901 H   0  0  0  0  0  0  0  0  0  0  0  0
    6.6563   -5.3878  -49.9610 H   0  0  0  0  0  0  0  0  0  0  0  0
    4.8550   -3.3620  -49.8650 H   0  0  0  0  0  0  0  0  0  0  0  0
  1  2  1  0
  2  3  2  0
  3  4  1  0
  4  5  2  0
  4  6  1  0
  7  6  1  1
  7  8  1  0
  8  9  1  0
  9 10  1  0
 10 11  1  0
 11 12  1  0
 12 13  1  0
 13 14  1  0
 13 15  1  0
 11 16  1  0
  3 17  1  0
 17 18  2  0
 18 19  1  0
 19 20  1  0
 20 21  1  0
 21 22  1  0
 22 23  1  0
 23 24  1  0
 24 25  1  0
 19  2  1  0
 15  7  1  0
 16  7  1  0
 14  9  1  0
  1 26  1  0
  1 27  1  0
  1 28  1  0
  6 29  1  0
  8 30  1  0
  8 31  1  0
  9 32  1  1
 10 33  1  0
 10 34  1  0
 11 35  1  6
 12 36  1  0
 12 37  1  0
 13 38  1  6
 14 39  1  0
 14 40  1  0
 15 41  1  0
 15 42  1  0
 16 43  1  0
 16 44  1  0
 17 45  1  0
 20 46  1  0
 20 47  1  0
 21 48  1  0
 21 49  1  0
 22 50  1  0
 22 51  1  0
 23 52  1  0
 23 53  1  0
 24 54  1  0
 24 55  1  0
 25 56  1  0
M  END
>  <meeko>  (47) 
{"is_sidechain": false}

$$$$

     RDKit          3D

 49 53  0  0  0  0  0  0  0  0999 V2000
    5.9080   -0.4260  -54.0300 C   0  0  0  0  0  0  0  0  0  0  0  0
    7.3820   -0.5520  -54.1440 C   0  0  0  0  0  0  0  0  0  0  0  0
    8.2660   -1.4240  -53.4340 C   0  0  0  0  0  0  0  0  0  0  0  0
    7.9550   -2.3940  -52.3860 C   0  0  0  0  0  0  0  0  0  0  0  0
    7.4410   -3.6550  -52.7230 C   0  0  0  0  0  0  0  0  0  0  0  0
    7.1390   -4.5870  -51.7270 C   0  0  0  0  0  0  0  0  0  0  0  0
    7.3530   -4.2690  -50.3870 C   0  0  0  0  0  0  0  0  0  0  0  0
    7.8740   -3.0240  -50.0410 C   0  0  0  0  0  0  0  0  0  0  0  0
    8.1760   -2.0900  -51.0350 C   0  0  0  0  0  0  0  0  0  0  0  0
    9.5280   -1.2670  -53.8630 N   0  0  0  0  0  0  0  0  0  0  0  0
    9.4930   -0.2760  -54.8160 O   0  0  0  0  0  0  0  0  0  0  0  0
    8.2160    0.1620  -54.9860 C   0  0  0  0  0  0  0  0  0  0  0  0
    7.9670    1.2160  -55.9460 C   0  0  0  0  0  0  0  0  0  0  0  0
    6.8460    1.6560  -56.1790 O   0  0  0  0  0  0  0  0  0  0  0  0
    9.1030    1.6880  -56.5740 N   0  0  0  0  0  0  0  0  0  0  0  0
    9.1420    2.7510  -57.5810 C   0  0  2  0  0  0  0  0  0  0  0  0
    8.1880    2.4560  -58.7650 C   0  0  0  0  0  0  0  0  0  0  0  0
    8.2880    3.5630  -59.8300 C   0  0  1  0  0  0  0  0  0  0  0  0
    7.9190    4.9140  -59.1920 C   0  0  0  0  0  0  0  0  0  0  0  0
    8.8840    5.2360  -58.0380 C   0  0  2  0  0  0  0  0  0  0  0  0
   10.3210    5.2920  -58.5790 C   0  0  0  0  0  0  0  0  0  0  0  0
   10.6980    3.9420  -59.2080 C   0  0  2  0  0  0  0  0  0  0  0  0
    9.7300    3.6290  -60.3600 C   0  0  0  0  0  0  0  0  0  0  0  0
   10.5870    2.8410  -58.1430 C   0  0  0  0  0  0  0  0  0  0  0  0
    8.7840    4.1310  -56.9720 C   0  0  0  0  0  0  0  0  0  0  0  0
    5.6231   -0.4016  -52.9678 H   0  0  0  0  0  0  0  0  0  0  0  0
    5.5805    0.5034  -54.5188 H   0  0  0  0  0  0  0  0  0  0  0  0
    5.4276   -1.2864  -54.5188 H   0  0  0  0  0  0  0  0  0  0  0  0
    7.2745   -3.9119  -53.7795 H   0  0  0  0  0  0  0  0  0  0  0  0
    6.7323   -5.5718  -52.0004 H   0  0  0  0  0  0  0  0  0  0  0  0
    7.1105   -5.0010  -49.6025 H   0  0  0  0  0  0  0  0  0  0  0  0
    8.0478   -2.7761  -48.9835 H   0  0  0  0  0  0  0  0  0  0  0  0
    8.5898   -1.1097  -50.7561 H   0  0  0  0  0  0  0  0  0  0  0  0
    9.9800    1.2590  -56.3000 H   0  0  0  0  0  0  0  0  0  0  0  0
    8.4621    1.4921  -59.2186 H   0  0  0  0  0  0  0  0  0  0  0  0
    7.1554    2.4190  -58.3877 H   0  0  0  0  0  0  0  0  0  0  0  0
    7.5991    3.3435  -60.6590 H   0  0  0  0  0  0  0  0  0  0  0  0
    7.9851    5.7056  -59.9529 H   0  0  0  0  0  0  0  0  0  0  0  0
    6.8935    4.8575  -58.7981 H   0  0  0  0  0  0  0  0  0  0  0  0
    8.6194    6.2062  -57.5922 H   0  0  0  0  0  0  0  0  0  0  0  0
   10.3929    6.0819  -59.3412 H   0  0  0  0  0  0  0  0  0  0  0  0
   11.0108    5.5097  -57.7503 H   0  0  0  0  0  0  0  0  0  0  0  0
   11.7278    3.9874  -59.5920 H   0  0  0  0  0  0  0  0  0  0  0  0
    9.8025    4.4190  -61.1220 H   0  0  0  0  0  0  0  0  0  0  0  0
    9.9972    2.6584  -60.8034 H   0  0  0  0  0  0  0  0  0  0  0  0
   10.8576    1.8753  -58.5949 H   0  0  0  0  0  0  0  0  0  0  0  0
   11.2694    3.0851  -57.3155 H   0  0  0  0  0  0  0  0  0  0  0  0
    9.4814    4.3560  -56.1516 H   0  0  0  0  0  0  0  0  0  0  0  0
    7.7514    4.0949  -56.5946 H   0  0  0  0  0  0  0  0  0  0  0  0
  1  2  1  0
  2  3  1  0
  3  4  1  0
  4  5  2  0
  5  6  1  0
  6  7  2  0
  7  8  1  0
  8  9  2  0
  3 10  2  0
 10 11  1  0
 11 12  1  0
 12 13  1  0
 13 14  2  0
 13 15  1  0
 16 15  1  1
 16 17  1  0
 17 18  1  0
 18 19  1  0
 19 20  1  0
 20 21  1  0
 21 22  1  0
 22 23  1  0
 22 24  1  0
 20 25  1  0
 12  2  2  0
 24 16  1  0
  9  4  1  0
 25 16  1  0
 23 18  1  0
  1 26  1  0
  1 27  1  0
  1 28  1  0
  5 29  1  0
  6 30  1  0
  7 31  1  0
  8 32  1  0
  9 33  1  0
 15 34  1  0
 17 35  1  0
 17 36  1  0
 18 37  1  6
 19 38  1  0
 19 39  1  0
 20 40  1  1
 21 41  1  0
 21 42  1  0
 22 43  1  6
 23 44  1  0
 23 45  1  0
 24 46  1  0
 24 47  1  0
 25 48  1  0
 25 49  1  0
M  END
>  <meeko>  (48) 
{"is_sidechain": false}

$$$$

     RDKit          3D

 55 57  0  0  0  0  0  0  0  0999 V2000
    6.7070    0.2850  -53.5550 C   0  0  0  0  0  0  0  0  0  0  0  0
    7.9330   -0.4460  -53.9690 C   0  0  0  0  0  0  0  0  0  0  0  0
    8.8850   -0.0670  -54.9740 C   0  0  0  0  0  0  0  0  0  0  0  0
    8.8570    1.1050  -55.8720 C   0  0  0  0  0  0  0  0  0  0  0  0
    7.8720    1.8260  -56.0120 O   0  0  0  0  0  0  0  0  0  0  0  0
   10.0580    1.3500  -56.5220 N   0  0  0  0  0  0  0  0  0  0  0  0
   10.2450    2.5500  -57.3090 C   0  0  0  0  0  0  0  0  0  0  0  0
    9.7000    2.4280  -58.7420 C   0  0  0  0  0  0  0  0  0  0  0  0
   10.7880    2.9780  -59.6640 C   0  0  0  0  0  0  0  0  0  0  0  0
   11.7450    3.7270  -58.7510 C   0  0  0  0  0  0  0  0  0  0  0  0
   11.7230    2.8960  -57.4810 C   0  0  0  0  0  0  0  0  0  0  0  0
    9.8900   -0.9560  -55.0340 N   0  0  0  0  0  0  0  0  0  0  0  0
    9.5930   -1.8780  -54.1030 N   0  0  0  0  0  0  0  0  0  0  0  0
   10.5220   -2.9810  -53.9060 C   0  0  0  0  0  0  0  0  0  0  0  0
   10.2100   -4.1580  -54.8320 C   0  0  0  0  0  0  0  0  0  0  0  0
   11.4320   -4.6260  -55.6280 C   0  0  0  0  0  0  0  0  0  0  0  0
   11.2410   -4.5990  -57.1510 C   0  0  0  0  0  0  0  0  0  0  0  0
   11.8820   -3.4200  -57.8690 C   0  0  0  0  0  0  0  0  0  0  0  0
   11.7630   -2.2480  -57.0740 O   0  0  0  0  0  0  0  0  0  0  0  0
    8.4160   -1.6360  -53.4430 C   0  0  0  0  0  0  0  0  0  0  0  0
    7.8750   -2.4830  -52.3880 C   0  0  0  0  0  0  0  0  0  0  0  0
    8.1930   -2.2300  -51.0500 C   0  0  0  0  0  0  0  0  0  0  0  0
    7.6740   -3.0400  -50.0380 C   0  0  0  0  0  0  0  0  0  0  0  0
    6.8380   -4.1090  -50.3620 C   0  0  0  0  0  0  0  0  0  0  0  0
    6.5230   -4.3700  -51.6950 C   0  0  0  0  0  0  0  0  0  0  0  0
    7.0420   -3.5600  -52.7070 C   0  0  0  0  0  0  0  0  0  0  0  0
    6.6527    0.3174  -52.4568 H   0  0  0  0  0  0  0  0  0  0  0  0
    6.7404    1.3107  -53.9509 H   0  0  0  0  0  0  0  0  0  0  0  0
    5.8205   -0.2321  -53.9509 H   0  0  0  0  0  0  0  0  0  0  0  0
   10.8750    0.9130  -56.1160 H   0  0  0  0  0  0  0  0  0  0  0  0
    9.6988    3.3198  -56.7441 H   0  0  0  0  0  0  0  0  0  0  0  0
    9.4938    1.3746  -58.9825 H   0  0  0  0  0  0  0  0  0  0  0  0
    8.7581    2.9838  -58.8598 H   0  0  0  0  0  0  0  0  0  0  0  0
   11.3089    2.1569  -60.1782 H   0  0  0  0  0  0  0  0  0  0  0  0
   10.3722    3.6299  -60.4464 H   0  0  0  0  0  0  0  0  0  0  0  0
   12.7562    3.7637  -59.1824 H   0  0  0  0  0  0  0  0  0  0  0  0
   11.4582    4.7764  -58.5883 H   0  0  0  0  0  0  0  0  0  0  0  0
   12.3295    1.9855  -57.5960 H   0  0  0  0  0  0  0  0  0  0  0  0
   12.1434    3.4263  -56.6138 H   0  0  0  0  0  0  0  0  0  0  0  0
   11.5433   -2.6275  -54.1111 H   0  0  0  0  0  0  0  0  0  0  0  0
   10.4254   -3.3283  -52.8667 H   0  0  0  0  0  0  0  0  0  0  0  0
    9.8447   -4.9977  -54.2225 H   0  0  0  0  0  0  0  0  0  0  0  0
    9.4532   -3.8195  -55.5549 H   0  0  0  0  0  0  0  0  0  0  0  0
   12.2793   -3.9716  -55.3752 H   0  0  0  0  0  0  0  0  0  0  0  0
   11.6059   -5.6761  -55.3505 H   0  0  0  0  0  0  0  0  0  0  0  0
   11.6727   -5.5229  -57.5635 H   0  0  0  0  0  0  0  0  0  0  0  0
   10.1581   -4.5034  -57.3188 H   0  0  0  0  0  0  0  0  0  0  0  0
   12.9463   -3.6349  -58.0452 H   0  0  0  0  0  0  0  0  0  0  0  0
   11.3715   -3.2596  -58.8301 H   0  0  0  0  0  0  0  0  0  0  0  0
   11.2410   -1.6110  -57.5940 H   0  0  0  0  0  0  0  0  0  0  0  0
    8.8547   -1.3895  -50.7937 H   0  0  0  0  0  0  0  0  0  0  0  0
    7.9240   -2.8355  -48.9865 H   0  0  0  0  0  0  0  0  0  0  0  0
    6.4271   -4.7464  -49.5652 H   0  0  0  0  0  0  0  0  0  0  0  0
    5.8654   -5.2143  -51.9494 H   0  0  0  0  0  0  0  0  0  0  0  0
    6.7949   -3.7696  -53.7582 H   0  0  0  0  0  0  0  0  0  0  0  0
  1  2  1  0
  2  3  1  0
  3  4  1  0
  4  5  2  0
  4  6  1  0
  6  7  1  0
  7  8  1  0
  8  9  1  0
  9 10  1  0
 10 11  1  0
  3 12  2  0
 12 13  1  0
 13 14  1  0
 14 15  1  0
 15 16  1  0
 16 17  1  0
 17 18  1  0
 18 19  1  0
 13 20  1  0
 20 21  1  0
 21 22  2  0
 22 23  1  0
 23 24  2  0
 24 25  1  0
 25 26  2  0
 20  2  2  0
 26 21  1  0
 11  7  1  0
  1 27  1  0
  1 28  1  0
  1 29  1  0
  6 30  1  0
  7 31  1  0
  8 32  1  0
  8 33  1  0
  9 34  1  0
  9 35  1  0
 10 36  1  0
 10 37  1  0
 11 38  1  0
 11 39  1  0
 14 40  1  0
 14 41  1  0
 15 42  1  0
 15 43  1  0
 16 44  1  0
 16 45  1  0
 17 46  1  0
 17 47  1  0
 18 48  1  0
 18 49  1  0
 19 50  1  0
 22 51  1  0
 23 52  1  0
 24 53  1  0
 25 54  1  0
 26 55  1  0
M  END
>  <meeko>  (49) 
{"is_sidechain": false}

$$$$

     RDKit          3D

 54 58  0  0  0  0  0  0  0  0999 V2000
    6.1950   -0.1560  -53.9080 C   0  0  0  0  0  0  0  0  0  0  0  0
    7.6360   -0.4630  -54.1060 C   0  0  0  0  0  0  0  0  0  0  0  0
    8.5490    0.1610  -55.0200 C   0  0  0  0  0  0  0  0  0  0  0  0
    8.2980    1.2810  -55.9490 C   0  0  0  0  0  0  0  0  0  0  0  0
    7.1910    1.5270  -56.4170 O   0  0  0  0  0  0  0  0  0  0  0  0
    9.4330    2.0070  -56.2720 N   0  0  0  0  0  0  0  0  0  0  0  0
    9.4400    3.0920  -57.2310 C   0  0  2  0  0  0  0  0  0  0  0  0
    9.0540    2.6480  -58.6830 C   0  0  0  0  0  0  0  0  0  0  0  0
    9.0260    3.8540  -59.6670 C   0  0  2  0  0  0  0  0  0  0  0  0
   10.3580    4.6040  -59.5960 C   0  0  0  0  0  0  0  0  0  0  0  0
   10.3420    5.0900  -58.1390 C   0  0  2  0  0  0  0  0  0  0  0  0
   10.7480    3.8980  -57.2580 C   0  0  0  0  0  0  0  0  0  0  0  0
    8.8230    5.3120  -57.8220 C   0  0  1  0  0  0  0  0  0  0  0  0
    8.1000    4.9440  -59.1250 C   0  0  0  0  0  0  0  0  0  0  0  0
    8.4860    4.2220  -56.7960 C   0  0  0  0  0  0  0  0  0  0  0  0
    9.7610   -0.4140  -54.9440 N   0  0  0  0  0  0  0  0  0  0  0  0
    9.6330   -1.3740  -54.0150 N   0  0  0  0  0  0  0  0  0  0  0  0
   10.7840   -2.2060  -53.7260 C   0  0  0  0  0  0  0  0  0  0  0  0
   10.8520   -3.4160  -54.6440 C   0  0  0  0  0  0  0  0  0  0  0  0
   10.7580   -3.0170  -56.0100 O   0  0  0  0  0  0  0  0  0  0  0  0
    8.3820   -1.4340  -53.4540 C   0  0  0  0  0  0  0  0  0  0  0  0
    7.9920   -2.3800  -52.4170 C   0  0  0  0  0  0  0  0  0  0  0  0
    8.1140   -2.0370  -51.0660 C   0  0  0  0  0  0  0  0  0  0  0  0
    7.7460   -2.9470  -50.0740 C   0  0  0  0  0  0  0  0  0  0  0  0
    7.2510   -4.2020  -50.4270 C   0  0  0  0  0  0  0  0  0  0  0  0
    7.1210   -4.5470  -51.7720 C   0  0  0  0  0  0  0  0  0  0  0  0
    7.4890   -3.6380  -52.7660 C   0  0  0  0  0  0  0  0  0  0  0  0
    5.9747   -0.1091  -52.8313 H   0  0  0  0  0  0  0  0  0  0  0  0
    5.9592    0.8125  -54.3731 H   0  0  0  0  0  0  0  0  0  0  0  0
    5.5849   -0.9443  -54.3731 H   0  0  0  0  0  0  0  0  0  0  0  0
   10.3180    1.5840  -56.0280 H   0  0  0  0  0  0  0  0  0  0  0  0
    9.7923    1.9145  -59.0394 H   0  0  0  0  0  0  0  0  0  0  0  0
    8.0458    2.2094  -58.6502 H   0  0  0  0  0  0  0  0  0  0  0  0
    8.7561    3.4457  -60.6521 H   0  0  0  0  0  0  0  0  0  0  0  0
   11.2094    3.9349  -59.7895 H   0  0  0  0  0  0  0  0  0  0  0  0
   10.4676    5.4060  -60.3408 H   0  0  0  0  0  0  0  0  0  0  0  0
   10.9841    5.9687  -57.9790 H   0  0  0  0  0  0  0  0  0  0  0  0
   11.5680    3.3217  -57.7114 H   0  0  0  0  0  0  0  0  0  0  0  0
   11.1278    4.1780  -56.2644 H   0  0  0  0  0  0  0  0  0  0  0  0
    8.5656    6.3213  -57.4684 H   0  0  0  0  0  0  0  0  0  0  0  0
    7.0886    4.5570  -58.9317 H   0  0  0  0  0  0  0  0  0  0  0  0
    7.9392    5.7884  -59.8113 H   0  0  0  0  0  0  0  0  0  0  0  0
    8.6986    4.5556  -55.7696 H   0  0  0  0  0  0  0  0  0  0  0  0
    7.4247    3.9333  -56.7777 H   0  0  0  0  0  0  0  0  0  0  0  0
   11.6976   -1.6077  -53.8576 H   0  0  0  0  0  0  0  0  0  0  0  0
   10.6930   -2.5673  -52.6910 H   0  0  0  0  0  0  0  0  0  0  0  0
   11.8076   -3.9371  -54.4847 H   0  0  0  0  0  0  0  0  0  0  0  0
   10.0100   -4.0846  -54.4116 H   0  0  0  0  0  0  0  0  0  0  0  0
   10.2400   -3.6980  -56.4760 H   0  0  0  0  0  0  0  0  0  0  0  0
    8.5013   -1.0466  -50.7848 H   0  0  0  0  0  0  0  0  0  0  0  0
    7.8464   -2.6742  -49.0131 H   0  0  0  0  0  0  0  0  0  0  0  0
    6.9631   -4.9197  -49.6447 H   0  0  0  0  0  0  0  0  0  0  0  0
    6.7282   -5.5361  -52.0501 H   0  0  0  0  0  0  0  0  0  0  0  0
    7.3832   -3.9117  -53.8261 H   0  0  0  0  0  0  0  0  0  0  0  0
  1  2  1  0
  2  3  1  0
  3  4  1  0
  4  5  2  0
  4  6  1  0
  7  6  1  1
  7  8  1  0
  8  9  1  0
  9 10  1  0
 10 11  1  0
 11 12  1  0
 11 13  1  0
 13 14  1  0
 13 15  1  0
  3 16  2  0
 16 17  1  0
 17 18  1  0
 18 19  1  0
 19 20  1  0
 17 21  1  0
 21 22  1  0
 22 23  2  0
 23 24  1  0
 24 25  2  0
 25 26  1  0
 26 27  2  0
 21  2  2  0
 27 22  1  0
 12  7  1  0
 15  7  1  0
 14  9  1  0
  1 28  1  0
  1 29  1  0
  1 30  1  0
  6 31  1  0
  8 32  1  0
  8 33  1  0
  9 34  1  6
 10 35  1  0
 10 36  1  0
 11 37  1  6
 12 38  1  0
 12 39  1  0
 13 40  1  1
 14 41  1  0
 14 42  1  0
 15 43  1  0
 15 44  1  0
 18 45  1  0
 18 46  1  0
 19 47  1  0
 19 48  1  0
 20 49  1  0
 23 50  1  0
 24 51  1  0
 25 52  1  0
 26 53  1  0
 27 54  1  0
M  END
>  <meeko>  (50) 
{"is_sidechain": false}

$$$$

     RDKit          3D

 64 68  0  0  0  0  0  0  0  0999 V2000
    6.3300   -0.2690  -53.9180 C   0  0  0  0  0  0  0  0  0  0  0  0
    7.7760   -0.5940  -54.0980 C   0  0  0  0  0  0  0  0  0  0  0  0
    8.6710    0.0670  -55.0100 C   0  0  0  0  0  0  0  0  0  0  0  0
    8.3510    1.1680  -55.9280 C   0  0  0  0  0  0  0  0  0  0  0  0
    7.2180    1.6250  -56.0240 O   0  0  0  0  0  0  0  0  0  0  0  0
    9.4350    1.6510  -56.6330 N   0  0  0  0  0  0  0  0  0  0  0  0
    9.4000    2.8120  -57.5270 C   0  0  2  0  0  0  0  0  0  0  0  0
    8.3210    2.6640  -58.6300 C   0  0  0  0  0  0  0  0  0  0  0  0
    8.3500    3.8750  -59.5800 C   0  0  1  0  0  0  0  0  0  0  0  0
    8.0930    5.1590  -58.7720 C   0  0  0  0  0  0  0  0  0  0  0  0
    9.1800    5.3340  -57.6980 C   0  0  2  0  0  0  0  0  0  0  0  0
   10.5550    5.4140  -58.3780 C   0  0  0  0  0  0  0  0  0  0  0  0
   10.8200    4.1310  -59.1820 C   0  0  2  0  0  0  0  0  0  0  0  0
    9.7290    3.9650  -60.2500 C   0  0  0  0  0  0  0  0  0  0  0  0
   10.7800    2.9240  -58.2300 C   0  0  0  0  0  0  0  0  0  0  0  0
    9.1530    4.1250  -56.7460 C   0  0  0  0  0  0  0  0  0  0  0  0
    9.8960   -0.5650  -54.8680 C   0  0  0  0  0  0  0  0  0  0  0  0
    9.7910   -1.5310  -53.8990 N   0  0  0  0  0  0  0  0  0  0  0  0
   10.8930   -2.3950  -53.4970 C   0  0  0  0  0  0  0  0  0  0  0  0
   11.4240   -3.2870  -54.6230 C   0  0  0  0  0  0  0  0  0  0  0  0
   10.3640   -4.0990  -55.3690 C   0  0  0  0  0  0  0  0  0  0  0  0
   10.7460   -4.4320  -56.8050 C   0  0  0  0  0  0  0  0  0  0  0  0
   11.4360   -3.3210  -57.3610 O   0  0  0  0  0  0  0  0  0  0  0  0
    8.4980   -1.5760  -53.4260 C   0  0  0  0  0  0  0  0  0  0  0  0
    8.0390   -2.5130  -52.4030 C   0  0  0  0  0  0  0  0  0  0  0  0
    7.4780   -3.7400  -52.7730 C   0  0  0  0  0  0  0  0  0  0  0  0
    7.0380   -4.6350  -51.7960 C   0  0  0  0  0  0  0  0  0  0  0  0
    7.1500   -4.3040  -50.4460 C   0  0  0  0  0  0  0  0  0  0  0  0
    7.6990   -3.0780  -50.0720 C   0  0  0  0  0  0  0  0  0  0  0  0
    8.1390   -2.1830  -51.0480 C   0  0  0  0  0  0  0  0  0  0  0  0
    6.0969   -0.2166  -52.8443 H   0  0  0  0  0  0  0  0  0  0  0  0
    6.1108    0.7008  -54.3886 H   0  0  0  0  0  0  0  0  0  0  0  0
    5.7169   -1.0518  -54.3886 H   0  0  0  0  0  0  0  0  0  0  0  0
   10.3420    1.3530  -56.3040 H   0  0  0  0  0  0  0  0  0  0  0  0
    8.5159    1.7474  -59.2061 H   0  0  0  0  0  0  0  0  0  0  0  0
    7.3310    2.6097  -58.1536 H   0  0  0  0  0  0  0  0  0  0  0  0
    7.5732    3.7589  -60.3502 H   0  0  0  0  0  0  0  0  0  0  0  0
    8.1088    6.0249  -59.4502 H   0  0  0  0  0  0  0  0  0  0  0  0
    7.1110    5.0855  -58.2818 H   0  0  0  0  0  0  0  0  0  0  0  0
    8.9939    6.2568  -57.1290 H   0  0  0  0  0  0  0  0  0  0  0  0
   10.5760    6.2797  -59.0563 H   0  0  0  0  0  0  0  0  0  0  0  0
   11.3326    5.5242  -57.6078 H   0  0  0  0  0  0  0  0  0  0  0  0
   11.8056    4.1942  -59.6664 H   0  0  0  0  0  0  0  0  0  0  0  0
    9.7487    4.8303  -60.9289 H   0  0  0  0  0  0  0  0  0  0  0  0
    9.9162    3.0418  -60.8181 H   0  0  0  0  0  0  0  0  0  0  0  0
   10.9652    2.0056  -58.8064 H   0  0  0  0  0  0  0  0  0  0  0  0
   11.5541    3.0602  -57.4604 H   0  0  0  0  0  0  0  0  0  0  0  0
    9.9380    4.2463  -55.9851 H   0  0  0  0  0  0  0  0  0  0  0  0
    8.1641    4.0724  -56.2670 H   0  0  0  0  0  0  0  0  0  0  0  0
   10.8059   -0.3302  -55.4398 H   0  0  0  0  0  0  0  0  0  0  0  0
   11.7176   -1.7610  -53.1392 H   0  0  0  0  0  0  0  0  0  0  0  0
   10.5054   -3.0644  -52.7149 H   0  0  0  0  0  0  0  0  0  0  0  0
   11.9355   -2.6434  -55.3538 H   0  0  0  0  0  0  0  0  0  0  0  0
   12.0869   -4.0214  -54.1422 H   0  0  0  0  0  0  0  0  0  0  0  0
   10.2023   -5.0414  -54.8253 H   0  0  0  0  0  0  0  0  0  0  0  0
    9.4566   -3.4789  -55.4134 H   0  0  0  0  0  0  0  0  0  0  0  0
   11.3981   -5.3177  -56.8189 H   0  0  0  0  0  0  0  0  0  0  0  0
    9.8418   -4.6453  -57.3941 H   0  0  0  0  0  0  0  0  0  0  0  0
   10.8070   -2.8460  -57.9320 H   0  0  0  0  0  0  0  0  0  0  0  0
    7.3832   -4.0005  -53.8375 H   0  0  0  0  0  0  0  0  0  0  0  0
    6.6030   -5.6013  -52.0911 H   0  0  0  0  0  0  0  0  0  0  0  0
    6.8053   -5.0100  -49.6761 H   0  0  0  0  0  0  0  0  0  0  0  0
    7.7853   -2.8162  -49.0071 H   0  0  0  0  0  0  0  0  0  0  0  0
    8.5662   -1.2141  -50.7502 H   0  0  0  0  0  0  0  0  0  0  0  0
  1  2  1  0
  2  3  1  0
  3  4  1  0
  4  5  2  0
  4  6  1  0
  7  6  1  1
  7  8  1  0
  8  9  1  0
  9 10  1  0
 10 11  1  0
 11 12  1  0
 12 13  1  0
 13 14  1  0
 13 15  1  0
 11 16  1  0
  3 17  2  0
 17 18  1  0
 18 19  1  0
 19 20  1  0
 20 21  1  0
 21 22  1  0
 22 23  1  0
 18 24  1  0
 24 25  1  0
 25 26  2  0
 26 27  1  0
 27 28  2  0
 28 29  1  0
 29 30  2  0
 24  2  2  0
 30 25  1  0
 15  7  1  0
 16  7  1  0
 14  9  1  0
  1 31  1  0
  1 32  1  0
  1 33  1  0
  6 34  1  0
  8 35  1  0
  8 36  1  0
  9 37  1  6
 10 38  1  0
 10 39  1  0
 11 40  1  1
 12 41  1  0
 12 42  1  0
 13 43  1  6
 14 44  1  0
 14 45  1  0
 15 46  1  0
 15 47  1  0
 16 48  1  0
 16 49  1  0
 17 50  1  0
 19 51  1  0
 19 52  1  0
 20 53  1  0
 20 54  1  0
 21 55  1  0
 21 56  1  0
 22 57  1  0
 22 58  1  0
 23 59  1  0
 26 60  1  0
 27 61  1  0
 28 62  1  0
 29 63  1  0
 30 64  1  0
M  END
>  <meeko>  (51) 
{"is_sidechain": false}

$$$$

     RDKit          3D

 63 67  0  0  0  0  0  0  0  0999 V2000
    6.1840   -0.2330  -53.9580 C   0  0  0  0  0  0  0  0  0  0  0  0
    7.6400   -0.4920  -54.1140 C   0  0  0  0  0  0  0  0  0  0  0  0
    8.5530    0.1630  -55.0020 C   0  0  0  0  0  0  0  0  0  0  0  0
    8.2910    1.2850  -55.9270 C   0  0  0  0  0  0  0  0  0  0  0  0
    7.1940    1.4970  -56.4330 O   0  0  0  0  0  0  0  0  0  0  0  0
    9.4100    2.0590  -56.1940 N   0  0  0  0  0  0  0  0  0  0  0  0
    9.4220    3.1170  -57.1820 C   0  0  2  0  0  0  0  0  0  0  0  0
    9.2900    2.5930  -58.6530 C   0  0  0  0  0  0  0  0  0  0  0  0
    9.3680    3.7560  -59.6850 C   0  0  2  0  0  0  0  0  0  0  0  0
   10.6470    4.5630  -59.4620 C   0  0  0  0  0  0  0  0  0  0  0  0
   10.4050    5.1030  -58.0460 C   0  0  2  0  0  0  0  0  0  0  0  0
   10.7070    3.9600  -57.0680 C   0  0  0  0  0  0  0  0  0  0  0  0
    8.8510    5.2860  -57.9570 C   0  0  1  0  0  0  0  0  0  0  0  0
    8.3360    4.8290  -59.3310 C   0  0  0  0  0  0  0  0  0  0  0  0
    8.3990    4.2380  -56.9310 C   0  0  0  0  0  0  0  0  0  0  0  0
    9.7770   -0.3770  -54.9040 N   0  0  0  0  0  0  0  0  0  0  0  0
    9.6640   -1.3420  -53.9730 N   0  0  0  0  0  0  0  0  0  0  0  0
   10.8550   -2.1180  -53.6580 C   0  0  0  0  0  0  0  0  0  0  0  0
   11.3480   -2.9800  -54.8270 C   0  0  0  0  0  0  0  0  0  0  0  0
   10.3650   -4.0820  -55.2410 C   0  0  0  0  0  0  0  0  0  0  0  0
   10.6630   -4.7250  -56.6000 C   0  0  0  0  0  0  0  0  0  0  0  0
   11.4590   -3.8660  -57.5770 C   0  0  0  0  0  0  0  0  0  0  0  0
   11.7350   -4.5610  -58.7800 O   0  0  0  0  0  0  0  0  0  0  0  0
    8.3950   -1.4530  -53.4540 C   0  0  0  0  0  0  0  0  0  0  0  0
    7.9790   -2.4090  -52.4310 C   0  0  0  0  0  0  0  0  0  0  0  0
    8.0940   -2.0950  -51.0720 C   0  0  0  0  0  0  0  0  0  0  0  0
    7.7120   -3.0240  -50.1010 C   0  0  0  0  0  0  0  0  0  0  0  0
    7.2220   -4.2740  -50.4810 C   0  0  0  0  0  0  0  0  0  0  0  0
    7.1170   -4.5970  -51.8320 C   0  0  0  0  0  0  0  0  0  0  0  0
    7.4980   -3.6690  -52.8030 C   0  0  0  0  0  0  0  0  0  0  0  0
    5.9321   -0.1882  -52.8882 H   0  0  0  0  0  0  0  0  0  0  0  0
    5.9287    0.7247  -54.4352 H   0  0  0  0  0  0  0  0  0  0  0  0
    5.6141   -1.0439  -54.4352 H   0  0  0  0  0  0  0  0  0  0  0  0
   10.2970    1.6380  -55.9530 H   0  0  0  0  0  0  0  0  0  0  0  0
   10.1056    1.8826  -58.8534 H   0  0  0  0  0  0  0  0  0  0  0  0
    8.3096    2.1053  -58.7578 H   0  0  0  0  0  0  0  0  0  0  0  0
    9.2609    3.2956  -60.6783 H   0  0  0  0  0  0  0  0  0  0  0  0
   11.5412    3.9237  -59.5039 H   0  0  0  0  0  0  0  0  0  0  0  0
   10.8330    5.3390  -60.2191 H   0  0  0  0  0  0  0  0  0  0  0  0
   10.9933    6.0082  -57.8350 H   0  0  0  0  0  0  0  0  0  0  0  0
   11.5931    3.3874  -57.3793 H   0  0  0  0  0  0  0  0  0  0  0  0
   10.9386    4.2919  -56.0452 H   0  0  0  0  0  0  0  0  0  0  0  0
    8.5162    6.3008  -57.6959 H   0  0  0  0  0  0  0  0  0  0  0  0
    7.3220    4.4080  -59.2632 H   0  0  0  0  0  0  0  0  0  0  0  0
    8.2461    5.6354  -60.0737 H   0  0  0  0  0  0  0  0  0  0  0  0
    8.4673    4.6239  -55.9032 H   0  0  0  0  0  0  0  0  0  0  0  0
    7.3498    3.9249  -57.0364 H   0  0  0  0  0  0  0  0  0  0  0  0
   11.6589   -1.4229  -53.3742 H   0  0  0  0  0  0  0  0  0  0  0  0
   10.5889   -2.8030  -52.8395 H   0  0  0  0  0  0  0  0  0  0  0  0
   11.5189   -2.3243  -55.6935 H   0  0  0  0  0  0  0  0  0  0  0  0
   12.2676   -3.4809  -54.4902 H   0  0  0  0  0  0  0  0  0  0  0  0
   10.3915   -4.8709  -54.4749 H   0  0  0  0  0  0  0  0  0  0  0  0
    9.3793   -3.6024  -55.3324 H   0  0  0  0  0  0  0  0  0  0  0  0
   11.2331   -5.6482  -56.4195 H   0  0  0  0  0  0  0  0  0  0  0  0
    9.6846   -4.8909  -57.0745 H   0  0  0  0  0  0  0  0  0  0  0  0
   10.8779   -2.9622  -57.8126 H   0  0  0  0  0  0  0  0  0  0  0  0
   12.4171   -3.6058  -57.1034 H   0  0  0  0  0  0  0  0  0  0  0  0
   12.7000   -4.6270  -58.8870 H   0  0  0  0  0  0  0  0  0  0  0  0
    8.4864   -1.1136  -50.7674 H   0  0  0  0  0  0  0  0  0  0  0  0
    7.7977   -2.7694  -49.0343 H   0  0  0  0  0  0  0  0  0  0  0  0
    6.9191   -5.0031  -49.7151 H   0  0  0  0  0  0  0  0  0  0  0  0
    6.7340   -5.5830  -52.1337 H   0  0  0  0  0  0  0  0  0  0  0  0
    7.4194   -3.9305  -53.8686 H   0  0  0  0  0  0  0  0  0  0  0  0
  1  2  1  0
  2  3  1  0
  3  4  1  0
  4  5  2  0
  4  6  1  0
  7  6  1  1
  7  8  1  0
  8  9  1  0
  9 10  1  0
 10 11  1  0
 11 12  1  0
 11 13  1  0
 13 14  1  0
 13 15  1  0
  3 16  2  0
 16 17  1  0
 17 18  1  0
 18 19  1  0
 19 20  1  0
 20 21  1  0
 21 22  1  0
 22 23  1  0
 17 24  1  0
 24 25  1  0
 25 26  2  0
 26 27  1  0
 27 28  2  0
 28 29  1  0
 29 30  2  0
 24  2  2  0
 30 25  1  0
 12  7  1  0
 15  7  1  0
 14  9  1  0
  1 31  1  0
  1 32  1  0
  1 33  1  0
  6 34  1  0
  8 35  1  0
  8 36  1  0
  9 37  1  6
 10 38  1  0
 10 39  1  0
 11 40  1  1
 12 41  1  0
 12 42  1  0
 13 43  1  1
 14 44  1  0
 14 45  1  0
 15 46  1  0
 15 47  1  0
 18 48  1  0
 18 49  1  0
 19 50  1  0
 19 51  1  0
 20 52  1  0
 20 53  1  0
 21 54  1  0
 21 55  1  0
 22 56  1  0
 22 57  1  0
 23 58  1  0
 26 59  1  0
 27 60  1  0
 28 61  1  0
 29 62  1  0
 30 63  1  0
M  END
>  <meeko>  (52) 
{"is_sidechain": false}

$$$$

     RDKit          3D

 53 57  0  0  0  0  0  0  0  0999 V2000
    6.2960    0.1300  -53.6020 C   0  0  0  0  0  0  0  0  0  0  0  0
    7.6090   -0.3990  -54.0610 C   0  0  0  0  0  0  0  0  0  0  0  0
    8.3300   -1.5050  -53.5060 C   0  0  0  0  0  0  0  0  0  0  0  0
    7.9280   -2.4170  -52.4330 C   0  0  0  0  0  0  0  0  0  0  0  0
    7.1910   -3.5710  -52.7350 C   0  0  0  0  0  0  0  0  0  0  0  0
    6.8040   -4.4510  -51.7220 C   0  0  0  0  0  0  0  0  0  0  0  0
    7.1420   -4.1800  -50.3970 C   0  0  0  0  0  0  0  0  0  0  0  0
    7.8620   -3.0280  -50.0840 C   0  0  0  0  0  0  0  0  0  0  0  0
    8.2510   -2.1480  -51.0970 C   0  0  0  0  0  0  0  0  0  0  0  0
    9.5280   -1.6330  -54.0890 N   0  0  0  0  0  0  0  0  0  0  0  0
    9.5750   -0.6510  -55.0020 N   0  0  0  0  0  0  0  0  0  0  0  0
   10.7640   -0.5120  -55.8120 C   0  0  0  0  0  0  0  0  0  0  0  0
    8.4260    0.0960  -55.0770 C   0  0  0  0  0  0  0  0  0  0  0  0
    8.2430    1.1790  -56.0220 C   0  0  0  0  0  0  0  0  0  0  0  0
    7.1440    1.6600  -56.2730 O   0  0  0  0  0  0  0  0  0  0  0  0
    9.4140    1.6550  -56.5690 N   0  0  0  0  0  0  0  0  0  0  0  0
    9.5150    2.7990  -57.4800 C   0  0  2  0  0  0  0  0  0  0  0  0
   10.9700    2.8630  -58.0190 C   0  0  0  0  0  0  0  0  0  0  0  0
   11.1520    4.0490  -58.9800 C   0  0  1  0  0  0  0  0  0  0  0  0
   10.1880    3.8890  -60.1650 C   0  0  0  0  0  0  0  0  0  0  0  0
    8.7380    3.8470  -59.6590 C   0  0  2  0  0  0  0  0  0  0  0  0
    8.4240    5.1530  -58.9080 C   0  0  0  0  0  0  0  0  0  0  0  0
    9.3850    5.3220  -57.7180 C   0  0  2  0  0  0  0  0  0  0  0  0
   10.8320    5.3540  -58.2360 C   0  0  0  0  0  0  0  0  0  0  0  0
    9.2150    4.1340  -56.7550 C   0  0  0  0  0  0  0  0  0  0  0  0
    8.5680    2.6560  -58.6990 C   0  0  0  0  0  0  0  0  0  0  0  0
    6.2692    0.1408  -52.5024 H   0  0  0  0  0  0  0  0  0  0  0  0
    6.1598    1.1532  -53.9822 H   0  0  0  0  0  0  0  0  0  0  0  0
    5.4885   -0.5130  -53.9822 H   0  0  0  0  0  0  0  0  0  0  0  0
    6.9154   -3.7849  -53.7782 H   0  0  0  0  0  0  0  0  0  0  0  0
    6.2326   -5.3578  -51.9696 H   0  0  0  0  0  0  0  0  0  0  0  0
    6.8408   -4.8746  -49.5990 H   0  0  0  0  0  0  0  0  0  0  0  0
    8.1242   -2.8116  -49.0379 H   0  0  0  0  0  0  0  0  0  0  0  0
    8.8146   -1.2380  -50.8436 H   0  0  0  0  0  0  0  0  0  0  0  0
   11.6429   -0.4093  -55.1585 H   0  0  0  0  0  0  0  0  0  0  0  0
   10.8813   -1.4026  -56.4470 H   0  0  0  0  0  0  0  0  0  0  0  0
   10.6727    0.3816  -56.4470 H   0  0  0  0  0  0  0  0  0  0  0  0
   10.2660    1.3560  -56.1150 H   0  0  0  0  0  0  0  0  0  0  0  0
   11.6623    2.9774  -57.1719 H   0  0  0  0  0  0  0  0  0  0  0  0
   11.1808    1.9331  -58.5675 H   0  0  0  0  0  0  0  0  0  0  0  0
   12.1885    4.0772  -59.3471 H   0  0  0  0  0  0  0  0  0  0  0  0
   10.3100    4.7397  -60.8516 H   0  0  0  0  0  0  0  0  0  0  0  0
   10.4147    2.9501  -60.6914 H   0  0  0  0  0  0  0  0  0  0  0  0
    8.0521    3.7356  -60.5117 H   0  0  0  0  0  0  0  0  0  0  0  0
    8.5412    6.0047  -59.5943 H   0  0  0  0  0  0  0  0  0  0  0  0
    7.3904    5.1139  -58.5337 H   0  0  0  0  0  0  0  0  0  0  0  0
    9.1601    6.2605  -57.1901 H   0  0  0  0  0  0  0  0  0  0  0  0
   10.9544    6.2044  -58.9229 H   0  0  0  0  0  0  0  0  0  0  0  0
   11.5187    5.4615  -57.3834 H   0  0  0  0  0  0  0  0  0  0  0  0
    9.9097    4.2509  -55.9102 H   0  0  0  0  0  0  0  0  0  0  0  0
    8.1764    4.1160  -56.3931 H   0  0  0  0  0  0  0  0  0  0  0  0
    7.5268    2.6219  -58.3460 H   0  0  0  0  0  0  0  0  0  0  0  0
    8.8181    1.7290  -59.2358 H   0  0  0  0  0  0  0  0  0  0  0  0
  1  2  1  0
  2  3  1  0
  3  4  1  0
  4  5  2  0
  5  6  1  0
  6  7  2  0
  7  8  1  0
  8  9  2  0
  3 10  2  0
 10 11  1  0
 11 12  1  0
 11 13  1  0
 13 14  1  0
 14 15  2  0
 14 16  1  0
 17 16  1  1
 17 18  1  0
 18 19  1  0
 19 20  1  0
 20 21  1  0
 21 22  1  0
 22 23  1  0
 23 24  1  0
 23 25  1  0
 21 26  1  0
 13  2  2  0
 25 17  1  0
  9  4  1  0
 26 17  1  0
 24 19  1  0
  1 27  1  0
  1 28  1  0
  1 29  1  0
  5 30  1  0
  6 31  1  0
  7 32  1  0
  8 33  1  0
  9 34  1  0
 12 35  1  0
 12 36  1  0
 12 37  1  0
 16 38  1  0
 18 39  1  0
 18 40  1  0
 19 41  1  6
 20 42  1  0
 20 43  1  0
 21 44  1  6
 22 45  1  0
 22 46  1  0
 23 47  1  1
 24 48  1  0
 24 49  1  0
 25 50  1  0
 25 51  1  0
 26 52  1  0
 26 53  1  0
M  END
>  <meeko>  (53) 
{"is_sidechain": false}

$$$$

     RDKit          3D

 57 61  0  0  0  0  0  0  0  0999 V2000
    7.0690    1.7540  -55.9910 O   0  0  0  0  0  0  0  0  0  0  0  0
    8.1660    1.2070  -55.9210 C   0  0  0  0  0  0  0  0  0  0  0  0
    9.2630    1.6200  -56.6630 N   0  0  0  0  0  0  0  0  0  0  0  0
    9.2750    2.7870  -57.5500 C   0  0  2  0  0  0  0  0  0  0  0  0
   10.6380    2.8180  -58.2940 C   0  0  0  0  0  0  0  0  0  0  0  0
   10.7260    4.0250  -59.2410 C   0  0  1  0  0  0  0  0  0  0  0  0
    9.5960    3.9360  -60.2770 C   0  0  0  0  0  0  0  0  0  0  0  0
    8.2340    3.9300  -59.5660 C   0  0  2  0  0  0  0  0  0  0  0  0
    8.0840    5.2210  -58.7440 C   0  0  0  0  0  0  0  0  0  0  0  0
    9.2120    5.3210  -57.7030 C   0  0  2  0  0  0  0  0  0  0  0  0
   10.5680    5.3180  -58.4250 C   0  0  0  0  0  0  0  0  0  0  0  0
    9.1360    4.1100  -56.7560 C   0  0  0  0  0  0  0  0  0  0  0  0
    8.1570    2.7170  -58.6220 C   0  0  0  0  0  0  0  0  0  0  0  0
    8.4370    0.0600  -55.0260 C   0  0  0  0  0  0  0  0  0  0  0  0
    7.5760   -0.5180  -54.0520 C   0  0  0  0  0  0  0  0  0  0  0  0
    8.2820   -1.5560  -53.4780 C   0  0  0  0  0  0  0  0  0  0  0  0
    7.8920   -2.4640  -52.4090 C   0  0  0  0  0  0  0  0  0  0  0  0
    8.1900   -2.1590  -51.0770 C   0  0  0  0  0  0  0  0  0  0  0  0
    7.8140   -3.0320  -50.0550 C   0  0  0  0  0  0  0  0  0  0  0  0
    7.1450   -4.2160  -50.3610 C   0  0  0  0  0  0  0  0  0  0  0  0
    6.8520   -4.5300  -51.6870 C   0  0  0  0  0  0  0  0  0  0  0  0
    7.2280   -3.6570  -52.7110 C   0  0  0  0  0  0  0  0  0  0  0  0
    9.5050   -1.5440  -54.1040 N   0  0  0  0  0  0  0  0  0  0  0  0
   10.6500   -2.4030  -53.8370 C   0  0  0  0  0  0  0  0  0  0  0  0
   10.5880   -3.7180  -54.6150 C   0  0  0  0  0  0  0  0  0  0  0  0
   11.5780   -3.7530  -55.7730 C   0  0  0  0  0  0  0  0  0  0  0  0
   11.4290   -2.5790  -56.5630 O   0  0  0  0  0  0  0  0  0  0  0  0
    9.6160   -0.5850  -55.0390 N   0  0  0  0  0  0  0  0  0  0  0  0
   10.1610    1.2620  -56.3710 H   0  0  0  0  0  0  0  0  0  0  0  0
   11.4494    2.8824  -57.5541 H   0  0  0  0  0  0  0  0  0  0  0  0
   10.7302    1.8988  -58.8912 H   0  0  0  0  0  0  0  0  0  0  0  0
   11.6990    4.0274  -59.7541 H   0  0  0  0  0  0  0  0  0  0  0  0
    9.6511    4.8026  -60.9522 H   0  0  0  0  0  0  0  0  0  0  0  0
    9.7069    3.0067  -60.8550 H   0  0  0  0  0  0  0  0  0  0  0  0
    7.4286    3.8698  -60.3128 H   0  0  0  0  0  0  0  0  0  0  0  0
    8.1334    6.0889  -59.4180 H   0  0  0  0  0  0  0  0  0  0  0  0
    7.1151    5.2050  -58.2235 H   0  0  0  0  0  0  0  0  0  0  0  0
    9.1032    6.2503  -57.1245 H   0  0  0  0  0  0  0  0  0  0  0  0
   10.6229    6.1842  -59.1007 H   0  0  0  0  0  0  0  0  0  0  0  0
   11.3745    5.3752  -57.6791 H   0  0  0  0  0  0  0  0  0  0  0  0
    9.9495    4.1762  -56.0186 H   0  0  0  0  0  0  0  0  0  0  0  0
    8.1603    4.1178  -56.2481 H   0  0  0  0  0  0  0  0  0  0  0  0
    7.1771    2.7096  -58.1223 H   0  0  0  0  0  0  0  0  0  0  0  0
    8.2900    1.7989  -59.2132 H   0  0  0  0  0  0  0  0  0  0  0  0
    6.5519   -0.2009  -53.8055 H   0  0  0  0  0  0  0  0  0  0  0  0
    8.7226   -1.2277  -50.8340 H   0  0  0  0  0  0  0  0  0  0  0  0
    8.0456   -2.7857  -49.0082 H   0  0  0  0  0  0  0  0  0  0  0  0
    6.8480   -4.9033  -49.5551 H   0  0  0  0  0  0  0  0  0  0  0  0
    6.3248   -5.4650  -51.9273 H   0  0  0  0  0  0  0  0  0  0  0  0
    7.0011   -3.9088  -53.7575 H   0  0  0  0  0  0  0  0  0  0  0  0
   11.5674   -1.8671  -54.1220 H   0  0  0  0  0  0  0  0  0  0  0  0
   10.6420   -2.6478  -52.7646 H   0  0  0  0  0  0  0  0  0  0  0  0
   10.8175   -4.5462  -53.9284 H   0  0  0  0  0  0  0  0  0  0  0  0
    9.5758   -3.8127  -55.0351 H   0  0  0  0  0  0  0  0  0  0  0  0
   12.6032   -3.8003  -55.3771 H   0  0  0  0  0  0  0  0  0  0  0  0
   11.3825   -4.6392  -56.3946 H   0  0  0  0  0  0  0  0  0  0  0  0
   12.0540   -1.9160  -56.2230 H   0  0  0  0  0  0  0  0  0  0  0  0
  1  2  2  0
  2  3  1  0
  4  3  1  1
  4  5  1  0
  5  6  1  0
  6  7  1  0
  7  8  1  0
  8  9  1  0
  9 10  1  0
 10 11  1  0
 10 12  1  0
  8 13  1  0
  2 14  1  0
 14 15  1  0
 15 16  2  0
 16 17  1  0
 17 18  2  0
 18 19  1  0
 19 20  2  0
 20 21  1  0
 21 22  2  0
 16 23  1  0
 23 24  1  0
 24 25  1  0
 25 26  1  0
 26 27  1  0
 23 28  1  0
 12  4  1  0
 28 14  2  0
 13  4  1  0
 22 17  1  0
 11  6  1  0
  3 29  1  0
  5 30  1  0
  5 31  1  0
  6 32  1  6
  7 33  1  0
  7 34  1  0
  8 35  1  6
  9 36  1  0
  9 37  1  0
 10 38  1  1
 11 39  1  0
 11 40  1  0
 12 41  1  0
 12 42  1  0
 13 43  1  0
 13 44  1  0
 15 45  1  0
 18 46  1  0
 19 47  1  0
 20 48  1  0
 21 49  1  0
 22 50  1  0
 24 51  1  0
 24 52  1  0
 25 53  1  0
 25 54  1  0
 26 55  1  0
 26 56  1  0
 27 57  1  0
M  END
>  <meeko>  (54) 
{"is_sidechain": false}

$$$$

     RDKit          3D

 63 67  0  0  0  0  0  0  0  0999 V2000
    6.4990    0.0710  -53.6670 C   0  0  0  0  0  0  0  0  0  0  0  0
    7.8220   -0.5290  -53.9820 C   0  0  0  0  0  0  0  0  0  0  0  0
    8.7640   -0.0610  -54.9410 C   0  0  0  0  0  0  0  0  0  0  0  0
    8.6590    1.1060  -55.8360 C   0  0  0  0  0  0  0  0  0  0  0  0
    7.6070    1.6700  -56.1100 O   0  0  0  0  0  0  0  0  0  0  0  0
    9.8910    1.4980  -56.3230 N   0  0  0  0  0  0  0  0  0  0  0  0
   10.1470    2.6500  -57.1580 C   0  0  2  0  0  0  0  0  0  0  0  0
   11.6370    3.0100  -57.2940 C   0  0  0  0  0  0  0  0  0  0  0  0
   11.5560    4.3340  -58.0730 C   0  0  1  0  0  0  0  0  0  0  0  0
   11.3080    3.9750  -59.5360 C   0  0  0  0  0  0  0  0  0  0  0  0
    9.8240    3.6840  -59.4850 N   0  0  2  0  0  0  0  0  0  0  0  0
    9.3080    4.9450  -58.8290 C   0  0  0  0  0  0  0  0  0  0  0  0
   10.2080    4.9880  -57.5970 C   0  0  1  0  0  0  0  0  0  0  0  0
    9.6310    3.9830  -56.5860 C   0  0  0  0  0  0  0  0  0  0  0  0
    9.5390    2.4570  -58.6040 C   0  0  0  0  0  0  0  0  0  0  0  0
    9.8700   -0.8320  -54.9660 N   0  0  0  0  0  0  0  0  0  0  0  0
    9.6250   -1.7910  -54.0450 N   0  0  0  0  0  0  0  0  0  0  0  0
   10.6280   -2.8190  -53.8260 C   0  0  0  0  0  0  0  0  0  0  0  0
   10.4030   -4.1020  -54.6290 C   0  0  0  0  0  0  0  0  0  0  0  0
   11.6090   -4.4950  -55.4900 C   0  0  0  0  0  0  0  0  0  0  0  0
   11.2780   -4.5770  -56.9860 C   0  0  0  0  0  0  0  0  0  0  0  0
   11.8550   -3.4370  -57.8180 C   0  0  0  0  0  0  0  0  0  0  0  0
   11.7890   -2.2150  -57.0930 O   0  0  0  0  0  0  0  0  0  0  0  0
    8.4140   -1.6440  -53.4090 C   0  0  0  0  0  0  0  0  0  0  0  0
    7.9160   -2.5370  -52.3690 C   0  0  0  0  0  0  0  0  0  0  0  0
    8.1980   -2.2740  -51.0240 C   0  0  0  0  0  0  0  0  0  0  0  0
    7.7220   -3.1260  -50.0250 C   0  0  0  0  0  0  0  0  0  0  0  0
    6.9700   -4.2480  -50.3660 C   0  0  0  0  0  0  0  0  0  0  0  0
    6.6950   -4.5230  -51.7050 C   0  0  0  0  0  0  0  0  0  0  0  0
    7.1690   -3.6720  -52.7040 C   0  0  0  0  0  0  0  0  0  0  0  0
    6.3728    0.1282  -52.5758 H   0  0  0  0  0  0  0  0  0  0  0  0
    6.4435    1.0823  -54.0961 H   0  0  0  0  0  0  0  0  0  0  0  0
    5.7016   -0.5536  -54.0961 H   0  0  0  0  0  0  0  0  0  0  0  0
   10.6460    0.9260  -55.9370 H   0  0  0  0  0  0  0  0  0  0  0  0
   12.1092    3.1495  -56.3103 H   0  0  0  0  0  0  0  0  0  0  0  0
   12.2453    2.2352  -57.7836 H   0  0  0  0  0  0  0  0  0  0  0  0
   12.4489    4.9616  -57.9354 H   0  0  0  0  0  0  0  0  0  0  0  0
   11.5366    4.8158  -60.2074 H   0  0  0  0  0  0  0  0  0  0  0  0
   11.9288    3.1541  -59.9241 H   0  0  0  0  0  0  0  0  0  0  0  0
    9.4300    3.5580  -60.4270 H   0  0  0  0  0  0  0  0  0  0  0  0
    9.4511    5.8271  -59.4704 H   0  0  0  0  0  0  0  0  0  0  0  0
    8.2289    4.9489  -58.6157 H   0  0  0  0  0  0  0  0  0  0  0  0
   10.3071    6.0008  -57.1794 H   0  0  0  0  0  0  0  0  0  0  0  0
   10.0189    4.1635  -55.5726 H   0  0  0  0  0  0  0  0  0  0  0  0
    8.5377    4.0326  -56.4753 H   0  0  0  0  0  0  0  0  0  0  0  0
    8.4510    2.3170  -58.5219 H   0  0  0  0  0  0  0  0  0  0  0  0
   10.0050    1.5748  -59.0672 H   0  0  0  0  0  0  0  0  0  0  0  0
   11.6094   -2.4070  -54.1035 H   0  0  0  0  0  0  0  0  0  0  0  0
   10.5653   -3.0980  -52.7638 H   0  0  0  0  0  0  0  0  0  0  0  0
   10.1931   -4.9219  -53.9264 H   0  0  0  0  0  0  0  0  0  0  0  0
    9.5605   -3.9168  -55.3116 H   0  0  0  0  0  0  0  0  0  0  0  0
   12.4008   -3.7449  -55.3470 H   0  0  0  0  0  0  0  0  0  0  0  0
   11.9291   -5.4972  -55.1690 H   0  0  0  0  0  0  0  0  0  0  0  0
   11.6772   -5.5249  -57.3760 H   0  0  0  0  0  0  0  0  0  0  0  0
   10.1835   -4.5077  -57.0715 H   0  0  0  0  0  0  0  0  0  0  0  0
   12.9048   -3.6593  -58.0598 H   0  0  0  0  0  0  0  0  0  0  0  0
   11.2686   -3.3365  -58.7432 H   0  0  0  0  0  0  0  0  0  0  0  0
   12.4480   -2.2700  -56.3800 H   0  0  0  0  0  0  0  0  0  0  0  0
    8.7972   -1.3924  -50.7523 H   0  0  0  0  0  0  0  0  0  0  0  0
    7.9409   -2.9111  -48.9687 H   0  0  0  0  0  0  0  0  0  0  0  0
    6.5930   -4.9173  -49.5786 H   0  0  0  0  0  0  0  0  0  0  0  0
    6.1042   -5.4111  -51.9739 H   0  0  0  0  0  0  0  0  0  0  0  0
    6.9545   -3.8943  -53.7597 H   0  0  0  0  0  0  0  0  0  0  0  0
  1  2  1  0
  2  3  1  0
  3  4  1  0
  4  5  2  0
  4  6  1  0
  7  6  1  1
  7  8  1  0
  8  9  1  0
  9 10  1  0
 10 11  1  0
 11 12  1  0
 12 13  1  0
 13 14  1  0
 11 15  1  0
  3 16  2  0
 16 17  1  0
 17 18  1  0
 18 19  1  0
 19 20  1  0
 20 21  1  0
 21 22  1  0
 22 23  1  0
 17 24  1  0
 24 25  1  0
 25 26  2  0
 26 27  1  0
 27 28  2  0
 28 29  1  0
 29 30  2  0
 24  2  2  0
 30 25  1  0
 14  7  1  0
 15  7  1  0
 13  9  1  0
  1 31  1  0
  1 32  1  0
  1 33  1  0
  6 34  1  0
  8 35  1  0
  8 36  1  0
  9 37  1  6
 10 38  1  0
 10 39  1  0
 11 40  1  6
 12 41  1  0
 12 42  1  0
 13 43  1  1
 14 44  1  0
 14 45  1  0
 15 46  1  0
 15 47  1  0
 18 48  1  0
 18 49  1  0
 19 50  1  0
 19 51  1  0
 20 52  1  0
 20 53  1  0
 21 54  1  0
 21 55  1  0
 22 56  1  0
 22 57  1  0
 23 58  1  0
 26 59  1  0
 27 60  1  0
 28 61  1  0
 29 62  1  0
 30 63  1  0
M  CHG  1  11   1
M  END
>  <meeko>  (55) 
{"is_sidechain": false}

$$$$

     RDKit          3D

 59 62  0  0  0  0  0  0  0  0999 V2000
    6.5620    0.3920  -53.1940 C   0  0  0  0  0  0  0  0  0  0  0  0
    7.8030   -0.2760  -53.6660 C   0  0  0  0  0  0  0  0  0  0  0  0
    8.5570    0.0670  -54.8300 C   0  0  0  0  0  0  0  0  0  0  0  0
    8.2800    1.1360  -55.8120 C   0  0  0  0  0  0  0  0  0  0  0  0
    7.1460    1.5050  -56.0980 O   0  0  0  0  0  0  0  0  0  0  0  0
    9.4320    1.6580  -56.3600 N   0  0  0  0  0  0  0  0  0  0  0  0
    9.5110    2.7120  -57.3650 C   0  0  2  0  0  0  0  0  0  0  0  0
   10.9930    2.8650  -57.8020 C   0  0  0  0  0  0  0  0  0  0  0  0
   11.1420    3.9640  -58.8660 C   0  0  1  0  0  0  0  0  0  0  0  0
   10.2920    3.5980  -60.0920 C   0  0  0  0  0  0  0  0  0  0  0  0
    8.8150    3.4680  -59.6860 C   0  0  2  0  0  0  0  0  0  0  0  0
    8.3300    4.8030  -59.0960 C   0  0  0  0  0  0  0  0  0  0  0  0
    9.1760    5.1770  -57.8670 C   0  0  2  0  0  0  0  0  0  0  0  0
   10.6500    5.2980  -58.2830 C   0  0  0  0  0  0  0  0  0  0  0  0
    9.0380    4.0750  -56.8020 C   0  0  0  0  0  0  0  0  0  0  0  0
    8.6760    2.3650  -58.6210 C   0  0  0  0  0  0  0  0  0  0  0  0
    9.6330   -0.7360  -54.9640 N   0  0  0  0  0  0  0  0  0  0  0  0
    9.5600   -1.5710  -53.9130 N   0  0  0  0  0  0  0  0  0  0  0  0
   10.5990   -2.5780  -53.7530 C   0  0  0  0  0  0  0  0  0  0  0  0
   10.2910   -3.8460  -54.5470 C   0  0  0  0  0  0  0  0  0  0  0  0
   11.4830   -4.3480  -55.3670 C   0  0  0  0  0  0  0  0  0  0  0  0
   11.1740   -4.4860  -56.8610 C   0  0  0  0  0  0  0  0  0  0  0  0
   11.7860   -3.3520  -57.6780 C   0  0  0  0  0  0  0  0  0  0  0  0
   11.7400   -2.1330  -56.9510 O   0  0  0  0  0  0  0  0  0  0  0  0
    8.4760   -1.3480  -53.1040 C   0  0  0  0  0  0  0  0  0  0  0  0
    8.1900   -2.1540  -51.8890 C   0  0  0  0  0  0  0  0  0  0  0  0
    6.5459    0.4007  -52.0942 H   0  0  0  0  0  0  0  0  0  0  0  0
    6.5365    1.4257  -53.5693 H   0  0  0  0  0  0  0  0  0  0  0  0
    5.6851   -0.1560  -53.5693 H   0  0  0  0  0  0  0  0  0  0  0  0
   10.2820    1.2210  -56.0080 H   0  0  0  0  0  0  0  0  0  0  0  0
   11.6015    3.1288  -56.9245 H   0  0  0  0  0  0  0  0  0  0  0  0
   11.3319    1.9113  -58.2329 H   0  0  0  0  0  0  0  0  0  0  0  0
   12.1970    4.0567  -59.1634 H   0  0  0  0  0  0  0  0  0  0  0  0
   10.3928    4.3852  -60.8536 H   0  0  0  0  0  0  0  0  0  0  0  0
   10.6407    2.6380  -60.5004 H   0  0  0  0  0  0  0  0  0  0  0  0
    8.2110    3.2111  -60.5687 H   0  0  0  0  0  0  0  0  0  0  0  0
    8.4243    5.5923  -59.8563 H   0  0  0  0  0  0  0  0  0  0  0  0
    7.2781    4.7005  -58.7910 H   0  0  0  0  0  0  0  0  0  0  0  0
    8.8278    6.1360  -57.4557 H   0  0  0  0  0  0  0  0  0  0  0  0
   10.7506    6.0870  -59.0429 H   0  0  0  0  0  0  0  0  0  0  0  0
   11.2551    5.5516  -57.4001 H   0  0  0  0  0  0  0  0  0  0  0  0
    9.6518    4.3379  -55.9279 H   0  0  0  0  0  0  0  0  0  0  0  0
    7.9801    3.9917  -56.5123 H   0  0  0  0  0  0  0  0  0  0  0  0
    7.6178    2.2687  -58.3363 H   0  0  0  0  0  0  0  0  0  0  0  0
    9.0448    1.4177  -59.0414 H   0  0  0  0  0  0  0  0  0  0  0  0
   11.5547   -2.1618  -54.1044 H   0  0  0  0  0  0  0  0  0  0  0  0
   10.6513   -2.8473  -52.6878 H   0  0  0  0  0  0  0  0  0  0  0  0
    9.9937   -4.6364  -53.8422 H   0  0  0  0  0  0  0  0  0  0  0  0
    9.4863   -3.6008  -55.2558 H   0  0  0  0  0  0  0  0  0  0  0  0
   12.3141   -3.6376  -55.2463 H   0  0  0  0  0  0  0  0  0  0  0  0
   11.7377   -5.3504  -54.9925 H   0  0  0  0  0  0  0  0  0  0  0  0
   11.5806   -5.4426  -57.2209 H   0  0  0  0  0  0  0  0  0  0  0  0
   10.0821   -4.4452  -56.9875 H   0  0  0  0  0  0  0  0  0  0  0  0
   12.8334   -3.5965  -57.9085 H   0  0  0  0  0  0  0  0  0  0  0  0
   11.2104   -3.2331  -58.6078 H   0  0  0  0  0  0  0  0  0  0  0  0
   10.8090   -1.9520  -56.7350 H   0  0  0  0  0  0  0  0  0  0  0  0
    8.4030   -1.5537  -50.9922 H   0  0  0  0  0  0  0  0  0  0  0  0
    7.1312   -2.4522  -51.8876 H   0  0  0  0  0  0  0  0  0  0  0  0
    8.8241   -3.0529  -51.8876 H   0  0  0  0  0  0  0  0  0  0  0  0
  1  2  1  0
  2  3  1  0
  3  4  1  0
  4  5  2  0
  4  6  1  0
  7  6  1  1
  7  8  1  0
  8  9  1  0
  9 10  1  0
 10 11  1  0
 11 12  1  0
 12 13  1  0
 13 14  1  0
 13 15  1  0
 11 16  1  0
  3 17  2  0
 17 18  1  0
 18 19  1  0
 19 20  1  0
 20 21  1  0
 21 22  1  0
 22 23  1  0
 23 24  1  0
 18 25  1  0
 25 26  1  0
 25  2  2  0
 15  7  1  0
 16  7  1  0
 14  9  1  0
  1 27  1  0
  1 28  1  0
  1 29  1  0
  6 30  1  0
  8 31  1  0
  8 32  1  0
  9 33  1  6
 10 34  1  0
 10 35  1  0
 11 36  1  6
 12 37  1  0
 12 38  1  0
 13 39  1  1
 14 40  1  0
 14 41  1  0
 15 42  1  0
 15 43  1  0
 16 44  1  0
 16 45  1  0
 19 46  1  0
 19 47  1  0
 20 48  1  0
 20 49  1  0
 21 50  1  0
 21 51  1  0
 22 52  1  0
 22 53  1  0
 23 54  1  0
 23 55  1  0
 24 56  1  0
 26 57  1  0
 26 58  1  0
 26 59  1  0
M  END
>  <meeko>  (56) 
{"is_sidechain": false}

$$$$

     RDKit          3D

 65 68  0  0  0  0  0  0  0  0999 V2000
    6.4720    0.0560  -53.6500 C   0  0  0  0  0  0  0  0  0  0  0  0
    7.7790   -0.5680  -53.9900 C   0  0  0  0  0  0  0  0  0  0  0  0
    8.7280   -0.1310  -54.9720 C   0  0  0  0  0  0  0  0  0  0  0  0
    8.6610    1.0590  -55.8390 C   0  0  0  0  0  0  0  0  0  0  0  0
    7.6190    1.6610  -56.0820 O   0  0  0  0  0  0  0  0  0  0  0  0
    9.8860    1.4300  -56.3750 N   0  0  0  0  0  0  0  0  0  0  0  0
   10.0570    2.5780  -57.3130 C   0  0  2  0  0  0  0  0  0  0  0  0
    9.1380    2.3590  -58.5260 C   0  0  0  0  0  0  0  0  0  0  0  0
    9.7660    2.5580  -59.9040 C   0  0  0  0  0  0  0  0  0  0  0  0
    9.8090    3.9850  -60.4350 C   0  0  0  0  0  0  0  0  0  0  0  0
    9.8460    5.1310  -59.4330 C   0  0  0  0  0  0  0  0  0  0  0  0
   11.1340    5.2790  -58.6070 C   0  0  0  0  0  0  0  0  0  0  0  0
   11.2460    4.3980  -57.3600 C   0  0  2  0  0  0  0  0  0  0  0  0
   11.5740    2.8920  -57.5310 C   0  0  0  0  0  0  0  0  0  0  0  0
    9.9930    3.9500  -56.5650 C   0  0  0  0  0  0  0  0  0  0  0  0
    9.7750   -0.9700  -55.0270 N   0  0  0  0  0  0  0  0  0  0  0  0
    9.5100   -1.9150  -54.1110 N   0  0  0  0  0  0  0  0  0  0  0  0
   10.4580   -3.0050  -53.9360 C   0  0  0  0  0  0  0  0  0  0  0  0
   11.3100   -3.2250  -55.1840 C   0  0  0  0  0  0  0  0  0  0  0  0
   10.7600   -4.3220  -56.0980 C   0  0  0  0  0  0  0  0  0  0  0  0
   11.3380   -4.2630  -57.5170 C   0  0  0  0  0  0  0  0  0  0  0  0
   12.3010   -5.4130  -57.7890 C   0  0  0  0  0  0  0  0  0  0  0  0
   12.0170   -6.4920  -56.9100 O   0  0  0  0  0  0  0  0  0  0  0  0
    8.3280   -1.7160  -53.4400 C   0  0  0  0  0  0  0  0  0  0  0  0
    7.8120   -2.6020  -52.4050 C   0  0  0  0  0  0  0  0  0  0  0  0
    6.9200   -3.6270  -52.7360 C   0  0  0  0  0  0  0  0  0  0  0  0
    6.4330   -4.4820  -51.7450 C   0  0  0  0  0  0  0  0  0  0  0  0
    6.8330   -4.3130  -50.4200 C   0  0  0  0  0  0  0  0  0  0  0  0
    7.7180   -3.2880  -50.0830 C   0  0  0  0  0  0  0  0  0  0  0  0
    8.2060   -2.4330  -51.0720 C   0  0  0  0  0  0  0  0  0  0  0  0
    6.3638    0.1077  -52.5566 H   0  0  0  0  0  0  0  0  0  0  0  0
    6.4299    1.0714  -54.0710 H   0  0  0  0  0  0  0  0  0  0  0  0
    5.6560   -0.5497  -54.0710 H   0  0  0  0  0  0  0  0  0  0  0  0
   10.6430    0.7680  -56.2570 H   0  0  0  0  0  0  0  0  0  0  0  0
    8.7608    1.3269  -58.4770 H   0  0  0  0  0  0  0  0  0  0  0  0
    8.3620    3.1345  -58.4460 H   0  0  0  0  0  0  0  0  0  0  0  0
   10.8011    2.1888  -59.8554 H   0  0  0  0  0  0  0  0  0  0  0  0
    9.1155    2.0091  -60.6008 H   0  0  0  0  0  0  0  0  0  0  0  0
   10.7092    4.0717  -61.0613 H   0  0  0  0  0  0  0  0  0  0  0  0
    8.8461    4.1096  -60.9521 H   0  0  0  0  0  0  0  0  0  0  0  0
    9.6973    6.0674  -59.9907 H   0  0  0  0  0  0  0  0  0  0  0  0
    9.0560    4.9040  -58.7020 H   0  0  0  0  0  0  0  0  0  0  0  0
   11.9828    5.0389  -59.2641 H   0  0  0  0  0  0  0  0  0  0  0  0
   11.1259    6.3140  -58.2347 H   0  0  0  0  0  0  0  0  0  0  0  0
   11.9528    5.1203  -56.9255 H   0  0  0  0  0  0  0  0  0  0  0  0
   11.9563    2.6199  -58.5259 H   0  0  0  0  0  0  0  0  0  0  0  0
   12.3497    2.4052  -56.9216 H   0  0  0  0  0  0  0  0  0  0  0  0
   10.1447    3.8825  -55.4776 H   0  0  0  0  0  0  0  0  0  0  0  0
    9.0741    4.5547  -56.5626 H   0  0  0  0  0  0  0  0  0  0  0  0
   11.1205   -2.7678  -53.0905 H   0  0  0  0  0  0  0  0  0  0  0  0
    9.8871   -3.9260  -53.7465 H   0  0  0  0  0  0  0  0  0  0  0  0
   11.3501   -2.2835  -55.7514 H   0  0  0  0  0  0  0  0  0  0  0  0
   12.3075   -3.5455  -54.8489 H   0  0  0  0  0  0  0  0  0  0  0  0
   11.0061   -5.3002  -55.6593 H   0  0  0  0  0  0  0  0  0  0  0  0
    9.6734   -4.1705  -56.1780 H   0  0  0  0  0  0  0  0  0  0  0  0
   10.5106   -4.3140  -58.2400 H   0  0  0  0  0  0  0  0  0  0  0  0
   11.8965   -3.3207  -57.6177 H   0  0  0  0  0  0  0  0  0  0  0  0
   12.1849   -5.7489  -58.8300 H   0  0  0  0  0  0  0  0  0  0  0  0
   13.3334   -5.0708  -57.6247 H   0  0  0  0  0  0  0  0  0  0  0  0
   12.5190   -7.2610  -57.2290 H   0  0  0  0  0  0  0  0  0  0  0  0
    6.6010   -3.7602  -53.7803 H   0  0  0  0  0  0  0  0  0  0  0  0
    5.7338   -5.2889  -52.0097 H   0  0  0  0  0  0  0  0  0  0  0  0
    6.4508   -4.9879  -49.6400 H   0  0  0  0  0  0  0  0  0  0  0  0
    8.0311   -3.1539  -49.0371 H   0  0  0  0  0  0  0  0  0  0  0  0
    8.9018   -1.6244  -50.8038 H   0  0  0  0  0  0  0  0  0  0  0  0
  1  2  1  0
  2  3  1  0
  3  4  1  0
  4  5  2  0
  4  6  1  0
  7  6  1  1
  7  8  1  0
  8  9  1  0
  9 10  1  0
 10 11  1  0
 11 12  1  0
 12 13  1  0
 13 14  1  0
 13 15  1  0
  3 16  2  0
 16 17  1  0
 17 18  1  0
 18 19  1  0
 19 20  1  0
 20 21  1  0
 21 22  1  0
 22 23  1  0
 17 24  1  0
 24 25  1  0
 25 26  2  0
 26 27  1  0
 27 28  2  0
 28 29  1  0
 29 30  2  0
 24  2  2  0
 30 25  1  0
 14  7  1  0
 15  7  1  0
  1 31  1  0
  1 32  1  0
  1 33  1  0
  6 34  1  0
  8 35  1  0
  8 36  1  0
  9 37  1  0
  9 38  1  0
 10 39  1  0
 10 40  1  0
 11 41  1  0
 11 42  1  0
 12 43  1  0
 12 44  1  0
 13 45  1  1
 14 46  1  0
 14 47  1  0
 15 48  1  0
 15 49  1  0
 18 50  1  0
 18 51  1  0
 19 52  1  0
 19 53  1  0
 20 54  1  0
 20 55  1  0
 21 56  1  0
 21 57  1  0
 22 58  1  0
 22 59  1  0
 23 60  1  0
 26 61  1  0
 27 62  1  0
 28 63  1  0
 29 64  1  0
 30 65  1  0
M  END
>  <meeko>  (57) 
{"is_sidechain": false}

$$$$

     RDKit          3D

 65 68  0  0  0  0  0  0  0  0999 V2000
    6.5780    0.1880  -53.7210 C   0  0  0  0  0  0  0  0  0  0  0  0
    7.8890   -0.4460  -54.0140 C   0  0  0  0  0  0  0  0  0  0  0  0
    8.8670   -0.0240  -54.9710 C   0  0  0  0  0  0  0  0  0  0  0  0
    8.8250    1.1590  -55.8540 C   0  0  0  0  0  0  0  0  0  0  0  0
    7.7810    1.5990  -56.3200 O   0  0  0  0  0  0  0  0  0  0  0  0
   10.0790    1.7010  -56.0980 N   0  0  0  0  0  0  0  0  0  0  0  0
   10.3790    2.8750  -56.9450 C   0  0  1  0  0  0  0  0  0  0  0  0
   11.9240    2.9590  -57.2380 C   0  0  0  0  0  0  0  0  0  0  0  0
   12.3680    3.4520  -58.6640 C   0  0  0  0  0  0  0  0  0  0  0  0
   12.4210    4.9750  -59.0370 C   0  0  0  0  0  0  0  0  0  0  0  0
   11.2240    5.6380  -59.8010 C   0  0  0  0  0  0  0  0  0  0  0  0
    9.7560    5.3200  -59.3070 C   0  0  0  0  0  0  0  0  0  0  0  0
    9.8900    4.5840  -58.0120 C   0  0  2  0  0  0  0  0  0  0  0  0
    9.5610    3.0480  -58.2340 C   0  0  0  0  0  0  0  0  0  0  0  0
    9.6070    4.2350  -56.5250 C   0  0  0  0  0  0  0  0  0  0  0  0
    9.9220   -0.8540  -54.9750 N   0  0  0  0  0  0  0  0  0  0  0  0
    9.6220   -1.8000  -54.0700 N   0  0  0  0  0  0  0  0  0  0  0  0
   10.5670   -2.8840  -53.8560 C   0  0  0  0  0  0  0  0  0  0  0  0
   11.2960   -3.3310  -55.1260 C   0  0  0  0  0  0  0  0  0  0  0  0
   10.5100   -4.3720  -55.9270 C   0  0  0  0  0  0  0  0  0  0  0  0
   11.3880   -5.4950  -56.4940 C   0  0  0  0  0  0  0  0  0  0  0  0
   12.8890   -5.2500  -56.3980 C   0  0  0  0  0  0  0  0  0  0  0  0
   13.3690   -4.6580  -57.5950 O   0  0  0  0  0  0  0  0  0  0  0  0
    8.4240   -1.5850  -53.4290 C   0  0  0  0  0  0  0  0  0  0  0  0
    7.8810   -2.4460  -52.3850 C   0  0  0  0  0  0  0  0  0  0  0  0
    8.2480   -2.2490  -51.0490 C   0  0  0  0  0  0  0  0  0  0  0  0
    7.7300   -3.0730  -50.0490 C   0  0  0  0  0  0  0  0  0  0  0  0
    6.8490   -4.1020  -50.3790 C   0  0  0  0  0  0  0  0  0  0  0  0
    6.4860   -4.3080  -51.7100 C   0  0  0  0  0  0  0  0  0  0  0  0
    7.0030   -3.4850  -52.7110 C   0  0  0  0  0  0  0  0  0  0  0  0
    6.4386    0.2554  -52.6320 H   0  0  0  0  0  0  0  0  0  0  0  0
    6.5533    1.1976  -54.1570 H   0  0  0  0  0  0  0  0  0  0  0  0
    5.7713   -0.4195  -54.1570 H   0  0  0  0  0  0  0  0  0  0  0  0
   10.8470    1.1370  -55.7540 H   0  0  0  0  0  0  0  0  0  0  0  0
   12.3621    3.6475  -56.5004 H   0  0  0  0  0  0  0  0  0  0  0  0
   12.2768    1.9188  -57.1792 H   0  0  0  0  0  0  0  0  0  0  0  0
   13.3836    3.0604  -58.8230 H   0  0  0  0  0  0  0  0  0  0  0  0
   11.5489    3.0863  -59.3006 H   0  0  0  0  0  0  0  0  0  0  0  0
   12.5412    5.5286  -58.0941 H   0  0  0  0  0  0  0  0  0  0  0  0
   13.2448    5.0282  -59.7640 H   0  0  0  0  0  0  0  0  0  0  0  0
   11.3605    6.7277  -59.7387 H   0  0  0  0  0  0  0  0  0  0  0  0
   11.2718    5.2057  -60.8114 H   0  0  0  0  0  0  0  0  0  0  0  0
    9.1957    6.2545  -59.1560 H   0  0  0  0  0  0  0  0  0  0  0  0
    9.2094    4.7198  -60.0493 H   0  0  0  0  0  0  0  0  0  0  0  0
   10.5099    5.4905  -57.9492 H   0  0  0  0  0  0  0  0  0  0  0  0
    8.4979    2.7747  -58.1622 H   0  0  0  0  0  0  0  0  0  0  0  0
    9.7639    2.5045  -59.1686 H   0  0  0  0  0  0  0  0  0  0  0  0
   10.1135    4.8645  -55.7786 H   0  0  0  0  0  0  0  0  0  0  0  0
    8.6162    4.2730  -56.0488 H   0  0  0  0  0  0  0  0  0  0  0  0
   11.3179   -2.5496  -53.1250 H   0  0  0  0  0  0  0  0  0  0  0  0
    9.9867   -3.7480  -53.5000 H   0  0  0  0  0  0  0  0  0  0  0  0
   11.4633   -2.4503  -55.7635 H   0  0  0  0  0  0  0  0  0  0  0  0
   12.2431   -3.7975  -54.8170 H   0  0  0  0  0  0  0  0  0  0  0  0
    9.7530   -4.8208  -55.2671 H   0  0  0  0  0  0  0  0  0  0  0  0
   10.0583   -3.8495  -56.7831 H   0  0  0  0  0  0  0  0  0  0  0  0
   11.1573   -6.4192  -55.9439 H   0  0  0  0  0  0  0  0  0  0  0  0
   11.1545   -5.5555  -57.5672 H   0  0  0  0  0  0  0  0  0  0  0  0
   13.0934   -4.5764  -55.5527 H   0  0  0  0  0  0  0  0  0  0  0  0
   13.3995   -6.2123  -56.2450 H   0  0  0  0  0  0  0  0  0  0  0  0
   14.3160   -4.8700  -57.6610 H   0  0  0  0  0  0  0  0  0  0  0  0
    8.9474   -1.4417  -50.7862 H   0  0  0  0  0  0  0  0  0  0  0  0
    8.0170   -2.9106  -48.9996 H   0  0  0  0  0  0  0  0  0  0  0  0
    6.4405   -4.7509  -49.5903 H   0  0  0  0  0  0  0  0  0  0  0  0
    5.7914   -5.1202  -51.9707 H   0  0  0  0  0  0  0  0  0  0  0  0
    6.7192   -3.6538  -53.7603 H   0  0  0  0  0  0  0  0  0  0  0  0
  1  2  1  0
  2  3  1  0
  3  4  1  0
  4  5  2  0
  4  6  1  0
  7  6  1  6
  7  8  1  0
  8  9  1  0
  9 10  1  0
 10 11  1  0
 11 12  1  0
 12 13  1  0
 13 14  1  0
 13 15  1  0
  3 16  2  0
 16 17  1  0
 17 18  1  0
 18 19  1  0
 19 20  1  0
 20 21  1  0
 21 22  1  0
 22 23  1  0
 17 24  1  0
 24 25  1  0
 25 26  2  0
 26 27  1  0
 27 28  2  0
 28 29  1  0
 29 30  2  0
 24  2  2  0
 30 25  1  0
 14  7  1  0
 15  7  1  0
  1 31  1  0
  1 32  1  0
  1 33  1  0
  6 34  1  0
  8 35  1  0
  8 36  1  0
  9 37  1  0
  9 38  1  0
 10 39  1  0
 10 40  1  0
 11 41  1  0
 11 42  1  0
 12 43  1  0
 12 44  1  0
 13 45  1  6
 14 46  1  0
 14 47  1  0
 15 48  1  0
 15 49  1  0
 18 50  1  0
 18 51  1  0
 19 52  1  0
 19 53  1  0
 20 54  1  0
 20 55  1  0
 21 56  1  0
 21 57  1  0
 22 58  1  0
 22 59  1  0
 23 60  1  0
 26 61  1  0
 27 62  1  0
 28 63  1  0
 29 64  1  0
 30 65  1  0
M  END
>  <meeko>  (58) 
{"is_sidechain": false}

$$$$

     RDKit          3D

 62 65  0  0  0  0  0  0  0  0999 V2000
    6.6050    0.2130  -53.6260 C   0  0  0  0  0  0  0  0  0  0  0  0
    7.8660   -0.4670  -54.0170 C   0  0  0  0  0  0  0  0  0  0  0  0
    8.7880   -0.0430  -55.0210 C   0  0  0  0  0  0  0  0  0  0  0  0
    8.7030    1.1480  -55.8910 C   0  0  0  0  0  0  0  0  0  0  0  0
    7.6550    1.7510  -56.0920 O   0  0  0  0  0  0  0  0  0  0  0  0
    9.9300    1.4880  -56.4320 N   0  0  0  0  0  0  0  0  0  0  0  0
   10.2400    2.6190  -57.3370 C   0  0  2  0  0  0  0  0  0  0  0  0
    9.6200    2.3030  -58.7090 C   0  0  0  0  0  0  0  0  0  0  0  0
    9.4910    3.4920  -59.6650 C   0  0  0  0  0  0  0  0  0  0  0  0
   10.7870    4.2520  -59.9110 C   0  0  0  0  0  0  0  0  0  0  0  0
   11.1940    5.1780  -58.7640 C   0  0  0  0  0  0  0  0  0  0  0  0
   11.2850    4.4980  -57.4110 C   0  0  2  0  0  0  0  0  0  0  0  0
   11.7470    3.0190  -57.3630 C   0  0  0  0  0  0  0  0  0  0  0  0
    9.9500    4.0330  -56.7630 C   0  0  0  0  0  0  0  0  0  0  0  0
    9.8320   -0.8940  -55.1170 N   0  0  0  0  0  0  0  0  0  0  0  0
    9.5760   -1.8380  -54.1880 N   0  0  0  0  0  0  0  0  0  0  0  0
   10.5210   -2.9320  -54.0310 C   0  0  0  0  0  0  0  0  0  0  0  0
   10.5310   -3.8610  -55.2420 C   0  0  0  0  0  0  0  0  0  0  0  0
   11.8540   -4.6200  -55.3470 C   0  0  0  0  0  0  0  0  0  0  0  0
   11.8390   -5.6040  -56.5140 C   0  0  0  0  0  0  0  0  0  0  0  0
   12.1370   -4.9120  -57.8370 C   0  0  0  0  0  0  0  0  0  0  0  0
   13.0430   -3.8440  -57.6010 O   0  0  0  0  0  0  0  0  0  0  0  0
    8.4080   -1.6320  -53.4970 C   0  0  0  0  0  0  0  0  0  0  0  0
    7.9120   -2.5090  -52.4440 C   0  0  0  0  0  0  0  0  0  0  0  0
    8.1870   -2.2240  -51.1020 C   0  0  0  0  0  0  0  0  0  0  0  0
    7.7070   -3.0600  -50.0940 C   0  0  0  0  0  0  0  0  0  0  0  0
    6.9530   -4.1870  -50.4220 C   0  0  0  0  0  0  0  0  0  0  0  0
    6.6820   -4.4810  -51.7580 C   0  0  0  0  0  0  0  0  0  0  0  0
    7.1630   -3.6460  -52.7680 C   0  0  0  0  0  0  0  0  0  0  0  0
    6.5340    0.2513  -52.5290 H   0  0  0  0  0  0  0  0  0  0  0  0
    6.5998    1.2362  -54.0297 H   0  0  0  0  0  0  0  0  0  0  0  0
    5.7472   -0.3448  -54.0297 H   0  0  0  0  0  0  0  0  0  0  0  0
   10.6650    0.8540  -56.1190 H   0  0  0  0  0  0  0  0  0  0  0  0
   10.2473    1.5425  -59.1971 H   0  0  0  0  0  0  0  0  0  0  0  0
    8.5925    1.9671  -58.5053 H   0  0  0  0  0  0  0  0  0  0  0  0
    9.1248    3.1165  -60.6319 H   0  0  0  0  0  0  0  0  0  0  0  0
    8.7996    4.2019  -59.1875 H   0  0  0  0  0  0  0  0  0  0  0  0
   11.5929    3.5197  -60.0666 H   0  0  0  0  0  0  0  0  0  0  0  0
   10.6186    4.8908  -60.7905 H   0  0  0  0  0  0  0  0  0  0  0  0
   12.1792    5.6061  -59.0007 H   0  0  0  0  0  0  0  0  0  0  0  0
   10.4043    5.9391  -58.6800 H   0  0  0  0  0  0  0  0  0  0  0  0
   11.9004    5.2962  -56.9704 H   0  0  0  0  0  0  0  0  0  0  0  0
   12.2959    2.6809  -58.2543 H   0  0  0  0  0  0  0  0  0  0  0  0
   12.4541    2.6586  -56.6013 H   0  0  0  0  0  0  0  0  0  0  0  0
    9.9305    4.0867  -55.6645 H   0  0  0  0  0  0  0  0  0  0  0  0
    9.0006    4.5527  -56.9593 H   0  0  0  0  0  0  0  0  0  0  0  0
   11.5293   -2.5132  -53.8971 H   0  0  0  0  0  0  0  0  0  0  0  0
   10.2138   -3.5216  -53.1546 H   0  0  0  0  0  0  0  0  0  0  0  0
    9.7088   -4.5853  -55.1452 H   0  0  0  0  0  0  0  0  0  0  0  0
   10.4068   -3.2514  -56.1491 H   0  0  0  0  0  0  0  0  0  0  0  0
   12.6701   -3.8980  -55.4978 H   0  0  0  0  0  0  0  0  0  0  0  0
   12.0029   -5.1877  -54.4166 H   0  0  0  0  0  0  0  0  0  0  0  0
   12.5999   -6.3784  -56.3373 H   0  0  0  0  0  0  0  0  0  0  0  0
   10.8339   -6.0465  -56.5769 H   0  0  0  0  0  0  0  0  0  0  0  0
   12.5874   -5.6310  -58.5371 H   0  0  0  0  0  0  0  0  0  0  0  0
   11.2054   -4.5223  -58.2731 H   0  0  0  0  0  0  0  0  0  0  0  0
   13.1760   -3.7900  -56.6390 H   0  0  0  0  0  0  0  0  0  0  0  0
    8.7838   -1.3376  -50.8411 H   0  0  0  0  0  0  0  0  0  0  0  0
    7.9230   -2.8306  -49.0401 H   0  0  0  0  0  0  0  0  0  0  0  0
    6.5720   -4.8441  -49.6263 H   0  0  0  0  0  0  0  0  0  0  0  0
    6.0892   -5.3709  -52.0160 H   0  0  0  0  0  0  0  0  0  0  0  0
    6.9527   -3.8823  -53.8215 H   0  0  0  0  0  0  0  0  0  0  0  0
  1  2  1  0
  2  3  1  0
  3  4  1  0
  4  5  2  0
  4  6  1  0
  7  6  1  1
  7  8  1  0
  8  9  1  0
  9 10  1  0
 10 11  1  0
 11 12  1  0
 12 13  1  0
 12 14  1  0
  3 15  2  0
 15 16  1  0
 16 17  1  0
 17 18  1  0
 18 19  1  0
 19 20  1  0
 20 21  1  0
 21 22  1  0
 16 23  1  0
 23 24  1  0
 24 25  2  0
 25 26  1  0
 26 27  2  0
 27 28  1  0
 28 29  2  0
 23  2  2  0
 29 24  1  0
 13  7  1  0
 14  7  1  0
  1 30  1  0
  1 31  1  0
  1 32  1  0
  6 33  1  0
  8 34  1  0
  8 35  1  0
  9 36  1  0
  9 37  1  0
 10 38  1  0
 10 39  1  0
 11 40  1  0
 11 41  1  0
 12 42  1  1
 13 43  1  0
 13 44  1  0
 14 45  1  0
 14 46  1  0
 17 47  1  0
 17 48  1  0
 18 49  1  0
 18 50  1  0
 19 51  1  0
 19 52  1  0
 20 53  1  0
 20 54  1  0
 21 55  1  0
 21 56  1  0
 22 57  1  0
 25 58  1  0
 26 59  1  0
 27 60  1  0
 28 61  1  0
 29 62  1  0
M  END
>  <meeko>  (59) 
{"is_sidechain": false}

$$$$

     RDKit          3D

 54 58  0  0  0  0  0  0  0  0999 V2000
    6.9220    1.6050  -56.1180 O   0  0  0  0  0  0  0  0  0  0  0  0
    8.0630    1.1750  -55.9830 C   0  0  0  0  0  0  0  0  0  0  0  0
    9.1420    1.6670  -56.7020 N   0  0  0  0  0  0  0  0  0  0  0  0
    9.0720    2.7850  -57.6480 C   0  0  2  0  0  0  0  0  0  0  0  0
    7.9360    2.5990  -58.6860 C   0  0  0  0  0  0  0  0  0  0  0  0
    7.9260    3.7620  -59.6940 C   0  0  1  0  0  0  0  0  0  0  0  0
    7.7280    5.0860  -58.9370 C   0  0  0  0  0  0  0  0  0  0  0  0
    8.8730    5.2990  -57.9320 C   0  0  2  0  0  0  0  0  0  0  0  0
   10.2100    5.3270  -58.6870 C   0  0  0  0  0  0  0  0  0  0  0  0
   10.4170    4.0030  -59.4390 C   0  0  2  0  0  0  0  0  0  0  0  0
    9.2690    3.8000  -60.4390 C   0  0  0  0  0  0  0  0  0  0  0  0
   10.4160    2.8450  -58.4280 C   0  0  0  0  0  0  0  0  0  0  0  0
    8.8830    4.1380  -56.9220 C   0  0  0  0  0  0  0  0  0  0  0  0
    8.4030    0.0960  -55.0280 C   0  0  0  0  0  0  0  0  0  0  0  0
    7.5440   -0.6050  -54.1380 C   0  0  0  0  0  0  0  0  0  0  0  0
    8.3380   -1.4980  -53.4440 C   0  0  0  0  0  0  0  0  0  0  0  0
    7.9620   -2.4570  -52.4120 C   0  0  0  0  0  0  0  0  0  0  0  0
    7.4390   -3.7050  -52.7740 C   0  0  0  0  0  0  0  0  0  0  0  0
    7.0670   -4.6270  -51.7930 C   0  0  0  0  0  0  0  0  0  0  0  0
    7.2090   -4.3060  -50.4440 C   0  0  0  0  0  0  0  0  0  0  0  0
    7.7210   -3.0640  -50.0750 C   0  0  0  0  0  0  0  0  0  0  0  0
    8.0930   -2.1400  -51.0550 C   0  0  0  0  0  0  0  0  0  0  0  0
    9.6010   -1.3110  -53.9510 N   0  0  0  0  0  0  0  0  0  0  0  0
   10.8240   -2.0270  -53.6220 C   0  0  0  0  0  0  0  0  0  0  0  0
   10.9860   -3.3060  -54.4350 C   0  0  0  0  0  0  0  0  0  0  0  0
   10.3900   -3.1850  -55.7260 O   0  0  0  0  0  0  0  0  0  0  0  0
    9.6630   -0.3550  -54.8960 N   0  0  0  0  0  0  0  0  0  0  0  0
   10.0610    1.3950  -56.3860 H   0  0  0  0  0  0  0  0  0  0  0  0
    8.0917    1.6537  -59.2265 H   0  0  0  0  0  0  0  0  0  0  0  0
    6.9720    2.5809  -58.1566 H   0  0  0  0  0  0  0  0  0  0  0  0
    7.1073    3.6205  -60.4150 H   0  0  0  0  0  0  0  0  0  0  0  0
    7.7165    5.9179  -59.6566 H   0  0  0  0  0  0  0  0  0  0  0  0
    6.7736    5.0486  -58.3914 H   0  0  0  0  0  0  0  0  0  0  0  0
    8.7285    6.2510  -57.4002 H   0  0  0  0  0  0  0  0  0  0  0  0
   10.2040    6.1581  -59.4076 H   0  0  0  0  0  0  0  0  0  0  0  0
   11.0291    5.4643  -57.9657 H   0  0  0  0  0  0  0  0  0  0  0  0
   11.3757    4.0289  -59.9777 H   0  0  0  0  0  0  0  0  0  0  0  0
    9.2625    4.6306  -61.1601 H   0  0  0  0  0  0  0  0  0  0  0  0
    9.4155    2.8476  -60.9695 H   0  0  0  0  0  0  0  0  0  0  0  0
   10.5613    1.8972  -58.9670 H   0  0  0  0  0  0  0  0  0  0  0  0
   11.2312    3.0088  -57.7079 H   0  0  0  0  0  0  0  0  0  0  0  0
    9.7092    4.2849  -56.2108 H   0  0  0  0  0  0  0  0  0  0  0  0
    7.9203    4.1231  -56.3900 H   0  0  0  0  0  0  0  0  0  0  0  0
    6.4590   -0.4640  -54.0241 H   0  0  0  0  0  0  0  0  0  0  0  0
    7.3205   -3.9605  -53.8373 H   0  0  0  0  0  0  0  0  0  0  0  0
    6.6617   -5.6070  -52.0851 H   0  0  0  0  0  0  0  0  0  0  0  0
    6.9171   -5.0327  -49.6715 H   0  0  0  0  0  0  0  0  0  0  0  0
    7.8326   -2.8103  -49.0105 H   0  0  0  0  0  0  0  0  0  0  0  0
    8.4909   -1.1583  -50.7584 H   0  0  0  0  0  0  0  0  0  0  0  0
   11.6829   -1.3697  -53.8229 H   0  0  0  0  0  0  0  0  0  0  0  0
   10.7716   -2.3093  -52.5601 H   0  0  0  0  0  0  0  0  0  0  0  0
   12.0584   -3.5196  -54.5551 H   0  0  0  0  0  0  0  0  0  0  0  0
   10.4815   -4.1224  -53.8975 H   0  0  0  0  0  0  0  0  0  0  0  0
    9.7900   -3.9490  -55.8210 H   0  0  0  0  0  0  0  0  0  0  0  0
  1  2  2  0
  2  3  1  0
  4  3  1  1
  4  5  1  0
  5  6  1  0
  6  7  1  0
  7  8  1  0
  8  9  1  0
  9 10  1  0
 10 11  1  0
 10 12  1  0
  8 13  1  0
  2 14  1  0
 14 15  1  0
 15 16  2  0
 16 17  1  0
 17 18  2  0
 18 19  1  0
 19 20  2  0
 20 21  1  0
 21 22  2  0
 16 23  1  0
 23 24  1  0
 24 25  1  0
 25 26  1  0
 23 27  1  0
 12  4  1  0
 27 14  2  0
 13  4  1  0
 22 17  1  0
 11  6  1  0
  3 28  1  0
  5 29  1  0
  5 30  1  0
  6 31  1  6
  7 32  1  0
  7 33  1  0
  8 34  1  1
  9 35  1  0
  9 36  1  0
 10 37  1  6
 11 38  1  0
 11 39  1  0
 12 40  1  0
 12 41  1  0
 13 42  1  0
 13 43  1  0
 15 44  1  0
 18 45  1  0
 19 46  1  0
 20 47  1  0
 21 48  1  0
 22 49  1  0
 24 50  1  0
 24 51  1  0
 25 52  1  0
 25 53  1  0
 26 54  1  0
M  END
>  <meeko>  (60) 
{"is_sidechain": false}

$$$$

     RDKit          3D

 45 49  0  0  0  0  0  0  0  0999 V2000
    9.6400    1.1570  -55.7590 O   0  0  0  0  0  0  0  0  0  0  0  0
    8.4110    1.1590  -55.8010 C   0  0  0  0  0  0  0  0  0  0  0  0
    7.6900    1.9980  -56.6360 N   0  0  0  0  0  0  0  0  0  0  0  0
    8.2600    2.9760  -57.5640 C   0  0  2  0  0  0  0  0  0  0  0  0
    7.1490    3.4130  -58.5580 C   0  0  0  0  0  0  0  0  0  0  0  0
    7.6820    4.4440  -59.5650 C   0  0  1  0  0  0  0  0  0  0  0  0
    8.1860    5.6800  -58.8020 C   0  0  0  0  0  0  0  0  0  0  0  0
    9.3060    5.2740  -57.8300 C   0  0  2  0  0  0  0  0  0  0  0  0
   10.4630    4.6450  -58.6230 C   0  0  0  0  0  0  0  0  0  0  0  0
    9.9690    3.4080  -59.3920 C   0  0  2  0  0  0  0  0  0  0  0  0
    8.8460    3.8240  -60.3540 C   0  0  0  0  0  0  0  0  0  0  0  0
    9.4240    2.3750  -58.3890 C   0  0  0  0  0  0  0  0  0  0  0  0
    8.7600    4.2420  -56.8270 C   0  0  0  0  0  0  0  0  0  0  0  0
    7.5780    0.2920  -54.9900 C   0  0  0  0  0  0  0  0  0  0  0  0
    6.2630    0.1960  -55.0500 N   0  0  0  0  0  0  0  0  0  0  0  0
    5.9050   -0.7430  -54.1030 N   0  0  0  0  0  0  0  0  0  0  0  0
    7.0240   -1.1530  -53.5350 C   0  0  0  0  0  0  0  0  0  0  0  0
    7.2320   -2.1330  -52.4750 C   0  0  0  0  0  0  0  0  0  0  0  0
    6.8930   -3.4770  -52.6940 C   0  0  0  0  0  0  0  0  0  0  0  0
    7.0830   -4.4360  -51.6960 C   0  0  0  0  0  0  0  0  0  0  0  0
    7.6150   -4.0610  -50.4630 C   0  0  0  0  0  0  0  0  0  0  0  0
    7.9570   -2.7310  -50.2290 C   0  0  0  0  0  0  0  0  0  0  0  0
    7.7670   -1.7720  -51.2280 C   0  0  0  0  0  0  0  0  0  0  0  0
    8.1330   -0.5350  -54.0500 O   0  0  0  0  0  0  0  0  0  0  0  0
    6.6790    1.9110  -56.5860 H   0  0  0  0  0  0  0  0  0  0  0  0
    6.7887    2.5294  -59.1052 H   0  0  0  0  0  0  0  0  0  0  0  0
    6.3302    3.8741  -57.9862 H   0  0  0  0  0  0  0  0  0  0  0  0
    6.8800    4.7378  -60.2582 H   0  0  0  0  0  0  0  0  0  0  0  0
    8.5751    6.4178  -59.5191 H   0  0  0  0  0  0  0  0  0  0  0  0
    7.3534    6.1185  -58.2324 H   0  0  0  0  0  0  0  0  0  0  0  0
    9.6658    6.1619  -57.2896 H   0  0  0  0  0  0  0  0  0  0  0  0
   10.8577    5.3830  -59.3369 H   0  0  0  0  0  0  0  0  0  0  0  0
   11.2542    4.3398  -57.9224 H   0  0  0  0  0  0  0  0  0  0  0  0
   10.7999    2.9685  -59.9633 H   0  0  0  0  0  0  0  0  0  0  0  0
    9.2349    4.5625  -61.0705 H   0  0  0  0  0  0  0  0  0  0  0  0
    8.4846    2.9360  -60.8933 H   0  0  0  0  0  0  0  0  0  0  0  0
    9.0601    1.4946  -58.9390 H   0  0  0  0  0  0  0  0  0  0  0  0
   10.2334    2.0875  -57.7019 H   0  0  0  0  0  0  0  0  0  0  0  0
    9.5603    3.9601  -56.1269 H   0  0  0  0  0  0  0  0  0  0  0  0
    7.9167    4.6904  -56.2813 H   0  0  0  0  0  0  0  0  0  0  0  0
    6.4721   -3.7794  -53.6643 H   0  0  0  0  0  0  0  0  0  0  0  0
    6.8131   -5.4859  -51.8828 H   0  0  0  0  0  0  0  0  0  0  0  0
    7.7645   -4.8146  -49.6758 H   0  0  0  0  0  0  0  0  0  0  0  0
    8.3773   -2.4350  -49.2565 H   0  0  0  0  0  0  0  0  0  0  0  0
    8.0394   -0.7238  -51.0353 H   0  0  0  0  0  0  0  0  0  0  0  0
  1  2  2  0
  2  3  1  0
  4  3  1  1
  4  5  1  0
  5  6  1  0
  6  7  1  0
  7  8  1  0
  8  9  1  0
  9 10  1  0
 10 11  1  0
 10 12  1  0
  8 13  1  0
  2 14  1  0
 14 15  2  0
 15 16  1  0
 16 17  2  0
 17 18  1  0
 18 19  2  0
 19 20  1  0
 20 21  2  0
 21 22  1  0
 22 23  2  0
 17 24  1  0
 12  4  1  0
 24 14  1  0
 13  4  1  0
 23 18  1  0
 11  6  1  0
  3 25  1  0
  5 26  1  0
  5 27  1  0
  6 28  1  6
  7 29  1  0
  7 30  1  0
  8 31  1  1
  9 32  1  0
  9 33  1  0
 10 34  1  6
 11 35  1  0
 11 36  1  0
 12 37  1  0
 12 38  1  0
 13 39  1  0
 13 40  1  0
 19 41  1  0
 20 42  1  0
 21 43  1  0
 22 44  1  0
 23 45  1  0
M  END
>  <meeko>  (61) 
{"is_sidechain": false}

$$$$

     RDKit          3D

 45 49  0  0  0  0  0  0  0  0999 V2000
    6.7680    1.9380  -56.4010 O   0  0  0  0  0  0  0  0  0  0  0  0
    7.8640    1.4470  -56.1420 C   0  0  0  0  0  0  0  0  0  0  0  0
    9.0120    1.8540  -56.8140 N   0  0  0  0  0  0  0  0  0  0  0  0
    9.0640    2.8730  -57.8670 C   0  0  2  0  0  0  0  0  0  0  0  0
   10.4820    2.8460  -58.5000 C   0  0  0  0  0  0  0  0  0  0  0  0
   10.6090    3.8940  -59.6170 C   0  0  1  0  0  0  0  0  0  0  0  0
    9.5680    3.5970  -60.7080 C   0  0  0  0  0  0  0  0  0  0  0  0
    8.1530    3.6450  -60.1090 C   0  0  2  0  0  0  0  0  0  0  0  0
    7.9010    5.0410  -59.5140 C   0  0  0  0  0  0  0  0  0  0  0  0
    8.9400    5.3480  -58.4220 C   0  0  2  0  0  0  0  0  0  0  0  0
   10.3490    5.2900  -59.0300 C   0  0  0  0  0  0  0  0  0  0  0  0
    8.8240    4.2960  -57.3030 C   0  0  0  0  0  0  0  0  0  0  0  0
    8.0370    2.5910  -58.9930 C   0  0  0  0  0  0  0  0  0  0  0  0
    8.0560    0.4120  -55.1280 C   0  0  0  0  0  0  0  0  0  0  0  0
    9.2340   -0.1030  -54.8430 N   0  0  0  0  0  0  0  0  0  0  0  0
    9.1570   -1.0610  -53.8530 N   0  0  0  0  0  0  0  0  0  0  0  0
    7.9280   -1.2510  -53.4090 C   0  0  0  0  0  0  0  0  0  0  0  0
    7.5640   -2.2160  -52.3530 C   0  0  0  0  0  0  0  0  0  0  0  0
    8.0040   -2.1150  -51.0230 C   0  0  0  0  0  0  0  0  0  0  0  0
    7.6270   -3.0620  -50.0640 C   0  0  0  0  0  0  0  0  0  0  0  0
    6.8020   -4.1260  -50.4170 C   0  0  0  0  0  0  0  0  0  0  0  0
    6.3540   -4.2470  -51.7290 C   0  0  0  0  0  0  0  0  0  0  0  0
    6.7330   -3.3000  -52.6850 C   0  0  0  0  0  0  0  0  0  0  0  0
    6.7710   -0.2440  -54.1990 S   0  0  0  0  0  0  0  0  0  0  0  0
    9.8810    1.4070  -56.5520 H   0  0  0  0  0  0  0  0  0  0  0  0
   11.2277    3.0599  -57.7202 H   0  0  0  0  0  0  0  0  0  0  0  0
   10.6519    1.8498  -58.9344 H   0  0  0  0  0  0  0  0  0  0  0  0
   11.6192    3.8577  -60.0508 H   0  0  0  0  0  0  0  0  0  0  0  0
    9.6517    4.3492  -61.5063 H   0  0  0  0  0  0  0  0  0  0  0  0
    9.7524    2.5942  -61.1207 H   0  0  0  0  0  0  0  0  0  0  0  0
    7.4118    3.4365  -60.8946 H   0  0  0  0  0  0  0  0  0  0  0  0
    7.9779    5.7951  -60.3111 H   0  0  0  0  0  0  0  0  0  0  0  0
    6.8950    5.0658  -59.0697 H   0  0  0  0  0  0  0  0  0  0  0  0
    8.7583    6.3510  -58.0086 H   0  0  0  0  0  0  0  0  0  0  0  0
   10.4330    6.0425  -59.8279 H   0  0  0  0  0  0  0  0  0  0  0  0
   11.0909    5.4961  -58.2444 H   0  0  0  0  0  0  0  0  0  0  0  0
    9.5742    4.5089  -56.5272 H   0  0  0  0  0  0  0  0  0  0  0  0
    7.8116    4.3425  -56.8754 H   0  0  0  0  0  0  0  0  0  0  0  0
    7.0213    2.6210  -58.5717 H   0  0  0  0  0  0  0  0  0  0  0  0
    8.2428    1.5984  -59.4201 H   0  0  0  0  0  0  0  0  0  0  0  0
    8.6553   -1.2782  -50.7305 H   0  0  0  0  0  0  0  0  0  0  0  0
    7.9838   -2.9652  -49.0280 H   0  0  0  0  0  0  0  0  0  0  0  0
    6.5052   -4.8685  -49.6617 H   0  0  0  0  0  0  0  0  0  0  0  0
    5.7026   -5.0865  -52.0134 H   0  0  0  0  0  0  0  0  0  0  0  0
    6.3732   -3.4054  -53.7191 H   0  0  0  0  0  0  0  0  0  0  0  0
  1  2  2  0
  2  3  1  0
  4  3  1  1
  4  5  1  0
  5  6  1  0
  6  7  1  0
  7  8  1  0
  8  9  1  0
  9 10  1  0
 10 11  1  0
 10 12  1  0
  8 13  1  0
  2 14  1  0
 14 15  2  0
 15 16  1  0
 16 17  2  0
 17 18  1  0
 18 19  2  0
 19 20  1  0
 20 21  2  0
 21 22  1  0
 22 23  2  0
 17 24  1  0
 12  4  1  0
 24 14  1  0
 13  4  1  0
 23 18  1  0
 11  6  1  0
  3 25  1  0
  5 26  1  0
  5 27  1  0
  6 28  1  6
  7 29  1  0
  7 30  1  0
  8 31  1  6
  9 32  1  0
  9 33  1  0
 10 34  1  1
 11 35  1  0
 11 36  1  0
 12 37  1  0
 12 38  1  0
 13 39  1  0
 13 40  1  0
 19 41  1  0
 20 42  1  0
 21 43  1  0
 22 44  1  0
 23 45  1  0
M  END
>  <meeko>  (62) 
{"is_sidechain": false}

$$$$

     RDKit          3D

 48 52  0  0  0  0  0  0  0  0999 V2000
    6.4880    2.0520  -56.6900 O   0  0  0  0  0  0  0  0  0  0  0  0
    7.5710    1.5950  -56.3420 C   0  0  0  0  0  0  0  0  0  0  0  0
    8.7890    1.9670  -56.8730 N   0  0  0  0  0  0  0  0  0  0  0  0
    8.9930    2.9590  -57.9310 C   0  0  2  0  0  0  0  0  0  0  0  0
    7.9270    2.8280  -59.0480 C   0  0  0  0  0  0  0  0  0  0  0  0
    8.1340    3.9100  -60.1220 C   0  0  1  0  0  0  0  0  0  0  0  0
    8.0060    5.2970  -59.4750 C   0  0  0  0  0  0  0  0  0  0  0  0
    9.0650    5.4640  -58.3750 C   0  0  2  0  0  0  0  0  0  0  0  0
   10.4650    5.3120  -58.9900 C   0  0  0  0  0  0  0  0  0  0  0  0
   10.6080    3.9240  -59.6340 C   0  0  2  0  0  0  0  0  0  0  0  0
    9.5400    3.7600  -60.7270 C   0  0  0  0  0  0  0  0  0  0  0  0
   10.4040    2.8420  -58.5590 C   0  0  0  0  0  0  0  0  0  0  0  0
    8.8610    4.3750  -57.3100 C   0  0  0  0  0  0  0  0  0  0  0  0
    7.6430    0.5570  -55.2730 C   0  0  0  0  0  0  0  0  0  0  0  0
    8.8370    0.2600  -54.6430 C   0  0  0  0  0  0  0  0  0  0  0  0
    8.8320   -0.7200  -53.6510 C   0  0  0  0  0  0  0  0  0  0  0  0
    7.6400   -1.3620  -53.3250 C   0  0  0  0  0  0  0  0  0  0  0  0
    7.5310   -2.4120  -52.2940 C   0  0  0  0  0  0  0  0  0  0  0  0
    8.2270   -2.3360  -51.0730 C   0  0  0  0  0  0  0  0  0  0  0  0
    8.1160   -3.3430  -50.1070 C   0  0  0  0  0  0  0  0  0  0  0  0
    7.3020   -4.4480  -50.3390 C   0  0  0  0  0  0  0  0  0  0  0  0
    6.5970   -4.5450  -51.5340 C   0  0  0  0  0  0  0  0  0  0  0  0
    6.7090   -3.5370  -52.4970 C   0  0  0  0  0  0  0  0  0  0  0  0
    6.4940   -1.0390  -53.9790 N   0  0  0  0  0  0  0  0  0  0  0  0
    6.4890   -0.0730  -54.9580 N   0  0  0  0  0  0  0  0  0  0  0  0
    9.6040    1.4970  -56.4850 H   0  0  0  0  0  0  0  0  0  0  0  0
    8.0114    1.8351  -59.5139 H   0  0  0  0  0  0  0  0  0  0  0  0
    6.9290    2.9554  -58.6032 H   0  0  0  0  0  0  0  0  0  0  0  0
    7.3765    3.7987  -60.9118 H   0  0  0  0  0  0  0  0  0  0  0  0
    8.1525    6.0716  -60.2421 H   0  0  0  0  0  0  0  0  0  0  0  0
    7.0049    5.3967  -59.0302 H   0  0  0  0  0  0  0  0  0  0  0  0
    8.9685    6.4587  -57.9154 H   0  0  0  0  0  0  0  0  0  0  0  0
   10.6120    6.0865  -59.7572 H   0  0  0  0  0  0  0  0  0  0  0  0
   11.2211    5.4227  -58.1987 H   0  0  0  0  0  0  0  0  0  0  0  0
   11.6100    3.8224  -60.0764 H   0  0  0  0  0  0  0  0  0  0  0  0
    9.6879    4.5304  -61.4981 H   0  0  0  0  0  0  0  0  0  0  0  0
    9.6339    2.7591  -61.1735 H   0  0  0  0  0  0  0  0  0  0  0  0
   10.5138    1.8491  -59.0196 H   0  0  0  0  0  0  0  0  0  0  0  0
   11.1570    2.9795  -57.7690 H   0  0  0  0  0  0  0  0  0  0  0  0
    9.6199    4.4949  -56.5228 H   0  0  0  0  0  0  0  0  0  0  0  0
    7.8500    4.4807  -56.8895 H   0  0  0  0  0  0  0  0  0  0  0  0
    9.7656    0.7824  -54.9167 H   0  0  0  0  0  0  0  0  0  0  0  0
    9.7637   -0.9843  -53.1293 H   0  0  0  0  0  0  0  0  0  0  0  0
    8.8716   -1.4672  -50.8737 H   0  0  0  0  0  0  0  0  0  0  0  0
    8.6734   -3.2609  -49.1623 H   0  0  0  0  0  0  0  0  0  0  0  0
    7.2167   -5.2406  -49.5810 H   0  0  0  0  0  0  0  0  0  0  0  0
    5.9509   -5.4152  -51.7218 H   0  0  0  0  0  0  0  0  0  0  0  0
    6.1415   -3.6252  -53.4352 H   0  0  0  0  0  0  0  0  0  0  0  0
  1  2  2  0
  2  3  1  0
  4  3  1  1
  4  5  1  0
  5  6  1  0
  6  7  1  0
  7  8  1  0
  8  9  1  0
  9 10  1  0
 10 11  1  0
 10 12  1  0
  8 13  1  0
  2 14  1  0
 14 15  2  0
 15 16  1  0
 16 17  2  0
 17 18  1  0
 18 19  2  0
 19 20  1  0
 20 21  2  0
 21 22  1  0
 22 23  2  0
 17 24  1  0
 24 25  2  0
 12  4  1  0
 25 14  1  0
 13  4  1  0
 23 18  1  0
 11  6  1  0
  3 26  1  0
  5 27  1  0
  5 28  1  0
  6 29  1  6
  7 30  1  0
  7 31  1  0
  8 32  1  1
  9 33  1  0
  9 34  1  0
 10 35  1  6
 11 36  1  0
 11 37  1  0
 12 38  1  0
 12 39  1  0
 13 40  1  0
 13 41  1  0
 15 42  1  0
 16 43  1  0
 19 44  1  0
 20 45  1  0
 21 46  1  0
 22 47  1  0
 23 48  1  0
M  END
>  <meeko>  (63) 
{"is_sidechain": false}

$$$$

     RDKit          3D

 47 51  0  0  0  0  0  0  0  0999 V2000
    6.6980    1.6660  -56.1780 O   0  0  0  0  0  0  0  0  0  0  0  0
    7.8380    1.2590  -55.9860 C   0  0  0  0  0  0  0  0  0  0  0  0
    8.9600    1.7340  -56.6270 N   0  0  0  0  0  0  0  0  0  0  0  0
    8.9970    2.7900  -57.6340 C   0  0  2  0  0  0  0  0  0  0  0  0
   10.4010    2.7930  -58.2950 C   0  0  0  0  0  0  0  0  0  0  0  0
   10.5030    3.8880  -59.3680 C   0  0  1  0  0  0  0  0  0  0  0  0
    9.4390    3.6370  -60.4480 C   0  0  0  0  0  0  0  0  0  0  0  0
    8.0380    3.6560  -59.8190 C   0  0  2  0  0  0  0  0  0  0  0  0
    7.7960    5.0240  -59.1600 C   0  0  0  0  0  0  0  0  0  0  0  0
    8.8550    5.2860  -58.0760 C   0  0  2  0  0  0  0  0  0  0  0  0
   10.2520    5.2570  -58.7150 C   0  0  0  0  0  0  0  0  0  0  0  0
    8.7630    4.1850  -57.0040 C   0  0  0  0  0  0  0  0  0  0  0  0
    7.9460    2.5550  -58.7460 C   0  0  0  0  0  0  0  0  0  0  0  0
    8.1450    0.1890  -55.0220 C   0  0  0  0  0  0  0  0  0  0  0  0
    7.2450   -0.4240  -54.1120 C   0  0  0  0  0  0  0  0  0  0  0  0
    7.9770   -1.3710  -53.4250 C   0  0  0  0  0  0  0  0  0  0  0  0
    7.6040   -2.3020  -52.3610 C   0  0  0  0  0  0  0  0  0  0  0  0
    8.1190   -2.1690  -51.0630 C   0  0  0  0  0  0  0  0  0  0  0  0
    7.7520   -3.0650  -50.0540 C   0  0  0  0  0  0  0  0  0  0  0  0
    6.8680   -4.1060  -50.3320 C   0  0  0  0  0  0  0  0  0  0  0  0
    6.3550   -4.2540  -51.6170 C   0  0  0  0  0  0  0  0  0  0  0  0
    6.7230   -3.3580  -52.6260 C   0  0  0  0  0  0  0  0  0  0  0  0
    9.2450   -1.2600  -53.9340 N   0  0  0  0  0  0  0  0  0  0  0  0
    9.3800   -0.3400  -54.9050 N   0  0  0  0  0  0  0  0  0  0  0  0
    9.8220    1.2780  -56.3380 H   0  0  0  0  0  0  0  0  0  0  0  0
   11.1620    2.9751  -57.5219 H   0  0  0  0  0  0  0  0  0  0  0  0
   10.5643    1.8166  -58.7746 H   0  0  0  0  0  0  0  0  0  0  0  0
   11.5038    3.8723  -59.8242 H   0  0  0  0  0  0  0  0  0  0  0  0
    9.5051    4.4234  -61.2143 H   0  0  0  0  0  0  0  0  0  0  0  0
    9.6155    2.6532  -60.9072 H   0  0  0  0  0  0  0  0  0  0  0  0
    7.2816    3.4792  -60.5979 H   0  0  0  0  0  0  0  0  0  0  0  0
    7.8567    5.8118  -59.9253 H   0  0  0  0  0  0  0  0  0  0  0  0
    6.7987    5.0275  -58.6958 H   0  0  0  0  0  0  0  0  0  0  0  0
    8.6801    6.2692  -57.6147 H   0  0  0  0  0  0  0  0  0  0  0  0
   10.3187    6.0437  -59.4809 H   0  0  0  0  0  0  0  0  0  0  0  0
   11.0091    5.4298  -57.9360 H   0  0  0  0  0  0  0  0  0  0  0  0
    9.5265    4.3662  -56.2332 H   0  0  0  0  0  0  0  0  0  0  0  0
    7.7581    4.2082  -56.5571 H   0  0  0  0  0  0  0  0  0  0  0  0
    6.9400    2.5667  -58.3012 H   0  0  0  0  0  0  0  0  0  0  0  0
    8.1412    1.5812  -59.2189 H   0  0  0  0  0  0  0  0  0  0  0  0
    6.1780   -0.1911  -53.9806 H   0  0  0  0  0  0  0  0  0  0  0  0
    8.8190   -1.3512  -50.8364 H   0  0  0  0  0  0  0  0  0  0  0  0
    8.1615   -2.9480  -49.0398 H   0  0  0  0  0  0  0  0  0  0  0  0
    6.5766   -4.8089  -49.5376 H   0  0  0  0  0  0  0  0  0  0  0  0
    5.6593   -5.0765  -51.8395 H   0  0  0  0  0  0  0  0  0  0  0  0
    6.3155   -3.4843  -53.6399 H   0  0  0  0  0  0  0  0  0  0  0  0
   10.0690   -1.7790  -53.6500 H   0  0  0  0  0  0  0  0  0  0  0  0
  1  2  2  0
  2  3  1  0
  4  3  1  1
  4  5  1  0
  5  6  1  0
  6  7  1  0
  7  8  1  0
  8  9  1  0
  9 10  1  0
 10 11  1  0
 10 12  1  0
  8 13  1  0
  2 14  1  0
 14 15  1  0
 15 16  2  0
 16 17  1  0
 17 18  2  0
 18 19  1  0
 19 20  2  0
 20 21  1  0
 21 22  2  0
 16 23  1  0
 23 24  1  0
 12  4  1  0
 24 14  2  0
 13  4  1  0
 22 17  1  0
 11  6  1  0
  3 25  1  0
  5 26  1  0
  5 27  1  0
  6 28  1  6
  7 29  1  0
  7 30  1  0
  8 31  1  6
  9 32  1  0
  9 33  1  0
 10 34  1  1
 11 35  1  0
 11 36  1  0
 12 37  1  0
 12 38  1  0
 13 39  1  0
 13 40  1  0
 15 41  1  0
 18 42  1  0
 19 43  1  0
 20 44  1  0
 21 45  1  0
 22 46  1  0
 23 47  1  0
M  END
>  <meeko>  (64) 
{"is_sidechain": false}

$$$$

     RDKit          3D

 47 51  0  0  0  0  0  0  0  0999 V2000
    6.7550    2.1110  -56.5570 O   0  0  0  0  0  0  0  0  0  0  0  0
    7.7540    1.5220  -56.1640 C   0  0  0  0  0  0  0  0  0  0  0  0
    9.0260    1.8030  -56.6080 N   0  0  0  0  0  0  0  0  0  0  0  0
    9.3660    2.8290  -57.5980 C   0  0  2  0  0  0  0  0  0  0  0  0
    8.6720    2.5670  -58.9580 C   0  0  0  0  0  0  0  0  0  0  0  0
    9.0880    3.6290  -59.9920 C   0  0  1  0  0  0  0  0  0  0  0  0
    8.6980    5.0220  -59.4710 C   0  0  0  0  0  0  0  0  0  0  0  0
    9.4130    5.3090  -58.1390 C   0  0  2  0  0  0  0  0  0  0  0  0
   10.9330    5.2410  -58.3540 C   0  0  0  0  0  0  0  0  0  0  0  0
   11.3280    3.8480  -58.8660 C   0  0  2  0  0  0  0  0  0  0  0  0
   10.6100    3.5710  -60.1960 C   0  0  0  0  0  0  0  0  0  0  0  0
   10.9010    2.7920  -57.8330 C   0  0  0  0  0  0  0  0  0  0  0  0
    8.9970    4.2500  -57.1030 C   0  0  0  0  0  0  0  0  0  0  0  0
    7.6690    0.4690  -55.1860 C   0  0  0  0  0  0  0  0  0  0  0  0
    8.4350    0.0970  -54.0980 C   0  0  0  0  0  0  0  0  0  0  0  0
    7.8040   -1.0500  -53.5340 C   0  0  0  0  0  0  0  0  0  0  0  0
    8.2140   -1.8360  -52.3620 C   0  0  0  0  0  0  0  0  0  0  0  0
    7.4170   -1.8540  -51.2050 C   0  0  0  0  0  0  0  0  0  0  0  0
    7.7940   -2.5960  -50.0820 C   0  0  0  0  0  0  0  0  0  0  0  0
    8.9750   -3.3330  -50.0990 C   0  0  0  0  0  0  0  0  0  0  0  0
    9.7780   -3.3280  -51.2370 C   0  0  0  0  0  0  0  0  0  0  0  0
    9.4010   -2.5850  -52.3610 C   0  0  0  0  0  0  0  0  0  0  0  0
    6.7070   -1.3630  -54.2430 N   0  0  0  0  0  0  0  0  0  0  0  0
    6.6530   -0.4450  -55.2160 N   0  0  0  0  0  0  0  0  0  0  0  0
    9.7870    1.2620  -56.2240 H   0  0  0  0  0  0  0  0  0  0  0  0
    8.9615    1.5715  -59.3257 H   0  0  0  0  0  0  0  0  0  0  0  0
    7.5824    2.6181  -58.8158 H   0  0  0  0  0  0  0  0  0  0  0  0
    8.5798    3.4347  -60.9480 H   0  0  0  0  0  0  0  0  0  0  0  0
    8.9894    5.7817  -60.2112 H   0  0  0  0  0  0  0  0  0  0  0  0
    7.6104    5.0539  -59.3094 H   0  0  0  0  0  0  0  0  0  0  0  0
    9.1361    6.3101  -57.7770 H   0  0  0  0  0  0  0  0  0  0  0  0
   11.2308    5.9991  -59.0934 H   0  0  0  0  0  0  0  0  0  0  0  0
   11.4424    5.4327  -57.3981 H   0  0  0  0  0  0  0  0  0  0  0  0
   12.4166    3.8045  -59.0177 H   0  0  0  0  0  0  0  0  0  0  0  0
   10.9078    4.3287  -60.9357 H   0  0  0  0  0  0  0  0  0  0  0  0
   10.8888    2.5696  -60.5558 H   0  0  0  0  0  0  0  0  0  0  0  0
   11.1843    1.7947  -58.2005 H   0  0  0  0  0  0  0  0  0  0  0  0
   11.4059    3.0106  -56.8805 H   0  0  0  0  0  0  0  0  0  0  0  0
    9.5168    4.4487  -56.1541 H   0  0  0  0  0  0  0  0  0  0  0  0
    7.9079    4.3037  -56.9585 H   0  0  0  0  0  0  0  0  0  0  0  0
    9.3508    0.5888  -53.7381 H   0  0  0  0  0  0  0  0  0  0  0  0
    6.4819   -1.2752  -51.1826 H   0  0  0  0  0  0  0  0  0  0  0  0
    7.1576   -2.5976  -49.1848 H   0  0  0  0  0  0  0  0  0  0  0  0
    9.2731   -3.9176  -49.2162 H   0  0  0  0  0  0  0  0  0  0  0  0
   10.7113   -3.9099  -51.2521 H   0  0  0  0  0  0  0  0  0  0  0  0
   10.0425   -2.5879  -53.2546 H   0  0  0  0  0  0  0  0  0  0  0  0
    5.8920   -0.4810  -55.8880 H   0  0  0  0  0  0  0  0  0  0  0  0
  1  2  2  0
  2  3  1  0
  4  3  1  1
  4  5  1  0
  5  6  1  0
  6  7  1  0
  7  8  1  0
  8  9  1  0
  9 10  1  0
 10 11  1  0
 10 12  1  0
  8 13  1  0
  2 14  1  0
 14 15  2  0
 15 16  1  0
 16 17  1  0
 17 18  2  0
 18 19  1  0
 19 20  2  0
 20 21  1  0
 21 22  2  0
 16 23  2  0
 23 24  1  0
 12  4  1  0
 24 14  1  0
 13  4  1  0
 22 17  1  0
 11  6  1  0
  3 25  1  0
  5 26  1  0
  5 27  1  0
  6 28  1  6
  7 29  1  0
  7 30  1  0
  8 31  1  1
  9 32  1  0
  9 33  1  0
 10 34  1  6
 11 35  1  0
 11 36  1  0
 12 37  1  0
 12 38  1  0
 13 39  1  0
 13 40  1  0
 15 41  1  0
 18 42  1  0
 19 43  1  0
 20 44  1  0
 21 45  1  0
 22 46  1  0
 24 47  1  0
M  END
>  <meeko>  (65) 
{"is_sidechain": false}

$$$$

     RDKit          3D

 55 57  0  0  0  0  0  0  0  0999 V2000
    6.7520    0.2360  -53.6580 C   0  0  0  0  0  0  0  0  0  0  0  0
    8.0070   -0.4830  -54.0000 C   0  0  0  0  0  0  0  0  0  0  0  0
    8.9880   -0.1200  -54.9790 C   0  0  0  0  0  0  0  0  0  0  0  0
    9.0240    1.0750  -55.8440 C   0  0  0  0  0  0  0  0  0  0  0  0
    8.0610    1.8210  -56.0050 O   0  0  0  0  0  0  0  0  0  0  0  0
   10.2380    1.2770  -56.4770 N   0  0  0  0  0  0  0  0  0  0  0  0
   10.4870    2.4330  -57.3220 C   0  0  0  0  0  0  0  0  0  0  0  0
   10.0250    2.1520  -58.7570 C   0  0  0  0  0  0  0  0  0  0  0  0
   10.3290    3.3240  -59.6870 C   0  0  0  0  0  0  0  0  0  0  0  0
   11.8060    3.7030  -59.6490 C   0  0  0  0  0  0  0  0  0  0  0  0
   12.2780    3.9810  -58.2240 C   0  0  0  0  0  0  0  0  0  0  0  0
   11.9730    2.8130  -57.2910 C   0  0  0  0  0  0  0  0  0  0  0  0
    9.9570   -1.0470  -55.0460 N   0  0  0  0  0  0  0  0  0  0  0  0
    9.6300   -1.9580  -54.1140 N   0  0  0  0  0  0  0  0  0  0  0  0
   10.5210   -3.0890  -53.9210 C   0  0  0  0  0  0  0  0  0  0  0  0
   10.4020   -4.1730  -54.9930 C   0  0  0  0  0  0  0  0  0  0  0  0
   11.6820   -4.4760  -55.7760 C   0  0  0  0  0  0  0  0  0  0  0  0
   11.6750   -3.9560  -57.2070 C   0  0  0  0  0  0  0  0  0  0  0  0
   11.6980   -2.5340  -57.1720 O   0  0  0  0  0  0  0  0  0  0  0  0
    8.4580   -1.6790  -53.4580 C   0  0  0  0  0  0  0  0  0  0  0  0
    7.8730   -2.5140  -52.4180 C   0  0  0  0  0  0  0  0  0  0  0  0
    7.0260   -3.5740  -52.7620 C   0  0  0  0  0  0  0  0  0  0  0  0
    6.4650   -4.3770  -51.7670 C   0  0  0  0  0  0  0  0  0  0  0  0
    6.7530   -4.1290  -50.4260 C   0  0  0  0  0  0  0  0  0  0  0  0
    7.6030   -3.0810  -50.0770 C   0  0  0  0  0  0  0  0  0  0  0  0
    8.1640   -2.2760  -51.0700 C   0  0  0  0  0  0  0  0  0  0  0  0
    6.6495    0.2947  -52.5644 H   0  0  0  0  0  0  0  0  0  0  0  0
    6.7853    1.2520  -54.0783 H   0  0  0  0  0  0  0  0  0  0  0  0
    5.8924   -0.3066  -54.0783 H   0  0  0  0  0  0  0  0  0  0  0  0
   10.9680    0.5900  -56.3500 H   0  0  0  0  0  0  0  0  0  0  0  0
    9.9093    3.2843  -56.9328 H   0  0  0  0  0  0  0  0  0  0  0  0
   10.5442    1.2568  -59.1300 H   0  0  0  0  0  0  0  0  0  0  0  0
    8.9359    1.9984  -58.7431 H   0  0  0  0  0  0  0  0  0  0  0  0
   10.0591    3.0427  -60.7156 H   0  0  0  0  0  0  0  0  0  0  0  0
    9.7426    4.1915  -59.3500 H   0  0  0  0  0  0  0  0  0  0  0  0
   12.3979    2.8749  -60.0660 H   0  0  0  0  0  0  0  0  0  0  0  0
   11.9415    4.6198  -60.2415 H   0  0  0  0  0  0  0  0  0  0  0  0
   13.3643    4.1539  -58.2355 H   0  0  0  0  0  0  0  0  0  0  0  0
   11.7421    4.8665  -57.8517 H   0  0  0  0  0  0  0  0  0  0  0  0
   12.5697    1.9430  -57.6026 H   0  0  0  0  0  0  0  0  0  0  0  0
   12.2266    3.1191  -56.2653 H   0  0  0  0  0  0  0  0  0  0  0  0
   11.5560   -2.7163  -53.9211 H   0  0  0  0  0  0  0  0  0  0  0  0
   10.2354   -3.5562  -52.9670 H   0  0  0  0  0  0  0  0  0  0  0  0
   10.0796   -5.1019  -54.4999 H   0  0  0  0  0  0  0  0  0  0  0  0
    9.6835   -3.7870  -55.7311 H   0  0  0  0  0  0  0  0  0  0  0  0
   12.5283   -4.0153  -55.2455 H   0  0  0  0  0  0  0  0  0  0  0  0
   11.7636   -5.5712  -55.8376 H   0  0  0  0  0  0  0  0  0  0  0  0
   12.5617   -4.3282  -57.7411 H   0  0  0  0  0  0  0  0  0  0  0  0
   10.7723   -4.3050  -57.7298 H   0  0  0  0  0  0  0  0  0  0  0  0
   11.0950   -2.2610  -56.4600 H   0  0  0  0  0  0  0  0  0  0  0  0
    6.8016   -3.7751  -53.8199 H   0  0  0  0  0  0  0  0  0  0  0  0
    5.7956   -5.2056  -52.0415 H   0  0  0  0  0  0  0  0  0  0  0  0
    6.3091   -4.7608  -49.6426 H   0  0  0  0  0  0  0  0  0  0  0  0
    7.8319   -2.8881  -49.0185 H   0  0  0  0  0  0  0  0  0  0  0  0
    8.8372   -1.4517  -50.7919 H   0  0  0  0  0  0  0  0  0  0  0  0
  1  2  1  0
  2  3  1  0
  3  4  1  0
  4  5  2  0
  4  6  1  0
  6  7  1  0
  7  8  1  0
  8  9  1  0
  9 10  1  0
 10 11  1  0
 11 12  1  0
  3 13  2  0
 13 14  1  0
 14 15  1  0
 15 16  1  0
 16 17  1  0
 17 18  1  0
 18 19  1  0
 14 20  1  0
 20 21  1  0
 21 22  2  0
 22 23  1  0
 23 24  2  0
 24 25  1  0
 25 26  2  0
 20  2  2  0
 26 21  1  0
 12  7  1  0
  1 27  1  0
  1 28  1  0
  1 29  1  0
  6 30  1  0
  7 31  1  0
  8 32  1  0
  8 33  1  0
  9 34  1  0
  9 35  1  0
 10 36  1  0
 10 37  1  0
 11 38  1  0
 11 39  1  0
 12 40  1  0
 12 41  1  0
 15 42  1  0
 15 43  1  0
 16 44  1  0
 16 45  1  0
 17 46  1  0
 17 47  1  0
 18 48  1  0
 18 49  1  0
 19 50  1  0
 22 51  1  0
 23 52  1  0
 24 53  1  0
 25 54  1  0
 26 55  1  0
M  END
>  <meeko>  (66) 
{"is_sidechain": false}

$$$$

     RDKit          3D

 52 55  0  0  0  0  0  0  0  0999 V2000
    7.8220    0.6670  -53.8730 C   0  0  0  0  0  0  0  0  0  0  0  0
    8.8700   -0.0540  -54.6450 C   0  0  0  0  0  0  0  0  0  0  0  0
    9.6790    0.4610  -55.6980 C   0  0  0  0  0  0  0  0  0  0  0  0
    9.6290    1.7930  -56.3290 C   0  0  0  0  0  0  0  0  0  0  0  0
    9.9420    2.8280  -55.7460 O   0  0  0  0  0  0  0  0  0  0  0  0
    9.2120    1.7790  -57.6490 N   0  0  0  0  0  0  0  0  0  0  0  0
    9.0320    3.0030  -58.4170 C   0  0  0  0  0  0  0  0  0  0  0  0
    7.8520    2.8390  -59.3940 C   0  0  0  0  0  0  0  0  0  0  0  0
    8.0210    3.6970  -60.6420 C   0  0  0  0  0  0  0  0  0  0  0  0
    9.2820    3.3190  -61.4210 C   0  0  0  0  0  0  0  0  0  0  0  0
   10.4210    2.8140  -60.5300 C   0  0  0  0  0  0  0  0  0  0  0  0
   10.3400    3.3960  -59.1230 C   0  0  0  0  0  0  0  0  0  0  0  0
   10.5870   -0.4420  -56.0840 N   0  0  0  0  0  0  0  0  0  0  0  0
   10.3350   -1.5720  -55.3740 N   0  0  0  0  0  0  0  0  0  0  0  0
   11.0940   -2.7490  -55.6830 C   0  0  0  0  0  0  0  0  0  0  0  0
   11.5880   -2.9070  -56.9920 C   0  0  0  0  0  0  0  0  0  0  0  0
   12.3330   -4.0350  -57.3460 C   0  0  0  0  0  0  0  0  0  0  0  0
   12.5880   -5.0240  -56.4020 C   0  0  0  0  0  0  0  0  0  0  0  0
   12.0900   -4.8890  -55.1090 C   0  0  0  0  0  0  0  0  0  0  0  0
   11.3430   -3.7620  -54.7500 C   0  0  0  0  0  0  0  0  0  0  0  0
    9.3180   -1.3560  -54.4410 C   0  0  0  0  0  0  0  0  0  0  0  0
    8.8840   -2.2740  -53.3910 C   0  0  0  0  0  0  0  0  0  0  0  0
    9.4750   -2.2250  -52.1210 C   0  0  0  0  0  0  0  0  0  0  0  0
    9.0450   -3.0880  -51.1120 C   0  0  0  0  0  0  0  0  0  0  0  0
    8.0180   -3.9970  -51.3620 C   0  0  0  0  0  0  0  0  0  0  0  0
    7.4160   -4.0430  -52.6190 C   0  0  0  0  0  0  0  0  0  0  0  0
    7.8440   -3.1810  -53.6300 C   0  0  0  0  0  0  0  0  0  0  0  0
    8.0070    0.5397  -52.7962 H   0  0  0  0  0  0  0  0  0  0  0  0
    7.8512    1.7371  -54.1261 H   0  0  0  0  0  0  0  0  0  0  0  0
    6.8330    0.2572  -54.1261 H   0  0  0  0  0  0  0  0  0  0  0  0
    9.0110    0.8910  -58.0850 H   0  0  0  0  0  0  0  0  0  0  0  0
    8.7820    3.8319  -57.7385 H   0  0  0  0  0  0  0  0  0  0  0  0
    7.7844    1.7832  -59.6953 H   0  0  0  0  0  0  0  0  0  0  0  0
    6.9364    3.1650  -58.8789 H   0  0  0  0  0  0  0  0  0  0  0  0
    7.1448    3.5572  -61.2922 H   0  0  0  0  0  0  0  0  0  0  0  0
    8.1140    4.7468  -60.3268 H   0  0  0  0  0  0  0  0  0  0  0  0
    9.0236    2.5265  -62.1388 H   0  0  0  0  0  0  0  0  0  0  0  0
    9.6408    4.2317  -61.9193 H   0  0  0  0  0  0  0  0  0  0  0  0
   10.3632    1.7174  -60.4656 H   0  0  0  0  0  0  0  0  0  0  0  0
   11.3732    3.1341  -60.9781 H   0  0  0  0  0  0  0  0  0  0  0  0
   11.1895    3.0212  -58.5332 H   0  0  0  0  0  0  0  0  0  0  0  0
   10.3685    4.4926  -59.2044 H   0  0  0  0  0  0  0  0  0  0  0  0
   11.3848   -2.1322  -57.7460 H   0  0  0  0  0  0  0  0  0  0  0  0
   12.7177   -4.1407  -58.3711 H   0  0  0  0  0  0  0  0  0  0  0  0
   13.1807   -5.9092  -56.6759 H   0  0  0  0  0  0  0  0  0  0  0  0
   12.2854   -5.6744  -54.3640 H   0  0  0  0  0  0  0  0  0  0  0  0
   10.9485   -3.6714  -53.7272 H   0  0  0  0  0  0  0  0  0  0  0  0
   10.2806   -1.5038  -51.9189 H   0  0  0  0  0  0  0  0  0  0  0  0
    9.5167   -3.0509  -50.1189 H   0  0  0  0  0  0  0  0  0  0  0  0
    7.6821   -4.6788  -50.5668 H   0  0  0  0  0  0  0  0  0  0  0  0
    6.6037   -4.7587  -52.8139 H   0  0  0  0  0  0  0  0  0  0  0  0
    7.3625   -3.2142  -54.6185 H   0  0  0  0  0  0  0  0  0  0  0  0
  1  2  1  0
  2  3  1  0
  3  4  1  0
  4  5  2  0
  4  6  1  0
  6  7  1  0
  7  8  1  0
  8  9  1  0
  9 10  1  0
 10 11  1  0
 11 12  1  0
  3 13  2  0
 13 14  1  0
 14 15  1  0
 15 16  2  0
 16 17  1  0
 17 18  2  0
 18 19  1  0
 19 20  2  0
 14 21  1  0
 21 22  1  0
 22 23  2  0
 23 24  1  0
 24 25  2  0
 25 26  1  0
 26 27  2  0
 21  2  2  0
 27 22  1  0
 12  7  1  0
 20 15  1  0
  1 28  1  0
  1 29  1  0
  1 30  1  0
  6 31  1  0
  7 32  1  0
  8 33  1  0
  8 34  1  0
  9 35  1  0
  9 36  1  0
 10 37  1  0
 10 38  1  0
 11 39  1  0
 11 40  1  0
 12 41  1  0
 12 42  1  0
 16 43  1  0
 17 44  1  0
 18 45  1  0
 19 46  1  0
 20 47  1  0
 23 48  1  0
 24 49  1  0
 25 50  1  0
 26 51  1  0
 27 52  1  0
M  END
>  <meeko>  (67) 
{"is_sidechain": false}

$$$$

     RDKit          3D

 59 63  0  0  0  0  0  0  0  0999 V2000
   10.7200   -4.5210  -56.5600 C   0  0  0  0  0  0  0  0  0  0  0  0
   10.2540   -3.9320  -55.2380 C   0  0  0  0  0  0  0  0  0  0  0  0
   11.1320   -2.7820  -54.7430 C   0  0  0  0  0  0  0  0  0  0  0  0
   10.5240   -2.0280  -53.5610 C   0  0  0  0  0  0  0  0  0  0  0  0
    9.3320   -1.2880  -53.9470 N   0  0  0  0  0  0  0  0  0  0  0  0
    9.4410   -0.3330  -54.8970 N   0  0  0  0  0  0  0  0  0  0  0  0
    8.1980    0.1850  -54.9870 C   0  0  0  0  0  0  0  0  0  0  0  0
    7.8760    1.2780  -55.9190 C   0  0  0  0  0  0  0  0  0  0  0  0
    6.7360    1.7010  -56.0730 O   0  0  0  0  0  0  0  0  0  0  0  0
    8.9870    1.7570  -56.5790 N   0  0  0  0  0  0  0  0  0  0  0  0
    9.0090    2.8330  -57.5630 C   0  0  2  0  0  0  0  0  0  0  0  0
   10.4140    2.8710  -58.2220 C   0  0  0  0  0  0  0  0  0  0  0  0
   10.5010    3.9890  -59.2720 C   0  0  1  0  0  0  0  0  0  0  0  0
    9.4420    3.7450  -60.3580 C   0  0  0  0  0  0  0  0  0  0  0  0
    8.0390    3.7310  -59.7310 C   0  0  2  0  0  0  0  0  0  0  0  0
    7.7770    5.0820  -59.0440 C   0  0  0  0  0  0  0  0  0  0  0  0
    8.8320    5.3360  -57.9540 C   0  0  2  0  0  0  0  0  0  0  0  0
   10.2300    5.3400  -58.5920 C   0  0  0  0  0  0  0  0  0  0  0  0
    8.7550    4.2120  -56.9040 C   0  0  0  0  0  0  0  0  0  0  0  0
    7.9630    2.6070  -58.6820 C   0  0  0  0  0  0  0  0  0  0  0  0
    7.3140   -0.4580  -54.0880 C   0  0  0  0  0  0  0  0  0  0  0  0
    8.0630   -1.4150  -53.4340 C   0  0  0  0  0  0  0  0  0  0  0  0
    7.6680   -2.3540  -52.3950 C   0  0  0  0  0  0  0  0  0  0  0  0
    7.9340   -2.0770  -51.0490 C   0  0  0  0  0  0  0  0  0  0  0  0
    7.5470   -2.9780  -50.0550 C   0  0  0  0  0  0  0  0  0  0  0  0
    6.8960   -4.1610  -50.4010 C   0  0  0  0  0  0  0  0  0  0  0  0
    6.6370   -4.4480  -51.7410 C   0  0  0  0  0  0  0  0  0  0  0  0
    7.0240   -3.5500  -52.7350 C   0  0  0  0  0  0  0  0  0  0  0  0
   11.3919   -5.3702  -56.3665 H   0  0  0  0  0  0  0  0  0  0  0  0
    9.8483   -4.8667  -57.1350 H   0  0  0  0  0  0  0  0  0  0  0  0
   11.2570   -3.7522  -57.1350 H   0  0  0  0  0  0  0  0  0  0  0  0
    9.2277   -3.5573  -55.3656 H   0  0  0  0  0  0  0  0  0  0  0  0
   10.3135   -4.7330  -54.4864 H   0  0  0  0  0  0  0  0  0  0  0  0
   12.1044   -3.1925  -54.4333 H   0  0  0  0  0  0  0  0  0  0  0  0
   11.2318   -2.0658  -55.5720 H   0  0  0  0  0  0  0  0  0  0  0  0
   10.2555   -2.7516  -52.7773 H   0  0  0  0  0  0  0  0  0  0  0  0
   11.2701   -1.3073  -53.1952 H   0  0  0  0  0  0  0  0  0  0  0  0
    9.8510    1.2830  -56.3210 H   0  0  0  0  0  0  0  0  0  0  0  0
   11.1712    3.0487  -57.4441 H   0  0  0  0  0  0  0  0  0  0  0  0
   10.5924    1.9073  -58.7214 H   0  0  0  0  0  0  0  0  0  0  0  0
   11.5024    3.9970  -59.7271 H   0  0  0  0  0  0  0  0  0  0  0  0
    9.4978    4.5478  -61.1079 H   0  0  0  0  0  0  0  0  0  0  0  0
    9.6331    2.7732  -60.8366 H   0  0  0  0  0  0  0  0  0  0  0  0
    7.2854    3.5600  -60.5138 H   0  0  0  0  0  0  0  0  0  0  0  0
    7.8270    5.8863  -59.7927 H   0  0  0  0  0  0  0  0  0  0  0  0
    6.7794    5.0621  -58.5809 H   0  0  0  0  0  0  0  0  0  0  0  0
    8.6429    6.3070  -57.4730 H   0  0  0  0  0  0  0  0  0  0  0  0
   10.2860    6.1430  -59.3418 H   0  0  0  0  0  0  0  0  0  0  0  0
   10.9839    5.5078  -57.8088 H   0  0  0  0  0  0  0  0  0  0  0  0
    9.5157    4.3882  -56.1292 H   0  0  0  0  0  0  0  0  0  0  0  0
    7.7499    4.2121  -56.4569 H   0  0  0  0  0  0  0  0  0  0  0  0
    6.9565    2.5941  -58.2385 H   0  0  0  0  0  0  0  0  0  0  0  0
    8.1741    1.6469  -59.1756 H   0  0  0  0  0  0  0  0  0  0  0  0
    6.2461   -0.2392  -53.9404 H   0  0  0  0  0  0  0  0  0  0  0  0
    8.4501   -1.1456  -50.7731 H   0  0  0  0  0  0  0  0  0  0  0  0
    7.7559   -2.7542  -48.9985 H   0  0  0  0  0  0  0  0  0  0  0  0
    6.5866   -4.8681  -49.6172 H   0  0  0  0  0  0  0  0  0  0  0  0
    6.1270   -5.3836  -52.0140 H   0  0  0  0  0  0  0  0  0  0  0  0
    6.8225   -3.7822  -53.7912 H   0  0  0  0  0  0  0  0  0  0  0  0
  1  2  1  0
  2  3  1  0
  3  4  1  0
  4  5  1  0
  5  6  1  0
  6  7  2  0
  7  8  1  0
  8  9  2  0
  8 10  1  0
 11 10  1  1
 11 12  1  0
 12 13  1  0
 13 14  1  0
 14 15  1  0
 15 16  1  0
 16 17  1  0
 17 18  1  0
 17 19  1  0
 15 20  1  0
  7 21  1  0
 21 22  2  0
 22 23  1  0
 23 24  2  0
 24 25  1  0
 25 26  2  0
 26 27  1  0
 27 28  2  0
 22  5  1  0
 28 23  1  0
 19 11  1  0
 20 11  1  0
 18 13  1  0
  1 29  1  0
  1 30  1  0
  1 31  1  0
  2 32  1  0
  2 33  1  0
  3 34  1  0
  3 35  1  0
  4 36  1  0
  4 37  1  0
 10 38  1  0
 12 39  1  0
 12 40  1  0
 13 41  1  6
 14 42  1  0
 14 43  1  0
 15 44  1  6
 16 45  1  0
 16 46  1  0
 17 47  1  1
 18 48  1  0
 18 49  1  0
 19 50  1  0
 19 51  1  0
 20 52  1  0
 20 53  1  0
 21 54  1  0
 24 55  1  0
 25 56  1  0
 26 57  1  0
 27 58  1  0
 28 59  1  0
M  END
>  <meeko>  (68) 
{"is_sidechain": false}

$$$$

     RDKit          3D

 52 54  0  0  0  0  0  0  0  0999 V2000
    6.6750    0.1830  -53.6810 C   0  0  0  0  0  0  0  0  0  0  0  0
    7.9720   -0.4690  -54.0030 C   0  0  0  0  0  0  0  0  0  0  0  0
    8.9390   -0.0680  -54.9810 C   0  0  0  0  0  0  0  0  0  0  0  0
    8.9120    1.1060  -55.8760 C   0  0  0  0  0  0  0  0  0  0  0  0
    7.9150    1.8070  -56.0290 O   0  0  0  0  0  0  0  0  0  0  0  0
   10.1020    1.3430  -56.5420 N   0  0  0  0  0  0  0  0  0  0  0  0
   10.2880    2.4990  -57.4020 C   0  0  0  0  0  0  0  0  0  0  0  0
   11.7570    2.9320  -57.4280 C   0  0  0  0  0  0  0  0  0  0  0  0
   11.9620    4.2090  -58.2450 C   0  0  0  0  0  0  0  0  0  0  0  0
   10.9290    4.3970  -59.3570 C   0  0  0  0  0  0  0  0  0  0  0  0
   10.4380    3.0640  -59.9040 C   0  0  0  0  0  0  0  0  0  0  0  0
    9.7750    2.2070  -58.8220 C   0  0  0  0  0  0  0  0  0  0  0  0
    9.9610   -0.9400  -55.0270 N   0  0  0  0  0  0  0  0  0  0  0  0
    9.6720   -1.8580  -54.0870 N   0  0  0  0  0  0  0  0  0  0  0  0
   10.5960   -2.9620  -53.9010 C   0  0  0  0  0  0  0  0  0  0  0  0
   10.4590   -4.0560  -54.9600 C   0  0  0  0  0  0  0  0  0  0  0  0
   11.5540   -4.0520  -56.0210 C   0  0  0  0  0  0  0  0  0  0  0  0
   11.4870   -2.8810  -56.8180 O   0  0  0  0  0  0  0  0  0  0  0  0
    8.4900   -1.6240  -53.4340 C   0  0  0  0  0  0  0  0  0  0  0  0
    7.9440   -2.4820  -52.3910 C   0  0  0  0  0  0  0  0  0  0  0  0
    7.1550   -3.5870  -52.7290 C   0  0  0  0  0  0  0  0  0  0  0  0
    6.6350   -4.4100  -51.7290 C   0  0  0  0  0  0  0  0  0  0  0  0
    6.8990   -4.1310  -50.3890 C   0  0  0  0  0  0  0  0  0  0  0  0
    7.6790   -3.0280  -50.0450 C   0  0  0  0  0  0  0  0  0  0  0  0
    8.1990   -2.2030  -51.0440 C   0  0  0  0  0  0  0  0  0  0  0  0
    6.5558    0.2429  -52.5891 H   0  0  0  0  0  0  0  0  0  0  0  0
    6.6582    1.1967  -54.1078 H   0  0  0  0  0  0  0  0  0  0  0  0
    5.8514   -0.4082  -54.1078 H   0  0  0  0  0  0  0  0  0  0  0  0
   10.8690    0.7020  -56.3980 H   0  0  0  0  0  0  0  0  0  0  0  0
    9.6990    3.3314  -56.9894 H   0  0  0  0  0  0  0  0  0  0  0  0
   12.0927    3.1125  -56.3961 H   0  0  0  0  0  0  0  0  0  0  0  0
   12.3406    2.1282  -57.9005 H   0  0  0  0  0  0  0  0  0  0  0  0
   11.9009    5.0709  -57.5643 H   0  0  0  0  0  0  0  0  0  0  0  0
   12.9462    4.1274  -58.7295 H   0  0  0  0  0  0  0  0  0  0  0  0
   10.0704    4.9547  -58.9548 H   0  0  0  0  0  0  0  0  0  0  0  0
   11.4085    4.9482  -60.1794 H   0  0  0  0  0  0  0  0  0  0  0  0
    9.7061    3.2561  -60.7024 H   0  0  0  0  0  0  0  0  0  0  0  0
   11.3098    2.5127  -60.2862 H   0  0  0  0  0  0  0  0  0  0  0  0
    8.6915    2.3951  -58.8454 H   0  0  0  0  0  0  0  0  0  0  0  0
   10.0237    1.1589  -59.0446 H   0  0  0  0  0  0  0  0  0  0  0  0
   11.6221   -2.5675  -53.9385 H   0  0  0  0  0  0  0  0  0  0  0  0
   10.3611   -3.4207  -52.9292 H   0  0  0  0  0  0  0  0  0  0  0  0
   10.4780   -5.0309  -54.4508 H   0  0  0  0  0  0  0  0  0  0  0  0
    9.5130   -3.8633  -55.4872 H   0  0  0  0  0  0  0  0  0  0  0  0
   12.5350   -4.0937  -55.5252 H   0  0  0  0  0  0  0  0  0  0  0  0
   11.4131   -4.9271  -56.6724 H   0  0  0  0  0  0  0  0  0  0  0  0
   11.1140   -2.1780  -56.2380 H   0  0  0  0  0  0  0  0  0  0  0  0
    6.9440   -3.8076  -53.7858 H   0  0  0  0  0  0  0  0  0  0  0  0
    6.0167   -5.2790  -51.9983 H   0  0  0  0  0  0  0  0  0  0  0  0
    6.4912   -4.7822  -49.6018 H   0  0  0  0  0  0  0  0  0  0  0  0
    7.8846   -2.8078  -48.9871 H   0  0  0  0  0  0  0  0  0  0  0  0
    8.8112   -1.3308  -50.7712 H   0  0  0  0  0  0  0  0  0  0  0  0
  1  2  1  0
  2  3  1  0
  3  4  1  0
  4  5  2  0
  4  6  1  0
  6  7  1  0
  7  8  1  0
  8  9  1  0
  9 10  1  0
 10 11  1  0
 11 12  1  0
  3 13  2  0
 13 14  1  0
 14 15  1  0
 15 16  1  0
 16 17  1  0
 17 18  1  0
 14 19  1  0
 19 20  1  0
 20 21  2  0
 21 22  1  0
 22 23  2  0
 23 24  1  0
 24 25  2  0
 19  2  2  0
 25 20  1  0
 12  7  1  0
  1 26  1  0
  1 27  1  0
  1 28  1  0
  6 29  1  0
  7 30  1  0
  8 31  1  0
  8 32  1  0
  9 33  1  0
  9 34  1  0
 10 35  1  0
 10 36  1  0
 11 37  1  0
 11 38  1  0
 12 39  1  0
 12 40  1  0
 15 41  1  0
 15 42  1  0
 16 43  1  0
 16 44  1  0
 17 45  1  0
 17 46  1  0
 18 47  1  0
 21 48  1  0
 22 49  1  0
 23 50  1  0
 24 51  1  0
 25 52  1  0
M  END
>  <meeko>  (69) 
{"is_sidechain": false}

$$$$

     RDKit          3D

 49 53  0  0  0  0  0  0  0  0999 V2000
    6.5060    2.1260  -56.7720 O   0  0  0  0  0  0  0  0  0  0  0  0
    7.5710    1.6370  -56.4160 C   0  0  0  0  0  0  0  0  0  0  0  0
    8.7990    1.9440  -56.9680 N   0  0  0  0  0  0  0  0  0  0  0  0
    8.9920    2.8760  -58.0880 C   0  0  2  0  0  0  0  0  0  0  0  0
    8.0120    2.5910  -59.2560 C   0  0  0  0  0  0  0  0  0  0  0  0
    8.2060    3.6160  -60.3880 C   0  0  1  0  0  0  0  0  0  0  0  0
    7.9320    5.0280  -59.8480 C   0  0  0  0  0  0  0  0  0  0  0  0
    8.9010    5.3480  -58.7000 C   0  0  2  0  0  0  0  0  0  0  0  0
   10.3460    5.2690  -59.2170 C   0  0  0  0  0  0  0  0  0  0  0  0
   10.6360    3.8580  -59.7530 C   0  0  2  0  0  0  0  0  0  0  0  0
    9.6560    3.5400  -60.8960 C   0  0  0  0  0  0  0  0  0  0  0  0
   10.4450    2.8340  -58.6210 C   0  0  0  0  0  0  0  0  0  0  0  0
    8.7100    4.3160  -57.5770 C   0  0  0  0  0  0  0  0  0  0  0  0
    7.5700    0.6140  -55.3450 C   0  0  0  0  0  0  0  0  0  0  0  0
    8.7580    0.2900  -54.6940 C   0  0  0  0  0  0  0  0  0  0  0  0
    8.7510   -0.6790  -53.6890 C   0  0  0  0  0  0  0  0  0  0  0  0
    7.5530   -1.3170  -53.3550 C   0  0  0  0  0  0  0  0  0  0  0  0
    7.4570   -2.3500  -52.3030 C   0  0  0  0  0  0  0  0  0  0  0  0
    8.1560   -2.2500  -51.0860 C   0  0  0  0  0  0  0  0  0  0  0  0
    8.0490   -3.2360  -50.0980 C   0  0  0  0  0  0  0  0  0  0  0  0
    7.2400   -4.3490  -50.3080 C   0  0  0  0  0  0  0  0  0  0  0  0
    6.5460   -4.4800  -51.5060 C   0  0  0  0  0  0  0  0  0  0  0  0
    6.6570   -3.4930  -52.4910 C   0  0  0  0  0  0  0  0  0  0  0  0
    6.3900   -1.0080  -53.9910 N   0  0  0  0  0  0  0  0  0  0  0  0
    6.4270   -0.0720  -54.9720 C   0  0  0  0  0  0  0  0  0  0  0  0
    9.5640    1.3080  -56.7860 H   0  0  0  0  0  0  0  0  0  0  0  0
    8.2000    1.5803  -59.6473 H   0  0  0  0  0  0  0  0  0  0  0  0
    6.9809    2.6679  -58.8807 H   0  0  0  0  0  0  0  0  0  0  0  0
    7.5113    3.3942  -61.2115 H   0  0  0  0  0  0  0  0  0  0  0  0
    8.0706    5.7606  -60.6567 H   0  0  0  0  0  0  0  0  0  0  0  0
    6.8990    5.0774  -59.4732 H   0  0  0  0  0  0  0  0  0  0  0  0
    8.6999    6.3592  -58.3164 H   0  0  0  0  0  0  0  0  0  0  0  0
   10.4840    6.0015  -60.0260 H   0  0  0  0  0  0  0  0  0  0  0  0
   11.0377    5.4908  -58.3910 H   0  0  0  0  0  0  0  0  0  0  0  0
   11.6699    3.8082  -60.1251 H   0  0  0  0  0  0  0  0  0  0  0  0
    9.7954    4.2691  -61.7078 H   0  0  0  0  0  0  0  0  0  0  0  0
    9.8540    2.5234  -61.2667 H   0  0  0  0  0  0  0  0  0  0  0  0
   10.6602    1.8260  -59.0052 H   0  0  0  0  0  0  0  0  0  0  0  0
   11.1319    3.0822  -57.7985 H   0  0  0  0  0  0  0  0  0  0  0  0
    9.4026    4.5476  -56.7544 H   0  0  0  0  0  0  0  0  0  0  0  0
    7.6675    4.3660  -57.2296 H   0  0  0  0  0  0  0  0  0  0  0  0
    9.6958    0.7944  -54.9700 H   0  0  0  0  0  0  0  0  0  0  0  0
    9.6819   -0.9386  -53.1636 H   0  0  0  0  0  0  0  0  0  0  0  0
    8.8012   -1.3773  -50.9068 H   0  0  0  0  0  0  0  0  0  0  0  0
    8.6049   -3.1310  -49.1546 H   0  0  0  0  0  0  0  0  0  0  0  0
    7.1500   -5.1214  -49.5300 H   0  0  0  0  0  0  0  0  0  0  0  0
    5.9094   -5.3602  -51.6791 H   0  0  0  0  0  0  0  0  0  0  0  0
    6.1058   -3.6129  -53.4354 H   0  0  0  0  0  0  0  0  0  0  0  0
    5.4914    0.1559  -55.5037 H   0  0  0  0  0  0  0  0  0  0  0  0
  1  2  2  0
  2  3  1  0
  4  3  1  1
  4  5  1  0
  5  6  1  0
  6  7  1  0
  7  8  1  0
  8  9  1  0
  9 10  1  0
 10 11  1  0
 10 12  1  0
  8 13  1  0
  2 14  1  0
 14 15  2  0
 15 16  1  0
 16 17  2  0
 17 18  1  0
 18 19  2  0
 19 20  1  0
 20 21  2  0
 21 22  1  0
 22 23  2  0
 17 24  1  0
 24 25  2  0
 12  4  1  0
 25 14  1  0
 13  4  1  0
 23 18  1  0
 11  6  1  0
  3 26  1  0
  5 27  1  0
  5 28  1  0
  6 29  1  6
  7 30  1  0
  7 31  1  0
  8 32  1  1
  9 33  1  0
  9 34  1  0
 10 35  1  6
 11 36  1  0
 11 37  1  0
 12 38  1  0
 12 39  1  0
 13 40  1  0
 13 41  1  0
 15 42  1  0
 16 43  1  0
 19 44  1  0
 20 45  1  0
 21 46  1  0
 22 47  1  0
 23 48  1  0
 25 49  1  0
M  END
>  <meeko>  (70) 
{"is_sidechain": false}

$$$$

     RDKit          3D

 55 58  0  0  0  0  0  0  0  0999 V2000
    5.7250   -0.3320  -53.5250 C   0  0  0  0  0  0  0  0  0  0  0  0
    7.1260   -0.5200  -53.9850 C   0  0  0  0  0  0  0  0  0  0  0  0
    7.8200    0.2050  -55.0080 C   0  0  0  0  0  0  0  0  0  0  0  0
    7.3030    1.2750  -55.8820 C   0  0  0  0  0  0  0  0  0  0  0  0
    6.1220    1.3730  -56.2030 O   0  0  0  0  0  0  0  0  0  0  0  0
    8.2680    2.1740  -56.3060 N   0  0  0  0  0  0  0  0  0  0  0  0
    7.9710    3.2450  -57.2410 C   0  0  0  0  0  0  0  0  0  0  0  0
    8.7280    4.5260  -56.8560 C   0  0  0  0  0  0  0  0  0  0  0  0
    8.9710    5.4730  -58.0350 C   0  0  0  0  0  0  0  0  0  0  0  0
    7.9170    5.3170  -59.1210 C   0  0  0  0  0  0  0  0  0  0  0  0
    7.8950    3.8980  -59.6910 C   0  0  0  0  0  0  0  0  0  0  0  0
    8.2970    2.8240  -58.6760 C   0  0  0  0  0  0  0  0  0  0  0  0
    9.0940   -0.2090  -55.1060 N   0  0  0  0  0  0  0  0  0  0  0  0
    9.2060   -1.2030  -54.2030 N   0  0  0  0  0  0  0  0  0  0  0  0
   10.4950   -1.8720  -54.0480 C   0  0  0  0  0  0  0  0  0  0  0  0
   10.8480   -2.7180  -55.2480 C   0  0  0  0  0  0  0  0  0  0  0  0
   11.5880   -2.1770  -56.3100 C   0  0  0  0  0  0  0  0  0  0  0  0
   11.9180   -2.9600  -57.4170 C   0  0  0  0  0  0  0  0  0  0  0  0
   11.5140   -4.2930  -57.4730 C   0  0  0  0  0  0  0  0  0  0  0  0
   10.7830   -4.8440  -56.4230 C   0  0  0  0  0  0  0  0  0  0  0  0
   10.4540   -4.0620  -55.3130 C   0  0  0  0  0  0  0  0  0  0  0  0
    8.0520   -1.4270  -53.4900 C   0  0  0  0  0  0  0  0  0  0  0  0
    7.9150   -2.4270  -52.4410 C   0  0  0  0  0  0  0  0  0  0  0  0
    7.5270   -3.7330  -52.7610 C   0  0  0  0  0  0  0  0  0  0  0  0
    7.4000   -4.6930  -51.7570 C   0  0  0  0  0  0  0  0  0  0  0  0
    7.6540   -4.3520  -50.4290 C   0  0  0  0  0  0  0  0  0  0  0  0
    8.0340   -3.0500  -50.1030 C   0  0  0  0  0  0  0  0  0  0  0  0
    8.1630   -2.0880  -51.1060 C   0  0  0  0  0  0  0  0  0  0  0  0
    5.6975   -0.3283  -52.4254 H   0  0  0  0  0  0  0  0  0  0  0  0
    5.3398    0.6259  -53.9046 H   0  0  0  0  0  0  0  0  0  0  0  0
    5.1009   -1.1545  -53.9046 H   0  0  0  0  0  0  0  0  0  0  0  0
    9.2150    2.0510  -55.9740 H   0  0  0  0  0  0  0  0  0  0  0  0
    6.8929    3.4571  -57.1897 H   0  0  0  0  0  0  0  0  0  0  0  0
    8.1409    5.0614  -56.0953 H   0  0  0  0  0  0  0  0  0  0  0  0
    9.7152    4.2170  -56.4820 H   0  0  0  0  0  0  0  0  0  0  0  0
    8.9508    6.5096  -57.6674 H   0  0  0  0  0  0  0  0  0  0  0  0
    9.9486    5.2241  -58.4735 H   0  0  0  0  0  0  0  0  0  0  0  0
    6.9292    5.5446  -58.6939 H   0  0  0  0  0  0  0  0  0  0  0  0
    8.1632    6.0103  -59.9387 H   0  0  0  0  0  0  0  0  0  0  0  0
    6.8758    3.6801  -60.0427 H   0  0  0  0  0  0  0  0  0  0  0  0
    8.6340    3.8656  -60.5051 H   0  0  0  0  0  0  0  0  0  0  0  0
    7.7538    1.8957  -58.9065 H   0  0  0  0  0  0  0  0  0  0  0  0
    9.3845    2.6755  -58.7492 H   0  0  0  0  0  0  0  0  0  0  0  0
   11.2755   -1.1091  -53.9107 H   0  0  0  0  0  0  0  0  0  0  0  0
   10.4266   -2.5374  -53.1748 H   0  0  0  0  0  0  0  0  0  0  0  0
   11.9110   -1.1263  -56.2698 H   0  0  0  0  0  0  0  0  0  0  0  0
   12.4968   -2.5254  -58.2453 H   0  0  0  0  0  0  0  0  0  0  0  0
   11.7725   -4.9098  -58.3464 H   0  0  0  0  0  0  0  0  0  0  0  0
   10.4645   -5.8959  -56.4679 H   0  0  0  0  0  0  0  0  0  0  0  0
    9.8817   -4.5039  -54.4840 H   0  0  0  0  0  0  0  0  0  0  0  0
    7.3216   -4.0033  -53.8073 H   0  0  0  0  0  0  0  0  0  0  0  0
    7.0993   -5.7197  -52.0130 H   0  0  0  0  0  0  0  0  0  0  0  0
    7.5547   -5.1100  -49.6381 H   0  0  0  0  0  0  0  0  0  0  0  0
    8.2321   -2.7813  -49.0549 H   0  0  0  0  0  0  0  0  0  0  0  0
    8.4602   -1.0612  -50.8466 H   0  0  0  0  0  0  0  0  0  0  0  0
  1  2  1  0
  2  3  1  0
  3  4  1  0
  4  5  2  0
  4  6  1  0
  6  7  1  0
  7  8  1  0
  8  9  1  0
  9 10  1  0
 10 11  1  0
 11 12  1  0
  3 13  2  0
 13 14  1  0
 14 15  1  0
 15 16  1  0
 16 17  2  0
 17 18  1  0
 18 19  2  0
 19 20  1  0
 20 21  2  0
 14 22  1  0
 22 23  1  0
 23 24  2  0
 24 25  1  0
 25 26  2  0
 26 27  1  0
 27 28  2  0
 22  2  2  0
 28 23  1  0
 12  7  1  0
 21 16  1  0
  1 29  1  0
  1 30  1  0
  1 31  1  0
  6 32  1  0
  7 33  1  0
  8 34  1  0
  8 35  1  0
  9 36  1  0
  9 37  1  0
 10 38  1  0
 10 39  1  0
 11 40  1  0
 11 41  1  0
 12 42  1  0
 12 43  1  0
 15 44  1  0
 15 45  1  0
 17 46  1  0
 18 47  1  0
 19 48  1  0
 20 49  1  0
 21 50  1  0
 24 51  1  0
 25 52  1  0
 26 53  1  0
 27 54  1  0
 28 55  1  0
M  END
>  <meeko>  (71) 
{"is_sidechain": false}

$$$$

     RDKit          3D

 54 58  0  0  0  0  0  0  0  0999 V2000
    7.0070    0.0130  -52.7210 C   0  0  0  0  0  0  0  0  0  0  0  0
    8.1430   -0.4110  -53.6110 C   0  0  0  0  0  0  0  0  0  0  0  0
    8.5180    0.4940  -54.5450 N   0  0  0  0  0  0  0  0  0  0  0  0
    9.5380    0.1280  -55.3530 C   0  0  0  0  0  0  0  0  0  0  0  0
    9.9570    1.1390  -56.3990 C   0  0  0  0  0  0  0  0  0  0  0  0
   11.1210    1.2620  -56.7650 O   0  0  0  0  0  0  0  0  0  0  0  0
    8.9090    1.9040  -56.8920 N   0  0  0  0  0  0  0  0  0  0  0  0
    9.0180    2.9530  -57.9050 C   0  0  2  0  0  0  0  0  0  0  0  0
    9.7820    4.1880  -57.3680 C   0  0  0  0  0  0  0  0  0  0  0  0
    9.8380    5.2950  -58.4360 C   0  0  1  0  0  0  0  0  0  0  0  0
   10.5460    4.7540  -59.6890 C   0  0  0  0  0  0  0  0  0  0  0  0
    9.7760    3.5490  -60.2530 C   0  0  2  0  0  0  0  0  0  0  0  0
    8.3450    3.9820  -60.6110 C   0  0  0  0  0  0  0  0  0  0  0  0
    7.6310    4.5160  -59.3600 C   0  0  2  0  0  0  0  0  0  0  0  0
    8.4080    5.7200  -58.8040 C   0  0  0  0  0  0  0  0  0  0  0  0
    7.5860    3.4090  -58.2950 C   0  0  0  0  0  0  0  0  0  0  0  0
    9.7200    2.4400  -59.1870 C   0  0  0  0  0  0  0  0  0  0  0  0
   10.1980   -1.0410  -55.3050 N   0  0  0  0  0  0  0  0  0  0  0  0
    9.8000   -1.9220  -54.3610 C   0  0  0  0  0  0  0  0  0  0  0  0
   10.5570   -3.2210  -54.3320 C   0  0  0  0  0  0  0  0  0  0  0  0
    8.7570   -1.6610  -53.4670 C   0  0  0  0  0  0  0  0  0  0  0  0
    8.3360   -2.6280  -52.4470 C   0  0  0  0  0  0  0  0  0  0  0  0
    8.9100   -2.6150  -51.1660 C   0  0  0  0  0  0  0  0  0  0  0  0
    8.5080   -3.5360  -50.1960 C   0  0  0  0  0  0  0  0  0  0  0  0
    7.5290   -4.4810  -50.4940 C   0  0  0  0  0  0  0  0  0  0  0  0
    6.9500   -4.5080  -51.7610 C   0  0  0  0  0  0  0  0  0  0  0  0
    7.3510   -3.5870  -52.7320 C   0  0  0  0  0  0  0  0  0  0  0  0
    7.3050   -0.0982  -51.6680 H   0  0  0  0  0  0  0  0  0  0  0  0
    6.7567    1.0651  -52.9221 H   0  0  0  0  0  0  0  0  0  0  0  0
    6.1286   -0.6178  -52.9221 H   0  0  0  0  0  0  0  0  0  0  0  0
    7.9980    1.6900  -56.4930 H   0  0  0  0  0  0  0  0  0  0  0  0
    9.2667    4.5722  -56.4754 H   0  0  0  0  0  0  0  0  0  0  0  0
   10.8091    3.8874  -57.1137 H   0  0  0  0  0  0  0  0  0  0  0  0
   10.3903    6.1612  -58.0428 H   0  0  0  0  0  0  0  0  0  0  0  0
   10.5915    5.5457  -60.4514 H   0  0  0  0  0  0  0  0  0  0  0  0
   11.5635    4.4358  -59.4180 H   0  0  0  0  0  0  0  0  0  0  0  0
   10.2840    3.1731  -61.1534 H   0  0  0  0  0  0  0  0  0  0  0  0
    8.3837    4.7731  -61.3743 H   0  0  0  0  0  0  0  0  0  0  0  0
    7.7916    3.1151  -61.0011 H   0  0  0  0  0  0  0  0  0  0  0  0
    6.6082    4.8253  -59.6213 H   0  0  0  0  0  0  0  0  0  0  0  0
    8.4477    6.5120  -59.5663 H   0  0  0  0  0  0  0  0  0  0  0  0
    7.8988    6.0952  -57.9040 H   0  0  0  0  0  0  0  0  0  0  0  0
    7.0741    3.7918  -57.3998 H   0  0  0  0  0  0  0  0  0  0  0  0
    7.0443    2.5460  -58.7095 H   0  0  0  0  0  0  0  0  0  0  0  0
    9.1604    1.5816  -59.5870 H   0  0  0  0  0  0  0  0  0  0  0  0
   10.7471    2.1389  -58.9333 H   0  0  0  0  0  0  0  0  0  0  0  0
   10.7315   -3.5205  -53.2880 H   0  0  0  0  0  0  0  0  0  0  0  0
    9.9706   -3.9986  -54.8434 H   0  0  0  0  0  0  0  0  0  0  0  0
   11.5226   -3.0942  -54.8434 H   0  0  0  0  0  0  0  0  0  0  0  0
    9.6841   -1.8720  -50.9237 H   0  0  0  0  0  0  0  0  0  0  0  0
    8.9650   -3.5151  -49.1956 H   0  0  0  0  0  0  0  0  0  0  0  0
    7.2131   -5.2058  -49.7292 H   0  0  0  0  0  0  0  0  0  0  0  0
    6.1772   -5.2544  -51.9968 H   0  0  0  0  0  0  0  0  0  0  0  0
    6.8901   -3.6135  -53.7304 H   0  0  0  0  0  0  0  0  0  0  0  0
  1  2  1  0
  2  3  1  0
  3  4  2  0
  4  5  1  0
  5  6  2  0
  5  7  1  0
  8  7  1  1
  8  9  1  0
  9 10  1  0
 10 11  1  0
 11 12  1  0
 12 13  1  0
 13 14  1  0
 14 15  1  0
 14 16  1  0
 12 17  1  0
  4 18  1  0
 18 19  2  0
 19 20  1  0
 19 21  1  0
 21 22  1  0
 22 23  2  0
 23 24  1  0
 24 25  2  0
 25 26  1  0
 26 27  2  0
 21  2  2  0
 27 22  1  0
 16  8  1  0
 17  8  1  0
 15 10  1  0
  1 28  1  0
  1 29  1  0
  1 30  1  0
  7 31  1  0
  9 32  1  0
  9 33  1  0
 10 34  1  1
 11 35  1  0
 11 36  1  0
 12 37  1  6
 13 38  1  0
 13 39  1  0
 14 40  1  6
 15 41  1  0
 15 42  1  0
 16 43  1  0
 16 44  1  0
 17 45  1  0
 17 46  1  0
 20 47  1  0
 20 48  1  0
 20 49  1  0
 23 50  1  0
 24 51  1  0
 25 52  1  0
 26 53  1  0
 27 54  1  0
M  END
>  <meeko>  (72) 
{"is_sidechain": false}

$$$$

     RDKit          3D

 49 53  0  0  0  0  0  0  0  0999 V2000
    6.3480    2.1180  -56.7300 O   0  0  0  0  0  0  0  0  0  0  0  0
    7.4110    1.6220  -56.3780 C   0  0  0  0  0  0  0  0  0  0  0  0
    8.6470    1.9480  -56.8960 N   0  0  0  0  0  0  0  0  0  0  0  0
    8.9080    2.9340  -57.9410 C   0  0  2  0  0  0  0  0  0  0  0  0
    7.8480    2.8640  -59.0680 C   0  0  0  0  0  0  0  0  0  0  0  0
    8.1160    3.9440  -60.1310 C   0  0  1  0  0  0  0  0  0  0  0  0
    8.0510    5.3320  -59.4740 C   0  0  0  0  0  0  0  0  0  0  0  0
    9.1090    5.4370  -58.3640 C   0  0  2  0  0  0  0  0  0  0  0  0
   10.5050    5.2200  -58.9680 C   0  0  0  0  0  0  0  0  0  0  0  0
   10.5840    3.8320  -59.6230 C   0  0  2  0  0  0  0  0  0  0  0  0
    9.5180    3.7290  -60.7270 C   0  0  0  0  0  0  0  0  0  0  0  0
   10.3160    2.7520  -58.5590 C   0  0  0  0  0  0  0  0  0  0  0  0
    8.8420    4.3510  -57.3100 C   0  0  0  0  0  0  0  0  0  0  0  0
    7.4600    0.5720  -55.3080 C   0  0  0  0  0  0  0  0  0  0  0  0
    8.6450    0.3310  -54.6270 C   0  0  0  0  0  0  0  0  0  0  0  0
    8.6480   -0.6540  -53.6390 C   0  0  0  0  0  0  0  0  0  0  0  0
    7.4790   -1.3720  -53.3500 C   0  0  0  0  0  0  0  0  0  0  0  0
    7.4490   -2.4150  -52.3140 C   0  0  0  0  0  0  0  0  0  0  0  0
    8.1890   -2.2770  -51.1280 C   0  0  0  0  0  0  0  0  0  0  0  0
    8.1640   -3.2680  -50.1420 C   0  0  0  0  0  0  0  0  0  0  0  0
    7.3940   -4.4140  -50.3260 C   0  0  0  0  0  0  0  0  0  0  0  0
    6.6510   -4.5700  -51.4930 C   0  0  0  0  0  0  0  0  0  0  0  0
    6.6780   -3.5780  -52.4780 C   0  0  0  0  0  0  0  0  0  0  0  0
    6.3460   -1.0460  -54.0990 C   0  0  0  0  0  0  0  0  0  0  0  0
    6.2980   -0.0980  -55.0670 N   0  0  0  0  0  0  0  0  0  0  0  0
    9.4240    1.4370  -56.4820 H   0  0  0  0  0  0  0  0  0  0  0  0
    7.8891    1.8722  -59.5419 H   0  0  0  0  0  0  0  0  0  0  0  0
    6.8534    3.0357  -58.6307 H   0  0  0  0  0  0  0  0  0  0  0  0
    7.3595    3.8770  -60.9267 H   0  0  0  0  0  0  0  0  0  0  0  0
    8.2420    6.1042  -60.2338 H   0  0  0  0  0  0  0  0  0  0  0  0
    7.0524    5.4786  -59.0367 H   0  0  0  0  0  0  0  0  0  0  0  0
    9.0585    6.4320  -57.8977 H   0  0  0  0  0  0  0  0  0  0  0  0
   10.6977    5.9925  -59.7270 H   0  0  0  0  0  0  0  0  0  0  0  0
   11.2584    5.2859  -58.1692 H   0  0  0  0  0  0  0  0  0  0  0  0
   11.5837    3.6854  -60.0578 H   0  0  0  0  0  0  0  0  0  0  0  0
    9.7101    4.4969  -61.4908 H   0  0  0  0  0  0  0  0  0  0  0  0
    9.5662    2.7283  -61.1813 H   0  0  0  0  0  0  0  0  0  0  0  0
   10.3795    1.7589  -59.0278 H   0  0  0  0  0  0  0  0  0  0  0  0
   11.0682    2.8450  -57.7617 H   0  0  0  0  0  0  0  0  0  0  0  0
    9.5994    4.4266  -56.5159 H   0  0  0  0  0  0  0  0  0  0  0  0
    7.8339    4.5039  -56.8973 H   0  0  0  0  0  0  0  0  0  0  0  0
    9.5566    0.9008  -54.8598 H   0  0  0  0  0  0  0  0  0  0  0  0
    9.5729   -0.8685  -53.0835 H   0  0  0  0  0  0  0  0  0  0  0  0
    8.7982   -1.3744  -50.9724 H   0  0  0  0  0  0  0  0  0  0  0  0
    8.7524   -3.1426  -49.2211 H   0  0  0  0  0  0  0  0  0  0  0  0
    7.3730   -5.1942  -49.5508 H   0  0  0  0  0  0  0  0  0  0  0  0
    6.0423   -5.4743  -51.6402 H   0  0  0  0  0  0  0  0  0  0  0  0
    6.0863   -3.7102  -53.3958 H   0  0  0  0  0  0  0  0  0  0  0  0
    5.4207   -1.6017  -53.8870 H   0  0  0  0  0  0  0  0  0  0  0  0
  1  2  2  0
  2  3  1  0
  4  3  1  1
  4  5  1  0
  5  6  1  0
  6  7  1  0
  7  8  1  0
  8  9  1  0
  9 10  1  0
 10 11  1  0
 10 12  1  0
  8 13  1  0
  2 14  1  0
 14 15  2  0
 15 16  1  0
 16 17  2  0
 17 18  1  0
 18 19  2  0
 19 20  1  0
 20 21  2  0
 21 22  1  0
 22 23  2  0
 17 24  1  0
 24 25  2  0
 12  4  1  0
 25 14  1  0
 13  4  1  0
 23 18  1  0
 11  6  1  0
  3 26  1  0
  5 27  1  0
  5 28  1  0
  6 29  1  6
  7 30  1  0
  7 31  1  0
  8 32  1  1
  9 33  1  0
  9 34  1  0
 10 35  1  6
 11 36  1  0
 11 37  1  0
 12 38  1  0
 12 39  1  0
 13 40  1  0
 13 41  1  0
 15 42  1  0
 16 43  1  0
 19 44  1  0
 20 45  1  0
 21 46  1  0
 22 47  1  0
 23 48  1  0
 24 49  1  0
M  END
>  <meeko>  (73) 
{"is_sidechain": false}

$$$$

     RDKit          3D

 54 55  0  0  0  0  0  0  0  0999 V2000
    6.5770    0.1380  -53.5800 C   0  0  0  0  0  0  0  0  0  0  0  0
    7.8660   -0.5040  -53.9440 C   0  0  0  0  0  0  0  0  0  0  0  0
    8.8220   -0.0600  -54.9160 C   0  0  0  0  0  0  0  0  0  0  0  0
    8.7390    1.1090  -55.8180 C   0  0  0  0  0  0  0  0  0  0  0  0
    7.6840    1.6780  -56.0770 O   0  0  0  0  0  0  0  0  0  0  0  0
    9.9690    1.5130  -56.3160 N   0  0  0  0  0  0  0  0  0  0  0  0
   10.1830    2.7120  -57.1360 C   0  0  0  0  0  0  0  0  0  0  0  0
   11.6930    2.8280  -57.4130 C   0  0  0  0  0  0  0  0  0  0  0  0
    9.7230    3.9730  -56.3890 C   0  0  0  0  0  0  0  0  0  0  0  0
    9.4580    2.6030  -58.4870 C   0  0  0  0  0  0  0  0  0  0  0  0
    9.8890   -0.8770  -54.9430 N   0  0  0  0  0  0  0  0  0  0  0  0
    9.6280   -1.8150  -54.0180 N   0  0  0  0  0  0  0  0  0  0  0  0
   10.6190   -2.8540  -53.7870 C   0  0  0  0  0  0  0  0  0  0  0  0
   10.3550   -4.0970  -54.6340 C   0  0  0  0  0  0  0  0  0  0  0  0
   11.5330   -4.4720  -55.5370 C   0  0  0  0  0  0  0  0  0  0  0  0
   11.1840   -4.4590  -57.0240 C   0  0  0  0  0  0  0  0  0  0  0  0
   11.8920   -3.3240  -57.7540 C   0  0  0  0  0  0  0  0  0  0  0  0
   11.7710   -2.1200  -57.0100 O   0  0  0  0  0  0  0  0  0  0  0  0
    8.4150   -1.6540  -53.3960 C   0  0  0  0  0  0  0  0  0  0  0  0
    7.8970   -2.5420  -52.3640 C   0  0  0  0  0  0  0  0  0  0  0  0
    8.1610   -2.2820  -51.0140 C   0  0  0  0  0  0  0  0  0  0  0  0
    7.6600   -3.1310  -50.0260 C   0  0  0  0  0  0  0  0  0  0  0  0
    6.8980   -4.2430  -50.3820 C   0  0  0  0  0  0  0  0  0  0  0  0
    6.6390   -4.5110  -51.7260 C   0  0  0  0  0  0  0  0  0  0  0  0
    7.1390   -3.6630  -52.7150 C   0  0  0  0  0  0  0  0  0  0  0  0
    6.4863    0.1832  -52.4847 H   0  0  0  0  0  0  0  0  0  0  0  0
    6.5455    1.1571  -53.9929 H   0  0  0  0  0  0  0  0  0  0  0  0
    5.7446   -0.4508  -53.9929 H   0  0  0  0  0  0  0  0  0  0  0  0
   10.7720    1.1390  -55.8280 H   0  0  0  0  0  0  0  0  0  0  0  0
   12.2387    2.8699  -56.4588 H   0  0  0  0  0  0  0  0  0  0  0  0
   12.0284    1.9530  -57.9891 H   0  0  0  0  0  0  0  0  0  0  0  0
   11.8908    3.7440  -57.9891 H   0  0  0  0  0  0  0  0  0  0  0  0
    9.7860    3.8002  -55.3045 H   0  0  0  0  0  0  0  0  0  0  0  0
   10.3705    4.8187  -56.6638 H   0  0  0  0  0  0  0  0  0  0  0  0
    8.6830    4.2031  -56.6638 H   0  0  0  0  0  0  0  0  0  0  0  0
    8.3837    2.4415  -58.3146 H   0  0  0  0  0  0  0  0  0  0  0  0
    9.6022    3.5329  -59.0566 H   0  0  0  0  0  0  0  0  0  0  0  0
    9.8693    1.7566  -59.0566 H   0  0  0  0  0  0  0  0  0  0  0  0
   11.6138   -2.4578  -54.0387 H   0  0  0  0  0  0  0  0  0  0  0  0
   10.5627   -3.1469  -52.7282 H   0  0  0  0  0  0  0  0  0  0  0  0
   10.1479   -4.9417  -53.9605 H   0  0  0  0  0  0  0  0  0  0  0  0
    9.5000   -3.8715  -55.2883 H   0  0  0  0  0  0  0  0  0  0  0  0
   12.3480   -3.7539  -55.3636 H   0  0  0  0  0  0  0  0  0  0  0  0
   11.8249   -5.5011  -55.2804 H   0  0  0  0  0  0  0  0  0  0  0  0
   11.4889   -5.4167  -57.4711 H   0  0  0  0  0  0  0  0  0  0  0  0
   10.0988   -4.3087  -57.1225 H   0  0  0  0  0  0  0  0  0  0  0  0
   12.9566   -3.5744  -57.8719 H   0  0  0  0  0  0  0  0  0  0  0  0
   11.4304   -3.1862  -58.7429 H   0  0  0  0  0  0  0  0  0  0  0  0
   11.6650   -1.3890  -57.6420 H   0  0  0  0  0  0  0  0  0  0  0  0
    8.7645   -1.4068  -50.7314 H   0  0  0  0  0  0  0  0  0  0  0  0
    7.8664   -2.9227  -48.9658 H   0  0  0  0  0  0  0  0  0  0  0  0
    6.5008   -4.9095  -49.6022 H   0  0  0  0  0  0  0  0  0  0  0  0
    6.0408   -5.3905  -52.0063 H   0  0  0  0  0  0  0  0  0  0  0  0
    6.9360   -3.8774  -53.7746 H   0  0  0  0  0  0  0  0  0  0  0  0
  1  2  1  0
  2  3  1  0
  3  4  1  0
  4  5  2  0
  4  6  1  0
  6  7  1  0
  7  8  1  0
  7  9  1  0
  7 10  1  0
  3 11  2  0
 11 12  1  0
 12 13  1  0
 13 14  1  0
 14 15  1  0
 15 16  1  0
 16 17  1  0
 17 18  1  0
 12 19  1  0
 19 20  1  0
 20 21  2  0
 21 22  1  0
 22 23  2  0
 23 24  1  0
 24 25  2  0
 19  2  2  0
 25 20  1  0
  1 26  1  0
  1 27  1  0
  1 28  1  0
  6 29  1  0
  8 30  1  0
  8 31  1  0
  8 32  1  0
  9 33  1  0
  9 34  1  0
  9 35  1  0
 10 36  1  0
 10 37  1  0
 10 38  1  0
 13 39  1  0
 13 40  1  0
 14 41  1  0
 14 42  1  0
 15 43  1  0
 15 44  1  0
 16 45  1  0
 16 46  1  0
 17 47  1  0
 17 48  1  0
 18 49  1  0
 21 50  1  0
 22 51  1  0
 23 52  1  0
 24 53  1  0
 25 54  1  0
M  END
>  <meeko>  (74) 
{"is_sidechain": false}

$$$$

     RDKit          3D

 46 49  0  0  0  0  0  0  0  0999 V2000
    9.6460    1.8670  -55.7380 C   0  0  0  0  0  0  0  0  0  0  0  0
    8.3090    1.5940  -56.3330 C   0  0  0  0  0  0  0  0  0  0  0  0
    7.2160    0.9170  -55.7250 C   0  0  0  0  0  0  0  0  0  0  0  0
    7.1660    0.2650  -54.4000 C   0  0  0  0  0  0  0  0  0  0  0  0
    6.3410    0.5880  -53.5520 O   0  0  0  0  0  0  0  0  0  0  0  0
    8.1260   -0.7270  -54.2640 N   0  0  0  0  0  0  0  0  0  0  0  0
    8.4020   -1.5150  -53.1290 C   0  0  0  0  0  0  0  0  0  0  0  0
    9.6700   -2.1060  -53.0540 C   0  0  0  0  0  0  0  0  0  0  0  0
   10.0280   -2.8950  -51.9590 C   0  0  0  0  0  0  0  0  0  0  0  0
    9.1200   -3.1000  -50.9230 C   0  0  0  0  0  0  0  0  0  0  0  0
    7.8580   -2.5140  -50.9870 C   0  0  0  0  0  0  0  0  0  0  0  0
    7.5000   -1.7240  -52.0840 C   0  0  0  0  0  0  0  0  0  0  0  0
    6.1410    0.9370  -56.5200 N   0  0  0  0  0  0  0  0  0  0  0  0
    6.5210    1.5510  -57.6720 N   0  0  0  0  0  0  0  0  0  0  0  0
    5.5770    1.6130  -58.7480 C   0  0  0  0  0  0  0  0  0  0  0  0
    5.7060    0.8540  -59.9180 C   0  0  0  0  0  0  0  0  0  0  0  0
    4.7520    0.9540  -60.9380 C   0  0  0  0  0  0  0  0  0  0  0  0
    3.6560    1.8010  -60.7990 C   0  0  0  0  0  0  0  0  0  0  0  0
    3.5060    2.5480  -59.6360 C   0  0  0  0  0  0  0  0  0  0  0  0
    4.4550    2.4530  -58.6150 C   0  0  0  0  0  0  0  0  0  0  0  0
    7.8380    2.0080  -57.5760 C   0  0  0  0  0  0  0  0  0  0  0  0
    8.5440    2.8480  -58.5410 C   0  0  0  0  0  0  0  0  0  0  0  0
    8.3490    4.2350  -58.5490 C   0  0  0  0  0  0  0  0  0  0  0  0
    9.0420    5.0370  -59.4560 C   0  0  0  0  0  0  0  0  0  0  0  0
    9.9410    4.4610  -60.3530 C   0  0  0  0  0  0  0  0  0  0  0  0
   10.1510    3.0830  -60.3420 C   0  0  0  0  0  0  0  0  0  0  0  0
    9.4600    2.2770  -59.4350 C   0  0  0  0  0  0  0  0  0  0  0  0
    9.5692    1.8513  -54.6408 H   0  0  0  0  0  0  0  0  0  0  0  0
   10.3581    1.0957  -56.0668 H   0  0  0  0  0  0  0  0  0  0  0  0
    9.9987    2.8557  -56.0668 H   0  0  0  0  0  0  0  0  0  0  0  0
    8.6480   -0.9540  -55.0990 H   0  0  0  0  0  0  0  0  0  0  0  0
   10.3926   -1.9465  -53.8679 H   0  0  0  0  0  0  0  0  0  0  0  0
   11.0265   -3.3544  -51.9146 H   0  0  0  0  0  0  0  0  0  0  0  0
    9.3980   -3.7213  -50.0589 H   0  0  0  0  0  0  0  0  0  0  0  0
    7.1389   -2.6735  -50.1700 H   0  0  0  0  0  0  0  0  0  0  0  0
    6.5014   -1.2644  -52.1238 H   0  0  0  0  0  0  0  0  0  0  0  0
    6.5629    0.1745  -60.0364 H   0  0  0  0  0  0  0  0  0  0  0  0
    4.8694    0.3590  -61.8557 H   0  0  0  0  0  0  0  0  0  0  0  0
    2.9121    1.8789  -61.6056 H   0  0  0  0  0  0  0  0  0  0  0  0
    2.6389    3.2148  -59.5195 H   0  0  0  0  0  0  0  0  0  0  0  0
    4.3238    3.0421  -57.6954 H   0  0  0  0  0  0  0  0  0  0  0  0
    7.6467    4.6936  -57.8374 H   0  0  0  0  0  0  0  0  0  0  0  0
    8.8791    6.1248  -59.4636 H   0  0  0  0  0  0  0  0  0  0  0  0
   10.4846    5.0943  -61.0695 H   0  0  0  0  0  0  0  0  0  0  0  0
   10.8619    2.6300  -61.0487 H   0  0  0  0  0  0  0  0  0  0  0  0
    9.6350    1.1911  -59.4221 H   0  0  0  0  0  0  0  0  0  0  0  0
  1  2  1  0
  2  3  1  0
  3  4  1  0
  4  5  2  0
  4  6  1  0
  6  7  1  0
  7  8  2  0
  8  9  1  0
  9 10  2  0
 10 11  1  0
 11 12  2  0
  3 13  2  0
 13 14  1  0
 14 15  1  0
 15 16  2  0
 16 17  1  0
 17 18  2  0
 18 19  1  0
 19 20  2  0
 14 21  1  0
 21 22  1  0
 22 23  2  0
 23 24  1  0
 24 25  2  0
 25 26  1  0
 26 27  2  0
 21  2  2  0
 27 22  1  0
 12  7  1  0
 20 15  1  0
  1 28  1  0
  1 29  1  0
  1 30  1  0
  6 31  1  0
  8 32  1  0
  9 33  1  0
 10 34  1  0
 11 35  1  0
 12 36  1  0
 16 37  1  0
 17 38  1  0
 18 39  1  0
 19 40  1  0
 20 41  1  0
 23 42  1  0
 24 43  1  0
 25 44  1  0
 26 45  1  0
 27 46  1  0
M  END
>  <meeko>  (75) 
{"is_sidechain": false}

$$$$

     RDKit          3D

 57 61  0  0  0  0  0  0  0  0999 V2000
   11.9460   -4.9220  -55.7210 C   0  0  0  0  0  0  0  0  0  0  0  0
   11.5150   -4.1930  -54.5790 O   0  0  0  0  0  0  0  0  0  0  0  0
   11.1380   -2.8450  -54.8780 C   0  0  0  0  0  0  0  0  0  0  0  0
   10.6100   -2.0950  -53.6570 C   0  0  0  0  0  0  0  0  0  0  0  0
    9.4330   -1.2960  -53.9630 N   0  0  0  0  0  0  0  0  0  0  0  0
    9.5330   -0.3570  -54.9350 N   0  0  0  0  0  0  0  0  0  0  0  0
    8.2860    0.1530  -55.0280 C   0  0  0  0  0  0  0  0  0  0  0  0
    7.9550    1.2330  -55.9730 C   0  0  0  0  0  0  0  0  0  0  0  0
    6.8140    1.6590  -56.1160 O   0  0  0  0  0  0  0  0  0  0  0  0
    9.0570    1.6950  -56.6590 N   0  0  0  0  0  0  0  0  0  0  0  0
    9.0710    2.7670  -57.6470 C   0  0  2  0  0  0  0  0  0  0  0  0
    8.0090    2.5420  -58.7520 C   0  0  0  0  0  0  0  0  0  0  0  0
    8.0770    3.6610  -59.8060 C   0  0  1  0  0  0  0  0  0  0  0  0
    7.8300    5.0160  -59.1210 C   0  0  0  0  0  0  0  0  0  0  0  0
    8.8990    5.2680  -58.0450 C   0  0  2  0  0  0  0  0  0  0  0  0
   10.2890    5.2640  -58.7030 C   0  0  0  0  0  0  0  0  0  0  0  0
   10.5450    3.9090  -59.3810 C   0  0  2  0  0  0  0  0  0  0  0  0
    9.4710    3.6660  -60.4520 C   0  0  0  0  0  0  0  0  0  0  0  0
   10.4670    2.7950  -58.3260 C   0  0  0  0  0  0  0  0  0  0  0  0
    8.8320    4.1490  -56.9910 C   0  0  0  0  0  0  0  0  0  0  0  0
    7.4060   -0.4920  -54.1290 C   0  0  0  0  0  0  0  0  0  0  0  0
    8.1630   -1.4270  -53.4530 C   0  0  0  0  0  0  0  0  0  0  0  0
    7.7610   -2.3760  -52.4270 C   0  0  0  0  0  0  0  0  0  0  0  0
    7.0250   -3.5160  -52.7660 C   0  0  0  0  0  0  0  0  0  0  0  0
    6.6390   -4.4250  -51.7800 C   0  0  0  0  0  0  0  0  0  0  0  0
    6.9920   -4.2020  -50.4500 C   0  0  0  0  0  0  0  0  0  0  0  0
    7.7350   -3.0730  -50.1050 C   0  0  0  0  0  0  0  0  0  0  0  0
    8.1210   -2.1630  -51.0920 C   0  0  0  0  0  0  0  0  0  0  0  0
   12.4811   -5.8271  -55.3978 H   0  0  0  0  0  0  0  0  0  0  0  0
   11.0720   -5.2086  -56.3244 H   0  0  0  0  0  0  0  0  0  0  0  0
   12.6183   -4.2944  -56.3244 H   0  0  0  0  0  0  0  0  0  0  0  0
   12.0184   -2.3112  -55.2651 H   0  0  0  0  0  0  0  0  0  0  0  0
   10.3267   -2.8841  -55.6198 H   0  0  0  0  0  0  0  0  0  0  0  0
   10.3475   -2.8270  -52.8790 H   0  0  0  0  0  0  0  0  0  0  0  0
   11.4007   -1.4105  -53.3161 H   0  0  0  0  0  0  0  0  0  0  0  0
    9.9240    1.2290  -56.3980 H   0  0  0  0  0  0  0  0  0  0  0  0
    8.1951    1.5740  -59.2402 H   0  0  0  0  0  0  0  0  0  0  0  0
    7.0105    2.5504  -58.2905 H   0  0  0  0  0  0  0  0  0  0  0  0
    7.3126    3.4903  -60.5783 H   0  0  0  0  0  0  0  0  0  0  0  0
    7.8752    5.8173  -59.8732 H   0  0  0  0  0  0  0  0  0  0  0  0
    6.8379    5.0033  -58.6461 H   0  0  0  0  0  0  0  0  0  0  0  0
    8.7194    6.2405  -57.5633 H   0  0  0  0  0  0  0  0  0  0  0  0
   10.3376    6.0636  -59.4568 H   0  0  0  0  0  0  0  0  0  0  0  0
   11.0546    5.4322  -57.9312 H   0  0  0  0  0  0  0  0  0  0  0  0
   11.5405    3.9107  -59.8489 H   0  0  0  0  0  0  0  0  0  0  0  0
    9.5205    4.4657  -61.2056 H   0  0  0  0  0  0  0  0  0  0  0  0
    9.6512    2.6917  -60.9298 H   0  0  0  0  0  0  0  0  0  0  0  0
   10.6496    1.8255  -58.8126 H   0  0  0  0  0  0  0  0  0  0  0  0
   11.2273    2.9891  -57.5551 H   0  0  0  0  0  0  0  0  0  0  0  0
    9.6040    4.3250  -56.2274 H   0  0  0  0  0  0  0  0  0  0  0  0
    7.8329    4.1549  -56.5307 H   0  0  0  0  0  0  0  0  0  0  0  0
    6.3332   -0.2892  -53.9952 H   0  0  0  0  0  0  0  0  0  0  0  0
    6.7490   -3.6970  -53.8153 H   0  0  0  0  0  0  0  0  0  0  0  0
    6.0563   -5.3174  -52.0523 H   0  0  0  0  0  0  0  0  0  0  0  0
    6.6845   -4.9166  -49.6723 H   0  0  0  0  0  0  0  0  0  0  0  0
    8.0169   -2.8993  -49.0560 H   0  0  0  0  0  0  0  0  0  0  0  0
    8.7104   -1.2754  -50.8185 H   0  0  0  0  0  0  0  0  0  0  0  0
  1  2  1  0
  2  3  1  0
  3  4  1  0
  4  5  1  0
  5  6  1  0
  6  7  2  0
  7  8  1  0
  8  9  2  0
  8 10  1  0
 11 10  1  1
 11 12  1  0
 12 13  1  0
 13 14  1  0
 14 15  1  0
 15 16  1  0
 16 17  1  0
 17 18  1  0
 17 19  1  0
 15 20  1  0
  7 21  1  0
 21 22  2  0
 22 23  1  0
 23 24  2  0
 24 25  1  0
 25 26  2  0
 26 27  1  0
 27 28  2  0
 22  5  1  0
 28 23  1  0
 19 11  1  0
 20 11  1  0
 18 13  1  0
  1 29  1  0
  1 30  1  0
  1 31  1  0
  3 32  1  0
  3 33  1  0
  4 34  1  0
  4 35  1  0
 10 36  1  0
 12 37  1  0
 12 38  1  0
 13 39  1  6
 14 40  1  0
 14 41  1  0
 15 42  1  1
 16 43  1  0
 16 44  1  0
 17 45  1  6
 18 46  1  0
 18 47  1  0
 19 48  1  0
 19 49  1  0
 20 50  1  0
 20 51  1  0
 21 52  1  0
 24 53  1  0
 25 54  1  0
 26 55  1  0
 27 56  1  0
 28 57  1  0
M  END
>  <meeko>  (76) 
{"is_sidechain": false}

$$$$

     RDKit          3D

 51 55  0  0  0  0  0  0  0  0999 V2000
   10.2300   -1.7400  -53.6610 C   0  0  0  0  0  0  0  0  0  0  0  0
    8.9260   -1.0630  -53.9700 C   0  0  0  0  0  0  0  0  0  0  0  0
    8.8990   -0.0250  -54.9100 C   0  0  0  0  0  0  0  0  0  0  0  0
    7.6910    0.5850  -55.1970 C   0  0  0  0  0  0  0  0  0  0  0  0
    7.6010    1.6920  -56.1940 C   0  0  0  0  0  0  0  0  0  0  0  0
    6.5290    2.2450  -56.4100 O   0  0  0  0  0  0  0  0  0  0  0  0
    8.7920    2.0120  -56.8140 N   0  0  0  0  0  0  0  0  0  0  0  0
    8.9730    3.0520  -57.8280 C   0  0  2  0  0  0  0  0  0  0  0  0
    8.9330    4.4690  -57.2040 C   0  0  0  0  0  0  0  0  0  0  0  0
    9.1740    5.5410  -58.2810 C   0  0  1  0  0  0  0  0  0  0  0  0
   10.5550    5.3200  -58.9190 C   0  0  0  0  0  0  0  0  0  0  0  0
   10.6160    3.9270  -59.5650 C   0  0  2  0  0  0  0  0  0  0  0  0
    9.5290    3.8170  -60.6450 C   0  0  0  0  0  0  0  0  0  0  0  0
    8.1430    4.0310  -60.0180 C   0  0  2  0  0  0  0  0  0  0  0  0
    8.0900    5.4230  -59.3660 C   0  0  0  0  0  0  0  0  0  0  0  0
    7.9010    2.9570  -58.9410 C   0  0  0  0  0  0  0  0  0  0  0  0
   10.3650    2.8600  -58.4870 C   0  0  0  0  0  0  0  0  0  0  0  0
    6.5350    0.2120  -54.6000 N   0  0  0  0  0  0  0  0  0  0  0  0
    6.5580   -0.7920  -53.6690 N   0  0  0  0  0  0  0  0  0  0  0  0
    7.7230   -1.4120  -53.3450 C   0  0  0  0  0  0  0  0  0  0  0  0
    7.5930   -2.4550  -52.3190 C   0  0  0  0  0  0  0  0  0  0  0  0
    7.8650   -2.1920  -50.9660 C   0  0  0  0  0  0  0  0  0  0  0  0
    7.7380   -3.1930  -49.9980 C   0  0  0  0  0  0  0  0  0  0  0  0
    7.3310   -4.4730  -50.3690 C   0  0  0  0  0  0  0  0  0  0  0  0
    7.0440   -4.7510  -51.7030 C   0  0  0  0  0  0  0  0  0  0  0  0
    7.1700   -3.7490  -52.6680 C   0  0  0  0  0  0  0  0  0  0  0  0
   10.3590   -1.8070  -52.5706 H   0  0  0  0  0  0  0  0  0  0  0  0
   10.2293   -2.7516  -54.0930 H   0  0  0  0  0  0  0  0  0  0  0  0
   11.0570   -1.1574  -54.0930 H   0  0  0  0  0  0  0  0  0  0  0  0
    9.8226    0.2996  -55.4115 H   0  0  0  0  0  0  0  0  0  0  0  0
    9.6000    1.4620  -56.5320 H   0  0  0  0  0  0  0  0  0  0  0  0
    7.9476    4.6338  -56.7438 H   0  0  0  0  0  0  0  0  0  0  0  0
    9.7248    4.5448  -56.4442 H   0  0  0  0  0  0  0  0  0  0  0  0
    9.1336    6.5403  -57.8230 H   0  0  0  0  0  0  0  0  0  0  0  0
   10.7282    6.0868  -59.6885 H   0  0  0  0  0  0  0  0  0  0  0  0
   11.3291    5.3925  -58.1409 H   0  0  0  0  0  0  0  0  0  0  0  0
   11.6057    3.7739  -60.0200 H   0  0  0  0  0  0  0  0  0  0  0  0
    9.7024    4.5824  -61.4158 H   0  0  0  0  0  0  0  0  0  0  0  0
    9.5699    2.8156  -61.0983 H   0  0  0  0  0  0  0  0  0  0  0  0
    7.3694    3.9565  -60.7964 H   0  0  0  0  0  0  0  0  0  0  0  0
    8.2597    6.1913  -60.1347 H   0  0  0  0  0  0  0  0  0  0  0  0
    7.1019    5.5666  -58.9044 H   0  0  0  0  0  0  0  0  0  0  0  0
    6.9054    3.1068  -58.4980 H   0  0  0  0  0  0  0  0  0  0  0  0
    7.9627    1.9638  -59.4097 H   0  0  0  0  0  0  0  0  0  0  0  0
   10.4093    1.8633  -58.9502 H   0  0  0  0  0  0  0  0  0  0  0  0
   11.1373    2.9584  -57.7099 H   0  0  0  0  0  0  0  0  0  0  0  0
    8.1827   -1.1832  -50.6635 H   0  0  0  0  0  0  0  0  0  0  0  0
    7.9593   -2.9701  -48.9438 H   0  0  0  0  0  0  0  0  0  0  0  0
    7.2365   -5.2628  -49.6092 H   0  0  0  0  0  0  0  0  0  0  0  0
    6.7181   -5.7597  -51.9968 H   0  0  0  0  0  0  0  0  0  0  0  0
    6.9343   -3.9764  -53.7181 H   0  0  0  0  0  0  0  0  0  0  0  0
  1  2  1  0
  2  3  1  0
  3  4  2  0
  4  5  1  0
  5  6  2  0
  5  7  1  0
  8  7  1  1
  8  9  1  0
  9 10  1  0
 10 11  1  0
 11 12  1  0
 12 13  1  0
 13 14  1  0
 14 15  1  0
 14 16  1  0
 12 17  1  0
  4 18  1  0
 18 19  2  0
 19 20  1  0
 20 21  1  0
 21 22  2  0
 22 23  1  0
 23 24  2  0
 24 25  1  0
 25 26  2  0
 20  2  2  0
 26 21  1  0
 16  8  1  0
 17  8  1  0
 15 10  1  0
  1 27  1  0
  1 28  1  0
  1 29  1  0
  3 30  1  0
  7 31  1  0
  9 32  1  0
  9 33  1  0
 10 34  1  1
 11 35  1  0
 11 36  1  0
 12 37  1  6
 13 38  1  0
 13 39  1  0
 14 40  1  6
 15 41  1  0
 15 42  1  0
 16 43  1  0
 16 44  1  0
 17 45  1  0
 17 46  1  0
 22 47  1  0
 23 48  1  0
 24 49  1  0
 25 50  1  0
 26 51  1  0
M  END
>  <meeko>  (77) 
{"is_sidechain": false}

$$$$

     RDKit          3D

 59 63  0  0  0  0  0  0  0  0999 V2000
   11.5270   -2.5560  -56.4780 N   0  0  0  0  0  0  0  0  0  0  0  0
   10.5870   -3.4240  -55.7250 C   0  0  0  0  0  0  0  0  0  0  0  0
   10.8870   -3.3750  -54.2350 C   0  0  0  0  0  0  0  0  0  0  0  0
   10.7970   -1.9610  -53.6570 C   0  0  0  0  0  0  0  0  0  0  0  0
    9.5800   -1.2880  -54.0790 N   0  0  0  0  0  0  0  0  0  0  0  0
    9.6850   -0.3030  -54.9750 N   0  0  0  0  0  0  0  0  0  0  0  0
    8.4360    0.1800  -55.1140 C   0  0  0  0  0  0  0  0  0  0  0  0
    8.1400    1.3010  -56.0350 C   0  0  0  0  0  0  0  0  0  0  0  0
    7.0300    1.8190  -56.1000 O   0  0  0  0  0  0  0  0  0  0  0  0
    9.2180    1.7110  -56.8040 N   0  0  0  0  0  0  0  0  0  0  0  0
    9.1900    2.8520  -57.7280 C   0  0  2  0  0  0  0  0  0  0  0  0
   10.5450    2.8930  -58.4880 C   0  0  0  0  0  0  0  0  0  0  0  0
   10.5920    4.0710  -59.4730 C   0  0  1  0  0  0  0  0  0  0  0  0
    9.4520    3.9210  -60.4930 C   0  0  0  0  0  0  0  0  0  0  0  0
    8.0990    3.9030  -59.7650 C   0  0  2  0  0  0  0  0  0  0  0  0
    7.9250    5.2160  -58.9820 C   0  0  0  0  0  0  0  0  0  0  0  0
    9.0620    5.3770  -57.9580 C   0  0  2  0  0  0  0  0  0  0  0  0
   10.4100    5.3850  -58.6950 C   0  0  0  0  0  0  0  0  0  0  0  0
    9.0270    4.1950  -56.9730 C   0  0  0  0  0  0  0  0  0  0  0  0
    8.0630    2.7200  -58.7830 C   0  0  0  0  0  0  0  0  0  0  0  0
    7.5490   -0.5160  -54.2430 C   0  0  0  0  0  0  0  0  0  0  0  0
    8.3150   -1.4520  -53.5740 C   0  0  0  0  0  0  0  0  0  0  0  0
    7.9550   -2.3720  -52.5060 C   0  0  0  0  0  0  0  0  0  0  0  0
    7.4010   -3.6200  -52.8180 C   0  0  0  0  0  0  0  0  0  0  0  0
    7.0150   -4.4950  -51.8000 C   0  0  0  0  0  0  0  0  0  0  0  0
    7.1850   -4.1290  -50.4650 C   0  0  0  0  0  0  0  0  0  0  0  0
    7.7540   -2.8960  -50.1460 C   0  0  0  0  0  0  0  0  0  0  0  0
    8.1410   -2.0210  -51.1630 C   0  0  0  0  0  0  0  0  0  0  0  0
   12.0170   -1.9050  -55.8490 H   0  0  0  0  0  0  0  0  0  0  0  0
   12.2530   -3.1040  -56.9600 H   0  0  0  0  0  0  0  0  0  0  0  0
   11.0720   -1.9810  -57.2030 H   0  0  0  0  0  0  0  0  0  0  0  0
    9.5576   -3.0768  -55.8978 H   0  0  0  0  0  0  0  0  0  0  0  0
   10.7040   -4.4600  -56.0756 H   0  0  0  0  0  0  0  0  0  0  0  0
   10.1635   -4.0158  -53.7098 H   0  0  0  0  0  0  0  0  0  0  0  0
   11.9204   -3.7247  -54.0941 H   0  0  0  0  0  0  0  0  0  0  0  0
   10.8086   -2.0227  -52.5588 H   0  0  0  0  0  0  0  0  0  0  0  0
   11.6565   -1.3824  -54.0266 H   0  0  0  0  0  0  0  0  0  0  0  0
   10.1300    1.3830  -56.5220 H   0  0  0  0  0  0  0  0  0  0  0  0
   11.3622    3.0011  -57.7596 H   0  0  0  0  0  0  0  0  0  0  0  0
   10.6547    1.9578  -59.0567 H   0  0  0  0  0  0  0  0  0  0  0  0
   11.5587    4.0818  -59.9977 H   0  0  0  0  0  0  0  0  0  0  0  0
    9.4772    4.7672  -61.1954 H   0  0  0  0  0  0  0  0  0  0  0  0
    9.5800    2.9773  -61.0435 H   0  0  0  0  0  0  0  0  0  0  0  0
    7.2872    3.7984  -60.4999 H   0  0  0  0  0  0  0  0  0  0  0  0
    7.9448    6.0631  -59.6835 H   0  0  0  0  0  0  0  0  0  0  0  0
    6.9626    5.1924  -58.4499 H   0  0  0  0  0  0  0  0  0  0  0  0
    8.9361    6.3213  -57.4080 H   0  0  0  0  0  0  0  0  0  0  0  0
   10.4360    6.2309  -59.3976 H   0  0  0  0  0  0  0  0  0  0  0  0
   11.2226    5.4851  -57.9603 H   0  0  0  0  0  0  0  0  0  0  0  0
    9.8470    4.3041  -56.2479 H   0  0  0  0  0  0  0  0  0  0  0  0
    8.0575    4.1946  -56.4533 H   0  0  0  0  0  0  0  0  0  0  0  0
    7.0892    2.7043  -58.2716 H   0  0  0  0  0  0  0  0  0  0  0  0
    8.2123    1.7871  -59.3463 H   0  0  0  0  0  0  0  0  0  0  0  0
    6.4690   -0.3428  -54.1261 H   0  0  0  0  0  0  0  0  0  0  0  0
    7.2692   -3.9125  -53.8702 H   0  0  0  0  0  0  0  0  0  0  0  0
    6.5771   -5.4723  -52.0511 H   0  0  0  0  0  0  0  0  0  0  0  0
    6.8702   -4.8130  -49.6631 H   0  0  0  0  0  0  0  0  0  0  0  0
    7.8979   -2.6129  -49.0928 H   0  0  0  0  0  0  0  0  0  0  0  0
    8.5940   -1.0516  -50.9082 H   0  0  0  0  0  0  0  0  0  0  0  0
  1  2  1  0
  2  3  1  0
  3  4  1  0
  4  5  1  0
  5  6  1  0
  6  7  2  0
  7  8  1  0
  8  9  2  0
  8 10  1  0
 11 10  1  1
 11 12  1  0
 12 13  1  0
 13 14  1  0
 14 15  1  0
 15 16  1  0
 16 17  1  0
 17 18  1  0
 17 19  1  0
 15 20  1  0
  7 21  1  0
 21 22  2  0
 22 23  1  0
 23 24  2  0
 24 25  1  0
 25 26  2  0
 26 27  1  0
 27 28  2  0
 22  5  1  0
 28 23  1  0
 19 11  1  0
 20 11  1  0
 18 13  1  0
  1 29  1  0
  1 30  1  0
  1 31  1  0
  2 32  1  0
  2 33  1  0
  3 34  1  0
  3 35  1  0
  4 36  1  0
  4 37  1  0
 10 38  1  0
 12 39  1  0
 12 40  1  0
 13 41  1  6
 14 42  1  0
 14 43  1  0
 15 44  1  6
 16 45  1  0
 16 46  1  0
 17 47  1  1
 18 48  1  0
 18 49  1  0
 19 50  1  0
 19 51  1  0
 20 52  1  0
 20 53  1  0
 21 54  1  0
 24 55  1  0
 25 56  1  0
 26 57  1  0
 27 58  1  0
 28 59  1  0
M  CHG  1   1   1
M  END
>  <meeko>  (78) 
{"is_sidechain": false}

$$$$

     RDKit          3D

 46 50  0  0  0  0  0  0  0  0999 V2000
    9.8700    1.4020  -55.7640 O   0  0  0  0  0  0  0  0  0  0  0  0
    8.6590    1.2390  -55.8750 C   0  0  0  0  0  0  0  0  0  0  0  0
    7.8680    1.9330  -56.7740 N   0  0  0  0  0  0  0  0  0  0  0  0
    8.3270    2.9480  -57.7180 C   0  0  2  0  0  0  0  0  0  0  0  0
    7.1900    3.2230  -58.7360 C   0  0  0  0  0  0  0  0  0  0  0  0
    7.6120    4.2880  -59.7620 C   0  0  1  0  0  0  0  0  0  0  0  0
    7.9510    5.5920  -59.0230 C   0  0  0  0  0  0  0  0  0  0  0  0
    9.0940    5.3480  -58.0260 C   0  0  2  0  0  0  0  0  0  0  0  0
   10.3330    4.8460  -58.7870 C   0  0  0  0  0  0  0  0  0  0  0  0
   10.0050    3.5390  -59.5290 C   0  0  2  0  0  0  0  0  0  0  0  0
    8.8550    3.7930  -60.5180 C   0  0  0  0  0  0  0  0  0  0  0  0
    9.5710    2.4720  -58.5090 C   0  0  0  0  0  0  0  0  0  0  0  0
    8.6610    4.2830  -57.0040 C   0  0  0  0  0  0  0  0  0  0  0  0
    7.8870    0.2730  -55.0580 C   0  0  0  0  0  0  0  0  0  0  0  0
    6.5650    0.0620  -55.2390 N   0  0  0  0  0  0  0  0  0  0  0  0
    6.3100   -0.8650  -54.3010 N   0  0  0  0  0  0  0  0  0  0  0  0
    7.4240   -1.2040  -53.5840 C   0  0  0  0  0  0  0  0  0  0  0  0
    7.4710   -2.1840  -52.4970 C   0  0  0  0  0  0  0  0  0  0  0  0
    7.1450   -3.5220  -52.7710 C   0  0  0  0  0  0  0  0  0  0  0  0
    7.1760   -4.4920  -51.7670 C   0  0  0  0  0  0  0  0  0  0  0  0
    7.5340   -4.1380  -50.4700 C   0  0  0  0  0  0  0  0  0  0  0  0
    7.8610   -2.8170  -50.1770 C   0  0  0  0  0  0  0  0  0  0  0  0
    7.8310   -1.8440  -51.1830 C   0  0  0  0  0  0  0  0  0  0  0  0
    8.4320   -0.4930  -54.0490 N   0  0  0  0  0  0  0  0  0  0  0  0
    6.8830    1.6820  -56.7440 H   0  0  0  0  0  0  0  0  0  0  0  0
    6.9483    2.2897  -59.2656 H   0  0  0  0  0  0  0  0  0  0  0  0
    6.3119    3.5945  -58.1875 H   0  0  0  0  0  0  0  0  0  0  0  0
    6.7929    4.4682  -60.4738 H   0  0  0  0  0  0  0  0  0  0  0  0
    8.2606    6.3546  -59.7528 H   0  0  0  0  0  0  0  0  0  0  0  0
    7.0620    5.9390  -58.4759 H   0  0  0  0  0  0  0  0  0  0  0  0
    9.3340    6.2857  -57.5033 H   0  0  0  0  0  0  0  0  0  0  0  0
   10.6464    5.6087  -59.5150 H   0  0  0  0  0  0  0  0  0  0  0  0
   11.1446    4.6579  -58.0687 H   0  0  0  0  0  0  0  0  0  0  0  0
   10.8934    3.1895  -60.0754 H   0  0  0  0  0  0  0  0  0  0  0  0
    9.1644    4.5548  -61.2487 H   0  0  0  0  0  0  0  0  0  0  0  0
    8.6118    2.8547  -61.0380 H   0  0  0  0  0  0  0  0  0  0  0  0
    9.3264    1.5411  -59.0415 H   0  0  0  0  0  0  0  0  0  0  0  0
   10.3963    2.3005  -57.8023 H   0  0  0  0  0  0  0  0  0  0  0  0
    9.4787    4.1154  -56.2876 H   0  0  0  0  0  0  0  0  0  0  0  0
    7.7628    4.6393  -56.4784 H   0  0  0  0  0  0  0  0  0  0  0  0
    5.3670   -1.2200  -54.2050 H   0  0  0  0  0  0  0  0  0  0  0  0
    6.8605   -3.8109  -53.7935 H   0  0  0  0  0  0  0  0  0  0  0  0
    6.9176   -5.5352  -52.0014 H   0  0  0  0  0  0  0  0  0  0  0  0
    7.5586   -4.9005  -49.6776 H   0  0  0  0  0  0  0  0  0  0  0  0
    8.1439   -2.5368  -49.1516 H   0  0  0  0  0  0  0  0  0  0  0  0
    8.0920   -0.8030  -50.9418 H   0  0  0  0  0  0  0  0  0  0  0  0
  1  2  2  0
  2  3  1  0
  4  3  1  1
  4  5  1  0
  5  6  1  0
  6  7  1  0
  7  8  1  0
  8  9  1  0
  9 10  1  0
 10 11  1  0
 10 12  1  0
  8 13  1  0
  2 14  1  0
 14 15  2  0
 15 16  1  0
 16 17  1  0
 17 18  1  0
 18 19  2  0
 19 20  1  0
 20 21  2  0
 21 22  1  0
 22 23  2  0
 17 24  2  0
 12  4  1  0
 24 14  1  0
 13  4  1  0
 23 18  1  0
 11  6  1  0
  3 25  1  0
  5 26  1  0
  5 27  1  0
  6 28  1  6
  7 29  1  0
  7 30  1  0
  8 31  1  1
  9 32  1  0
  9 33  1  0
 10 34  1  6
 11 35  1  0
 11 36  1  0
 12 37  1  0
 12 38  1  0
 13 39  1  0
 13 40  1  0
 16 41  1  0
 19 42  1  0
 20 43  1  0
 21 44  1  0
 22 45  1  0
 23 46  1  0
M  END
>  <meeko>  (79) 
{"is_sidechain": false}

$$$$

     RDKit          3D

 46 50  0  0  0  0  0  0  0  0999 V2000
    9.7900    1.4170  -55.6770 O   0  0  0  0  0  0  0  0  0  0  0  0
    8.5800    1.2630  -55.8180 C   0  0  0  0  0  0  0  0  0  0  0  0
    7.8120    1.9460  -56.7340 N   0  0  0  0  0  0  0  0  0  0  0  0
    8.2940    2.9520  -57.6790 C   0  0  2  0  0  0  0  0  0  0  0  0
    9.5450    2.4610  -58.4490 C   0  0  0  0  0  0  0  0  0  0  0  0
   10.0020    3.5170  -59.4710 C   0  0  1  0  0  0  0  0  0  0  0  0
    8.8690    3.7730  -60.4770 C   0  0  0  0  0  0  0  0  0  0  0  0
    7.6190    4.2830  -59.7430 C   0  0  2  0  0  0  0  0  0  0  0  0
    7.9580    5.5900  -59.0080 C   0  0  0  0  0  0  0  0  0  0  0  0
    9.0850    5.3450  -57.9930 C   0  0  2  0  0  0  0  0  0  0  0  0
   10.3300    4.8270  -58.7330 C   0  0  0  0  0  0  0  0  0  0  0  0
    8.6280    4.2880  -56.9700 C   0  0  0  0  0  0  0  0  0  0  0  0
    7.1730    3.2290  -58.7160 C   0  0  0  0  0  0  0  0  0  0  0  0
    7.8280    0.3290  -55.0180 C   0  0  0  0  0  0  0  0  0  0  0  0
    6.5350    0.0990  -55.1170 N   0  0  0  0  0  0  0  0  0  0  0  0
    6.2120   -0.8560  -54.1800 N   0  0  0  0  0  0  0  0  0  0  0  0
    7.3070   -1.1950  -53.5190 C   0  0  0  0  0  0  0  0  0  0  0  0
    7.4100   -2.1770  -52.4380 C   0  0  0  0  0  0  0  0  0  0  0  0
    7.0970   -3.5200  -52.6990 C   0  0  0  0  0  0  0  0  0  0  0  0
    7.1820   -4.4890  -51.6970 C   0  0  0  0  0  0  0  0  0  0  0  0
    7.5820   -4.1270  -50.4140 C   0  0  0  0  0  0  0  0  0  0  0  0
    7.8980   -2.8010  -50.1340 C   0  0  0  0  0  0  0  0  0  0  0  0
    7.8130   -1.8300  -51.1390 C   0  0  0  0  0  0  0  0  0  0  0  0
    8.3460   -0.4600  -54.0300 N   0  0  0  0  0  0  0  0  0  0  0  0
    6.8240    1.7090  -56.7310 H   0  0  0  0  0  0  0  0  0  0  0  0
   10.3594    2.2743  -57.7336 H   0  0  0  0  0  0  0  0  0  0  0  0
    9.2899    1.5354  -58.9859 H   0  0  0  0  0  0  0  0  0  0  0  0
   10.8949    3.1564  -60.0027 H   0  0  0  0  0  0  0  0  0  0  0  0
    9.1949    4.5272  -61.2084 H   0  0  0  0  0  0  0  0  0  0  0  0
    8.6257    2.8328  -60.9935 H   0  0  0  0  0  0  0  0  0  0  0  0
    6.8119    4.4643  -60.4681 H   0  0  0  0  0  0  0  0  0  0  0  0
    8.2837    6.3449  -59.7388 H   0  0  0  0  0  0  0  0  0  0  0  0
    7.0641    5.9472  -58.4757 H   0  0  0  0  0  0  0  0  0  0  0  0
    9.3252    6.2843  -57.4735 H   0  0  0  0  0  0  0  0  0  0  0  0
   10.6600    5.5820  -59.4618 H   0  0  0  0  0  0  0  0  0  0  0  0
   11.1294    4.6369  -58.0017 H   0  0  0  0  0  0  0  0  0  0  0  0
    9.4338    4.1186  -56.2406 H   0  0  0  0  0  0  0  0  0  0  0  0
    7.7247    4.6547  -56.4606 H   0  0  0  0  0  0  0  0  0  0  0  0
    6.2791    3.5953  -58.1899 H   0  0  0  0  0  0  0  0  0  0  0  0
    6.9505    2.2930  -59.2492 H   0  0  0  0  0  0  0  0  0  0  0  0
    6.7793   -3.8144  -53.7101 H   0  0  0  0  0  0  0  0  0  0  0  0
    6.9332   -5.5367  -51.9214 H   0  0  0  0  0  0  0  0  0  0  0  0
    7.6483   -4.8880  -49.6225 H   0  0  0  0  0  0  0  0  0  0  0  0
    8.2154   -2.5150  -49.1204 H   0  0  0  0  0  0  0  0  0  0  0  0
    8.0646   -0.7843  -50.9082 H   0  0  0  0  0  0  0  0  0  0  0  0
    9.3140   -0.4780  -53.7510 H   0  0  0  0  0  0  0  0  0  0  0  0
  1  2  2  0
  2  3  1  0
  4  3  1  1
  4  5  1  0
  5  6  1  0
  6  7  1  0
  7  8  1  0
  8  9  1  0
  9 10  1  0
 10 11  1  0
 10 12  1  0
  8 13  1  0
  2 14  1  0
 14 15  2  0
 15 16  1  0
 16 17  2  0
 17 18  1  0
 18 19  2  0
 19 20  1  0
 20 21  2  0
 21 22  1  0
 22 23  2  0
 17 24  1  0
 12  4  1  0
 24 14  1  0
 13  4  1  0
 23 18  1  0
 11  6  1  0
  3 25  1  0
  5 26  1  0
  5 27  1  0
  6 28  1  6
  7 29  1  0
  7 30  1  0
  8 31  1  6
  9 32  1  0
  9 33  1  0
 10 34  1  1
 11 35  1  0
 11 36  1  0
 12 37  1  0
 12 38  1  0
 13 39  1  0
 13 40  1  0
 19 41  1  0
 20 42  1  0
 21 43  1  0
 22 44  1  0
 23 45  1  0
 24 46  1  0
M  END
>  <meeko>  (80) 
{"is_sidechain": false}

$$$$

     RDKit          3D

 46 50  0  0  0  0  0  0  0  0999 V2000
    9.7800    1.2930  -55.8220 O   0  0  0  0  0  0  0  0  0  0  0  0
    8.5580    1.2030  -55.8610 C   0  0  0  0  0  0  0  0  0  0  0  0
    7.7790    1.9670  -56.7230 N   0  0  0  0  0  0  0  0  0  0  0  0
    8.3210    2.9990  -57.6200 C   0  0  2  0  0  0  0  0  0  0  0  0
    8.7540    4.2670  -56.8430 C   0  0  0  0  0  0  0  0  0  0  0  0
    9.2550    5.3510  -57.8130 C   0  0  1  0  0  0  0  0  0  0  0  0
   10.4480    4.8020  -58.6150 C   0  0  0  0  0  0  0  0  0  0  0  0
   10.0190    3.5650  -59.4230 C   0  0  2  0  0  0  0  0  0  0  0  0
    8.8850    3.9540  -60.3830 C   0  0  0  0  0  0  0  0  0  0  0  0
    7.6870    4.4930  -59.5860 C   0  0  2  0  0  0  0  0  0  0  0  0
    8.1240    5.7280  -58.7840 C   0  0  0  0  0  0  0  0  0  0  0  0
    7.1990    3.4070  -58.6150 C   0  0  0  0  0  0  0  0  0  0  0  0
    9.5180    2.4770  -58.4560 C   0  0  0  0  0  0  0  0  0  0  0  0
    7.7960    0.3080  -55.0160 C   0  0  0  0  0  0  0  0  0  0  0  0
    8.2970   -0.5240  -54.1240 N   0  0  0  0  0  0  0  0  0  0  0  0
    7.1950   -1.1530  -53.5870 C   0  0  0  0  0  0  0  0  0  0  0  0
    7.3070   -2.1600  -52.5350 C   0  0  0  0  0  0  0  0  0  0  0  0
    7.7640   -1.8010  -51.2590 C   0  0  0  0  0  0  0  0  0  0  0  0
    7.8730   -2.7590  -50.2470 C   0  0  0  0  0  0  0  0  0  0  0  0
    7.5290   -4.0850  -50.5000 C   0  0  0  0  0  0  0  0  0  0  0  0
    7.0740   -4.4560  -51.7650 C   0  0  0  0  0  0  0  0  0  0  0  0
    6.9640   -3.4980  -52.7770 C   0  0  0  0  0  0  0  0  0  0  0  0
    6.0310   -0.7400  -54.1190 N   0  0  0  0  0  0  0  0  0  0  0  0
    6.4440    0.1480  -55.0330 N   0  0  0  0  0  0  0  0  0  0  0  0
    6.8220    2.1140  -56.4310 H   0  0  0  0  0  0  0  0  0  0  0  0
    7.8940    4.6564  -56.2784 H   0  0  0  0  0  0  0  0  0  0  0  0
    9.5707    4.0006  -56.1560 H   0  0  0  0  0  0  0  0  0  0  0  0
    9.5663    6.2397  -57.2444 H   0  0  0  0  0  0  0  0  0  0  0  0
   10.8110    5.5786  -59.3043 H   0  0  0  0  0  0  0  0  0  0  0  0
   11.2490    4.5158  -57.9175 H   0  0  0  0  0  0  0  0  0  0  0  0
   10.8747    3.1829  -59.9989 H   0  0  0  0  0  0  0  0  0  0  0  0
    9.2428    4.7314  -61.0742 H   0  0  0  0  0  0  0  0  0  0  0  0
    8.5716    3.0663  -60.9520 H   0  0  0  0  0  0  0  0  0  0  0  0
    6.8761    4.7685  -60.2763 H   0  0  0  0  0  0  0  0  0  0  0  0
    8.4819    6.5041  -59.4765 H   0  0  0  0  0  0  0  0  0  0  0  0
    7.2662    6.1076  -58.2094 H   0  0  0  0  0  0  0  0  0  0  0  0
    6.3390    3.7927  -58.0478 H   0  0  0  0  0  0  0  0  0  0  0  0
    6.9115    2.5204  -59.1992 H   0  0  0  0  0  0  0  0  0  0  0  0
    9.1985    1.5980  -59.0350 H   0  0  0  0  0  0  0  0  0  0  0  0
   10.3363    2.2057  -57.7727 H   0  0  0  0  0  0  0  0  0  0  0  0
    8.0392   -0.7562  -51.0525 H   0  0  0  0  0  0  0  0  0  0  0  0
    8.2310   -2.4654  -49.2492 H   0  0  0  0  0  0  0  0  0  0  0  0
    7.6161   -4.8383  -49.7032 H   0  0  0  0  0  0  0  0  0  0  0  0
    6.8017   -5.5025  -51.9664 H   0  0  0  0  0  0  0  0  0  0  0  0
    6.6049   -3.7966  -53.7729 H   0  0  0  0  0  0  0  0  0  0  0  0
    5.7630    0.5920  -55.6380 H   0  0  0  0  0  0  0  0  0  0  0  0
  1  2  2  0
  2  3  1  0
  4  3  1  1
  4  5  1  0
  5  6  1  0
  6  7  1  0
  7  8  1  0
  8  9  1  0
  9 10  1  0
 10 11  1  0
 10 12  1  0
  8 13  1  0
  2 14  1  0
 14 15  2  0
 15 16  1  0
 16 17  1  0
 17 18  2  0
 18 19  1  0
 19 20  2  0
 20 21  1  0
 21 22  2  0
 16 23  2  0
 23 24  1  0
 12  4  1  0
 24 14  1  0
 13  4  1  0
 22 17  1  0
 11  6  1  0
  3 25  1  0
  5 26  1  0
  5 27  1  0
  6 28  1  1
  7 29  1  0
  7 30  1  0
  8 31  1  6
  9 32  1  0
  9 33  1  0
 10 34  1  6
 11 35  1  0
 11 36  1  0
 12 37  1  0
 12 38  1  0
 13 39  1  0
 13 40  1  0
 18 41  1  0
 19 42  1  0
 20 43  1  0
 21 44  1  0
 22 45  1  0
 24 46  1  0
M  END
>  <meeko>  (81) 
{"is_sidechain": false}

$$$$

     RDKit          3D

 56 60  0  0  0  0  0  0  0  0999 V2000
   10.1140   -4.0180  -55.3950 C   0  0  0  0  0  0  0  0  0  0  0  0
   11.1520   -3.0160  -54.9100 C   0  0  0  0  0  0  0  0  0  0  0  0
   10.6820   -2.1970  -53.7080 C   0  0  0  0  0  0  0  0  0  0  0  0
    9.5110   -1.3810  -53.9740 N   0  0  0  0  0  0  0  0  0  0  0  0
    9.6030   -0.4090  -54.9000 N   0  0  0  0  0  0  0  0  0  0  0  0
    8.3730    0.1300  -54.9700 C   0  0  0  0  0  0  0  0  0  0  0  0
    8.0590    1.2310  -55.9080 C   0  0  0  0  0  0  0  0  0  0  0  0
    6.9110    1.5860  -56.1580 O   0  0  0  0  0  0  0  0  0  0  0  0
    9.1710    1.8170  -56.4940 N   0  0  0  0  0  0  0  0  0  0  0  0
    9.1180    2.8660  -57.5160 C   0  0  2  0  0  0  0  0  0  0  0  0
    8.8390    4.2630  -56.9040 C   0  0  0  0  0  0  0  0  0  0  0  0
    8.8430    5.3460  -57.9980 C   0  0  1  0  0  0  0  0  0  0  0  0
   10.2190    5.3750  -58.6800 C   0  0  0  0  0  0  0  0  0  0  0  0
   10.5180    4.0080  -59.3150 C   0  0  2  0  0  0  0  0  0  0  0  0
    9.4370    3.6830  -60.3580 C   0  0  0  0  0  0  0  0  0  0  0  0
    8.0540    3.6450  -59.6860 C   0  0  2  0  0  0  0  0  0  0  0  0
    7.7650    5.0130  -59.0430 C   0  0  0  0  0  0  0  0  0  0  0  0
    8.0480    2.5600  -58.5940 C   0  0  0  0  0  0  0  0  0  0  0  0
   10.5020    2.9290  -58.2200 C   0  0  0  0  0  0  0  0  0  0  0  0
    7.5060   -0.5190  -54.0460 C   0  0  0  0  0  0  0  0  0  0  0  0
    8.2680   -1.4690  -53.3950 C   0  0  0  0  0  0  0  0  0  0  0  0
    7.8800   -2.4190  -52.3610 C   0  0  0  0  0  0  0  0  0  0  0  0
    8.0270   -2.0960  -51.0070 C   0  0  0  0  0  0  0  0  0  0  0  0
    7.6500   -3.0090  -50.0210 C   0  0  0  0  0  0  0  0  0  0  0  0
    7.1190   -4.2470  -50.3830 C   0  0  0  0  0  0  0  0  0  0  0  0
    6.9610   -4.5710  -51.7290 C   0  0  0  0  0  0  0  0  0  0  0  0
    7.3360   -3.6580  -52.7160 C   0  0  0  0  0  0  0  0  0  0  0  0
    9.6262   -4.4889  -54.5288 H   0  0  0  0  0  0  0  0  0  0  0  0
    9.3590   -3.4984  -56.0034 H   0  0  0  0  0  0  0  0  0  0  0  0
   10.6066   -4.7908  -56.0034 H   0  0  0  0  0  0  0  0  0  0  0  0
   12.0616   -3.5650  -54.6250 H   0  0  0  0  0  0  0  0  0  0  0  0
   11.3363   -2.3112  -55.7341 H   0  0  0  0  0  0  0  0  0  0  0  0
   10.4420   -2.8907  -52.8887 H   0  0  0  0  0  0  0  0  0  0  0  0
   11.5000   -1.5077  -53.4516 H   0  0  0  0  0  0  0  0  0  0  0  0
   10.0450    1.3210  -56.3970 H   0  0  0  0  0  0  0  0  0  0  0  0
    7.8559    4.2515  -56.4107 H   0  0  0  0  0  0  0  0  0  0  0  0
    9.6290    4.4940  -56.1743 H   0  0  0  0  0  0  0  0  0  0  0  0
    8.6336    6.3278  -57.5482 H   0  0  0  0  0  0  0  0  0  0  0  0
   10.2221    6.1487  -59.4619 H   0  0  0  0  0  0  0  0  0  0  0  0
   10.9902    5.6015  -57.9291 H   0  0  0  0  0  0  0  0  0  0  0  0
   11.5048    4.0338  -59.8004 H   0  0  0  0  0  0  0  0  0  0  0  0
    9.4410    4.4563  -61.1403 H   0  0  0  0  0  0  0  0  0  0  0  0
    9.6492    2.7004  -60.8046 H   0  0  0  0  0  0  0  0  0  0  0  0
    7.2837    3.4177  -60.4376 H   0  0  0  0  0  0  0  0  0  0  0  0
    7.7633    5.7883  -59.8233 H   0  0  0  0  0  0  0  0  0  0  0  0
    6.7834    4.9771  -58.5478 H   0  0  0  0  0  0  0  0  0  0  0  0
    7.0558    2.5294  -58.1202 H   0  0  0  0  0  0  0  0  0  0  0  0
    8.2784    1.5892  -59.0571 H   0  0  0  0  0  0  0  0  0  0  0  0
   10.7179    1.9515  -58.6759 H   0  0  0  0  0  0  0  0  0  0  0  0
   11.2646    3.1825  -57.4689 H   0  0  0  0  0  0  0  0  0  0  0  0
    6.4393   -0.3057  -53.8828 H   0  0  0  0  0  0  0  0  0  0  0  0
    8.4413   -1.1186  -50.7189 H   0  0  0  0  0  0  0  0  0  0  0  0
    7.7716   -2.7523  -48.9583 H   0  0  0  0  0  0  0  0  0  0  0  0
    6.8249   -4.9677  -49.6057 H   0  0  0  0  0  0  0  0  0  0  0  0
    6.5405   -5.5467  -52.0139 H   0  0  0  0  0  0  0  0  0  0  0  0
    7.2032   -3.9138  -53.7776 H   0  0  0  0  0  0  0  0  0  0  0  0
  1  2  1  0
  2  3  1  0
  3  4  1  0
  4  5  1  0
  5  6  2  0
  6  7  1  0
  7  8  2  0
  7  9  1  0
 10  9  1  1
 10 11  1  0
 11 12  1  0
 12 13  1  0
 13 14  1  0
 14 15  1  0
 15 16  1  0
 16 17  1  0
 16 18  1  0
 14 19  1  0
  6 20  1  0
 20 21  2  0
 21 22  1  0
 22 23  2  0
 23 24  1  0
 24 25  2  0
 25 26  1  0
 26 27  2  0
 21  4  1  0
 27 22  1  0
 18 10  1  0
 19 10  1  0
 17 12  1  0
  1 28  1  0
  1 29  1  0
  1 30  1  0
  2 31  1  0
  2 32  1  0
  3 33  1  0
  3 34  1  0
  9 35  1  0
 11 36  1  0
 11 37  1  0
 12 38  1  1
 13 39  1  0
 13 40  1  0
 14 41  1  6
 15 42  1  0
 15 43  1  0
 16 44  1  6
 17 45  1  0
 17 46  1  0
 18 47  1  0
 18 48  1  0
 19 49  1  0
 19 50  1  0
 20 51  1  0
 23 52  1  0
 24 53  1  0
 25 54  1  0
 26 55  1  0
 27 56  1  0
M  END
>  <meeko>  (82) 
{"is_sidechain": false}

$$$$

     RDKit          3D

 49 53  0  0  0  0  0  0  0  0999 V2000
   10.8020   -2.0390  -53.6800 C   0  0  0  0  0  0  0  0  0  0  0  0
    9.5420   -1.3090  -53.9860 C   0  0  0  0  0  0  0  0  0  0  0  0
    9.5820   -0.3130  -54.9490 N   0  0  0  0  0  0  0  0  0  0  0  0
    8.3900    0.2270  -55.1070 C   0  0  0  0  0  0  0  0  0  0  0  0
    8.1250    1.3120  -56.0640 C   0  0  0  0  0  0  0  0  0  0  0  0
    7.0040    1.7760  -56.2630 O   0  0  0  0  0  0  0  0  0  0  0  0
    9.2350    1.7930  -56.7490 N   0  0  0  0  0  0  0  0  0  0  0  0
    9.2190    2.8600  -57.7540 C   0  0  2  0  0  0  0  0  0  0  0  0
    8.8090    4.2220  -57.1430 C   0  0  0  0  0  0  0  0  0  0  0  0
    8.8550    5.3310  -58.2080 C   0  0  1  0  0  0  0  0  0  0  0  0
   10.2850    5.4490  -58.7580 C   0  0  0  0  0  0  0  0  0  0  0  0
   10.7140    4.1160  -59.3920 C   0  0  2  0  0  0  0  0  0  0  0  0
    9.7520    3.7640  -60.5370 C   0  0  0  0  0  0  0  0  0  0  0  0
    8.3190    3.6360  -59.9980 C   0  0  2  0  0  0  0  0  0  0  0  0
    7.8970    4.9690  -59.3560 C   0  0  0  0  0  0  0  0  0  0  0  0
    8.2720    2.5250  -58.9340 C   0  0  0  0  0  0  0  0  0  0  0  0
   10.6560    3.0100  -58.3270 C   0  0  0  0  0  0  0  0  0  0  0  0
    7.1580   -0.4340  -54.1080 S   0  0  0  0  0  0  0  0  0  0  0  0
    8.2960   -1.5140  -53.4110 C   0  0  0  0  0  0  0  0  0  0  0  0
    7.8810   -2.4430  -52.3620 C   0  0  0  0  0  0  0  0  0  0  0  0
    7.1630   -3.6010  -52.6910 C   0  0  0  0  0  0  0  0  0  0  0  0
    6.7540   -4.4890  -51.6930 C   0  0  0  0  0  0  0  0  0  0  0  0
    7.0550   -4.2260  -50.3590 C   0  0  0  0  0  0  0  0  0  0  0  0
    7.7660   -3.0760  -50.0190 C   0  0  0  0  0  0  0  0  0  0  0  0
    8.1760   -2.1870  -51.0160 C   0  0  0  0  0  0  0  0  0  0  0  0
   10.9279   -2.1120  -52.5897 H   0  0  0  0  0  0  0  0  0  0  0  0
   10.7545   -3.0495  -54.1121 H   0  0  0  0  0  0  0  0  0  0  0  0
   11.6550   -1.4952  -54.1121 H   0  0  0  0  0  0  0  0  0  0  0  0
   10.1220    1.3520  -56.5410 H   0  0  0  0  0  0  0  0  0  0  0  0
    7.7865    4.1460  -56.7446 H   0  0  0  0  0  0  0  0  0  0  0  0
    9.5142    4.4752  -56.3377 H   0  0  0  0  0  0  0  0  0  0  0  0
    8.5523    6.2887  -57.7596 H   0  0  0  0  0  0  0  0  0  0  0  0
   10.3186    6.2423  -59.5192 H   0  0  0  0  0  0  0  0  0  0  0  0
   10.9706    5.6949  -57.9337 H   0  0  0  0  0  0  0  0  0  0  0  0
   11.7382    4.2048  -59.7833 H   0  0  0  0  0  0  0  0  0  0  0  0
    9.7855    4.5575  -61.2980 H   0  0  0  0  0  0  0  0  0  0  0  0
   10.0570    2.8061  -60.9835 H   0  0  0  0  0  0  0  0  0  0  0  0
    7.6353    3.3879  -60.8232 H   0  0  0  0  0  0  0  0  0  0  0  0
    7.9241    5.7634  -60.1164 H   0  0  0  0  0  0  0  0  0  0  0  0
    6.8776    4.8682  -58.9553 H   0  0  0  0  0  0  0  0  0  0  0  0
    7.2433    2.4295  -58.5562 H   0  0  0  0  0  0  0  0  0  0  0  0
    8.5978    1.5800  -59.3931 H   0  0  0  0  0  0  0  0  0  0  0  0
   10.9627    2.0566  -58.7820 H   0  0  0  0  0  0  0  0  0  0  0  0
   11.3338    3.2813  -57.5042 H   0  0  0  0  0  0  0  0  0  0  0  0
    6.9198   -3.8122  -53.7428 H   0  0  0  0  0  0  0  0  0  0  0  0
    6.1937   -5.3968  -51.9612 H   0  0  0  0  0  0  0  0  0  0  0  0
    6.7319   -4.9254  -49.5738 H   0  0  0  0  0  0  0  0  0  0  0  0
    8.0043   -2.8684  -48.9654 H   0  0  0  0  0  0  0  0  0  0  0  0
    8.7344   -1.2796  -50.7425 H   0  0  0  0  0  0  0  0  0  0  0  0
  1  2  1  0
  2  3  1  0
  3  4  2  0
  4  5  1  0
  5  6  2  0
  5  7  1  0
  8  7  1  1
  8  9  1  0
  9 10  1  0
 10 11  1  0
 11 12  1  0
 12 13  1  0
 13 14  1  0
 14 15  1  0
 14 16  1  0
 12 17  1  0
  4 18  1  0
 18 19  1  0
 19 20  1  0
 20 21  2  0
 21 22  1  0
 22 23  2  0
 23 24  1  0
 24 25  2  0
 19  2  2  0
 25 20  1  0
 16  8  1  0
 17  8  1  0
 15 10  1  0
  1 26  1  0
  1 27  1  0
  1 28  1  0
  7 29  1  0
  9 30  1  0
  9 31  1  0
 10 32  1  1
 11 33  1  0
 11 34  1  0
 12 35  1  6
 13 36  1  0
 13 37  1  0
 14 38  1  6
 15 39  1  0
 15 40  1  0
 16 41  1  0
 16 42  1  0
 17 43  1  0
 17 44  1  0
 21 45  1  0
 22 46  1  0
 23 47  1  0
 24 48  1  0
 25 49  1  0
M  END
>  <meeko>  (83) 
{"is_sidechain": false}

$$$$

     RDKit          3D

 54 58  0  0  0  0  0  0  0  0999 V2000
    6.9080    1.5530  -56.1160 O   0  0  0  0  0  0  0  0  0  0  0  0
    8.0470    1.1370  -55.9370 C   0  0  0  0  0  0  0  0  0  0  0  0
    9.1580    1.6300  -56.5920 N   0  0  0  0  0  0  0  0  0  0  0  0
    9.1730    2.7200  -57.5630 C   0  0  2  0  0  0  0  0  0  0  0  0
    8.1740    2.4700  -58.7210 C   0  0  0  0  0  0  0  0  0  0  0  0
    8.2450    3.6090  -59.7530 C   0  0  1  0  0  0  0  0  0  0  0  0
    7.9100    4.9410  -59.0600 C   0  0  0  0  0  0  0  0  0  0  0  0
    8.9170    5.2190  -57.9310 C   0  0  2  0  0  0  0  0  0  0  0  0
   10.3360    5.2820  -58.5210 C   0  0  0  0  0  0  0  0  0  0  0  0
   10.6780    3.9500  -59.2070 C   0  0  2  0  0  0  0  0  0  0  0  0
    9.6670    3.6820  -60.3320 C   0  0  0  0  0  0  0  0  0  0  0  0
   10.5960    2.8150  -58.1740 C   0  0  0  0  0  0  0  0  0  0  0  0
    8.8460    4.0810  -56.8980 C   0  0  0  0  0  0  0  0  0  0  0  0
    8.3800    0.0570  -54.9900 C   0  0  0  0  0  0  0  0  0  0  0  0
    9.6450   -0.4190  -54.9020 N   0  0  0  0  0  0  0  0  0  0  0  0
    9.5760   -1.3550  -53.9280 N   0  0  0  0  0  0  0  0  0  0  0  0
   10.8040   -2.0450  -53.5510 C   0  0  0  0  0  0  0  0  0  0  0  0
   10.9950   -3.3150  -54.3710 C   0  0  0  0  0  0  0  0  0  0  0  0
   10.4280   -3.1850  -55.6740 O   0  0  0  0  0  0  0  0  0  0  0  0
    8.3130   -1.5440  -53.4260 C   0  0  0  0  0  0  0  0  0  0  0  0
    7.9700   -2.5230  -52.4030 C   0  0  0  0  0  0  0  0  0  0  0  0
    8.1620   -2.2250  -51.0480 C   0  0  0  0  0  0  0  0  0  0  0  0
    7.8200   -3.1600  -50.0690 C   0  0  0  0  0  0  0  0  0  0  0  0
    7.2890   -4.3950  -50.4390 C   0  0  0  0  0  0  0  0  0  0  0  0
    7.1050   -4.7000  -51.7860 C   0  0  0  0  0  0  0  0  0  0  0  0
    7.4450   -3.7680  -52.7680 C   0  0  0  0  0  0  0  0  0  0  0  0
    7.5220   -0.6230  -54.0870 C   0  0  0  0  0  0  0  0  0  0  0  0
    5.8560   -0.3710  -53.8650 Cl  0  0  0  0  0  0  0  0  0  0  0  0
   10.0350    1.2060  -56.3000 H   0  0  0  0  0  0  0  0  0  0  0  0
    8.4233    1.5190  -59.2145 H   0  0  0  0  0  0  0  0  0  0  0  0
    7.1554    2.4288  -58.3079 H   0  0  0  0  0  0  0  0  0  0  0  0
    7.5253    3.4206  -60.5633 H   0  0  0  0  0  0  0  0  0  0  0  0
    7.9562    5.7561  -59.7972 H   0  0  0  0  0  0  0  0  0  0  0  0
    6.8985    4.8792  -58.6322 H   0  0  0  0  0  0  0  0  0  0  0  0
    8.6757    6.1761  -57.4454 H   0  0  0  0  0  0  0  0  0  0  0  0
   10.3881    6.0961  -59.2590 H   0  0  0  0  0  0  0  0  0  0  0  0
   11.0567    5.4671  -57.7108 H   0  0  0  0  0  0  0  0  0  0  0  0
   11.6935    4.0003  -59.6268 H   0  0  0  0  0  0  0  0  0  0  0  0
    9.7187    4.4960  -61.0700 H   0  0  0  0  0  0  0  0  0  0  0  0
    9.9099    2.7245  -60.8159 H   0  0  0  0  0  0  0  0  0  0  0  0
   10.8402    1.8622  -58.6665 H   0  0  0  0  0  0  0  0  0  0  0  0
   11.3111    3.0255  -57.3651 H   0  0  0  0  0  0  0  0  0  0  0  0
    9.5729    4.2752  -56.0955 H   0  0  0  0  0  0  0  0  0  0  0  0
    7.8269    4.0388  -56.4861 H   0  0  0  0  0  0  0  0  0  0  0  0
   11.6594   -1.3750  -53.7223 H   0  0  0  0  0  0  0  0  0  0  0  0
   10.7362   -2.3225  -52.4887 H   0  0  0  0  0  0  0  0  0  0  0  0
   12.0714   -3.5195  -54.4681 H   0  0  0  0  0  0  0  0  0  0  0  0
   10.4853   -4.1408  -53.8531 H   0  0  0  0  0  0  0  0  0  0  0  0
   10.1980   -4.0880  -55.9740 H   0  0  0  0  0  0  0  0  0  0  0  0
    8.5832   -1.2522  -50.7544 H   0  0  0  0  0  0  0  0  0  0  0  0
    7.9695   -2.9222  -49.0055 H   0  0  0  0  0  0  0  0  0  0  0  0
    7.0151   -5.1291  -49.6669 H   0  0  0  0  0  0  0  0  0  0  0  0
    6.6911   -5.6770  -52.0761 H   0  0  0  0  0  0  0  0  0  0  0  0
    7.3000   -4.0125  -53.8306 H   0  0  0  0  0  0  0  0  0  0  0  0
  1  2  2  0
  2  3  1  0
  4  3  1  1
  4  5  1  0
  5  6  1  0
  6  7  1  0
  7  8  1  0
  8  9  1  0
  9 10  1  0
 10 11  1  0
 10 12  1  0
  8 13  1  0
  2 14  1  0
 14 15  2  0
 15 16  1  0
 16 17  1  0
 17 18  1  0
 18 19  1  0
 16 20  1  0
 20 21  1  0
 21 22  2  0
 22 23  1  0
 23 24  2  0
 24 25  1  0
 25 26  2  0
 20 27  2  0
 27 28  1  0
 12  4  1  0
 27 14  1  0
 13  4  1  0
 26 21  1  0
 11  6  1  0
  3 29  1  0
  5 30  1  0
  5 31  1  0
  6 32  1  6
  7 33  1  0
  7 34  1  0
  8 35  1  1
  9 36  1  0
  9 37  1  0
 10 38  1  6
 11 39  1  0
 11 40  1  0
 12 41  1  0
 12 42  1  0
 13 43  1  0
 13 44  1  0
 17 45  1  0
 17 46  1  0
 18 47  1  0
 18 48  1  0
 19 49  1  0
 22 50  1  0
 23 51  1  0
 24 52  1  0
 25 53  1  0
 26 54  1  0
M  END
>  <meeko>  (84) 
{"is_sidechain": false}

$$$$

     RDKit          3D

 53 57  0  0  0  0  0  0  0  0999 V2000
   10.9670   -3.4660  -54.5130 C   0  0  0  0  0  0  0  0  0  0  0  0
   10.8310   -2.2130  -53.6670 C   0  0  0  0  0  0  0  0  0  0  0  0
    9.6510   -1.4410  -54.0150 N   0  0  0  0  0  0  0  0  0  0  0  0
    9.7610   -0.4930  -54.9650 N   0  0  0  0  0  0  0  0  0  0  0  0
    8.5460    0.0790  -55.0330 C   0  0  0  0  0  0  0  0  0  0  0  0
    8.2640    1.1930  -55.9660 C   0  0  0  0  0  0  0  0  0  0  0  0
    7.1430    1.6650  -56.1220 O   0  0  0  0  0  0  0  0  0  0  0  0
    9.3800    1.6710  -56.6380 N   0  0  0  0  0  0  0  0  0  0  0  0
    9.3730    2.8220  -57.5480 C   0  0  2  0  0  0  0  0  0  0  0  0
    8.3260    2.6630  -58.6800 C   0  0  0  0  0  0  0  0  0  0  0  0
    8.3850    3.8610  -59.6450 C   0  0  1  0  0  0  0  0  0  0  0  0
    8.1120    5.1560  -58.8610 C   0  0  0  0  0  0  0  0  0  0  0  0
    9.1700    5.3430  -57.7600 C   0  0  2  0  0  0  0  0  0  0  0  0
   10.5630    5.4080  -58.4040 C   0  0  0  0  0  0  0  0  0  0  0  0
   10.8450    4.1130  -59.1810 C   0  0  2  0  0  0  0  0  0  0  0  0
    9.7830    3.9360  -60.2780 C   0  0  0  0  0  0  0  0  0  0  0  0
   10.7740    2.9200  -58.2140 C   0  0  0  0  0  0  0  0  0  0  0  0
    9.1110    4.1480  -56.7930 C   0  0  0  0  0  0  0  0  0  0  0  0
    7.6650   -0.5370  -54.0990 C   0  0  0  0  0  0  0  0  0  0  0  0
    8.3950   -1.5260  -53.4690 C   0  0  0  0  0  0  0  0  0  0  0  0
    7.9940   -2.4480  -52.4180 C   0  0  0  0  0  0  0  0  0  0  0  0
    7.4900   -3.7110  -52.7470 C   0  0  0  0  0  0  0  0  0  0  0  0
    7.1050   -4.5990  -51.7410 C   0  0  0  0  0  0  0  0  0  0  0  0
    7.2270   -4.2310  -50.4020 C   0  0  0  0  0  0  0  0  0  0  0  0
    7.7360   -2.9780  -50.0670 C   0  0  0  0  0  0  0  0  0  0  0  0
    8.1210   -2.0880  -51.0710 C   0  0  0  0  0  0  0  0  0  0  0  0
   11.0622   -4.3433  -53.8563 H   0  0  0  0  0  0  0  0  0  0  0  0
   10.0758   -3.5783  -55.1479 H   0  0  0  0  0  0  0  0  0  0  0  0
   11.8616   -3.3844  -55.1479 H   0  0  0  0  0  0  0  0  0  0  0  0
   10.7633   -2.5057  -52.6088 H   0  0  0  0  0  0  0  0  0  0  0  0
   11.7134   -1.5830  -53.8527 H   0  0  0  0  0  0  0  0  0  0  0  0
   10.2790    1.3710  -56.2900 H   0  0  0  0  0  0  0  0  0  0  0  0
    8.5348    1.7385  -59.2383 H   0  0  0  0  0  0  0  0  0  0  0  0
    7.3227    2.6182  -58.2313 H   0  0  0  0  0  0  0  0  0  0  0  0
    7.6288    3.7385  -60.4344 H   0  0  0  0  0  0  0  0  0  0  0  0
    8.1492    6.0127  -59.5500 H   0  0  0  0  0  0  0  0  0  0  0  0
    7.1173    5.0913  -58.3959 H   0  0  0  0  0  0  0  0  0  0  0  0
    8.9733    6.2745  -57.2090 H   0  0  0  0  0  0  0  0  0  0  0  0
   10.6053    6.2633  -59.0944 H   0  0  0  0  0  0  0  0  0  0  0  0
   11.3199    5.5270  -57.6147 H   0  0  0  0  0  0  0  0  0  0  0  0
   11.8442    4.1654  -59.6380 H   0  0  0  0  0  0  0  0  0  0  0  0
    9.8255    4.7914  -60.9682 H   0  0  0  0  0  0  0  0  0  0  0  0
    9.9821    3.0044  -60.8279 H   0  0  0  0  0  0  0  0  0  0  0  0
   10.9721    1.9930  -58.7720 H   0  0  0  0  0  0  0  0  0  0  0  0
   11.5266    3.0647  -57.4249 H   0  0  0  0  0  0  0  0  0  0  0  0
    9.8754    4.2766  -56.0125 H   0  0  0  0  0  0  0  0  0  0  0  0
    8.1088    4.1067  -56.3414 H   0  0  0  0  0  0  0  0  0  0  0  0
    6.6121   -0.2768  -53.9156 H   0  0  0  0  0  0  0  0  0  0  0  0
    7.3967   -4.0055  -53.8027 H   0  0  0  0  0  0  0  0  0  0  0  0
    6.7053   -5.5892  -52.0049 H   0  0  0  0  0  0  0  0  0  0  0  0
    6.9213   -4.9301  -49.6096 H   0  0  0  0  0  0  0  0  0  0  0  0
    7.8346   -2.6898  -49.0100 H   0  0  0  0  0  0  0  0  0  0  0  0
    8.5254   -1.1008  -50.8031 H   0  0  0  0  0  0  0  0  0  0  0  0
  1  2  1  0
  2  3  1  0
  3  4  1  0
  4  5  2  0
  5  6  1  0
  6  7  2  0
  6  8  1  0
  9  8  1  1
  9 10  1  0
 10 11  1  0
 11 12  1  0
 12 13  1  0
 13 14  1  0
 14 15  1  0
 15 16  1  0
 15 17  1  0
 13 18  1  0
  5 19  1  0
 19 20  2  0
 20 21  1  0
 21 22  2  0
 22 23  1  0
 23 24  2  0
 24 25  1  0
 25 26  2  0
 20  3  1  0
 26 21  1  0
 17  9  1  0
 18  9  1  0
 16 11  1  0
  1 27  1  0
  1 28  1  0
  1 29  1  0
  2 30  1  0
  2 31  1  0
  8 32  1  0
 10 33  1  0
 10 34  1  0
 11 35  1  6
 12 36  1  0
 12 37  1  0
 13 38  1  1
 14 39  1  0
 14 40  1  0
 15 41  1  6
 16 42  1  0
 16 43  1  0
 17 44  1  0
 17 45  1  0
 18 46  1  0
 18 47  1  0
 19 48  1  0
 22 49  1  0
 23 50  1  0
 24 51  1  0
 25 52  1  0
 26 53  1  0
M  END
>  <meeko>  (85) 
{"is_sidechain": false}

$$$$

     RDKit          3D

 50 54  0  0  0  0  0  0  0  0999 V2000
   11.1700   -3.0960  -54.4760 C   0  0  0  0  0  0  0  0  0  0  0  0
   10.4740   -1.8720  -54.8070 N   0  0  0  0  0  0  0  0  0  0  0  0
   11.0250   -1.0410  -55.7180 N   0  0  0  0  0  0  0  0  0  0  0  0
   10.1870    0.0160  -55.7480 C   0  0  0  0  0  0  0  0  0  0  0  0
   10.4300    1.1800  -56.6160 C   0  0  0  0  0  0  0  0  0  0  0  0
   11.5510    1.6320  -56.8140 O   0  0  0  0  0  0  0  0  0  0  0  0
    9.2710    1.6840  -57.1650 N   0  0  0  0  0  0  0  0  0  0  0  0
    9.1690    2.8300  -58.0630 C   0  0  2  0  0  0  0  0  0  0  0  0
    9.8800    4.0760  -57.4820 C   0  0  0  0  0  0  0  0  0  0  0  0
    9.7170    5.2820  -58.4250 C   0  0  1  0  0  0  0  0  0  0  0  0
   10.3190    4.9360  -59.7980 C   0  0  0  0  0  0  0  0  0  0  0  0
    9.5970    3.7190  -60.4020 C   0  0  2  0  0  0  0  0  0  0  0  0
    8.1020    4.0430  -60.5580 C   0  0  0  0  0  0  0  0  0  0  0  0
    7.4930    4.3820  -59.1870 C   0  0  2  0  0  0  0  0  0  0  0  0
    8.2220    5.5970  -58.5920 C   0  0  0  0  0  0  0  0  0  0  0  0
    7.6670    3.1780  -58.2480 C   0  0  0  0  0  0  0  0  0  0  0  0
    9.7600    2.5140  -59.4590 C   0  0  0  0  0  0  0  0  0  0  0  0
    9.1020   -0.1740  -54.8590 C   0  0  0  0  0  0  0  0  0  0  0  0
    9.2920   -1.4120  -54.2780 C   0  0  0  0  0  0  0  0  0  0  0  0
    8.4750   -2.1130  -53.2940 C   0  0  0  0  0  0  0  0  0  0  0  0
    8.9020   -2.2400  -51.9660 C   0  0  0  0  0  0  0  0  0  0  0  0
    8.1150   -2.9190  -51.0320 C   0  0  0  0  0  0  0  0  0  0  0  0
    6.9000   -3.4770  -51.4250 C   0  0  0  0  0  0  0  0  0  0  0  0
    5.9310   -4.3100  -50.2750 Cl  0  0  0  0  0  0  0  0  0  0  0  0
    6.4690   -3.3690  -52.7450 C   0  0  0  0  0  0  0  0  0  0  0  0
    7.2570   -2.6900  -53.6790 C   0  0  0  0  0  0  0  0  0  0  0  0
   11.2291   -3.2000  -53.3825 H   0  0  0  0  0  0  0  0  0  0  0  0
   10.6243   -3.9534  -54.8969 H   0  0  0  0  0  0  0  0  0  0  0  0
   12.1858   -3.0655  -54.8969 H   0  0  0  0  0  0  0  0  0  0  0  0
    8.4320    1.1790  -56.8860 H   0  0  0  0  0  0  0  0  0  0  0  0
    9.4400    4.3200  -56.5038 H   0  0  0  0  0  0  0  0  0  0  0  0
   10.9518    3.8538  -57.3725 H   0  0  0  0  0  0  0  0  0  0  0  0
   10.2344    6.1559  -58.0023 H   0  0  0  0  0  0  0  0  0  0  0  0
   10.2055    5.7976  -60.4723 H   0  0  0  0  0  0  0  0  0  0  0  0
   11.3851    4.6957  -59.6728 H   0  0  0  0  0  0  0  0  0  0  0  0
   10.0289    3.4812  -61.3853 H   0  0  0  0  0  0  0  0  0  0  0  0
    7.9840    4.9041  -61.2323 H   0  0  0  0  0  0  0  0  0  0  0  0
    7.5841    3.1679  -60.9775 H   0  0  0  0  0  0  0  0  0  0  0  0
    6.4240    4.6138  -59.3031 H   0  0  0  0  0  0  0  0  0  0  0  0
    8.1041    6.4586  -59.2657 H   0  0  0  0  0  0  0  0  0  0  0  0
    7.7899    5.8315  -57.6080 H   0  0  0  0  0  0  0  0  0  0  0  0
    7.2303    3.4200  -57.2678 H   0  0  0  0  0  0  0  0  0  0  0  0
    7.1580    2.3101  -58.6925 H   0  0  0  0  0  0  0  0  0  0  0  0
    9.2346    1.6471  -59.8861 H   0  0  0  0  0  0  0  0  0  0  0  0
   10.8319    2.2929  -59.3484 H   0  0  0  0  0  0  0  0  0  0  0  0
    8.2737    0.5245  -54.6691 H   0  0  0  0  0  0  0  0  0  0  0  0
    9.8627   -1.8026  -51.6565 H   0  0  0  0  0  0  0  0  0  0  0  0
    8.4536   -3.0128  -49.9896 H   0  0  0  0  0  0  0  0  0  0  0  0
    5.5120   -3.8164  -53.0515 H   0  0  0  0  0  0  0  0  0  0  0  0
    6.9191   -2.6080  -54.7226 H   0  0  0  0  0  0  0  0  0  0  0  0
  1  2  1  0
  2  3  1  0
  3  4  2  0
  4  5  1  0
  5  6  2  0
  5  7  1  0
  8  7  1  1
  8  9  1  0
  9 10  1  0
 10 11  1  0
 11 12  1  0
 12 13  1  0
 13 14  1  0
 14 15  1  0
 14 16  1  0
 12 17  1  0
  4 18  1  0
 18 19  2  0
 19 20  1  0
 20 21  1  0
 21 22  2  0
 22 23  1  0
 23 24  1  0
 23 25  2  0
 25 26  1  0
 19  2  1  0
 26 20  2  0
 16  8  1  0
 17  8  1  0
 15 10  1  0
  1 27  1  0
  1 28  1  0
  1 29  1  0
  7 30  1  0
  9 31  1  0
  9 32  1  0
 10 33  1  1
 11 34  1  0
 11 35  1  0
 12 36  1  6
 13 37  1  0
 13 38  1  0
 14 39  1  6
 15 40  1  0
 15 41  1  0
 16 42  1  0
 16 43  1  0
 17 44  1  0
 17 45  1  0
 18 46  1  0
 21 47  1  0
 22 48  1  0
 25 49  1  0
 26 50  1  0
M  END
>  <meeko>  (86) 
{"is_sidechain": false}

$$$$

     RDKit          3D

 50 54  0  0  0  0  0  0  0  0999 V2000
   10.5550   -1.8580  -53.7160 C   0  0  0  0  0  0  0  0  0  0  0  0
    9.3950   -1.0780  -54.0830 N   0  0  0  0  0  0  0  0  0  0  0  0
    9.5420   -0.0940  -54.9850 N   0  0  0  0  0  0  0  0  0  0  0  0
    8.3050    0.3950  -55.1780 C   0  0  0  0  0  0  0  0  0  0  0  0
    8.0450    1.4960  -56.1320 C   0  0  0  0  0  0  0  0  0  0  0  0
    6.9250    1.9610  -56.3250 O   0  0  0  0  0  0  0  0  0  0  0  0
    9.1720    1.9500  -56.8030 N   0  0  0  0  0  0  0  0  0  0  0  0
    9.1590    2.9700  -57.8560 C   0  0  2  0  0  0  0  0  0  0  0  0
   10.5420    2.9530  -58.5650 C   0  0  0  0  0  0  0  0  0  0  0  0
   10.6010    3.9970  -59.6910 C   0  0  1  0  0  0  0  0  0  0  0  0
    9.5010    3.6880  -60.7210 C   0  0  0  0  0  0  0  0  0  0  0  0
    8.1220    3.7290  -60.0450 C   0  0  2  0  0  0  0  0  0  0  0  0
    7.8940    5.1260  -59.4430 C   0  0  0  0  0  0  0  0  0  0  0  0
    8.9890    5.4440  -58.4100 C   0  0  2  0  0  0  0  0  0  0  0  0
   10.3640    5.3930  -59.0970 C   0  0  0  0  0  0  0  0  0  0  0  0
    8.9430    4.3950  -57.2850 C   0  0  0  0  0  0  0  0  0  0  0  0
    8.0740    2.6780  -58.9210 C   0  0  0  0  0  0  0  0  0  0  0  0
    7.3750   -0.3020  -54.3570 C   0  0  0  0  0  0  0  0  0  0  0  0
    8.1050   -1.2290  -53.6370 C   0  0  0  0  0  0  0  0  0  0  0  0
    7.6600   -2.2030  -52.6480 C   0  0  0  0  0  0  0  0  0  0  0  0
    7.8720   -1.9810  -51.2790 C   0  0  0  0  0  0  0  0  0  0  0  0
    7.4360   -2.9160  -50.3380 C   0  0  0  0  0  0  0  0  0  0  0  0
    6.7850   -4.0670  -50.7660 C   0  0  0  0  0  0  0  0  0  0  0  0
    6.3670   -4.9620  -49.8620 F   0  0  0  0  0  0  0  0  0  0  0  0
    6.5590   -4.3010  -52.1170 C   0  0  0  0  0  0  0  0  0  0  0  0
    6.9940   -3.3660  -53.0590 C   0  0  0  0  0  0  0  0  0  0  0  0
   10.6308   -1.9089  -52.6198 H   0  0  0  0  0  0  0  0  0  0  0  0
   10.4574   -2.8747  -54.1244 H   0  0  0  0  0  0  0  0  0  0  0  0
   11.4597   -1.3841  -54.1244 H   0  0  0  0  0  0  0  0  0  0  0  0
    9.9930    1.3660  -56.7460 H   0  0  0  0  0  0  0  0  0  0  0  0
   11.3265    3.1763  -57.8270 H   0  0  0  0  0  0  0  0  0  0  0  0
   10.6962    1.9566  -59.0048 H   0  0  0  0  0  0  0  0  0  0  0  0
   11.5861    3.9657  -60.1794 H   0  0  0  0  0  0  0  0  0  0  0  0
    9.5346    4.4371  -61.5258 H   0  0  0  0  0  0  0  0  0  0  0  0
    9.6688    2.6843  -61.1385 H   0  0  0  0  0  0  0  0  0  0  0  0
    7.3397    3.5124  -60.7873 H   0  0  0  0  0  0  0  0  0  0  0  0
    7.9229    5.8770  -60.2462 H   0  0  0  0  0  0  0  0  0  0  0  0
    6.9134    5.1468  -58.9449 H   0  0  0  0  0  0  0  0  0  0  0  0
    8.8231    6.4466  -57.9889 H   0  0  0  0  0  0  0  0  0  0  0  0
   10.3974    6.1421  -59.9018 H   0  0  0  0  0  0  0  0  0  0  0  0
   11.1472    5.6083  -58.3552 H   0  0  0  0  0  0  0  0  0  0  0  0
    9.7346    4.6148  -56.5536 H   0  0  0  0  0  0  0  0  0  0  0  0
    7.9554    4.4369  -56.8023 H   0  0  0  0  0  0  0  0  0  0  0  0
    7.0831    2.7036  -58.4441 H   0  0  0  0  0  0  0  0  0  0  0  0
    8.2614    1.6850  -59.3555 H   0  0  0  0  0  0  0  0  0  0  0  0
    6.2888   -0.1358  -54.3054 H   0  0  0  0  0  0  0  0  0  0  0  0
    8.3840   -1.0663  -50.9455 H   0  0  0  0  0  0  0  0  0  0  0  0
    7.6066   -2.7428  -49.2652 H   0  0  0  0  0  0  0  0  0  0  0  0
    6.0415   -5.2156  -52.4421 H   0  0  0  0  0  0  0  0  0  0  0  0
    6.8130   -3.5432  -54.1294 H   0  0  0  0  0  0  0  0  0  0  0  0
  1  2  1  0
  2  3  1  0
  3  4  2  0
  4  5  1  0
  5  6  2  0
  5  7  1  0
  8  7  1  1
  8  9  1  0
  9 10  1  0
 10 11  1  0
 11 12  1  0
 12 13  1  0
 13 14  1  0
 14 15  1  0
 14 16  1  0
 12 17  1  0
  4 18  1  0
 18 19  2  0
 19 20  1  0
 20 21  1  0
 21 22  2  0
 22 23  1  0
 23 24  1  0
 23 25  2  0
 25 26  1  0
 19  2  1  0
 26 20  2  0
 16  8  1  0
 17  8  1  0
 15 10  1  0
  1 27  1  0
  1 28  1  0
  1 29  1  0
  7 30  1  0
  9 31  1  0
  9 32  1  0
 10 33  1  6
 11 34  1  0
 11 35  1  0
 12 36  1  6
 13 37  1  0
 13 38  1  0
 14 39  1  1
 15 40  1  0
 15 41  1  0
 16 42  1  0
 16 43  1  0
 17 44  1  0
 17 45  1  0
 18 46  1  0
 21 47  1  0
 22 48  1  0
 25 49  1  0
 26 50  1  0
M  END
>  <meeko>  (87) 
{"is_sidechain": false}

$$$$

     RDKit          3D

 49 53  0  0  0  0  0  0  0  0999 V2000
   11.1480   -2.3600  -53.5120 C   0  0  0  0  0  0  0  0  0  0  0  0
    9.9360   -1.5930  -53.8670 C   0  0  0  0  0  0  0  0  0  0  0  0
   10.0000   -0.6160  -54.8410 N   0  0  0  0  0  0  0  0  0  0  0  0
    8.7700   -0.1290  -54.8810 C   0  0  0  0  0  0  0  0  0  0  0  0
    8.3120    0.9440  -55.7540 C   0  0  0  0  0  0  0  0  0  0  0  0
    7.1420    1.3040  -55.8520 O   0  0  0  0  0  0  0  0  0  0  0  0
    9.3420    1.5270  -56.4740 N   0  0  0  0  0  0  0  0  0  0  0  0
    9.2090    2.6260  -57.4300 C   0  0  2  0  0  0  0  0  0  0  0  0
   10.5950    2.8770  -58.0840 C   0  0  0  0  0  0  0  0  0  0  0  0
   10.5230    4.0260  -59.1030 C   0  0  1  0  0  0  0  0  0  0  0  0
    9.5090    3.6640  -60.1990 C   0  0  0  0  0  0  0  0  0  0  0  0
    8.1220    3.4360  -59.5760 C   0  0  2  0  0  0  0  0  0  0  0  0
    7.6730    4.7180  -58.8540 C   0  0  0  0  0  0  0  0  0  0  0  0
    8.6830    5.0890  -57.7550 C   0  0  2  0  0  0  0  0  0  0  0  0
   10.0660    5.3060  -58.3880 C   0  0  0  0  0  0  0  0  0  0  0  0
    8.7660    3.9380  -56.7360 C   0  0  0  0  0  0  0  0  0  0  0  0
    8.2050    2.2850  -58.5580 C   0  0  0  0  0  0  0  0  0  0  0  0
    7.9020   -0.7170  -54.0040 O   0  0  0  0  0  0  0  0  0  0  0  0
    8.6510   -1.6650  -53.3550 C   0  0  0  0  0  0  0  0  0  0  0  0
    7.9460   -2.4590  -52.3540 C   0  0  0  0  0  0  0  0  0  0  0  0
    6.9940   -3.4190  -52.7240 C   0  0  0  0  0  0  0  0  0  0  0  0
    6.3270   -4.1790  -51.7570 C   0  0  0  0  0  0  0  0  0  0  0  0
    6.6030   -3.9890  -50.4060 C   0  0  0  0  0  0  0  0  0  0  0  0
    7.5410   -3.0370  -50.0180 C   0  0  0  0  0  0  0  0  0  0  0  0
    8.2060   -2.2770  -50.9860 C   0  0  0  0  0  0  0  0  0  0  0  0
   11.2382   -2.4171  -52.4172 H   0  0  0  0  0  0  0  0  0  0  0  0
   11.0738   -3.3759  -53.9273 H   0  0  0  0  0  0  0  0  0  0  0  0
   12.0343   -1.8580  -53.9273 H   0  0  0  0  0  0  0  0  0  0  0  0
   10.2630    1.1360  -56.2960 H   0  0  0  0  0  0  0  0  0  0  0  0
   11.3212    3.1367  -57.2997 H   0  0  0  0  0  0  0  0  0  0  0  0
   10.9059    1.9617  -58.6090 H   0  0  0  0  0  0  0  0  0  0  0  0
   11.5130    4.1885  -59.5541 H   0  0  0  0  0  0  0  0  0  0  0  0
    9.4507    4.4861  -60.9275 H   0  0  0  0  0  0  0  0  0  0  0  0
    9.8350    2.7422  -60.7029 H   0  0  0  0  0  0  0  0  0  0  0  0
    7.3994    3.1818  -60.3655 H   0  0  0  0  0  0  0  0  0  0  0  0
    7.6082    5.5410  -59.5810 H   0  0  0  0  0  0  0  0  0  0  0  0
    6.6888    4.5454  -58.3941 H   0  0  0  0  0  0  0  0  0  0  0  0
    8.3595    6.0109  -57.2496 H   0  0  0  0  0  0  0  0  0  0  0  0
   10.0085    6.1290  -59.1156 H   0  0  0  0  0  0  0  0  0  0  0  0
   10.7894    5.5563  -57.5981 H   0  0  0  0  0  0  0  0  0  0  0  0
    9.4960    4.1983  -55.9554 H   0  0  0  0  0  0  0  0  0  0  0  0
    7.7714    3.7856  -56.2915 H   0  0  0  0  0  0  0  0  0  0  0  0
    7.2104    2.1188  -58.1185 H   0  0  0  0  0  0  0  0  0  0  0  0
    8.5488    1.3776  -59.0762 H   0  0  0  0  0  0  0  0  0  0  0  0
    6.7683   -3.5770  -53.7889 H   0  0  0  0  0  0  0  0  0  0  0  0
    5.5829   -4.9283  -52.0651 H   0  0  0  0  0  0  0  0  0  0  0  0
    6.0809   -4.5899  -49.6468 H   0  0  0  0  0  0  0  0  0  0  0  0
    7.7593   -2.8823  -48.9510 H   0  0  0  0  0  0  0  0  0  0  0  0
    8.9442   -1.5249  -50.6707 H   0  0  0  0  0  0  0  0  0  0  0  0
  1  2  1  0
  2  3  1  0
  3  4  2  0
  4  5  1  0
  5  6  2  0
  5  7  1  0
  8  7  1  1
  8  9  1  0
  9 10  1  0
 10 11  1  0
 11 12  1  0
 12 13  1  0
 13 14  1  0
 14 15  1  0
 14 16  1  0
 12 17  1  0
  4 18  1  0
 18 19  1  0
 19 20  1  0
 20 21  2  0
 21 22  1  0
 22 23  2  0
 23 24  1  0
 24 25  2  0
 19  2  2  0
 25 20  1  0
 16  8  1  0
 17  8  1  0
 15 10  1  0
  1 26  1  0
  1 27  1  0
  1 28  1  0
  7 29  1  0
  9 30  1  0
  9 31  1  0
 10 32  1  6
 11 33  1  0
 11 34  1  0
 12 35  1  6
 13 36  1  0
 13 37  1  0
 14 38  1  1
 15 39  1  0
 15 40  1  0
 16 41  1  0
 16 42  1  0
 17 43  1  0
 17 44  1  0
 21 45  1  0
 22 46  1  0
 23 47  1  0
 24 48  1  0
 25 49  1  0
M  END
>  <meeko>  (88) 
{"is_sidechain": false}

$$$$

     RDKit          3D

 55 59  0  0  0  0  0  0  0  0999 V2000
    6.8300   -0.0720  -52.7060 C   0  0  0  0  0  0  0  0  0  0  0  0
    8.0090   -0.4150  -53.5780 C   0  0  0  0  0  0  0  0  0  0  0  0
    8.4320    0.5070  -54.5420 C   0  0  0  0  0  0  0  0  0  0  0  0
    9.5170    0.1860  -55.3420 C   0  0  0  0  0  0  0  0  0  0  0  0
    9.9940    1.1530  -56.3840 C   0  0  0  0  0  0  0  0  0  0  0  0
   11.1720    1.2000  -56.7150 O   0  0  0  0  0  0  0  0  0  0  0  0
    8.9940    1.9480  -56.9030 N   0  0  0  0  0  0  0  0  0  0  0  0
    9.1570    2.9760  -57.9280 C   0  0  2  0  0  0  0  0  0  0  0  0
    7.7540    3.3630  -58.4660 C   0  0  0  0  0  0  0  0  0  0  0  0
    7.8600    4.4450  -59.5530 C   0  0  1  0  0  0  0  0  0  0  0  0
    8.5320    5.6920  -58.9570 C   0  0  0  0  0  0  0  0  0  0  0  0
    9.9350    5.3370  -58.4410 C   0  0  2  0  0  0  0  0  0  0  0  0
   10.7820    4.7960  -59.6050 C   0  0  0  0  0  0  0  0  0  0  0  0
   10.1180    3.5460  -60.2070 C   0  0  2  0  0  0  0  0  0  0  0  0
    8.7140    3.9120  -60.7130 C   0  0  0  0  0  0  0  0  0  0  0  0
   10.0010    2.4620  -59.1210 C   0  0  0  0  0  0  0  0  0  0  0  0
    9.8170    4.2540  -57.3540 C   0  0  0  0  0  0  0  0  0  0  0  0
   10.2070   -0.9830  -55.2480 N   0  0  0  0  0  0  0  0  0  0  0  0
    9.7930   -1.8740  -54.3100 C   0  0  0  0  0  0  0  0  0  0  0  0
   10.5870   -3.1510  -54.2450 C   0  0  0  0  0  0  0  0  0  0  0  0
    8.7000   -1.6420  -53.4480 C   0  0  0  0  0  0  0  0  0  0  0  0
    8.2910   -2.6420  -52.4480 C   0  0  0  0  0  0  0  0  0  0  0  0
    8.8720   -2.6570  -51.1710 C   0  0  0  0  0  0  0  0  0  0  0  0
    8.4820   -3.6040  -50.2220 C   0  0  0  0  0  0  0  0  0  0  0  0
    7.5060   -4.5470  -50.5380 C   0  0  0  0  0  0  0  0  0  0  0  0
    6.9210   -4.5450  -51.8030 C   0  0  0  0  0  0  0  0  0  0  0  0
    7.3100   -3.5990  -52.7520 C   0  0  0  0  0  0  0  0  0  0  0  0
    7.1195   -0.1562  -51.6481 H   0  0  0  0  0  0  0  0  0  0  0  0
    6.5055    0.9578  -52.9165 H   0  0  0  0  0  0  0  0  0  0  0  0
    6.0038   -0.7670  -52.9165 H   0  0  0  0  0  0  0  0  0  0  0  0
    7.9126    1.4691  -54.6625 H   0  0  0  0  0  0  0  0  0  0  0  0
    8.0710    1.7720  -56.5110 H   0  0  0  0  0  0  0  0  0  0  0  0
    7.2735    2.4702  -58.8928 H   0  0  0  0  0  0  0  0  0  0  0  0
    7.1565    3.7609  -57.6325 H   0  0  0  0  0  0  0  0  0  0  0  0
    6.8567    4.7049  -59.9216 H   0  0  0  0  0  0  0  0  0  0  0  0
    8.6146    6.4673  -59.7330 H   0  0  0  0  0  0  0  0  0  0  0  0
    7.9232    6.0651  -58.1202 H   0  0  0  0  0  0  0  0  0  0  0  0
   10.4128    6.2342  -58.0205 H   0  0  0  0  0  0  0  0  0  0  0  0
   10.8701    5.5704  -60.3812 H   0  0  0  0  0  0  0  0  0  0  0  0
   11.7801    4.5271  -59.2288 H   0  0  0  0  0  0  0  0  0  0  0  0
   10.7255    3.1688  -61.0429 H   0  0  0  0  0  0  0  0  0  0  0  0
    8.7971    4.6863  -61.4899 H   0  0  0  0  0  0  0  0  0  0  0  0
    8.2353    3.0141  -61.1309 H   0  0  0  0  0  0  0  0  0  0  0  0
    9.5174    1.5716  -59.5492 H   0  0  0  0  0  0  0  0  0  0  0  0
   11.0093    2.2103  -58.7604 H   0  0  0  0  0  0  0  0  0  0  0  0
   10.8214    4.0057  -56.9804 H   0  0  0  0  0  0  0  0  0  0  0  0
    9.1914    4.6395  -56.5355 H   0  0  0  0  0  0  0  0  0  0  0  0
   10.7568   -3.4241  -53.1930 H   0  0  0  0  0  0  0  0  0  0  0  0
   10.0295   -3.9554  -54.7472 H   0  0  0  0  0  0  0  0  0  0  0  0
   11.5550   -3.0069  -54.7472 H   0  0  0  0  0  0  0  0  0  0  0  0
    9.6427   -1.9151  -50.9148 H   0  0  0  0  0  0  0  0  0  0  0  0
    8.9454   -3.6057  -49.2244 H   0  0  0  0  0  0  0  0  0  0  0  0
    7.1976   -5.2921  -49.7899 H   0  0  0  0  0  0  0  0  0  0  0  0
    6.1516   -5.2902  -52.0536 H   0  0  0  0  0  0  0  0  0  0  0  0
    6.8434   -3.6031  -53.7481 H   0  0  0  0  0  0  0  0  0  0  0  0
  1  2  1  0
  2  3  2  0
  3  4  1  0
  4  5  1  0
  5  6  2  0
  5  7  1  0
  8  7  1  1
  8  9  1  0
  9 10  1  0
 10 11  1  0
 11 12  1  0
 12 13  1  0
 13 14  1  0
 14 15  1  0
 14 16  1  0
 12 17  1  0
  4 18  2  0
 18 19  1  0
 19 20  1  0
 19 21  2  0
 21 22  1  0
 22 23  2  0
 23 24  1  0
 24 25  2  0
 25 26  1  0
 26 27  2  0
 21  2  1  0
 27 22  1  0
 16  8  1  0
 17  8  1  0
 15 10  1  0
  1 28  1  0
  1 29  1  0
  1 30  1  0
  3 31  1  0
  7 32  1  0
  9 33  1  0
  9 34  1  0
 10 35  1  6
 11 36  1  0
 11 37  1  0
 12 38  1  1
 13 39  1  0
 13 40  1  0
 14 41  1  6
 15 42  1  0
 15 43  1  0
 16 44  1  0
 16 45  1  0
 17 46  1  0
 17 47  1  0
 20 48  1  0
 20 49  1  0
 20 50  1  0
 23 51  1  0
 24 52  1  0
 25 53  1  0
 26 54  1  0
 27 55  1  0
M  END
>  <meeko>  (89) 
{"is_sidechain": false}

$$$$

     RDKit          3D

 56 60  0  0  0  0  0  0  0  0999 V2000
    5.8900    0.4690  -52.7840 C   0  0  0  0  0  0  0  0  0  0  0  0
    6.2430   -0.3400  -54.0230 C   0  0  0  0  0  0  0  0  0  0  0  0
    7.7120   -0.6010  -54.1390 C   0  0  0  0  0  0  0  0  0  0  0  0
    8.6560    0.0570  -54.9960 C   0  0  0  0  0  0  0  0  0  0  0  0
    8.3980    1.1170  -55.9890 C   0  0  0  0  0  0  0  0  0  0  0  0
    7.2740    1.5460  -56.2280 O   0  0  0  0  0  0  0  0  0  0  0  0
    9.5490    1.5840  -56.6010 N   0  0  0  0  0  0  0  0  0  0  0  0
    9.5950    2.6950  -57.5530 C   0  0  2  0  0  0  0  0  0  0  0  0
    9.1340    4.0240  -56.9060 C   0  0  0  0  0  0  0  0  0  0  0  0
    9.2480    5.1830  -57.9120 C   0  0  1  0  0  0  0  0  0  0  0  0
   10.7110    5.3290  -58.3540 C   0  0  0  0  0  0  0  0  0  0  0  0
   11.1910    4.0300  -59.0230 C   0  0  2  0  0  0  0  0  0  0  0  0
   10.3130    3.7330  -60.2480 C   0  0  0  0  0  0  0  0  0  0  0  0
    8.8470    3.5760  -59.8150 C   0  0  2  0  0  0  0  0  0  0  0  0
    8.3740    4.8750  -59.1400 C   0  0  0  0  0  0  0  0  0  0  0  0
    8.7340    2.4140  -58.8110 C   0  0  0  0  0  0  0  0  0  0  0  0
   11.0660    2.8730  -58.0200 C   0  0  0  0  0  0  0  0  0  0  0  0
    9.8940   -0.4270  -54.8090 N   0  0  0  0  0  0  0  0  0  0  0  0
    9.7590   -1.3430  -53.8380 N   0  0  0  0  0  0  0  0  0  0  0  0
   10.9370   -2.0220  -53.3490 C   0  0  0  0  0  0  0  0  0  0  0  0
    8.4640   -1.5160  -53.4150 C   0  0  0  0  0  0  0  0  0  0  0  0
    8.0640   -2.4610  -52.3780 C   0  0  0  0  0  0  0  0  0  0  0  0
    8.1370   -2.0970  -51.0300 C   0  0  0  0  0  0  0  0  0  0  0  0
    7.7570   -3.0000  -50.0350 C   0  0  0  0  0  0  0  0  0  0  0  0
    7.3000   -4.2700  -50.3850 C   0  0  0  0  0  0  0  0  0  0  0  0
    7.2200   -4.6370  -51.7280 C   0  0  0  0  0  0  0  0  0  0  0  0
    7.6000   -3.7340  -52.7230 C   0  0  0  0  0  0  0  0  0  0  0  0
    6.1427   -0.1102  -51.8836 H   0  0  0  0  0  0  0  0  0  0  0  0
    6.4592    1.4103  -52.7862 H   0  0  0  0  0  0  0  0  0  0  0  0
    4.8128    0.6919  -52.7862 H   0  0  0  0  0  0  0  0  0  0  0  0
    5.7162   -1.3045  -53.9762 H   0  0  0  0  0  0  0  0  0  0  0  0
    5.9377    0.2460  -54.9024 H   0  0  0  0  0  0  0  0  0  0  0  0
   10.4130    1.3300  -56.1390 H   0  0  0  0  0  0  0  0  0  0  0  0
    8.0866    3.9257  -56.5847 H   0  0  0  0  0  0  0  0  0  0  0  0
    9.7782    4.2400  -56.0409 H   0  0  0  0  0  0  0  0  0  0  0  0
    8.9096    6.1177  -57.4410 H   0  0  0  0  0  0  0  0  0  0  0  0
   10.7939    6.1597  -59.0703 H   0  0  0  0  0  0  0  0  0  0  0  0
   11.3358    5.5329  -57.4720 H   0  0  0  0  0  0  0  0  0  0  0  0
   12.2390    4.1406  -59.3384 H   0  0  0  0  0  0  0  0  0  0  0  0
   10.3946    4.5631  -60.9651 H   0  0  0  0  0  0  0  0  0  0  0  0
   10.6533    2.7993  -60.7197 H   0  0  0  0  0  0  0  0  0  0  0  0
    8.2227    3.3670  -60.6962 H   0  0  0  0  0  0  0  0  0  0  0  0
    8.4491    5.7056  -59.8572 H   0  0  0  0  0  0  0  0  0  0  0  0
    7.3299    4.7523  -58.8163 H   0  0  0  0  0  0  0  0  0  0  0  0
    7.6823    2.2966  -58.5106 H   0  0  0  0  0  0  0  0  0  0  0  0
    9.0973    1.4935  -59.2913 H   0  0  0  0  0  0  0  0  0  0  0  0
   11.4058    1.9432  -58.4997 H   0  0  0  0  0  0  0  0  0  0  0  0
   11.6864    3.1034  -57.1413 H   0  0  0  0  0  0  0  0  0  0  0  0
   10.9318   -2.0190  -52.2490 H   0  0  0  0  0  0  0  0  0  0  0  0
   10.9395   -3.0601  -53.7129 H   0  0  0  0  0  0  0  0  0  0  0  0
   11.8365   -1.5038  -53.7129 H   0  0  0  0  0  0  0  0  0  0  0  0
    8.4954   -1.0948  -50.7521 H   0  0  0  0  0  0  0  0  0  0  0  0
    7.8181   -2.7096  -48.9758 H   0  0  0  0  0  0  0  0  0  0  0  0
    7.0025   -4.9826  -49.6016 H   0  0  0  0  0  0  0  0  0  0  0  0
    6.8574   -5.6383  -52.0036 H   0  0  0  0  0  0  0  0  0  0  0  0
    7.5341   -4.0251  -53.7817 H   0  0  0  0  0  0  0  0  0  0  0  0
  1  2  1  0
  2  3  1  0
  3  4  1  0
  4  5  1  0
  5  6  2  0
  5  7  1  0
  8  7  1  1
  8  9  1  0
  9 10  1  0
 10 11  1  0
 11 12  1  0
 12 13  1  0
 13 14  1  0
 14 15  1  0
 14 16  1  0
 12 17  1  0
  4 18  2  0
 18 19  1  0
 19 20  1  0
 19 21  1  0
 21 22  1  0
 22 23  2  0
 23 24  1  0
 24 25  2  0
 25 26  1  0
 26 27  2  0
 21  3  2  0
 27 22  1  0
 16  8  1  0
 17  8  1  0
 15 10  1  0
  1 28  1  0
  1 29  1  0
  1 30  1  0
  2 31  1  0
  2 32  1  0
  7 33  1  0
  9 34  1  0
  9 35  1  0
 10 36  1  1
 11 37  1  0
 11 38  1  0
 12 39  1  6
 13 40  1  0
 13 41  1  0
 14 42  1  6
 15 43  1  0
 15 44  1  0
 16 45  1  0
 16 46  1  0
 17 47  1  0
 17 48  1  0
 20 49  1  0
 20 50  1  0
 20 51  1  0
 23 52  1  0
 24 53  1  0
 25 54  1  0
 26 55  1  0
 27 56  1  0
M  END
>  <meeko>  (90) 
{"is_sidechain": false}

$$$$

     RDKit          3D

 59 63  0  0  0  0  0  0  0  0999 V2000
   11.5060   -4.2460  -54.9070 C   0  0  0  0  0  0  0  0  0  0  0  0
   10.3910   -3.2420  -55.1570 C   0  0  0  0  0  0  0  0  0  0  0  0
   10.5090   -2.0340  -54.2260 C   0  0  0  0  0  0  0  0  0  0  0  0
    9.2600   -1.2110  -54.2010 C   0  0  0  0  0  0  0  0  0  0  0  0
    8.9620   -0.0540  -54.9880 C   0  0  0  0  0  0  0  0  0  0  0  0
    9.8040    0.5960  -56.0140 C   0  0  0  0  0  0  0  0  0  0  0  0
   10.8510    0.1130  -56.4310 O   0  0  0  0  0  0  0  0  0  0  0  0
    9.2770    1.7960  -56.4440 N   0  0  0  0  0  0  0  0  0  0  0  0
    9.8490    2.6790  -57.4540 C   0  0  2  0  0  0  0  0  0  0  0  0
    9.1980    4.0800  -57.3070 C   0  0  0  0  0  0  0  0  0  0  0  0
    9.7610    5.0610  -58.3480 C   0  0  1  0  0  0  0  0  0  0  0  0
   11.2790    5.1890  -58.1500 C   0  0  0  0  0  0  0  0  0  0  0  0
   11.9490    3.8170  -58.3160 C   0  0  2  0  0  0  0  0  0  0  0  0
   11.6530    3.2750  -59.7260 C   0  0  0  0  0  0  0  0  0  0  0  0
   10.1340    3.1410  -59.9330 C   0  0  2  0  0  0  0  0  0  0  0  0
    9.4750    4.5180  -59.7580 C   0  0  0  0  0  0  0  0  0  0  0  0
    9.5640    2.1670  -58.8870 C   0  0  0  0  0  0  0  0  0  0  0  0
   11.3780    2.8430  -57.2700 C   0  0  0  0  0  0  0  0  0  0  0  0
    7.7390    0.4350  -54.6910 N   0  0  0  0  0  0  0  0  0  0  0  0
    7.2700   -0.3970  -53.7430 N   0  0  0  0  0  0  0  0  0  0  0  0
    5.9500   -0.1700  -53.2000 C   0  0  0  0  0  0  0  0  0  0  0  0
    8.1410   -1.4000  -53.4010 C   0  0  0  0  0  0  0  0  0  0  0  0
    7.8610   -2.4150  -52.3950 C   0  0  0  0  0  0  0  0  0  0  0  0
    7.3400   -3.6570  -52.7750 C   0  0  0  0  0  0  0  0  0  0  0  0
    7.0680   -4.6300  -51.8110 C   0  0  0  0  0  0  0  0  0  0  0  0
    7.3170   -4.3660  -50.4640 C   0  0  0  0  0  0  0  0  0  0  0  0
    7.8410   -3.1330  -50.0800 C   0  0  0  0  0  0  0  0  0  0  0  0
    8.1130   -2.1590  -51.0430 C   0  0  0  0  0  0  0  0  0  0  0  0
   11.6481   -4.3740  -53.8238 H   0  0  0  0  0  0  0  0  0  0  0  0
   11.2371   -5.2125  -55.3582 H   0  0  0  0  0  0  0  0  0  0  0  0
   12.4391   -3.8776  -55.3582 H   0  0  0  0  0  0  0  0  0  0  0  0
   10.4472   -2.8970  -56.2000 H   0  0  0  0  0  0  0  0  0  0  0  0
    9.4286   -3.7374  -54.9613 H   0  0  0  0  0  0  0  0  0  0  0  0
   10.7169   -2.3920  -53.2069 H   0  0  0  0  0  0  0  0  0  0  0  0
   11.3233   -1.3976  -54.6028 H   0  0  0  0  0  0  0  0  0  0  0  0
    8.3960    2.0350  -55.9930 H   0  0  0  0  0  0  0  0  0  0  0  0
    8.1112    3.9884  -57.4499 H   0  0  0  0  0  0  0  0  0  0  0  0
    9.4233    4.4675  -56.3025 H   0  0  0  0  0  0  0  0  0  0  0  0
    9.2878    6.0467  -58.2277 H   0  0  0  0  0  0  0  0  0  0  0  0
   11.6862    5.8858  -58.8974 H   0  0  0  0  0  0  0  0  0  0  0  0
   11.4799    5.5682  -57.1372 H   0  0  0  0  0  0  0  0  0  0  0  0
   13.0356    3.9166  -58.1765 H   0  0  0  0  0  0  0  0  0  0  0  0
   12.0626    3.9681  -60.4756 H   0  0  0  0  0  0  0  0  0  0  0  0
   12.1201    2.2853  -59.8366 H   0  0  0  0  0  0  0  0  0  0  0  0
    9.9294    2.7594  -60.9442 H   0  0  0  0  0  0  0  0  0  0  0  0
    9.8815    5.2144  -60.5062 H   0  0  0  0  0  0  0  0  0  0  0  0
    8.3879    4.4186  -59.8937 H   0  0  0  0  0  0  0  0  0  0  0  0
    8.4769    2.0785  -59.0298 H   0  0  0  0  0  0  0  0  0  0  0  0
   10.0455    1.1864  -59.0157 H   0  0  0  0  0  0  0  0  0  0  0  0
   11.8632    1.8627  -57.3863 H   0  0  0  0  0  0  0  0  0  0  0  0
   11.5726    3.2476  -56.2658 H   0  0  0  0  0  0  0  0  0  0  0  0
    5.9991   -0.1784  -52.1011 H   0  0  0  0  0  0  0  0  0  0  0  0
    5.5753    0.8058  -53.5428 H   0  0  0  0  0  0  0  0  0  0  0  0
    5.2709   -0.9645  -53.5428 H   0  0  0  0  0  0  0  0  0  0  0  0
    7.1441   -3.8675  -53.8367 H   0  0  0  0  0  0  0  0  0  0  0  0
    6.6574   -5.6046  -52.1137 H   0  0  0  0  0  0  0  0  0  0  0  0
    7.0996   -5.1315  -49.7045 H   0  0  0  0  0  0  0  0  0  0  0  0
    8.0404   -2.9270  -49.0180 H   0  0  0  0  0  0  0  0  0  0  0  0
    8.5270   -1.1868  -50.7373 H   0  0  0  0  0  0  0  0  0  0  0  0
  1  2  1  0
  2  3  1  0
  3  4  1  0
  4  5  1  0
  5  6  1  0
  6  7  2  0
  6  8  1  0
  9  8  1  1
  9 10  1  0
 10 11  1  0
 11 12  1  0
 12 13  1  0
 13 14  1  0
 14 15  1  0
 15 16  1  0
 15 17  1  0
 13 18  1  0
  5 19  2  0
 19 20  1  0
 20 21  1  0
 20 22  1  0
 22 23  1  0
 23 24  2  0
 24 25  1  0
 25 26  2  0
 26 27  1  0
 27 28  2  0
 22  4  2  0
 28 23  1  0
 17  9  1  0
 18  9  1  0
 16 11  1  0
  1 29  1  0
  1 30  1  0
  1 31  1  0
  2 32  1  0
  2 33  1  0
  3 34  1  0
  3 35  1  0
  8 36  1  0
 10 37  1  0
 10 38  1  0
 11 39  1  6
 12 40  1  0
 12 41  1  0
 13 42  1  1
 14 43  1  0
 14 44  1  0
 15 45  1  6
 16 46  1  0
 16 47  1  0
 17 48  1  0
 17 49  1  0
 18 50  1  0
 18 51  1  0
 21 52  1  0
 21 53  1  0
 21 54  1  0
 24 55  1  0
 25 56  1  0
 26 57  1  0
 27 58  1  0
 28 59  1  0
M  END
>  <meeko>  (91) 
{"is_sidechain": false}

$$$$

     RDKit          3D

 51 55  0  0  0  0  0  0  0  0999 V2000
    9.9900   -1.4780  -53.7350 C   0  0  0  0  0  0  0  0  0  0  0  0
    8.6310   -0.9100  -54.0410 C   0  0  0  0  0  0  0  0  0  0  0  0
    8.5940    0.0460  -55.0000 N   0  0  0  0  0  0  0  0  0  0  0  0
    7.3750    0.5680  -55.2850 C   0  0  0  0  0  0  0  0  0  0  0  0
    7.3410    1.6370  -56.3570 C   0  0  0  0  0  0  0  0  0  0  0  0
    6.3020    2.1920  -56.6960 O   0  0  0  0  0  0  0  0  0  0  0  0
    8.5830    1.9190  -56.9080 N   0  0  0  0  0  0  0  0  0  0  0  0
    8.8500    2.9010  -57.9570 C   0  0  2  0  0  0  0  0  0  0  0  0
    8.6550    4.3210  -57.3620 C   0  0  0  0  0  0  0  0  0  0  0  0
    8.9210    5.4040  -58.4190 C   0  0  1  0  0  0  0  0  0  0  0  0
   10.3640    5.2670  -58.9290 C   0  0  0  0  0  0  0  0  0  0  0  0
   10.5720    3.8750  -59.5480 C   0  0  2  0  0  0  0  0  0  0  0  0
    9.5880    3.6870  -60.7150 C   0  0  0  0  0  0  0  0  0  0  0  0
    8.1400    3.8210  -60.2150 C   0  0  2  0  0  0  0  0  0  0  0  0
    7.9460    5.2130  -59.5920 C   0  0  0  0  0  0  0  0  0  0  0  0
    7.8710    2.7450  -59.1480 C   0  0  0  0  0  0  0  0  0  0  0  0
   10.3040    2.8000  -58.4800 C   0  0  0  0  0  0  0  0  0  0  0  0
    6.2150    0.2180  -54.7020 N   0  0  0  0  0  0  0  0  0  0  0  0
    6.3090   -0.7370  -53.7570 C   0  0  0  0  0  0  0  0  0  0  0  0
    7.4920   -1.3520  -53.3700 C   0  0  0  0  0  0  0  0  0  0  0  0
    7.4990   -2.3820  -52.3330 C   0  0  0  0  0  0  0  0  0  0  0  0
    7.1440   -3.7060  -52.6350 C   0  0  0  0  0  0  0  0  0  0  0  0
    7.1510   -4.6890  -51.6430 C   0  0  0  0  0  0  0  0  0  0  0  0
    7.5090   -4.3600  -50.3370 C   0  0  0  0  0  0  0  0  0  0  0  0
    7.8610   -3.0500  -50.0210 C   0  0  0  0  0  0  0  0  0  0  0  0
    7.8540   -2.0660  -51.0120 C   0  0  0  0  0  0  0  0  0  0  0  0
   10.1266   -1.5351  -52.6450 H   0  0  0  0  0  0  0  0  0  0  0  0
   10.0722   -2.4858  -54.1681 H   0  0  0  0  0  0  0  0  0  0  0  0
   10.7649   -0.8284  -54.1681 H   0  0  0  0  0  0  0  0  0  0  0  0
    9.3550    1.3770  -56.5260 H   0  0  0  0  0  0  0  0  0  0  0  0
    7.6215    4.4196  -56.9986 H   0  0  0  0  0  0  0  0  0  0  0  0
    9.3692    4.4553  -56.5362 H   0  0  0  0  0  0  0  0  0  0  0  0
    8.7780    6.4011  -57.9770 H   0  0  0  0  0  0  0  0  0  0  0  0
   10.5560    6.0370  -59.6908 H   0  0  0  0  0  0  0  0  0  0  0  0
   11.0590    5.3953  -58.0861 H   0  0  0  0  0  0  0  0  0  0  0  0
   11.6047    3.7830  -59.9155 H   0  0  0  0  0  0  0  0  0  0  0  0
    9.7807    4.4536  -61.4800 H   0  0  0  0  0  0  0  0  0  0  0  0
    9.7281    2.6842  -61.1449 H   0  0  0  0  0  0  0  0  0  0  0  0
    7.4432    3.6914  -61.0562 H   0  0  0  0  0  0  0  0  0  0  0  0
    8.1373    5.9830  -60.3539 H   0  0  0  0  0  0  0  0  0  0  0  0
    6.9139    5.3027  -59.2222 H   0  0  0  0  0  0  0  0  0  0  0  0
    6.8384    2.8480  -58.7830 H   0  0  0  0  0  0  0  0  0  0  0  0
    8.0177    1.7529  -59.6000 H   0  0  0  0  0  0  0  0  0  0  0  0
   10.4609    1.8048  -58.9216 H   0  0  0  0  0  0  0  0  0  0  0  0
   10.9949    2.9565  -57.6385 H   0  0  0  0  0  0  0  0  0  0  0  0
    5.3820   -1.0523  -53.2558 H   0  0  0  0  0  0  0  0  0  0  0  0
    6.8574   -3.9720  -53.6632 H   0  0  0  0  0  0  0  0  0  0  0  0
    6.8737   -5.7238  -51.8927 H   0  0  0  0  0  0  0  0  0  0  0  0
    7.5136   -5.1346  -49.5560 H   0  0  0  0  0  0  0  0  0  0  0  0
    8.1446   -2.7903  -48.9904 H   0  0  0  0  0  0  0  0  0  0  0  0
    8.1295   -1.0326  -50.7548 H   0  0  0  0  0  0  0  0  0  0  0  0
  1  2  1  0
  2  3  2  0
  3  4  1  0
  4  5  1  0
  5  6  2  0
  5  7  1  0
  8  7  1  1
  8  9  1  0
  9 10  1  0
 10 11  1  0
 11 12  1  0
 12 13  1  0
 13 14  1  0
 14 15  1  0
 14 16  1  0
 12 17  1  0
  4 18  2  0
 18 19  1  0
 19 20  2  0
 20 21  1  0
 21 22  2  0
 22 23  1  0
 23 24  2  0
 24 25  1  0
 25 26  2  0
 20  2  1  0
 26 21  1  0
 16  8  1  0
 17  8  1  0
 15 10  1  0
  1 27  1  0
  1 28  1  0
  1 29  1  0
  7 30  1  0
  9 31  1  0
  9 32  1  0
 10 33  1  1
 11 34  1  0
 11 35  1  0
 12 36  1  6
 13 37  1  0
 13 38  1  0
 14 39  1  6
 15 40  1  0
 15 41  1  0
 16 42  1  0
 16 43  1  0
 17 44  1  0
 17 45  1  0
 19 46  1  0
 22 47  1  0
 23 48  1  0
 24 49  1  0
 25 50  1  0
 26 51  1  0
M  END
>  <meeko>  (92) 
{"is_sidechain": false}

$$$$

     RDKit          3D

 55 57  0  0  0  0  0  0  0  0999 V2000
    6.5320    1.4860  -56.1420 O   0  0  0  0  0  0  0  0  0  0  0  0
    7.7030    1.2570  -55.8590 C   0  0  0  0  0  0  0  0  0  0  0  0
    8.7710    1.9810  -56.3460 N   0  0  0  0  0  0  0  0  0  0  0  0
    8.6400    2.9760  -57.3950 C   0  0  0  0  0  0  0  0  0  0  0  0
    8.8950    4.3770  -56.8130 C   0  0  0  0  0  0  0  0  0  0  0  0
    9.4100    5.3450  -57.8710 C   0  0  0  0  0  0  0  0  0  0  0  0
   10.7420    4.8790  -58.4610 C   0  0  0  0  0  0  0  0  0  0  0  0
   10.9030    3.3570  -58.4800 C   0  0  0  0  0  0  0  0  0  0  0  0
    9.5570    2.6480  -58.5880 C   0  0  0  0  0  0  0  0  0  0  0  0
    8.1130    0.1600  -54.9680 C   0  0  0  0  0  0  0  0  0  0  0  0
    7.3010   -0.5330  -54.0380 C   0  0  0  0  0  0  0  0  0  0  0  0
    8.1140   -1.4770  -53.4480 C   0  0  0  0  0  0  0  0  0  0  0  0
    7.8050   -2.4600  -52.4200 C   0  0  0  0  0  0  0  0  0  0  0  0
    7.2930   -3.7150  -52.7660 C   0  0  0  0  0  0  0  0  0  0  0  0
    7.0060   -4.6560  -51.7760 C   0  0  0  0  0  0  0  0  0  0  0  0
    7.2260   -4.3460  -50.4340 C   0  0  0  0  0  0  0  0  0  0  0  0
    7.7270   -3.0930  -50.0810 C   0  0  0  0  0  0  0  0  0  0  0  0
    8.0130   -2.1510  -51.0710 C   0  0  0  0  0  0  0  0  0  0  0  0
    9.3480   -1.2970  -54.0260 N   0  0  0  0  0  0  0  0  0  0  0  0
   10.5850   -2.0020  -53.7230 C   0  0  0  0  0  0  0  0  0  0  0  0
   11.1300   -2.7460  -54.9380 C   0  0  0  0  0  0  0  0  0  0  0  0
   10.3070   -3.9730  -55.3440 C   0  0  0  0  0  0  0  0  0  0  0  0
   10.7920   -4.6730  -56.6150 C   0  0  0  0  0  0  0  0  0  0  0  0
   11.5540   -3.7490  -57.5590 C   0  0  0  0  0  0  0  0  0  0  0  0
   11.7820   -4.4110  -58.7950 O   0  0  0  0  0  0  0  0  0  0  0  0
    9.3730   -0.3230  -54.9620 N   0  0  0  0  0  0  0  0  0  0  0  0
    9.6800    1.5820  -56.1200 H   0  0  0  0  0  0  0  0  0  0  0  0
    7.6129    2.9611  -57.7885 H   0  0  0  0  0  0  0  0  0  0  0  0
    7.9530    4.7681  -56.4011 H   0  0  0  0  0  0  0  0  0  0  0  0
    9.6623    4.2871  -56.0299 H   0  0  0  0  0  0  0  0  0  0  0  0
    8.6677    5.4180  -58.6795 H   0  0  0  0  0  0  0  0  0  0  0  0
    9.5690    6.3232  -57.3936 H   0  0  0  0  0  0  0  0  0  0  0  0
   10.8136    5.2495  -59.4943 H   0  0  0  0  0  0  0  0  0  0  0  0
   11.5387    5.2803  -57.8174 H   0  0  0  0  0  0  0  0  0  0  0  0
   11.5245    3.0751  -59.3427 H   0  0  0  0  0  0  0  0  0  0  0  0
   11.3767    3.0508  -57.5356 H   0  0  0  0  0  0  0  0  0  0  0  0
    9.0606    2.9662  -59.5166 H   0  0  0  0  0  0  0  0  0  0  0  0
    9.7411    1.5635  -58.5894 H   0  0  0  0  0  0  0  0  0  0  0  0
    6.2360   -0.3542  -53.8285 H   0  0  0  0  0  0  0  0  0  0  0  0
    7.1158   -3.9614  -53.8233 H   0  0  0  0  0  0  0  0  0  0  0  0
    6.6062   -5.6423  -52.0542 H   0  0  0  0  0  0  0  0  0  0  0  0
    7.0045   -5.0895  -49.6542 H   0  0  0  0  0  0  0  0  0  0  0  0
    7.8968   -2.8470  -49.0224 H   0  0  0  0  0  0  0  0  0  0  0  0
    8.4034   -1.1619  -50.7895 H   0  0  0  0  0  0  0  0  0  0  0  0
   11.3364   -1.2725  -53.3866 H   0  0  0  0  0  0  0  0  0  0  0  0
   10.3710   -2.7427  -52.9384 H   0  0  0  0  0  0  0  0  0  0  0  0
   11.1520   -2.0486  -55.7883 H   0  0  0  0  0  0  0  0  0  0  0  0
   12.1296   -3.1129  -54.6619 H   0  0  0  0  0  0  0  0  0  0  0  0
   10.3424   -4.6985  -54.5179 H   0  0  0  0  0  0  0  0  0  0  0  0
    9.2905   -3.6102  -55.5564 H   0  0  0  0  0  0  0  0  0  0  0  0
   11.4557   -5.5012  -56.3259 H   0  0  0  0  0  0  0  0  0  0  0  0
    9.9000   -5.0254  -57.1536 H   0  0  0  0  0  0  0  0  0  0  0  0
   10.9630   -2.8382  -57.7354 H   0  0  0  0  0  0  0  0  0  0  0  0
   12.5196   -3.4803  -57.1057 H   0  0  0  0  0  0  0  0  0  0  0  0
   12.6760   -4.1730  -59.0970 H   0  0  0  0  0  0  0  0  0  0  0  0
  1  2  2  0
  2  3  1  0
  3  4  1  0
  4  5  1  0
  5  6  1  0
  6  7  1  0
  7  8  1  0
  8  9  1  0
  2 10  1  0
 10 11  1  0
 11 12  2  0
 12 13  1  0
 13 14  2  0
 14 15  1  0
 15 16  2  0
 16 17  1  0
 17 18  2  0
 12 19  1  0
 19 20  1  0
 20 21  1  0
 21 22  1  0
 22 23  1  0
 23 24  1  0
 24 25  1  0
 19 26  1  0
  9  4  1  0
 26 10  2  0
 18 13  1  0
  3 27  1  0
  4 28  1  0
  5 29  1  0
  5 30  1  0
  6 31  1  0
  6 32  1  0
  7 33  1  0
  7 34  1  0
  8 35  1  0
  8 36  1  0
  9 37  1  0
  9 38  1  0
 11 39  1  0
 14 40  1  0
 15 41  1  0
 16 42  1  0
 17 43  1  0
 18 44  1  0
 20 45  1  0
 20 46  1  0
 21 47  1  0
 21 48  1  0
 22 49  1  0
 22 50  1  0
 23 51  1  0
 23 52  1  0
 24 53  1  0
 24 54  1  0
 25 55  1  0
M  END
>  <meeko>  (93) 
{"is_sidechain": false}

$$$$

     RDKit          3D

 55 57  0  0  0  0  0  0  0  0999 V2000
   10.0040    3.8970  -56.0320 C   0  0  0  0  0  0  0  0  0  0  0  0
    9.6530    3.2160  -57.3060 C   0  0  0  0  0  0  0  0  0  0  0  0
    8.6230    2.2370  -57.4980 C   0  0  0  0  0  0  0  0  0  0  0  0
    7.7350    1.6810  -56.4420 C   0  0  0  0  0  0  0  0  0  0  0  0
    6.5450    2.0060  -56.4030 O   0  0  0  0  0  0  0  0  0  0  0  0
    8.2580    0.7900  -55.4910 N   0  0  0  0  0  0  0  0  0  0  0  0
    9.5560    0.1230  -55.6150 C   0  0  0  0  0  0  0  0  0  0  0  0
    9.5970   -1.2030  -54.8580 C   0  0  0  0  0  0  0  0  0  0  0  0
    9.2490   -1.0340  -53.3810 C   0  0  0  0  0  0  0  0  0  0  0  0
    8.2410    0.0880  -53.1270 C   0  0  0  0  0  0  0  0  0  0  0  0
    7.4120    0.4080  -54.3650 C   0  0  0  0  0  0  0  0  0  0  0  0
    8.6020    1.8250  -58.7780 N   0  0  0  0  0  0  0  0  0  0  0  0
    9.5780    2.5250  -59.3870 N   0  0  0  0  0  0  0  0  0  0  0  0
    9.8280    2.2710  -60.7990 C   0  0  0  0  0  0  0  0  0  0  0  0
    8.8940    3.0800  -61.6980 C   0  0  0  0  0  0  0  0  0  0  0  0
    7.6980    2.2810  -62.2230 C   0  0  0  0  0  0  0  0  0  0  0  0
    6.3050    2.7460  -61.7800 C   0  0  0  0  0  0  0  0  0  0  0  0
    5.7090    1.9270  -60.6420 C   0  0  0  0  0  0  0  0  0  0  0  0
    5.8340    2.6510  -59.4310 O   0  0  0  0  0  0  0  0  0  0  0  0
   10.2430    3.3860  -58.5500 C   0  0  0  0  0  0  0  0  0  0  0  0
   11.3590    4.2390  -58.9430 C   0  0  0  0  0  0  0  0  0  0  0  0
   11.1200    5.5420  -59.3950 C   0  0  0  0  0  0  0  0  0  0  0  0
   12.1810    6.3540  -59.7990 C   0  0  0  0  0  0  0  0  0  0  0  0
   13.4870    5.8660  -59.7590 C   0  0  0  0  0  0  0  0  0  0  0  0
   13.7310    4.5670  -59.3160 C   0  0  0  0  0  0  0  0  0  0  0  0
   12.6700    3.7550  -58.9110 C   0  0  0  0  0  0  0  0  0  0  0  0
    9.6834    3.2750  -55.1833 H   0  0  0  0  0  0  0  0  0  0  0  0
   11.0925    4.0485  -55.9850 H   0  0  0  0  0  0  0  0  0  0  0  0
    9.4958    4.8714  -55.9850 H   0  0  0  0  0  0  0  0  0  0  0  0
    9.7549   -0.0703  -56.6795 H   0  0  0  0  0  0  0  0  0  0  0  0
   10.3191    0.7847  -55.1793 H   0  0  0  0  0  0  0  0  0  0  0  0
    8.8743   -1.8947  -55.3155 H   0  0  0  0  0  0  0  0  0  0  0  0
   10.6223   -1.5966  -54.9208 H   0  0  0  0  0  0  0  0  0  0  0  0
    8.8224   -1.9782  -53.0115 H   0  0  0  0  0  0  0  0  0  0  0  0
   10.1768   -0.7672  -52.8537 H   0  0  0  0  0  0  0  0  0  0  0  0
    7.5637   -0.2209  -52.3172 H   0  0  0  0  0  0  0  0  0  0  0  0
    8.8042    0.9927  -52.8545 H   0  0  0  0  0  0  0  0  0  0  0  0
    6.8269   -0.4810  -54.6430 H   0  0  0  0  0  0  0  0  0  0  0  0
    6.7501    1.2540  -54.1280 H   0  0  0  0  0  0  0  0  0  0  0  0
   10.8683    2.5433  -61.0305 H   0  0  0  0  0  0  0  0  0  0  0  0
    9.6452    1.2034  -60.9907 H   0  0  0  0  0  0  0  0  0  0  0  0
    8.5133    3.9362  -61.1218 H   0  0  0  0  0  0  0  0  0  0  0  0
    9.4818    3.3908  -62.5743 H   0  0  0  0  0  0  0  0  0  0  0  0
    7.7280    2.3212  -63.3219 H   0  0  0  0  0  0  0  0  0  0  0  0
    7.8145    1.2748  -61.7940 H   0  0  0  0  0  0  0  0  0  0  0  0
    6.3788    3.7929  -61.4505 H   0  0  0  0  0  0  0  0  0  0  0  0
    5.6380    2.6192  -62.6454 H   0  0  0  0  0  0  0  0  0  0  0  0
    4.6457    1.7328  -60.8463 H   0  0  0  0  0  0  0  0  0  0  0  0
    6.2438    0.9695  -60.5567 H   0  0  0  0  0  0  0  0  0  0  0  0
    6.1410    2.0380  -58.7410 H   0  0  0  0  0  0  0  0  0  0  0  0
   10.0906    5.9281  -59.4320 H   0  0  0  0  0  0  0  0  0  0  0  0
   11.9872    7.3787  -60.1489 H   0  0  0  0  0  0  0  0  0  0  0  0
   14.3237    6.5056  -60.0767 H   0  0  0  0  0  0  0  0  0  0  0  0
   14.7607    4.1813  -59.2855 H   0  0  0  0  0  0  0  0  0  0  0  0
   12.8666    2.7295  -58.5651 H   0  0  0  0  0  0  0  0  0  0  0  0
  1  2  1  0
  2  3  1  0
  3  4  1  0
  4  5  2  0
  4  6  1  0
  6  7  1  0
  7  8  1  0
  8  9  1  0
  9 10  1  0
 10 11  1  0
  3 12  2  0
 12 13  1  0
 13 14  1  0
 14 15  1  0
 15 16  1  0
 16 17  1  0
 17 18  1  0
 18 19  1  0
 13 20  1  0
 20 21  1  0
 21 22  2  0
 22 23  1  0
 23 24  2  0
 24 25  1  0
 25 26  2  0
 20  2  2  0
 26 21  1  0
 11  6  1  0
  1 27  1  0
  1 28  1  0
  1 29  1  0
  7 30  1  0
  7 31  1  0
  8 32  1  0
  8 33  1  0
  9 34  1  0
  9 35  1  0
 10 36  1  0
 10 37  1  0
 11 38  1  0
 11 39  1  0
 14 40  1  0
 14 41  1  0
 15 42  1  0
 15 43  1  0
 16 44  1  0
 16 45  1  0
 17 46  1  0
 17 47  1  0
 18 48  1  0
 18 49  1  0
 19 50  1  0
 22 51  1  0
 23 52  1  0
 24 53  1  0
 25 54  1  0
 26 55  1  0
M  END
>  <meeko>  (94) 
{"is_sidechain": false}

$$$$

     RDKit          3D

 64 68  0  0  0  0  0  0  0  0999 V2000
    6.0950   -0.0210  -53.7220 C   0  0  0  0  0  0  0  0  0  0  0  0
    7.4720   -0.4860  -54.0360 C   0  0  0  0  0  0  0  0  0  0  0  0
    8.3760    0.0620  -55.0030 C   0  0  0  0  0  0  0  0  0  0  0  0
    8.1770    1.2330  -55.8810 C   0  0  0  0  0  0  0  0  0  0  0  0
    7.0690    1.6870  -56.1480 O   0  0  0  0  0  0  0  0  0  0  0  0
    9.3580    1.7470  -56.3930 N   0  0  0  0  0  0  0  0  0  0  0  0
    9.4370    2.8310  -57.3740 C   0  0  2  0  0  0  0  0  0  0  0  0
    9.1040    4.2090  -56.7460 C   0  0  0  0  0  0  0  0  0  0  0  0
    9.2510    5.3290  -57.7920 C   0  0  1  0  0  0  0  0  0  0  0  0
   10.6990    5.3600  -58.3040 C   0  0  0  0  0  0  0  0  0  0  0  0
   11.0550    4.0130  -58.9500 C   0  0  2  0  0  0  0  0  0  0  0  0
   10.1010    3.7420  -60.1250 C   0  0  0  0  0  0  0  0  0  0  0  0
    8.6490    3.7030  -59.6230 C   0  0  2  0  0  0  0  0  0  0  0  0
    8.3010    5.0520  -58.9690 C   0  0  0  0  0  0  0  0  0  0  0  0
    8.5000    2.5810  -58.5800 C   0  0  0  0  0  0  0  0  0  0  0  0
   10.8950    2.8960  -57.9050 C   0  0  0  0  0  0  0  0  0  0  0  0
    9.5290   -0.6250  -55.0180 N   0  0  0  0  0  0  0  0  0  0  0  0
    9.3570   -1.6160  -54.1270 N   0  0  0  0  0  0  0  0  0  0  0  0
   10.4450   -2.5590  -53.9130 C   0  0  0  0  0  0  0  0  0  0  0  0
   10.3980   -3.7640  -54.8480 C   0  0  0  0  0  0  0  0  0  0  0  0
   11.6750   -4.4000  -54.9030 O   0  0  0  0  0  0  0  0  0  0  0  0
   11.9100   -5.0210  -56.1630 C   0  0  0  0  0  0  0  0  0  0  0  0
   11.0360   -4.3610  -57.2250 C   0  0  0  0  0  0  0  0  0  0  0  0
   11.8000   -3.4510  -58.0100 O   0  0  0  0  0  0  0  0  0  0  0  0
    8.1580   -1.5430  -53.4550 C   0  0  0  0  0  0  0  0  0  0  0  0
    7.7500   -2.4530  -52.3900 C   0  0  0  0  0  0  0  0  0  0  0  0
    8.0500   -2.1560  -51.0550 C   0  0  0  0  0  0  0  0  0  0  0  0
    7.6560   -3.0240  -50.0350 C   0  0  0  0  0  0  0  0  0  0  0  0
    6.9670   -4.1950  -50.3430 C   0  0  0  0  0  0  0  0  0  0  0  0
    6.6740   -4.5030  -51.6710 C   0  0  0  0  0  0  0  0  0  0  0  0
    7.0670   -3.6360  -52.6920 C   0  0  0  0  0  0  0  0  0  0  0  0
    5.9629    0.0236  -52.6309 H   0  0  0  0  0  0  0  0  0  0  0  0
    5.9390    0.9796  -54.1514 H   0  0  0  0  0  0  0  0  0  0  0  0
    5.3643   -0.7222  -54.1514 H   0  0  0  0  0  0  0  0  0  0  0  0
   10.1600    1.1360  -56.3140 H   0  0  0  0  0  0  0  0  0  0  0  0
    8.0693    4.1960  -56.3728 H   0  0  0  0  0  0  0  0  0  0  0  0
    9.8035    4.4010  -55.9191 H   0  0  0  0  0  0  0  0  0  0  0  0
    9.0007    6.2975  -57.3344 H   0  0  0  0  0  0  0  0  0  0  0  0
   10.8048    6.1614  -59.0501 H   0  0  0  0  0  0  0  0  0  0  0  0
   11.3777    5.5463  -57.4586 H   0  0  0  0  0  0  0  0  0  0  0  0
   12.0925    4.0406  -59.3145 H   0  0  0  0  0  0  0  0  0  0  0  0
   10.2069    4.5420  -60.8725 H   0  0  0  0  0  0  0  0  0  0  0  0
   10.3529    2.7723  -60.5791 H   0  0  0  0  0  0  0  0  0  0  0  0
    7.9712    3.5145  -60.4687 H   0  0  0  0  0  0  0  0  0  0  0  0
    8.4017    5.8545  -59.7145 H   0  0  0  0  0  0  0  0  0  0  0  0
    7.2668    5.0153  -58.5961 H   0  0  0  0  0  0  0  0  0  0  0  0
    7.4582    2.5504  -58.2282 H   0  0  0  0  0  0  0  0  0  0  0  0
    8.7718    1.6233  -59.0479 H   0  0  0  0  0  0  0  0  0  0  0  0
   11.1520    1.9317  -58.3678 H   0  0  0  0  0  0  0  0  0  0  0  0
   11.5653    3.1103  -57.0595 H   0  0  0  0  0  0  0  0  0  0  0  0
   11.3980   -2.0328  -54.0706 H   0  0  0  0  0  0  0  0  0  0  0  0
   10.3448   -2.9415  -52.8865 H   0  0  0  0  0  0  0  0  0  0  0  0
    9.6511   -4.4816  -54.4775 H   0  0  0  0  0  0  0  0  0  0  0  0
   10.1251   -3.4226  -55.8574 H   0  0  0  0  0  0  0  0  0  0  0  0
   12.9693   -4.9064  -56.4366 H   0  0  0  0  0  0  0  0  0  0  0  0
   11.6625   -6.0908  -56.0968 H   0  0  0  0  0  0  0  0  0  0  0  0
   10.6148   -5.1378  -57.8801 H   0  0  0  0  0  0  0  0  0  0  0  0
   10.2290   -3.8058  -56.7244 H   0  0  0  0  0  0  0  0  0  0  0  0
   12.3110   -2.9010  -57.3930 H   0  0  0  0  0  0  0  0  0  0  0  0
    8.5985   -1.2348  -50.8088 H   0  0  0  0  0  0  0  0  0  0  0  0
    7.8897   -2.7831  -48.9875 H   0  0  0  0  0  0  0  0  0  0  0  0
    6.6541   -4.8767  -49.5384 H   0  0  0  0  0  0  0  0  0  0  0  0
    6.1330   -5.4294  -51.9141 H   0  0  0  0  0  0  0  0  0  0  0  0
    6.8386   -3.8841  -53.7390 H   0  0  0  0  0  0  0  0  0  0  0  0
  1  2  1  0
  2  3  1  0
  3  4  1  0
  4  5  2  0
  4  6  1  0
  7  6  1  1
  7  8  1  0
  8  9  1  0
  9 10  1  0
 10 11  1  0
 11 12  1  0
 12 13  1  0
 13 14  1  0
 13 15  1  0
 11 16  1  0
  3 17  2  0
 17 18  1  0
 18 19  1  0
 19 20  1  0
 20 21  1  0
 21 22  1  0
 22 23  1  0
 23 24  1  0
 18 25  1  0
 25 26  1  0
 26 27  2  0
 27 28  1  0
 28 29  2  0
 29 30  1  0
 30 31  2  0
 25  2  2  0
 31 26  1  0
 15  7  1  0
 16  7  1  0
 14  9  1  0
  1 32  1  0
  1 33  1  0
  1 34  1  0
  6 35  1  0
  8 36  1  0
  8 37  1  0
  9 38  1  1
 10 39  1  0
 10 40  1  0
 11 41  1  6
 12 42  1  0
 12 43  1  0
 13 44  1  6
 14 45  1  0
 14 46  1  0
 15 47  1  0
 15 48  1  0
 16 49  1  0
 16 50  1  0
 19 51  1  0
 19 52  1  0
 20 53  1  0
 20 54  1  0
 22 55  1  0
 22 56  1  0
 23 57  1  0
 23 58  1  0
 24 59  1  0
 27 60  1  0
 28 61  1  0
 29 62  1  0
 30 63  1  0
 31 64  1  0
M  END
>  <meeko>  (95) 
{"is_sidechain": false}

$$$$

     RDKit          3D

 57 62  0  0  0  0  0  0  0  0999 V2000
    9.6690    2.6330  -55.4790 O   0  0  0  0  0  0  0  0  0  0  0  0
    9.5580    1.6170  -56.1550 C   0  0  0  0  0  0  0  0  0  0  0  0
    9.3470    1.5960  -57.5160 N   0  0  0  0  0  0  0  0  0  0  0  0
    9.2150    2.7610  -58.3850 C   0  0  2  0  0  0  0  0  0  0  0  0
   10.3890    3.7540  -58.1920 C   0  0  0  0  0  0  0  0  0  0  0  0
   10.2520    4.9480  -59.1520 C   0  0  1  0  0  0  0  0  0  0  0  0
   10.2670    4.4370  -60.6020 C   0  0  0  0  0  0  0  0  0  0  0  0
    9.1000    3.4650  -60.8290 C   0  0  2  0  0  0  0  0  0  0  0  0
    7.7730    4.1910  -60.5550 C   0  0  0  0  0  0  0  0  0  0  0  0
    7.7430    4.6990  -59.1050 C   0  0  2  0  0  0  0  0  0  0  0  0
    8.9190    5.6650  -58.8820 C   0  0  0  0  0  0  0  0  0  0  0  0
    7.8780    3.5060  -58.1440 C   0  0  0  0  0  0  0  0  0  0  0  0
    9.2340    2.2800  -59.8610 C   0  0  0  0  0  0  0  0  0  0  0  0
    9.6390    0.2670  -55.5720 C   0  0  0  0  0  0  0  0  0  0  0  0
    8.8390   -0.2600  -54.5420 C   0  0  0  0  0  0  0  0  0  0  0  0
    9.3030   -1.5410  -54.3080 C   0  0  0  0  0  0  0  0  0  0  0  0
    8.8950   -2.4310  -53.2240 C   0  0  0  0  0  0  0  0  0  0  0  0
    7.8140   -3.3030  -53.4010 C   0  0  0  0  0  0  0  0  0  0  0  0
    7.4080   -4.1440  -52.3610 C   0  0  0  0  0  0  0  0  0  0  0  0
    8.0730   -4.1100  -51.1370 C   0  0  0  0  0  0  0  0  0  0  0  0
    9.1400   -3.2330  -50.9470 C   0  0  0  0  0  0  0  0  0  0  0  0
    9.5460   -2.3910  -51.9850 C   0  0  0  0  0  0  0  0  0  0  0  0
   10.2910   -1.7670  -55.2700 N   0  0  0  0  0  0  0  0  0  0  0  0
   11.0040   -2.9620  -55.6110 C   0  0  0  0  0  0  0  0  0  0  0  0
   11.5300   -3.8250  -54.6440 C   0  0  0  0  0  0  0  0  0  0  0  0
   12.2160   -4.9840  -55.0260 C   0  0  0  0  0  0  0  0  0  0  0  0
   12.3730   -5.2970  -56.3730 C   0  0  0  0  0  0  0  0  0  0  0  0
   11.8360   -4.4580  -57.3460 C   0  0  0  0  0  0  0  0  0  0  0  0
   11.1500   -3.3010  -56.9680 C   0  0  0  0  0  0  0  0  0  0  0  0
   10.5550   -0.6290  -55.9780 N   0  0  0  0  0  0  0  0  0  0  0  0
    9.2770    0.6600  -57.9090 H   0  0  0  0  0  0  0  0  0  0  0  0
   10.3848    4.1215  -57.1552 H   0  0  0  0  0  0  0  0  0  0  0  0
   11.3333    3.2326  -58.4073 H   0  0  0  0  0  0  0  0  0  0  0  0
   11.0874    5.6464  -58.9961 H   0  0  0  0  0  0  0  0  0  0  0  0
   10.1696    5.2899  -61.2897 H   0  0  0  0  0  0  0  0  0  0  0  0
   11.2154    3.9123  -60.7899 H   0  0  0  0  0  0  0  0  0  0  0  0
    9.1174    3.1026  -61.8674 H   0  0  0  0  0  0  0  0  0  0  0  0
    7.6757    5.0443  -61.2423 H   0  0  0  0  0  0  0  0  0  0  0  0
    6.9390    3.4908  -60.7102 H   0  0  0  0  0  0  0  0  0  0  0  0
    6.7930    5.2202  -58.9157 H   0  0  0  0  0  0  0  0  0  0  0  0
    8.8213    6.5207  -59.5662 H   0  0  0  0  0  0  0  0  0  0  0  0
    8.9039    6.0150  -57.8393 H   0  0  0  0  0  0  0  0  0  0  0  0
    7.8498    3.8720  -57.1070 H   0  0  0  0  0  0  0  0  0  0  0  0
    7.0460    2.8093  -58.3241 H   0  0  0  0  0  0  0  0  0  0  0  0
    8.3961    1.5862  -60.0239 H   0  0  0  0  0  0  0  0  0  0  0  0
   10.1937    1.7779  -60.0532 H   0  0  0  0  0  0  0  0  0  0  0  0
    8.0099    0.2461  -54.0259 H   0  0  0  0  0  0  0  0  0  0  0  0
    7.2816   -3.3264  -54.3633 H   0  0  0  0  0  0  0  0  0  0  0  0
    6.5633   -4.8329  -52.5089 H   0  0  0  0  0  0  0  0  0  0  0  0
    7.7560   -4.7753  -50.3204 H   0  0  0  0  0  0  0  0  0  0  0  0
    9.6623   -3.2041  -49.9794 H   0  0  0  0  0  0  0  0  0  0  0  0
   10.3815   -1.6929  -51.8282 H   0  0  0  0  0  0  0  0  0  0  0  0
   11.4038   -3.5915  -53.5765 H   0  0  0  0  0  0  0  0  0  0  0  0
   12.6333   -5.6510  -54.2573 H   0  0  0  0  0  0  0  0  0  0  0  0
   12.9198   -6.2047  -56.6682 H   0  0  0  0  0  0  0  0  0  0  0  0
   11.9518   -4.7059  -58.4114 H   0  0  0  0  0  0  0  0  0  0  0  0
   10.7191   -2.6476  -57.7409 H   0  0  0  0  0  0  0  0  0  0  0  0
  1  2  2  0
  2  3  1  0
  4  3  1  1
  4  5  1  0
  5  6  1  0
  6  7  1  0
  7  8  1  0
  8  9  1  0
  9 10  1  0
 10 11  1  0
 10 12  1  0
  8 13  1  0
  2 14  1  0
 14 15  1  0
 15 16  2  0
 16 17  1  0
 17 18  2  0
 18 19  1  0
 19 20  2  0
 20 21  1  0
 21 22  2  0
 16 23  1  0
 23 24  1  0
 24 25  2  0
 25 26  1  0
 26 27  2  0
 27 28  1  0
 28 29  2  0
 23 30  1  0
 12  4  1  0
 30 14  2  0
 13  4  1  0
 22 17  1  0
 29 24  1  0
 11  6  1  0
  3 31  1  0
  5 32  1  0
  5 33  1  0
  6 34  1  6
  7 35  1  0
  7 36  1  0
  8 37  1  6
  9 38  1  0
  9 39  1  0
 10 40  1  1
 11 41  1  0
 11 42  1  0
 12 43  1  0
 12 44  1  0
 13 45  1  0
 13 46  1  0
 15 47  1  0
 18 48  1  0
 19 49  1  0
 20 50  1  0
 21 51  1  0
 22 52  1  0
 25 53  1  0
 26 54  1  0
 27 55  1  0
 28 56  1  0
 29 57  1  0
M  END
>  <meeko>  (96) 
{"is_sidechain": false}

$$$$

     RDKit          3D

 52 54  0  0  0  0  0  0  0  0999 V2000
    6.4330    0.1660  -53.5100 C   0  0  0  0  0  0  0  0  0  0  0  0
    7.7230   -0.4590  -53.9020 C   0  0  0  0  0  0  0  0  0  0  0  0
    8.6190   -0.0020  -54.9150 C   0  0  0  0  0  0  0  0  0  0  0  0
    8.4720    1.1640  -55.8150 C   0  0  0  0  0  0  0  0  0  0  0  0
    7.4000    1.4500  -56.3370 O   0  0  0  0  0  0  0  0  0  0  0  0
    9.6710    1.8310  -55.9770 N   0  0  0  0  0  0  0  0  0  0  0  0
    9.9450    2.9810  -56.7330 C   0  0  0  0  0  0  0  0  0  0  0  0
    9.2790    4.1970  -56.5710 C   0  0  0  0  0  0  0  0  0  0  0  0
    9.6150    5.2970  -57.3670 C   0  0  0  0  0  0  0  0  0  0  0  0
   10.6200    5.1910  -58.3260 C   0  0  0  0  0  0  0  0  0  0  0  0
   11.2910    3.9830  -58.4930 C   0  0  0  0  0  0  0  0  0  0  0  0
   10.9540    2.8840  -57.7000 C   0  0  0  0  0  0  0  0  0  0  0  0
    9.7050   -0.7950  -54.9930 N   0  0  0  0  0  0  0  0  0  0  0  0
    9.4760   -1.7710  -54.0960 N   0  0  0  0  0  0  0  0  0  0  0  0
   10.4500   -2.8430  -53.9820 C   0  0  0  0  0  0  0  0  0  0  0  0
   10.1580   -4.0410  -54.8890 C   0  0  0  0  0  0  0  0  0  0  0  0
   11.3530   -4.5720  -55.6930 C   0  0  0  0  0  0  0  0  0  0  0  0
   11.1310   -4.5560  -57.2100 C   0  0  0  0  0  0  0  0  0  0  0  0
   11.8870   -3.4160  -57.8820 C   0  0  0  0  0  0  0  0  0  0  0  0
   11.7820   -2.2410  -57.0900 O   0  0  0  0  0  0  0  0  0  0  0  0
    8.3100   -1.6070  -53.3910 C   0  0  0  0  0  0  0  0  0  0  0  0
    7.8440   -2.5170  -52.3520 C   0  0  0  0  0  0  0  0  0  0  0  0
    8.2150   -2.3130  -51.0190 C   0  0  0  0  0  0  0  0  0  0  0  0
    7.7710   -3.1860  -50.0250 C   0  0  0  0  0  0  0  0  0  0  0  0
    6.9520   -4.2640  -50.3590 C   0  0  0  0  0  0  0  0  0  0  0  0
    6.5710   -4.4670  -51.6860 C   0  0  0  0  0  0  0  0  0  0  0  0
    7.0150   -3.5950  -52.6810 C   0  0  0  0  0  0  0  0  0  0  0  0
    6.3609    0.2009  -52.4129 H   0  0  0  0  0  0  0  0  0  0  0  0
    6.3832    1.1881  -53.9135 H   0  0  0  0  0  0  0  0  0  0  0  0
    5.6000   -0.4284  -53.9135 H   0  0  0  0  0  0  0  0  0  0  0  0
   10.4450    1.3900  -55.4780 H   0  0  0  0  0  0  0  0  0  0  0  0
    8.4864    4.2906  -55.8140 H   0  0  0  0  0  0  0  0  0  0  0  0
    9.0830    6.2507  -57.2351 H   0  0  0  0  0  0  0  0  0  0  0  0
   10.8823    6.0588  -58.9490 H   0  0  0  0  0  0  0  0  0  0  0  0
   12.0856    3.8941  -59.2485 H   0  0  0  0  0  0  0  0  0  0  0  0
   11.4869    1.9314  -57.8362 H   0  0  0  0  0  0  0  0  0  0  0  0
   11.4399   -2.4418  -54.2450 H   0  0  0  0  0  0  0  0  0  0  0  0
   10.4059   -3.2075  -52.9451 H   0  0  0  0  0  0  0  0  0  0  0  0
    9.7843   -4.8604  -54.2573 H   0  0  0  0  0  0  0  0  0  0  0  0
    9.4300   -3.6846  -55.6326 H   0  0  0  0  0  0  0  0  0  0  0  0
   12.2302   -3.9491  -55.4638 H   0  0  0  0  0  0  0  0  0  0  0  0
   11.4963   -5.6226  -55.4001 H   0  0  0  0  0  0  0  0  0  0  0  0
   11.4795   -5.5108  -57.6307 H   0  0  0  0  0  0  0  0  0  0  0  0
   10.0568   -4.4097  -57.3962 H   0  0  0  0  0  0  0  0  0  0  0  0
   12.9465   -3.6921  -57.9883 H   0  0  0  0  0  0  0  0  0  0  0  0
   11.4539   -3.2265  -58.8752 H   0  0  0  0  0  0  0  0  0  0  0  0
   11.0700   -1.6990  -57.4690 H   0  0  0  0  0  0  0  0  0  0  0  0
    8.8589   -1.4616  -50.7533 H   0  0  0  0  0  0  0  0  0  0  0  0
    8.0671   -3.0238  -48.9781 H   0  0  0  0  0  0  0  0  0  0  0  0
    6.6060   -4.9548  -49.5760 H   0  0  0  0  0  0  0  0  0  0  0  0
    5.9205   -5.3146  -51.9478 H   0  0  0  0  0  0  0  0  0  0  0  0
    6.7125   -3.7556  -53.7263 H   0  0  0  0  0  0  0  0  0  0  0  0
  1  2  1  0
  2  3  1  0
  3  4  1  0
  4  5  2  0
  4  6  1  0
  6  7  1  0
  7  8  2  0
  8  9  1  0
  9 10  2  0
 10 11  1  0
 11 12  2  0
  3 13  2  0
 13 14  1  0
 14 15  1  0
 15 16  1  0
 16 17  1  0
 17 18  1  0
 18 19  1  0
 19 20  1  0
 14 21  1  0
 21 22  1  0
 22 23  2  0
 23 24  1  0
 24 25  2  0
 25 26  1  0
 26 27  2  0
 21  2  2  0
 27 22  1  0
 12  7  1  0
  1 28  1  0
  1 29  1  0
  1 30  1  0
  6 31  1  0
  8 32  1  0
  9 33  1  0
 10 34  1  0
 11 35  1  0
 12 36  1  0
 15 37  1  0
 15 38  1  0
 16 39  1  0
 16 40  1  0
 17 41  1  0
 17 42  1  0
 18 43  1  0
 18 44  1  0
 19 45  1  0
 19 46  1  0
 20 47  1  0
 23 48  1  0
 24 49  1  0
 25 50  1  0
 26 51  1  0
 27 52  1  0
M  END
>  <meeko>  (97) 
{"is_sidechain": false}

$$$$

     RDKit          3D

 60 65  0  0  0  0  0  0  0  0999 V2000
    6.9160    1.8790  -56.0850 O   0  0  0  0  0  0  0  0  0  0  0  0
    8.0380    1.3840  -56.0720 C   0  0  0  0  0  0  0  0  0  0  0  0
    9.0980    1.8220  -56.8350 N   0  0  0  0  0  0  0  0  0  0  0  0
    9.0810    2.9360  -57.7770 C   0  0  2  0  0  0  0  0  0  0  0  0
    7.8920    2.8300  -58.7640 C   0  0  0  0  0  0  0  0  0  0  0  0
    7.9240    3.9880  -59.7760 C   0  0  1  0  0  0  0  0  0  0  0  0
    7.8480    5.3250  -59.0190 C   0  0  0  0  0  0  0  0  0  0  0  0
    9.0420    5.4590  -58.0600 C   0  0  2  0  0  0  0  0  0  0  0  0
   10.3500    5.3930  -58.8660 C   0  0  0  0  0  0  0  0  0  0  0  0
   10.4350    4.0560  -59.6190 C   0  0  2  0  0  0  0  0  0  0  0  0
    9.2360    3.9320  -60.5730 C   0  0  0  0  0  0  0  0  0  0  0  0
   10.3940    2.9020  -58.6040 C   0  0  0  0  0  0  0  0  0  0  0  0
    9.0110    4.3000  -57.0470 C   0  0  0  0  0  0  0  0  0  0  0  0
    8.3900    0.2360  -55.2190 C   0  0  0  0  0  0  0  0  0  0  0  0
    7.5900   -0.3550  -54.2120 C   0  0  0  0  0  0  0  0  0  0  0  0
    8.3350   -1.3900  -53.6890 C   0  0  0  0  0  0  0  0  0  0  0  0
    8.0070   -2.3290  -52.6290 C   0  0  0  0  0  0  0  0  0  0  0  0
    7.6090   -3.6330  -52.9410 C   0  0  0  0  0  0  0  0  0  0  0  0
    7.3030   -4.5380  -51.9230 C   0  0  0  0  0  0  0  0  0  0  0  0
    7.3870   -4.1400  -50.5890 C   0  0  0  0  0  0  0  0  0  0  0  0
    7.7730   -2.8380  -50.2710 C   0  0  0  0  0  0  0  0  0  0  0  0
    8.0800   -1.9330  -51.2890 C   0  0  0  0  0  0  0  0  0  0  0  0
    9.5130   -1.3830  -54.4010 N   0  0  0  0  0  0  0  0  0  0  0  0
   10.6660   -2.2620  -54.2190 C   0  0  0  0  0  0  0  0  0  0  0  0
   10.9790   -3.0640  -55.4590 C   0  0  0  0  0  0  0  0  0  0  0  0
   10.6290   -4.4200  -55.5350 C   0  0  0  0  0  0  0  0  0  0  0  0
   10.9230   -5.1650  -56.6780 C   0  0  0  0  0  0  0  0  0  0  0  0
   11.5750   -4.5670  -57.7540 C   0  0  0  0  0  0  0  0  0  0  0  0
   11.9360   -3.2230  -57.6880 C   0  0  0  0  0  0  0  0  0  0  0  0
   11.6430   -2.4760  -56.5460 C   0  0  0  0  0  0  0  0  0  0  0  0
    9.5810   -0.3910  -55.3220 N   0  0  0  0  0  0  0  0  0  0  0  0
    9.9550    1.2940  -56.6870 H   0  0  0  0  0  0  0  0  0  0  0  0
    7.9557    1.8747  -59.3056 H   0  0  0  0  0  0  0  0  0  0  0  0
    6.9524    2.8824  -58.1945 H   0  0  0  0  0  0  0  0  0  0  0  0
    7.0699    3.9010  -60.4637 H   0  0  0  0  0  0  0  0  0  0  0  0
    7.8675    6.1538  -59.7420 H   0  0  0  0  0  0  0  0  0  0  0  0
    6.9147    5.3565  -58.4377 H   0  0  0  0  0  0  0  0  0  0  0  0
    8.9835    6.4194  -57.5270 H   0  0  0  0  0  0  0  0  0  0  0  0
   10.3744    6.2211  -59.5897 H   0  0  0  0  0  0  0  0  0  0  0  0
   11.2037    5.4750  -58.1772 H   0  0  0  0  0  0  0  0  0  0  0  0
   11.3716    4.0139  -60.1944 H   0  0  0  0  0  0  0  0  0  0  0  0
    9.2586    4.7603  -61.2964 H   0  0  0  0  0  0  0  0  0  0  0  0
    9.2951    2.9710  -61.1050 H   0  0  0  0  0  0  0  0  0  0  0  0
   10.4545    1.9455  -59.1439 H   0  0  0  0  0  0  0  0  0  0  0  0
   11.2451    3.0100  -57.9155 H   0  0  0  0  0  0  0  0  0  0  0  0
    9.8711    4.3908  -56.3673 H   0  0  0  0  0  0  0  0  0  0  0  0
    8.0703    4.3504  -56.4791 H   0  0  0  0  0  0  0  0  0  0  0  0
    6.5778   -0.0498  -53.9081 H   0  0  0  0  0  0  0  0  0  0  0  0
    7.5368   -3.9468  -53.9928 H   0  0  0  0  0  0  0  0  0  0  0  0
    6.9959   -5.5643  -52.1729 H   0  0  0  0  0  0  0  0  0  0  0  0
    7.1486   -4.8538  -49.7867 H   0  0  0  0  0  0  0  0  0  0  0  0
    7.8355   -2.5242  -49.2186 H   0  0  0  0  0  0  0  0  0  0  0  0
    8.3802   -0.9053  -51.0367 H   0  0  0  0  0  0  0  0  0  0  0  0
   11.5423   -1.6474  -53.9652 H   0  0  0  0  0  0  0  0  0  0  0  0
   10.4239   -2.9706  -53.4132 H   0  0  0  0  0  0  0  0  0  0  0  0
   10.1187   -4.9002  -54.6870 H   0  0  0  0  0  0  0  0  0  0  0  0
   10.6393   -6.2265  -56.7293 H   0  0  0  0  0  0  0  0  0  0  0  0
   11.8046   -5.1552  -58.6547 H   0  0  0  0  0  0  0  0  0  0  0  0
   12.4523   -2.7503  -58.5365 H   0  0  0  0  0  0  0  0  0  0  0  0
   11.9353   -1.4167  -56.4978 H   0  0  0  0  0  0  0  0  0  0  0  0
  1  2  2  0
  2  3  1  0
  4  3  1  1
  4  5  1  0
  5  6  1  0
  6  7  1  0
  7  8  1  0
  8  9  1  0
  9 10  1  0
 10 11  1  0
 10 12  1  0
  8 13  1  0
  2 14  1  0
 14 15  1  0
 15 16  2  0
 16 17  1  0
 17 18  2  0
 18 19  1  0
 19 20  2  0
 20 21  1  0
 21 22  2  0
 16 23  1  0
 23 24  1  0
 24 25  1  0
 25 26  2  0
 26 27  1  0
 27 28  2  0
 28 29  1  0
 29 30  2  0
 23 31  1  0
 12  4  1  0
 31 14  2  0
 13  4  1  0
 22 17  1  0
 30 25  1  0
 11  6  1  0
  3 32  1  0
  5 33  1  0
  5 34  1  0
  6 35  1  6
  7 36  1  0
  7 37  1  0
  8 38  1  1
  9 39  1  0
  9 40  1  0
 10 41  1  6
 11 42  1  0
 11 43  1  0
 12 44  1  0
 12 45  1  0
 13 46  1  0
 13 47  1  0
 15 48  1  0
 18 49  1  0
 19 50  1  0
 20 51  1  0
 21 52  1  0
 22 53  1  0
 24 54  1  0
 24 55  1  0
 26 56  1  0
 27 57  1  0
 28 58  1  0
 29 59  1  0
 30 60  1  0
M  END
>  <meeko>  (98) 
{"is_sidechain": false}

$$$$

     RDKit          3D

 60 64  0  0  0  0  0  0  0  0999 V2000
    6.7200    0.1340  -53.5460 C   0  0  0  0  0  0  0  0  0  0  0  0
    8.0140   -0.4410  -53.9970 C   0  0  0  0  0  0  0  0  0  0  0  0
    8.8720    0.0480  -55.0360 C   0  0  0  0  0  0  0  0  0  0  0  0
    8.7000    1.2550  -55.8670 C   0  0  0  0  0  0  0  0  0  0  0  0
    7.6160    1.8060  -56.0270 O   0  0  0  0  0  0  0  0  0  0  0  0
    9.8760    1.6820  -56.4640 N   0  0  0  0  0  0  0  0  0  0  0  0
    9.9680    2.7800  -57.4300 C   0  0  2  0  0  0  0  0  0  0  0  0
    9.0340    2.5520  -58.6430 C   0  0  0  0  0  0  0  0  0  0  0  0
    9.1940    3.6880  -59.6690 C   0  0  1  0  0  0  0  0  0  0  0  0
    8.8530    5.0290  -58.9990 C   0  0  0  0  0  0  0  0  0  0  0  0
    9.7990    5.2860  -57.8130 C   0  0  2  0  0  0  0  0  0  0  0  0
   11.2490    5.3130  -58.3180 C   0  0  0  0  0  0  0  0  0  0  0  0
   11.5990    3.9720  -58.9810 C   0  0  2  0  0  0  0  0  0  0  0  0
   10.6500    3.7240  -60.1630 C   0  0  0  0  0  0  0  0  0  0  0  0
   11.4290    2.8430  -57.9530 C   0  0  0  0  0  0  0  0  0  0  0  0
    9.6400    4.1510  -56.7850 C   0  0  0  0  0  0  0  0  0  0  0  0
    9.9390   -0.7530  -55.1890 N   0  0  0  0  0  0  0  0  0  0  0  0
    9.7910   -1.7080  -54.2560 N   0  0  0  0  0  0  0  0  0  0  0  0
   10.8100   -2.7410  -54.1570 C   0  0  0  0  0  0  0  0  0  0  0  0
   10.5070   -3.9190  -55.0800 C   0  0  0  0  0  0  0  0  0  0  0  0
   11.5150   -4.0170  -56.2140 C   0  0  0  0  0  0  0  0  0  0  0  0
   11.5050   -2.8360  -56.9990 O   0  0  0  0  0  0  0  0  0  0  0  0
    8.6430   -1.5800  -53.5140 C   0  0  0  0  0  0  0  0  0  0  0  0
    8.2330   -2.5060  -52.4600 C   0  0  0  0  0  0  0  0  0  0  0  0
    8.9780   -2.5410  -51.2720 C   0  0  0  0  0  0  0  0  0  0  0  0
    8.6230   -3.4070  -50.2360 C   0  0  0  0  0  0  0  0  0  0  0  0
    7.5230   -4.2490  -50.3770 C   0  0  0  0  0  0  0  0  0  0  0  0
    6.7770   -4.2300  -51.5570 C   0  0  0  0  0  0  0  0  0  0  0  0
    7.1290   -3.3650  -52.5960 C   0  0  0  0  0  0  0  0  0  0  0  0
    6.1630   -3.3900  -54.0310 Cl  0  0  0  0  0  0  0  0  0  0  0  0
    6.6884    0.1481  -52.4465 H   0  0  0  0  0  0  0  0  0  0  0  0
    6.6216    1.1605  -53.9288 H   0  0  0  0  0  0  0  0  0  0  0  0
    5.8922   -0.4810  -53.9288 H   0  0  0  0  0  0  0  0  0  0  0  0
   10.6250    1.0020  -56.4680 H   0  0  0  0  0  0  0  0  0  0  0  0
    9.2887    1.5945  -59.1208 H   0  0  0  0  0  0  0  0  0  0  0  0
    7.9920    2.5354  -58.2909 H   0  0  0  0  0  0  0  0  0  0  0  0
    8.5179    3.5164  -60.5196 H   0  0  0  0  0  0  0  0  0  0  0  0
    8.9625    5.8404  -59.7336 H   0  0  0  0  0  0  0  0  0  0  0  0
    7.8171    4.9931  -58.6307 H   0  0  0  0  0  0  0  0  0  0  0  0
    9.5532    6.2499  -57.3435 H   0  0  0  0  0  0  0  0  0  0  0  0
   11.3640    6.1236  -59.0526 H   0  0  0  0  0  0  0  0  0  0  0  0
   11.9249    5.4825  -57.4669 H   0  0  0  0  0  0  0  0  0  0  0  0
   12.6382    3.9975  -59.3408 H   0  0  0  0  0  0  0  0  0  0  0  0
   10.7652    4.5334  -60.8989 H   0  0  0  0  0  0  0  0  0  0  0  0
   10.8975    2.7587  -60.6288 H   0  0  0  0  0  0  0  0  0  0  0  0
   11.6826    1.8836  -58.4275 H   0  0  0  0  0  0  0  0  0  0  0  0
   12.0971    3.0413  -57.1019 H   0  0  0  0  0  0  0  0  0  0  0  0
   10.3254    4.3275  -55.9429 H   0  0  0  0  0  0  0  0  0  0  0  0
    8.5984    4.1363  -56.4316 H   0  0  0  0  0  0  0  0  0  0  0  0
   11.7832   -2.3104  -54.4354 H   0  0  0  0  0  0  0  0  0  0  0  0
   10.8261   -3.1106  -53.1211 H   0  0  0  0  0  0  0  0  0  0  0  0
   10.5384   -4.8490  -54.4934 H   0  0  0  0  0  0  0  0  0  0  0  0
    9.5103   -3.7640  -55.5189 H   0  0  0  0  0  0  0  0  0  0  0  0
   12.5204   -4.1610  -55.7916 H   0  0  0  0  0  0  0  0  0  0  0  0
   11.2438   -4.8690  -56.8547 H   0  0  0  0  0  0  0  0  0  0  0  0
   12.3410   -2.3630  -56.8330 H   0  0  0  0  0  0  0  0  0  0  0  0
    9.8497   -1.8803  -51.1556 H   0  0  0  0  0  0  0  0  0  0  0  0
    9.2128   -3.4241  -49.3076 H   0  0  0  0  0  0  0  0  0  0  0  0
    7.2419   -4.9288  -49.5591 H   0  0  0  0  0  0  0  0  0  0  0  0
    5.9100   -4.8977  -51.6689 H   0  0  0  0  0  0  0  0  0  0  0  0
  1  2  1  0
  2  3  1  0
  3  4  1  0
  4  5  2  0
  4  6  1  0
  7  6  1  1
  7  8  1  0
  8  9  1  0
  9 10  1  0
 10 11  1  0
 11 12  1  0
 12 13  1  0
 13 14  1  0
 13 15  1  0
 11 16  1  0
  3 17  2  0
 17 18  1  0
 18 19  1  0
 19 20  1  0
 20 21  1  0
 21 22  1  0
 18 23  1  0
 23 24  1  0
 24 25  2  0
 25 26  1  0
 26 27  2  0
 27 28  1  0
 28 29  2  0
 29 30  1  0
 23  2  2  0
 29 24  1  0
 15  7  1  0
 16  7  1  0
 14  9  1  0
  1 31  1  0
  1 32  1  0
  1 33  1  0
  6 34  1  0
  8 35  1  0
  8 36  1  0
  9 37  1  6
 10 38  1  0
 10 39  1  0
 11 40  1  1
 12 41  1  0
 12 42  1  0
 13 43  1  6
 14 44  1  0
 14 45  1  0
 15 46  1  0
 15 47  1  0
 16 48  1  0
 16 49  1  0
 19 50  1  0
 19 51  1  0
 20 52  1  0
 20 53  1  0
 21 54  1  0
 21 55  1  0
 22 56  1  0
 25 57  1  0
 26 58  1  0
 27 59  1  0
 28 60  1  0
M  END
>  <meeko>  (99) 
{"is_sidechain": false}

$$$$

     RDKit          3D

 63 67  0  0  0  0  0  0  0  0999 V2000
    6.9870    1.6430  -56.1180 O   0  0  0  0  0  0  0  0  0  0  0  0
    8.1190    1.1980  -55.9470 C   0  0  0  0  0  0  0  0  0  0  0  0
    9.2110    1.6940  -56.6360 N   0  0  0  0  0  0  0  0  0  0  0  0
    9.1700    2.7710  -57.6280 C   0  0  2  0  0  0  0  0  0  0  0  0
   10.5830    2.9060  -58.2590 C   0  0  0  0  0  0  0  0  0  0  0  0
   10.6150    4.0220  -59.3140 C   0  0  1  0  0  0  0  0  0  0  0  0
    9.6000    3.6990  -60.4210 C   0  0  0  0  0  0  0  0  0  0  0  0
    8.1890    3.5870  -59.8230 C   0  0  2  0  0  0  0  0  0  0  0  0
    7.8170    4.9190  -59.1500 C   0  0  0  0  0  0  0  0  0  0  0  0
    8.8270    5.2540  -58.0400 C   0  0  2  0  0  0  0  0  0  0  0  0
   10.2350    5.3540  -58.6490 C   0  0  0  0  0  0  0  0  0  0  0  0
    8.8080    4.1340  -56.9840 C   0  0  0  0  0  0  0  0  0  0  0  0
    8.1690    2.4650  -58.7700 C   0  0  0  0  0  0  0  0  0  0  0  0
    8.4020    0.0980  -54.9920 C   0  0  0  0  0  0  0  0  0  0  0  0
    9.6410   -0.4310  -54.9240 N   0  0  0  0  0  0  0  0  0  0  0  0
    9.5670   -1.3840  -53.9810 N   0  0  0  0  0  0  0  0  0  0  0  0
   10.7630   -2.1630  -53.6930 C   0  0  0  0  0  0  0  0  0  0  0  0
   11.2500   -2.9340  -54.9170 C   0  0  0  0  0  0  0  0  0  0  0  0
   10.3140   -4.0760  -55.3240 C   0  0  0  0  0  0  0  0  0  0  0  0
   10.7230   -4.7530  -56.6370 C   0  0  0  0  0  0  0  0  0  0  0  0
   11.4480   -3.7940  -57.5770 C   0  0  0  0  0  0  0  0  0  0  0  0
   11.7840   -4.4380  -58.7970 O   0  0  0  0  0  0  0  0  0  0  0  0
    8.3240   -1.5070  -53.4170 C   0  0  0  0  0  0  0  0  0  0  0  0
    7.9800   -2.4660  -52.3750 C   0  0  0  0  0  0  0  0  0  0  0  0
    7.4480   -3.7160  -52.7110 C   0  0  0  0  0  0  0  0  0  0  0  0
    7.1100   -4.6280  -51.7100 C   0  0  0  0  0  0  0  0  0  0  0  0
    7.3050   -4.2970  -50.3700 C   0  0  0  0  0  0  0  0  0  0  0  0
    7.8420   -3.0560  -50.0290 C   0  0  0  0  0  0  0  0  0  0  0  0
    8.1800   -2.1420  -51.0290 C   0  0  0  0  0  0  0  0  0  0  0  0
    7.5480   -0.5600  -54.0590 C   0  0  0  0  0  0  0  0  0  0  0  0
    5.8960   -0.2600  -53.7660 Cl  0  0  0  0  0  0  0  0  0  0  0  0
   10.1110    1.2720  -56.4480 H   0  0  0  0  0  0  0  0  0  0  0  0
   11.3091    3.1402  -57.4666 H   0  0  0  0  0  0  0  0  0  0  0  0
   10.8381    1.9551  -58.7495 H   0  0  0  0  0  0  0  0  0  0  0  0
   11.6233    4.0979  -59.7471 H   0  0  0  0  0  0  0  0  0  0  0  0
    9.6142    4.5010  -61.1737 H   0  0  0  0  0  0  0  0  0  0  0  0
    9.8703    2.7419  -60.8910 H   0  0  0  0  0  0  0  0  0  0  0  0
    7.4668    3.3586  -60.6206 H   0  0  0  0  0  0  0  0  0  0  0  0
    7.8252    5.7211  -59.9027 H   0  0  0  0  0  0  0  0  0  0  0  0
    6.8140    4.8294  -58.7073 H   0  0  0  0  0  0  0  0  0  0  0  0
    8.5586    6.2116  -57.5700 H   0  0  0  0  0  0  0  0  0  0  0  0
   10.2499    6.1549  -59.4028 H   0  0  0  0  0  0  0  0  0  0  0  0
   10.9585    5.5791  -57.8516 H   0  0  0  0  0  0  0  0  0  0  0  0
    9.5395    4.3673  -56.1963 H   0  0  0  0  0  0  0  0  0  0  0  0
    7.7968    4.0668  -56.5563 H   0  0  0  0  0  0  0  0  0  0  0  0
    7.1558    2.3815  -58.3499 H   0  0  0  0  0  0  0  0  0  0  0  0
    8.4598    1.5204  -59.2528 H   0  0  0  0  0  0  0  0  0  0  0  0
   11.5602   -1.4811  -53.3622 H   0  0  0  0  0  0  0  0  0  0  0  0
   10.5133   -2.8924  -52.9084 H   0  0  0  0  0  0  0  0  0  0  0  0
   11.3337   -2.2333  -55.7608 H   0  0  0  0  0  0  0  0  0  0  0  0
   12.2190   -3.3839  -54.6550 H   0  0  0  0  0  0  0  0  0  0  0  0
   10.3170   -4.8321  -54.5251 H   0  0  0  0  0  0  0  0  0  0  0  0
    9.3153   -3.6412  -55.4776 H   0  0  0  0  0  0  0  0  0  0  0  0
   11.3903   -5.5970  -56.4079 H   0  0  0  0  0  0  0  0  0  0  0  0
    9.8069   -5.0935  -57.1417 H   0  0  0  0  0  0  0  0  0  0  0  0
   10.7938   -2.9359  -57.7909 H   0  0  0  0  0  0  0  0  0  0  0  0
   12.3752   -3.4580  -57.0898 H   0  0  0  0  0  0  0  0  0  0  0  0
   12.7530   -4.5240  -58.8250 H   0  0  0  0  0  0  0  0  0  0  0  0
    7.2957   -3.9807  -53.7678 H   0  0  0  0  0  0  0  0  0  0  0  0
    6.6896   -5.6084  -51.9786 H   0  0  0  0  0  0  0  0  0  0  0  0
    7.0352   -5.0149  -49.5814 H   0  0  0  0  0  0  0  0  0  0  0  0
    7.9994   -2.7970  -48.9716 H   0  0  0  0  0  0  0  0  0  0  0  0
    8.6048   -1.1643  -50.7575 H   0  0  0  0  0  0  0  0  0  0  0  0
  1  2  2  0
  2  3  1  0
  4  3  1  1
  4  5  1  0
  5  6  1  0
  6  7  1  0
  7  8  1  0
  8  9  1  0
  9 10  1  0
 10 11  1  0
 10 12  1  0
  8 13  1  0
  2 14  1  0
 14 15  2  0
 15 16  1  0
 16 17  1  0
 17 18  1  0
 18 19  1  0
 19 20  1  0
 20 21  1  0
 21 22  1  0
 16 23  1  0
 23 24  1  0
 24 25  2  0
 25 26  1  0
 26 27  2  0
 27 28  1  0
 28 29  2  0
 23 30  2  0
 30 31  1  0
 12  4  1  0
 30 14  1  0
 13  4  1  0
 29 24  1  0
 11  6  1  0
  3 32  1  0
  5 33  1  0
  5 34  1  0
  6 35  1  6
  7 36  1  0
  7 37  1  0
  8 38  1  6
  9 39  1  0
  9 40  1  0
 10 41  1  1
 11 42  1  0
 11 43  1  0
 12 44  1  0
 12 45  1  0
 13 46  1  0
 13 47  1  0
 17 48  1  0
 17 49  1  0
 18 50  1  0
 18 51  1  0
 19 52  1  0
 19 53  1  0
 20 54  1  0
 20 55  1  0
 21 56  1  0
 21 57  1  0
 22 58  1  0
 25 59  1  0
 26 60  1  0
 27 61  1  0
 28 62  1  0
 29 63  1  0
M  END
>  <meeko>  (100) 
{"is_sidechain": false}

$$$$

     RDKit          3D

 53 57  0  0  0  0  0  0  0  0999 V2000
    8.3150    0.6700  -54.0590 C   0  0  0  0  0  0  0  0  0  0  0  0
    9.2800   -0.3170  -54.6090 C   0  0  0  0  0  0  0  0  0  0  0  0
   10.2090   -0.1310  -55.6860 C   0  0  0  0  0  0  0  0  0  0  0  0
   10.3920    1.0580  -56.5450 C   0  0  0  0  0  0  0  0  0  0  0  0
   11.4950    1.5320  -56.8020 O   0  0  0  0  0  0  0  0  0  0  0  0
    9.2070    1.5630  -57.0550 N   0  0  0  0  0  0  0  0  0  0  0  0
    9.1170    2.6650  -58.0160 C   0  0  2  0  0  0  0  0  0  0  0  0
    7.6170    3.0200  -58.2040 C   0  0  0  0  0  0  0  0  0  0  0  0
    7.4420    4.1690  -59.2090 C   0  0  1  0  0  0  0  0  0  0  0  0
    8.1860    5.4090  -58.6890 C   0  0  0  0  0  0  0  0  0  0  0  0
    9.6790    5.0910  -58.5180 C   0  0  2  0  0  0  0  0  0  0  0  0
   10.2660    4.6630  -59.8730 C   0  0  0  0  0  0  0  0  0  0  0  0
    9.5290    3.4220  -60.4030 C   0  0  2  0  0  0  0  0  0  0  0  0
    8.0360    3.7490  -60.5630 C   0  0  0  0  0  0  0  0  0  0  0  0
    9.6920    2.2670  -59.3970 C   0  0  0  0  0  0  0  0  0  0  0  0
    9.8410    3.9390  -57.5090 C   0  0  0  0  0  0  0  0  0  0  0  0
   10.9530   -1.2350  -55.8680 N   0  0  0  0  0  0  0  0  0  0  0  0
   10.5290   -2.0970  -54.9310 N   0  0  0  0  0  0  0  0  0  0  0  0
   11.1660   -3.3910  -54.8470 C   0  0  0  0  0  0  0  0  0  0  0  0
    9.5040   -1.6120  -54.1580 C   0  0  0  0  0  0  0  0  0  0  0  0
    8.8490   -2.3610  -53.0850 C   0  0  0  0  0  0  0  0  0  0  0  0
    9.5700   -2.6010  -51.9060 C   0  0  0  0  0  0  0  0  0  0  0  0
    8.9940   -3.3090  -50.8500 C   0  0  0  0  0  0  0  0  0  0  0  0
    7.6910   -3.7920  -50.9620 C   0  0  0  0  0  0  0  0  0  0  0  0
    6.9640   -3.5650  -52.1310 C   0  0  0  0  0  0  0  0  0  0  0  0
    7.5380   -2.8560  -53.1910 C   0  0  0  0  0  0  0  0  0  0  0  0
    6.5820   -2.6250  -54.6130 Cl  0  0  0  0  0  0  0  0  0  0  0  0
    8.3452    0.6391  -52.9598 H   0  0  0  0  0  0  0  0  0  0  0  0
    8.5849    1.6787  -54.4050 H   0  0  0  0  0  0  0  0  0  0  0  0
    7.3005    0.4229  -54.4050 H   0  0  0  0  0  0  0  0  0  0  0  0
    8.4130    0.9410  -56.9920 H   0  0  0  0  0  0  0  0  0  0  0  0
    7.0818    2.1335  -58.5751 H   0  0  0  0  0  0  0  0  0  0  0  0
    7.2094    3.3397  -57.2336 H   0  0  0  0  0  0  0  0  0  0  0  0
    6.3737    4.4014  -59.3301 H   0  0  0  0  0  0  0  0  0  0  0  0
    8.0689    6.2327  -59.4085 H   0  0  0  0  0  0  0  0  0  0  0  0
    7.7649    5.7017  -57.7159 H   0  0  0  0  0  0  0  0  0  0  0  0
   10.2071    5.9833  -58.1506 H   0  0  0  0  0  0  0  0  0  0  0  0
   10.1550    5.4867  -60.5935 H   0  0  0  0  0  0  0  0  0  0  0  0
   11.3307    4.4194  -59.7420 H   0  0  0  0  0  0  0  0  0  0  0  0
    9.9497    3.1280  -61.3759 H   0  0  0  0  0  0  0  0  0  0  0  0
    7.9185    4.5719  -61.2834 H   0  0  0  0  0  0  0  0  0  0  0  0
    7.5077    2.8557  -60.9277 H   0  0  0  0  0  0  0  0  0  0  0  0
    9.1554    1.3827  -59.7712 H   0  0  0  0  0  0  0  0  0  0  0  0
   10.7628    2.0417  -59.2848 H   0  0  0  0  0  0  0  0  0  0  0  0
   10.9111    3.7195  -57.3794 H   0  0  0  0  0  0  0  0  0  0  0  0
    9.3963    4.2421  -56.5496 H   0  0  0  0  0  0  0  0  0  0  0  0
   11.3010   -3.6653  -53.7903 H   0  0  0  0  0  0  0  0  0  0  0  0
   10.5352   -4.1431  -55.3433 H   0  0  0  0  0  0  0  0  0  0  0  0
   12.1468   -3.3498  -55.3433 H   0  0  0  0  0  0  0  0  0  0  0  0
   10.6003   -2.2273  -51.8126 H   0  0  0  0  0  0  0  0  0  0  0  0
    9.5685   -3.4860  -49.9288 H   0  0  0  0  0  0  0  0  0  0  0  0
    7.2370   -4.3509  -50.1304 H   0  0  0  0  0  0  0  0  0  0  0  0
    5.9355   -3.9451  -52.2192 H   0  0  0  0  0  0  0  0  0  0  0  0
  1  2  1  0
  2  3  1  0
  3  4  1  0
  4  5  2  0
  4  6  1  0
  7  6  1  1
  7  8  1  0
  8  9  1  0
  9 10  1  0
 10 11  1  0
 11 12  1  0
 12 13  1  0
 13 14  1  0
 13 15  1  0
 11 16  1  0
  3 17  2  0
 17 18  1  0
 18 19  1  0
 18 20  1  0
 20 21  1  0
 21 22  2  0
 22 23  1  0
 23 24  2  0
 24 25  1  0
 25 26  2  0
 26 27  1  0
 20  2  2  0
 26 21  1  0
 15  7  1  0
 16  7  1  0
 14  9  1  0
  1 28  1  0
  1 29  1  0
  1 30  1  0
  6 31  1  0
  8 32  1  0
  8 33  1  0
  9 34  1  6
 10 35  1  0
 10 36  1  0
 11 37  1  1
 12 38  1  0
 12 39  1  0
 13 40  1  6
 14 41  1  0
 14 42  1  0
 15 43  1  0
 15 44  1  0
 16 45  1  0
 16 46  1  0
 19 47  1  0
 19 48  1  0
 19 49  1  0
 22 50  1  0
 23 51  1  0
 24 52  1  0
 25 53  1  0
M  END
>  <meeko>  (101) 
{"is_sidechain": false}

$$$$

     RDKit          3D

 66 70  0  0  0  0  0  0  0  0999 V2000
   11.8380   -4.2310  -58.3550 C   0  0  0  0  0  0  0  0  0  0  0  0
   11.2020   -3.6840  -57.2080 O   0  0  0  0  0  0  0  0  0  0  0  0
   10.7340   -4.7050  -56.3290 C   0  0  0  0  0  0  0  0  0  0  0  0
   10.4210   -4.0640  -54.9820 C   0  0  0  0  0  0  0  0  0  0  0  0
   11.2300   -2.7900  -54.7610 C   0  0  0  0  0  0  0  0  0  0  0  0
   10.6680   -1.9760  -53.5970 C   0  0  0  0  0  0  0  0  0  0  0  0
    9.4540   -1.2660  -53.9680 N   0  0  0  0  0  0  0  0  0  0  0  0
    9.5310   -0.3130  -54.9170 N   0  0  0  0  0  0  0  0  0  0  0  0
    8.2700    0.1560  -55.0220 C   0  0  0  0  0  0  0  0  0  0  0  0
    7.9360    1.2330  -55.9760 C   0  0  0  0  0  0  0  0  0  0  0  0
    6.7940    1.6420  -56.1520 O   0  0  0  0  0  0  0  0  0  0  0  0
    9.0470    1.7160  -56.6340 N   0  0  0  0  0  0  0  0  0  0  0  0
    9.0650    2.7670  -57.6450 C   0  0  2  0  0  0  0  0  0  0  0  0
   10.4620    2.7810  -58.3180 C   0  0  0  0  0  0  0  0  0  0  0  0
   10.5430    3.8720  -59.3980 C   0  0  1  0  0  0  0  0  0  0  0  0
    9.4720    3.6030  -60.4670 C   0  0  0  0  0  0  0  0  0  0  0  0
    8.0770    3.6120  -59.8250 C   0  0  2  0  0  0  0  0  0  0  0  0
    7.8270    4.9830  -59.1710 C   0  0  0  0  0  0  0  0  0  0  0  0
    8.8930    5.2600  -58.0980 C   0  0  2  0  0  0  0  0  0  0  0  0
   10.2850    5.2420  -58.7500 C   0  0  0  0  0  0  0  0  0  0  0  0
    8.8230    4.1640  -57.0200 C   0  0  0  0  0  0  0  0  0  0  0  0
    8.0060    2.5170  -58.7470 C   0  0  0  0  0  0  0  0  0  0  0  0
    7.3930   -0.5190  -54.1190 C   0  0  0  0  0  0  0  0  0  0  0  0
    5.9370   -0.2770  -53.9480 C   0  0  0  0  0  0  0  0  0  0  0  0
    8.1930   -1.4340  -53.4520 C   0  0  0  0  0  0  0  0  0  0  0  0
    7.8540   -2.3920  -52.4080 C   0  0  0  0  0  0  0  0  0  0  0  0
    7.3670   -3.6600  -52.7460 C   0  0  0  0  0  0  0  0  0  0  0  0
    7.0480   -4.5780  -51.7450 C   0  0  0  0  0  0  0  0  0  0  0  0
    7.2100   -4.2330  -50.4040 C   0  0  0  0  0  0  0  0  0  0  0  0
    7.6860   -2.9680  -50.0610 C   0  0  0  0  0  0  0  0  0  0  0  0
    8.0060   -2.0470  -51.0610 C   0  0  0  0  0  0  0  0  0  0  0  0
   12.6368   -4.9180  -58.0387 H   0  0  0  0  0  0  0  0  0  0  0  0
   11.0991   -4.7802  -58.9571 H   0  0  0  0  0  0  0  0  0  0  0  0
   12.2704   -3.4183  -58.9571 H   0  0  0  0  0  0  0  0  0  0  0  0
    9.8248   -5.1654  -56.7430 H   0  0  0  0  0  0  0  0  0  0  0  0
   11.4996   -5.4859  -56.2105 H   0  0  0  0  0  0  0  0  0  0  0  0
    9.3498   -3.8167  -54.9454 H   0  0  0  0  0  0  0  0  0  0  0  0
   10.6878   -4.7807  -54.1913 H   0  0  0  0  0  0  0  0  0  0  0  0
   12.2729   -3.0607  -54.5395 H   0  0  0  0  0  0  0  0  0  0  0  0
   11.1745   -2.1784  -55.6736 H   0  0  0  0  0  0  0  0  0  0  0  0
   10.4411   -2.6571  -52.7636 H   0  0  0  0  0  0  0  0  0  0  0  0
   11.4232   -1.2311  -53.3059 H   0  0  0  0  0  0  0  0  0  0  0  0
    9.9120    1.2510  -56.3660 H   0  0  0  0  0  0  0  0  0  0  0  0
   11.2279    2.9750  -57.5527 H   0  0  0  0  0  0  0  0  0  0  0  0
   10.6312    1.8038  -58.7940 H   0  0  0  0  0  0  0  0  0  0  0  0
   11.5396    3.8650  -59.8635 H   0  0  0  0  0  0  0  0  0  0  0  0
    9.5230    4.3850  -61.2389 H   0  0  0  0  0  0  0  0  0  0  0  0
    9.6544    2.6182  -60.9218 H   0  0  0  0  0  0  0  0  0  0  0  0
    7.3149    3.4237  -60.5955 H   0  0  0  0  0  0  0  0  0  0  0  0
    7.8738    5.7672  -59.9410 H   0  0  0  0  0  0  0  0  0  0  0  0
    6.8336    4.9803  -58.6987 H   0  0  0  0  0  0  0  0  0  0  0  0
    8.7116    6.2433  -57.6396 H   0  0  0  0  0  0  0  0  0  0  0  0
   10.3367    6.0253  -59.5206 H   0  0  0  0  0  0  0  0  0  0  0  0
   11.0477    5.4269  -57.9793 H   0  0  0  0  0  0  0  0  0  0  0  0
    9.5923    4.3571  -56.2579 H   0  0  0  0  0  0  0  0  0  0  0  0
    7.8223    4.1794  -56.5635 H   0  0  0  0  0  0  0  0  0  0  0  0
    7.0041    2.5211  -58.2930 H   0  0  0  0  0  0  0  0  0  0  0  0
    8.2069    1.5431  -59.2172 H   0  0  0  0  0  0  0  0  0  0  0  0
    5.6954   -0.2369  -52.8756 H   0  0  0  0  0  0  0  0  0  0  0  0
    5.6661    0.6785  -54.4209 H   0  0  0  0  0  0  0  0  0  0  0  0
    5.3716   -1.0935  -54.4209 H   0  0  0  0  0  0  0  0  0  0  0  0
    7.2355   -3.9333  -53.8033 H   0  0  0  0  0  0  0  0  0  0  0  0
    6.6684   -5.5747  -52.0141 H   0  0  0  0  0  0  0  0  0  0  0  0
    6.9621   -4.9592  -49.6159 H   0  0  0  0  0  0  0  0  0  0  0  0
    7.8095   -2.6954  -49.0025 H   0  0  0  0  0  0  0  0  0  0  0  0
    8.3783   -1.0484  -50.7888 H   0  0  0  0  0  0  0  0  0  0  0  0
  1  2  1  0
  2  3  1  0
  3  4  1  0
  4  5  1  0
  5  6  1  0
  6  7  1  0
  7  8  1  0
  8  9  2  0
  9 10  1  0
 10 11  2  0
 10 12  1  0
 13 12  1  1
 13 14  1  0
 14 15  1  0
 15 16  1  0
 16 17  1  0
 17 18  1  0
 18 19  1  0
 19 20  1  0
 19 21  1  0
 17 22  1  0
  9 23  1  0
 23 24  1  0
 23 25  2  0
 25 26  1  0
 26 27  2  0
 27 28  1  0
 28 29  2  0
 29 30  1  0
 30 31  2  0
 25  7  1  0
 31 26  1  0
 21 13  1  0
 22 13  1  0
 20 15  1  0
  1 32  1  0
  1 33  1  0
  1 34  1  0
  3 35  1  0
  3 36  1  0
  4 37  1  0
  4 38  1  0
  5 39  1  0
  5 40  1  0
  6 41  1  0
  6 42  1  0
 12 43  1  0
 14 44  1  0
 14 45  1  0
 15 46  1  6
 16 47  1  0
 16 48  1  0
 17 49  1  6
 18 50  1  0
 18 51  1  0
 19 52  1  1
 20 53  1  0
 20 54  1  0
 21 55  1  0
 21 56  1  0
 22 57  1  0
 22 58  1  0
 24 59  1  0
 24 60  1  0
 24 61  1  0
 27 62  1  0
 28 63  1  0
 29 64  1  0
 30 65  1  0
 31 66  1  0
M  END
>  <meeko>  (102) 
{"is_sidechain": false}

$$$$

     RDKit          3D

 42 43  0  0  0  0  0  0  0  0999 V2000
    9.5690    2.7920  -61.8440 C   0  0  0  0  0  0  0  0  0  0  0  0
    9.0060    3.5080  -60.6690 C   0  0  0  0  0  0  0  0  0  0  0  0
    7.6480    3.4930  -60.2310 C   0  0  0  0  0  0  0  0  0  0  0  0
    6.5140    2.7720  -60.8320 C   0  0  0  0  0  0  0  0  0  0  0  0
    5.8310    1.9770  -59.9530 N   0  0  0  0  0  0  0  0  0  0  0  0
    6.1850    2.8510  -62.0120 O   0  0  0  0  0  0  0  0  0  0  0  0
    7.4830    4.2530  -59.1300 N   0  0  0  0  0  0  0  0  0  0  0  0
    8.7120    4.7440  -58.8760 N   0  0  0  0  0  0  0  0  0  0  0  0
    8.8870    5.6310  -57.7360 C   0  0  0  0  0  0  0  0  0  0  0  0
    8.8170    4.8750  -56.4090 C   0  0  0  0  0  0  0  0  0  0  0  0
   10.0710    4.0270  -56.1940 C   0  0  0  0  0  0  0  0  0  0  0  0
    9.8840    2.5570  -56.5850 C   0  0  0  0  0  0  0  0  0  0  0  0
    8.5340    1.9660  -56.1960 C   0  0  0  0  0  0  0  0  0  0  0  0
    7.7450    1.7570  -57.3580 O   0  0  0  0  0  0  0  0  0  0  0  0
    9.6690    4.3280  -59.7690 C   0  0  0  0  0  0  0  0  0  0  0  0
   11.0700    4.7250  -59.7160 C   0  0  0  0  0  0  0  0  0  0  0  0
   11.4450    6.0330  -60.0400 C   0  0  0  0  0  0  0  0  0  0  0  0
   12.7860    6.4130  -59.9840 C   0  0  0  0  0  0  0  0  0  0  0  0
   13.7590    5.4880  -59.6080 C   0  0  0  0  0  0  0  0  0  0  0  0
   13.3920    4.1800  -59.2920 C   0  0  0  0  0  0  0  0  0  0  0  0
   12.0510    3.7970  -59.3470 C   0  0  0  0  0  0  0  0  0  0  0  0
   10.2145    1.9711  -61.4984 H   0  0  0  0  0  0  0  0  0  0  0  0
    8.7485    2.3824  -62.4515 H   0  0  0  0  0  0  0  0  0  0  0  0
   10.1606    3.4927  -62.4515 H   0  0  0  0  0  0  0  0  0  0  0  0
    5.0700    1.4060  -60.2800 H   0  0  0  0  0  0  0  0  0  0  0  0
    6.1740    1.9150  -59.0020 H   0  0  0  0  0  0  0  0  0  0  0  0
    9.8685    6.1214  -57.8145 H   0  0  0  0  0  0  0  0  0  0  0  0
    8.0721    6.3697  -57.7507 H   0  0  0  0  0  0  0  0  0  0  0  0
    8.7277    5.5999  -55.5864 H   0  0  0  0  0  0  0  0  0  0  0  0
    7.9427    4.2078  -56.4317 H   0  0  0  0  0  0  0  0  0  0  0  0
   10.8857    4.4487  -56.8010 H   0  0  0  0  0  0  0  0  0  0  0  0
   10.2997    4.0511  -55.1183 H   0  0  0  0  0  0  0  0  0  0  0  0
    9.9931    2.4753  -57.6765 H   0  0  0  0  0  0  0  0  0  0  0  0
   10.6457    1.9872  -56.0326 H   0  0  0  0  0  0  0  0  0  0  0  0
    8.6904    1.0052  -55.6837 H   0  0  0  0  0  0  0  0  0  0  0  0
    8.0126    2.6646  -55.5251 H   0  0  0  0  0  0  0  0  0  0  0  0
    7.7770    2.5810  -57.8770 H   0  0  0  0  0  0  0  0  0  0  0  0
   10.6800    6.7643  -60.3399 H   0  0  0  0  0  0  0  0  0  0  0  0
   13.0761    7.4435  -60.2368 H   0  0  0  0  0  0  0  0  0  0  0  0
   14.8158    5.7896  -59.5606 H   0  0  0  0  0  0  0  0  0  0  0  0
   14.1604    3.4494  -58.9991 H   0  0  0  0  0  0  0  0  0  0  0  0
   11.7644    2.7641  -59.1000 H   0  0  0  0  0  0  0  0  0  0  0  0
  1  2  1  0
  2  3  1  0
  3  4  1  0
  4  5  1  0
  4  6  2  0
  3  7  2  0
  7  8  1  0
  8  9  1  0
  9 10  1  0
 10 11  1  0
 11 12  1  0
 12 13  1  0
 13 14  1  0
  8 15  1  0
 15 16  1  0
 16 17  2  0
 17 18  1  0
 18 19  2  0
 19 20  1  0
 20 21  2  0
 15  2  2  0
 21 16  1  0
  1 22  1  0
  1 23  1  0
  1 24  1  0
  5 25  1  0
  5 26  1  0
  9 27  1  0
  9 28  1  0
 10 29  1  0
 10 30  1  0
 11 31  1  0
 11 32  1  0
 12 33  1  0
 12 34  1  0
 13 35  1  0
 13 36  1  0
 14 37  1  0
 17 38  1  0
 18 39  1  0
 19 40  1  0
 20 41  1  0
 21 42  1  0
M  END
>  <meeko>  (103) 
{"is_sidechain": false}

$$$$

     RDKit          3D

 45 47  0  0  0  0  0  0  0  0999 V2000
    6.5610    0.0360  -53.8640 C   0  0  0  0  0  0  0  0  0  0  0  0
    7.9230   -0.5290  -54.0470 C   0  0  0  0  0  0  0  0  0  0  0  0
    8.9410   -0.0910  -54.9590 C   0  0  0  0  0  0  0  0  0  0  0  0
    8.9080    1.0520  -55.8910 C   0  0  0  0  0  0  0  0  0  0  0  0
    7.8980    1.7180  -56.1090 O   0  0  0  0  0  0  0  0  0  0  0  0
   10.1180    1.3080  -56.5140 N   0  0  0  0  0  0  0  0  0  0  0  0
   10.3070    2.4460  -57.3960 C   0  0  0  0  0  0  0  0  0  0  0  0
    9.7820    2.1320  -58.8070 C   0  0  0  0  0  0  0  0  0  0  0  0
   10.4450    2.9620  -59.9090 C   0  0  0  0  0  0  0  0  0  0  0  0
   10.9490    4.3030  -59.3910 C   0  0  0  0  0  0  0  0  0  0  0  0
   11.9880    4.1280  -58.2820 C   0  0  0  0  0  0  0  0  0  0  0  0
   11.7790    2.8670  -57.4400 C   0  0  0  0  0  0  0  0  0  0  0  0
   10.0220   -0.8860  -54.8820 N   0  0  0  0  0  0  0  0  0  0  0  0
    9.7170   -1.7910  -53.9400 N   0  0  0  0  0  0  0  0  0  0  0  0
   10.6970   -2.7980  -53.5970 C   0  0  0  0  0  0  0  0  0  0  0  0
    8.4660   -1.6290  -53.3990 C   0  0  0  0  0  0  0  0  0  0  0  0
    7.8990   -2.4910  -52.3700 C   0  0  0  0  0  0  0  0  0  0  0  0
    7.1370   -3.6110  -52.7220 C   0  0  0  0  0  0  0  0  0  0  0  0
    6.5950   -4.4340  -51.7330 C   0  0  0  0  0  0  0  0  0  0  0  0
    6.8100   -4.1400  -50.3870 C   0  0  0  0  0  0  0  0  0  0  0  0
    7.5630   -3.0230  -50.0280 C   0  0  0  0  0  0  0  0  0  0  0  0
    8.1040   -2.1990  -51.0170 C   0  0  0  0  0  0  0  0  0  0  0  0
    6.3429    0.1265  -52.7896 H   0  0  0  0  0  0  0  0  0  0  0  0
    6.5100    1.0295  -54.3334 H   0  0  0  0  0  0  0  0  0  0  0  0
    5.8218   -0.6297  -54.3334 H   0  0  0  0  0  0  0  0  0  0  0  0
   10.8990    0.7000  -56.3110 H   0  0  0  0  0  0  0  0  0  0  0  0
    9.7273    3.2903  -56.9947 H   0  0  0  0  0  0  0  0  0  0  0  0
    9.9644    1.0677  -59.0165 H   0  0  0  0  0  0  0  0  0  0  0  0
    8.7112    2.3838  -58.8150 H   0  0  0  0  0  0  0  0  0  0  0  0
   11.2961    2.3962  -60.3158 H   0  0  0  0  0  0  0  0  0  0  0  0
    9.6905    3.1601  -60.6845 H   0  0  0  0  0  0  0  0  0  0  0  0
   11.4065    4.8574  -60.2236 H   0  0  0  0  0  0  0  0  0  0  0  0
   10.0924    4.8529  -58.9741 H   0  0  0  0  0  0  0  0  0  0  0  0
   12.9848    4.0762  -58.7443 H   0  0  0  0  0  0  0  0  0  0  0  0
   11.8852    4.9888  -57.6049 H   0  0  0  0  0  0  0  0  0  0  0  0
   12.3703    2.0475  -57.8744 H   0  0  0  0  0  0  0  0  0  0  0  0
   12.1011    3.0871  -56.4115 H   0  0  0  0  0  0  0  0  0  0  0  0
   10.7739   -2.8770  -52.5025 H   0  0  0  0  0  0  0  0  0  0  0  0
   10.3875   -3.7678  -54.0138 H   0  0  0  0  0  0  0  0  0  0  0  0
   11.6748   -2.5150  -54.0138 H   0  0  0  0  0  0  0  0  0  0  0  0
    6.9643   -3.8440  -53.7831 H   0  0  0  0  0  0  0  0  0  0  0  0
    5.9986   -5.3140  -52.0155 H   0  0  0  0  0  0  0  0  0  0  0  0
    6.3851   -4.7899  -49.6078 H   0  0  0  0  0  0  0  0  0  0  0  0
    7.7309   -2.7909  -48.9660 H   0  0  0  0  0  0  0  0  0  0  0  0
    8.6943   -1.3159  -50.7310 H   0  0  0  0  0  0  0  0  0  0  0  0
  1  2  1  0
  2  3  1  0
  3  4  1  0
  4  5  2  0
  4  6  1  0
  6  7  1  0
  7  8  1  0
  8  9  1  0
  9 10  1  0
 10 11  1  0
 11 12  1  0
  3 13  2  0
 13 14  1  0
 14 15  1  0
 14 16  1  0
 16 17  1  0
 17 18  2  0
 18 19  1  0
 19 20  2  0
 20 21  1  0
 21 22  2  0
 16  2  2  0
 22 17  1  0
 12  7  1  0
  1 23  1  0
  1 24  1  0
  1 25  1  0
  6 26  1  0
  7 27  1  0
  8 28  1  0
  8 29  1  0
  9 30  1  0
  9 31  1  0
 10 32  1  0
 10 33  1  0
 11 34  1  0
 11 35  1  0
 12 36  1  0
 12 37  1  0
 15 38  1  0
 15 39  1  0
 15 40  1  0
 18 41  1  0
 19 42  1  0
 20 43  1  0
 21 44  1  0
 22 45  1  0
M  END
>  <meeko>  (104) 
{"is_sidechain": false}

$$$$
