
     RDKit          3D

 64 69  0  0  0  0  0  0  0  0999 V2000
    6.4570    0.1980  -53.7120 C   0  0  0  0  0  0  0  0  0  0  0  0
    7.7620   -0.2770  -54.2590 C   0  0  0  0  0  0  0  0  0  0  0  0
    8.5200    0.3130  -55.3310 C   0  0  0  0  0  0  0  0  0  0  0  0
    8.2280    1.4570  -56.2010 C   0  0  0  0  0  0  0  0  0  0  0  0
    7.1770    2.0800  -56.1220 O   0  0  0  0  0  0  0  0  0  0  0  0
    9.2600    1.7940  -57.0490 N   0  0  0  0  0  0  0  0  0  0  0  0
    9.2670    2.9580  -57.9390 C   0  0  2  0  0  0  0  0  0  0  0  0
    9.1560    4.2830  -57.1460 C   0  0  0  0  0  0  0  0  0  0  0  0
    9.2250    5.4900  -58.0970 C   0  0  1  0  0  0  0  0  0  0  0  0
   10.5670    5.4710  -58.8470 C   0  0  0  0  0  0  0  0  0  0  0  0
   10.6950    4.1740  -59.6620 C   0  0  2  0  0  0  0  0  0  0  0  0
    9.5420    4.0940  -60.6740 C   0  0  0  0  0  0  0  0  0  0  0  0
    8.1940    4.1040  -59.9360 C   0  0  2  0  0  0  0  0  0  0  0  0
    8.0750    5.3990  -59.1150 C   0  0  0  0  0  0  0  0  0  0  0  0
    8.1250    2.8950  -58.9860 C   0  0  0  0  0  0  0  0  0  0  0  0
   10.6150    2.9700  -58.7110 C   0  0  0  0  0  0  0  0  0  0  0  0
    9.6980   -0.4070  -55.4110 C   0  0  0  0  0  0  0  0  0  0  0  0
    9.6640   -1.4300  -54.5010 N   0  0  0  0  0  0  0  0  0  0  0  0
   10.7480   -2.3980  -54.3330 C   0  0  0  0  0  0  0  0  0  0  0  0
   11.0220   -3.1770  -55.5970 C   0  0  0  0  0  0  0  0  0  0  0  0
   11.7420   -2.6040  -56.6570 C   0  0  0  0  0  0  0  0  0  0  0  0
   11.9960   -3.3310  -57.8200 C   0  0  0  0  0  0  0  0  0  0  0  0
   11.5380   -4.6420  -57.9370 C   0  0  0  0  0  0  0  0  0  0  0  0
   10.8260   -5.2260  -56.8910 C   0  0  0  0  0  0  0  0  0  0  0  0
   10.5720   -4.5000  -55.7260 C   0  0  0  0  0  0  0  0  0  0  0  0
    8.4890   -1.3680  -53.7800 C   0  0  0  0  0  0  0  0  0  0  0  0
    8.1320   -2.3120  -52.7190 C   0  0  0  0  0  0  0  0  0  0  0  0
    8.8850   -2.3440  -51.5380 C   0  0  0  0  0  0  0  0  0  0  0  0
    8.5610   -3.2410  -50.5170 C   0  0  0  0  0  0  0  0  0  0  0  0
    7.4840   -4.1150  -50.6670 C   0  0  0  0  0  0  0  0  0  0  0  0
    6.7290   -4.0920  -51.8390 C   0  0  0  0  0  0  0  0  0  0  0  0
    7.0570   -3.1960  -52.8540 C   0  0  0  0  0  0  0  0  0  0  0  0
    6.3050   -3.1880  -53.9670 F   0  0  0  0  0  0  0  0  0  0  0  0
    6.4936    0.1847  -52.6127 H   0  0  0  0  0  0  0  0  0  0  0  0
    6.2650    1.2237  -54.0601 H   0  0  0  0  0  0  0  0  0  0  0  0
    5.6507   -0.4643  -54.0601 H   0  0  0  0  0  0  0  0  0  0  0  0
   10.1550    1.3830  -56.8240 H   0  0  0  0  0  0  0  0  0  0  0  0
    8.1977    4.3022  -56.6063 H   0  0  0  0  0  0  0  0  0  0  0  0
    9.9938    4.3426  -56.4357 H   0  0  0  0  0  0  0  0  0  0  0  0
    9.1374    6.4217  -57.5189 H   0  0  0  0  0  0  0  0  0  0  0  0
   10.6169    6.3347  -59.5264 H   0  0  0  0  0  0  0  0  0  0  0  0
   11.3891    5.5221  -58.1179 H   0  0  0  0  0  0  0  0  0  0  0  0
   11.6573    4.1653  -60.1948 H   0  0  0  0  0  0  0  0  0  0  0  0
    9.5923    4.9582  -61.3527 H   0  0  0  0  0  0  0  0  0  0  0  0
    9.6314    3.1615  -61.2506 H   0  0  0  0  0  0  0  0  0  0  0  0
    7.3728    4.0496  -60.6658 H   0  0  0  0  0  0  0  0  0  0  0  0
    8.1202    6.2643  -59.7926 H   0  0  0  0  0  0  0  0  0  0  0  0
    7.1168    5.3948  -58.5748 H   0  0  0  0  0  0  0  0  0  0  0  0
    7.1562    2.8994  -58.4650 H   0  0  0  0  0  0  0  0  0  0  0  0
    8.2354    1.9733  -59.5762 H   0  0  0  0  0  0  0  0  0  0  0  0
   10.7023    2.0429  -59.2965 H   0  0  0  0  0  0  0  0  0  0  0  0
   11.4353    3.0445  -57.9820 H   0  0  0  0  0  0  0  0  0  0  0  0
   10.5306   -0.1921  -56.0970 H   0  0  0  0  0  0  0  0  0  0  0  0
   11.6623   -1.8586  -54.0447 H   0  0  0  0  0  0  0  0  0  0  0  0
   10.4421   -3.1142  -53.5561 H   0  0  0  0  0  0  0  0  0  0  0  0
   12.1097   -1.5710  -56.5696 H   0  0  0  0  0  0  0  0  0  0  0  0
   12.5581   -2.8693  -58.6452 H   0  0  0  0  0  0  0  0  0  0  0  0
   11.7383   -5.2153  -58.8542 H   0  0  0  0  0  0  0  0  0  0  0  0
   10.4636   -6.2605  -56.9835 H   0  0  0  0  0  0  0  0  0  0  0  0
   10.0143   -4.9690  -54.9020 H   0  0  0  0  0  0  0  0  0  0  0  0
    9.7365   -1.6587  -51.4138 H   0  0  0  0  0  0  0  0  0  0  0  0
    9.1567   -3.2581  -49.5924 H   0  0  0  0  0  0  0  0  0  0  0  0
    7.2309   -4.8209  -49.8622 H   0  0  0  0  0  0  0  0  0  0  0  0
    5.8782   -4.7783  -51.9616 H   0  0  0  0  0  0  0  0  0  0  0  0
  1  2  1  0
  2  3  1  0
  3  4  1  0
  4  5  2  0
  4  6  1  0
  7  6  1  1
  7  8  1  0
  8  9  1  0
  9 10  1  0
 10 11  1  0
 11 12  1  0
 12 13  1  0
 13 14  1  0
 13 15  1  0
 11 16  1  0
  3 17  2  0
 17 18  1  0
 18 19  1  0
 19 20  1  0
 20 21  2  0
 21 22  1  0
 22 23  2  0
 23 24  1  0
 24 25  2  0
 18 26  1  0
 26 27  1  0
 27 28  2  0
 28 29  1  0
 29 30  2  0
 30 31  1  0
 31 32  2  0
 32 33  1  0
 26  2  2  0
 32 27  1  0
 15  7  1  0
 25 20  1  0
 16  7  1  0
 14  9  1  0
  1 34  1  0
  1 35  1  0
  1 36  1  0
  6 37  1  0
  8 38  1  0
  8 39  1  0
  9 40  1  1
 10 41  1  0
 10 42  1  0
 11 43  1  6
 12 44  1  0
 12 45  1  0
 13 46  1  6
 14 47  1  0
 14 48  1  0
 15 49  1  0
 15 50  1  0
 16 51  1  0
 16 52  1  0
 17 53  1  0
 19 54  1  0
 19 55  1  0
 21 56  1  0
 22 57  1  0
 23 58  1  0
 24 59  1  0
 25 60  1  0
 28 61  1  0
 29 62  1  0
 30 63  1  0
 31 64  1  0
M  END
>  <meeko>  (1) 
{"is_sidechain": false}

$$$$

     RDKit          3D

 58 63  0  0  0  0  0  0  0  0999 V2000
    8.5430    0.6940  -54.5880 C   0  0  0  0  0  0  0  0  0  0  0  0
    9.5610   -0.3120  -55.0160 C   0  0  0  0  0  0  0  0  0  0  0  0
   10.5880   -0.0930  -56.0100 C   0  0  0  0  0  0  0  0  0  0  0  0
   10.8240    1.1390  -56.7770 C   0  0  0  0  0  0  0  0  0  0  0  0
   11.8920    1.7400  -56.7240 O   0  0  0  0  0  0  0  0  0  0  0  0
    9.7500    1.5680  -57.5280 N   0  0  0  0  0  0  0  0  0  0  0  0
    9.7170    2.8030  -58.3160 C   0  0  2  0  0  0  0  0  0  0  0  0
    9.3100    4.0220  -57.4520 C   0  0  0  0  0  0  0  0  0  0  0  0
    9.2270    5.2940  -58.3140 C   0  0  1  0  0  0  0  0  0  0  0  0
   10.5970    5.5560  -58.9630 C   0  0  0  0  0  0  0  0  0  0  0  0
   10.9950    4.3670  -59.8560 C   0  0  2  0  0  0  0  0  0  0  0  0
    9.9320    4.1740  -60.9480 C   0  0  0  0  0  0  0  0  0  0  0  0
    8.5630    3.9030  -60.3050 C   0  0  2  0  0  0  0  0  0  0  0  0
    8.1740    5.0940  -59.4160 C   0  0  0  0  0  0  0  0  0  0  0  0
    8.6560    2.6370  -59.4390 C   0  0  0  0  0  0  0  0  0  0  0  0
   11.0800    3.0940  -58.9960 C   0  0  0  0  0  0  0  0  0  0  0  0
   11.3200   -1.2680  -56.0690 C   0  0  0  0  0  0  0  0  0  0  0  0
   10.7620   -2.1620  -55.2030 N   0  0  0  0  0  0  0  0  0  0  0  0
   11.2960   -3.5300  -55.0010 C   0  0  0  0  0  0  0  0  0  0  0  0
   10.6980   -4.7350  -55.6910 C   0  0  0  0  0  0  0  0  0  0  0  0
   12.0700   -4.2660  -56.0710 C   0  0  0  0  0  0  0  0  0  0  0  0
    9.7030   -1.6100  -54.5300 C   0  0  0  0  0  0  0  0  0  0  0  0
    8.9250   -2.3200  -53.5160 C   0  0  0  0  0  0  0  0  0  0  0  0
    9.3720   -2.3810  -52.1920 C   0  0  0  0  0  0  0  0  0  0  0  0
    8.6250   -3.0620  -51.2270 C   0  0  0  0  0  0  0  0  0  0  0  0
    7.4300   -3.6800  -51.5870 C   0  0  0  0  0  0  0  0  0  0  0  0
    6.5120   -4.5220  -50.3990 Cl  0  0  0  0  0  0  0  0  0  0  0  0
    6.9710   -3.6210  -52.9010 C   0  0  0  0  0  0  0  0  0  0  0  0
    7.7180   -2.9390  -53.8650 C   0  0  0  0  0  0  0  0  0  0  0  0
    8.5045    0.7321  -53.4893 H   0  0  0  0  0  0  0  0  0  0  0  0
    8.8188    1.6842  -54.9798 H   0  0  0  0  0  0  0  0  0  0  0  0
    7.5561    0.4065  -54.9798 H   0  0  0  0  0  0  0  0  0  0  0  0
    8.8700    1.0990  -57.3730 H   0  0  0  0  0  0  0  0  0  0  0  0
    8.3277    3.8298  -56.9958 H   0  0  0  0  0  0  0  0  0  0  0  0
   10.0698    4.1722  -56.6708 H   0  0  0  0  0  0  0  0  0  0  0  0
    8.9444    6.1503  -57.6840 H   0  0  0  0  0  0  0  0  0  0  0  0
   10.5412    6.4682  -59.5752 H   0  0  0  0  0  0  0  0  0  0  0  0
   11.3518    5.6814  -58.1727 H   0  0  0  0  0  0  0  0  0  0  0  0
   11.9713    4.5639  -60.3229 H   0  0  0  0  0  0  0  0  0  0  0  0
    9.8720    5.0839  -61.5632 H   0  0  0  0  0  0  0  0  0  0  0  0
   10.2119    3.3165  -61.5776 H   0  0  0  0  0  0  0  0  0  0  0  0
    7.8053    3.7644  -61.0903 H   0  0  0  0  0  0  0  0  0  0  0  0
    8.1138    6.0036  -60.0316 H   0  0  0  0  0  0  0  0  0  0  0  0
    7.1979    4.8932  -58.9503 H   0  0  0  0  0  0  0  0  0  0  0  0
    7.6752    2.4427  -58.9805 H   0  0  0  0  0  0  0  0  0  0  0  0
    8.9564    1.7961  -60.0814 H   0  0  0  0  0  0  0  0  0  0  0  0
   11.3536    2.2426  -59.6365 H   0  0  0  0  0  0  0  0  0  0  0  0
   11.8410    3.2431  -58.2158 H   0  0  0  0  0  0  0  0  0  0  0  0
   12.1994   -1.4487  -56.7046 H   0  0  0  0  0  0  0  0  0  0  0  0
   11.4916   -3.2405  -53.9580 H   0  0  0  0  0  0  0  0  0  0  0  0
   10.5733   -5.6783  -55.1390 H   0  0  0  0  0  0  0  0  0  0  0  0
    9.7652   -4.9316  -56.2399 H   0  0  0  0  0  0  0  0  0  0  0  0
   12.9507   -4.8656  -55.7975 H   0  0  0  0  0  0  0  0  0  0  0  0
   12.5581   -3.9769  -57.0134 H   0  0  0  0  0  0  0  0  0  0  0  0
   10.3153   -1.8910  -51.9092 H   0  0  0  0  0  0  0  0  0  0  0  0
    8.9796   -3.1097  -50.1868 H   0  0  0  0  0  0  0  0  0  0  0  0
    6.0250   -4.1090  -53.1783 H   0  0  0  0  0  0  0  0  0  0  0  0
    7.3565   -2.8880  -54.9027 H   0  0  0  0  0  0  0  0  0  0  0  0
  1  2  1  0
  2  3  1  0
  3  4  1  0
  4  5  2  0
  4  6  1  0
  7  6  1  1
  7  8  1  0
  8  9  1  0
  9 10  1  0
 10 11  1  0
 11 12  1  0
 12 13  1  0
 13 14  1  0
 13 15  1  0
 11 16  1  0
  3 17  2  0
 17 18  1  0
 18 19  1  0
 19 20  1  0
 20 21  1  0
 18 22  1  0
 22 23  1  0
 23 24  1  0
 24 25  2  0
 25 26  1  0
 26 27  1  0
 26 28  2  0
 28 29  1  0
 22  2  2  0
 29 23  2  0
 15  7  1  0
 21 19  1  0
 16  7  1  0
 14  9  1  0
  1 30  1  0
  1 31  1  0
  1 32  1  0
  6 33  1  0
  8 34  1  0
  8 35  1  0
  9 36  1  1
 10 37  1  0
 10 38  1  0
 11 39  1  6
 12 40  1  0
 12 41  1  0
 13 42  1  6
 14 43  1  0
 14 44  1  0
 15 45  1  0
 15 46  1  0
 16 47  1  0
 16 48  1  0
 17 49  1  0
 19 50  1  0
 20 51  1  0
 20 52  1  0
 21 53  1  0
 21 54  1  0
 24 55  1  0
 25 56  1  0
 28 57  1  0
 29 58  1  0
M  END
>  <meeko>  (2) 
{"is_sidechain": false}

$$$$

     RDKit          3D

 76 81  0  0  0  0  0  0  0  0999 V2000
    8.4750    0.7830  -54.8450 C   0  0  0  0  0  0  0  0  0  0  0  0
    9.6090   -0.1300  -55.1770 C   0  0  0  0  0  0  0  0  0  0  0  0
   10.6760    0.1650  -56.0950 C   0  0  0  0  0  0  0  0  0  0  0  0
   10.8480    1.3910  -56.8880 C   0  0  0  0  0  0  0  0  0  0  0  0
   11.9380    1.9380  -57.0090 O   0  0  0  0  0  0  0  0  0  0  0  0
    9.6960    1.8470  -57.4960 N   0  0  0  0  0  0  0  0  0  0  0  0
    9.6290    2.9880  -58.4110 C   0  0  2  0  0  0  0  0  0  0  0  0
   10.0150    4.3170  -57.7130 C   0  0  0  0  0  0  0  0  0  0  0  0
    9.8820    5.5000  -58.6890 C   0  0  1  0  0  0  0  0  0  0  0  0
   10.8020    5.2630  -59.9000 C   0  0  0  0  0  0  0  0  0  0  0  0
   10.4030    3.9660  -60.6220 C   0  0  2  0  0  0  0  0  0  0  0  0
    8.9430    4.0760  -61.0910 C   0  0  0  0  0  0  0  0  0  0  0  0
    8.0190    4.3040  -59.8850 C   0  0  2  0  0  0  0  0  0  0  0  0
    8.4270    5.6010  -59.1700 C   0  0  0  0  0  0  0  0  0  0  0  0
    8.1640    3.1260  -58.9090 C   0  0  0  0  0  0  0  0  0  0  0  0
   10.5360    2.7810  -59.6490 C   0  0  0  0  0  0  0  0  0  0  0  0
   11.4960   -0.9520  -56.1010 C   0  0  0  0  0  0  0  0  0  0  0  0
   10.9750   -1.8940  -55.2470 N   0  0  0  0  0  0  0  0  0  0  0  0
   11.5970   -3.1970  -54.9990 C   0  0  0  0  0  0  0  0  0  0  0  0
   11.7670   -4.0120  -56.2580 C   0  0  0  0  0  0  0  0  0  0  0  0
   11.6700   -3.4200  -57.5260 C   0  0  0  0  0  0  0  0  0  0  0  0
   11.8390   -4.1850  -58.6810 C   0  0  0  0  0  0  0  0  0  0  0  0
   12.1110   -5.5470  -58.5830 C   0  0  0  0  0  0  0  0  0  0  0  0
   12.2180   -6.1470  -57.3310 C   0  0  0  0  0  0  0  0  0  0  0  0
   12.0520   -5.3830  -56.1740 C   0  0  0  0  0  0  0  0  0  0  0  0
    9.8310   -1.4010  -54.6540 C   0  0  0  0  0  0  0  0  0  0  0  0
    9.0230   -2.1570  -53.6940 C   0  0  0  0  0  0  0  0  0  0  0  0
    7.6910   -2.4320  -54.0160 C   0  0  0  0  0  0  0  0  0  0  0  0
    6.8800   -3.1660  -53.1430 C   0  0  0  0  0  0  0  0  0  0  0  0
    7.3680   -3.6440  -51.9130 C   0  0  0  0  0  0  0  0  0  0  0  0
    6.4500   -4.4550  -50.9820 C   0  0  0  0  0  0  0  0  0  0  0  0
    5.6850   -3.5950  -49.9520 C   0  0  0  0  0  0  0  0  0  0  0  0
    7.2940   -5.4770  -50.1880 C   0  0  0  0  0  0  0  0  0  0  0  0
    5.3950   -5.2090  -51.8200 C   0  0  0  0  0  0  0  0  0  0  0  0
    8.7040   -3.3460  -51.5930 C   0  0  0  0  0  0  0  0  0  0  0  0
    9.5210   -2.6130  -52.4680 C   0  0  0  0  0  0  0  0  0  0  0  0
   11.1530   -2.3100  -51.9750 Cl  0  0  0  0  0  0  0  0  0  0  0  0
    8.3762    0.8626  -53.7523 H   0  0  0  0  0  0  0  0  0  0  0  0
    8.6700    1.7791  -55.2690 H   0  0  0  0  0  0  0  0  0  0  0  0
    7.5435    0.3799  -55.2690 H   0  0  0  0  0  0  0  0  0  0  0  0
    8.9160    1.2050  -57.5000 H   0  0  0  0  0  0  0  0  0  0  0  0
    9.3484    4.4808  -56.8534 H   0  0  0  0  0  0  0  0  0  0  0  0
   11.0602    4.2504  -57.3767 H   0  0  0  0  0  0  0  0  0  0  0  0
   10.1687    6.4329  -58.1816 H   0  0  0  0  0  0  0  0  0  0  0  0
   10.7115    6.1095  -60.5966 H   0  0  0  0  0  0  0  0  0  0  0  0
   11.8412    5.1748  -59.5503 H   0  0  0  0  0  0  0  0  0  0  0  0
   11.0603    3.8077  -61.4897 H   0  0  0  0  0  0  0  0  0  0  0  0
    8.8472    4.9214  -61.7882 H   0  0  0  0  0  0  0  0  0  0  0  0
    8.6545    3.1418  -61.5951 H   0  0  0  0  0  0  0  0  0  0  0  0
    6.9764    4.3807  -60.2272 H   0  0  0  0  0  0  0  0  0  0  0  0
    8.3316    6.4467  -59.8669 H   0  0  0  0  0  0  0  0  0  0  0  0
    7.7696    5.7570  -58.3019 H   0  0  0  0  0  0  0  0  0  0  0  0
    7.5050    3.2930  -58.0442 H   0  0  0  0  0  0  0  0  0  0  0  0
    7.8856    2.2008  -59.4349 H   0  0  0  0  0  0  0  0  0  0  0  0
   10.2392    1.8554  -60.1639 H   0  0  0  0  0  0  0  0  0  0  0  0
   11.5818    2.7120  -59.3150 H   0  0  0  0  0  0  0  0  0  0  0  0
   12.4156   -1.0662  -56.6937 H   0  0  0  0  0  0  0  0  0  0  0  0
   12.5875   -3.0339  -54.5493 H   0  0  0  0  0  0  0  0  0  0  0  0
   10.9320   -3.7594  -54.3272 H   0  0  0  0  0  0  0  0  0  0  0  0
   11.4590   -2.3438  -57.6107 H   0  0  0  0  0  0  0  0  0  0  0  0
   11.7572   -3.7112  -59.6703 H   0  0  0  0  0  0  0  0  0  0  0  0
   12.2413   -6.1489  -59.4944 H   0  0  0  0  0  0  0  0  0  0  0  0
   12.4333   -7.2229  -57.2534 H   0  0  0  0  0  0  0  0  0  0  0  0
   12.1456   -5.8606  -55.1875 H   0  0  0  0  0  0  0  0  0  0  0  0
    7.2752   -2.0672  -54.9668 H   0  0  0  0  0  0  0  0  0  0  0  0
    5.8373   -3.3739  -53.4249 H   0  0  0  0  0  0  0  0  0  0  0  0
    5.9630   -3.9076  -48.9347 H   0  0  0  0  0  0  0  0  0  0  0  0
    5.9446   -2.5355  -50.0939 H   0  0  0  0  0  0  0  0  0  0  0  0
    4.6025   -3.7294  -50.0939 H   0  0  0  0  0  0  0  0  0  0  0  0
    7.1549   -5.3086  -49.1099 H   0  0  0  0  0  0  0  0  0  0  0  0
    6.9715   -6.4969  -50.4444 H   0  0  0  0  0  0  0  0  0  0  0  0
    8.3565   -5.3531  -50.4444 H   0  0  0  0  0  0  0  0  0  0  0  0
    4.6865   -5.7154  -51.1480 H   0  0  0  0  0  0  0  0  0  0  0  0
    4.8512   -4.4937  -52.4545 H   0  0  0  0  0  0  0  0  0  0  0  0
    5.8957   -5.9551  -52.4545 H   0  0  0  0  0  0  0  0  0  0  0  0
    9.1184   -3.6950  -50.6357 H   0  0  0  0  0  0  0  0  0  0  0  0
  1  2  1  0
  2  3  1  0
  3  4  1  0
  4  5  2  0
  4  6  1  0
  7  6  1  1
  7  8  1  0
  8  9  1  0
  9 10  1  0
 10 11  1  0
 11 12  1  0
 12 13  1  0
 13 14  1  0
 13 15  1  0
 11 16  1  0
  3 17  2  0
 17 18  1  0
 18 19  1  0
 19 20  1  0
 20 21  2  0
 21 22  1  0
 22 23  2  0
 23 24  1  0
 24 25  2  0
 18 26  1  0
 26 27  1  0
 27 28  1  0
 28 29  2  0
 29 30  1  0
 30 31  1  0
 31 32  1  0
 31 33  1  0
 31 34  1  0
 30 35  2  0
 35 36  1  0
 36 37  1  0
 26  2  2  0
 36 27  2  0
 15  7  1  0
 25 20  1  0
 16  7  1  0
 14  9  1  0
  1 38  1  0
  1 39  1  0
  1 40  1  0
  6 41  1  0
  8 42  1  0
  8 43  1  0
  9 44  1  1
 10 45  1  0
 10 46  1  0
 11 47  1  6
 12 48  1  0
 12 49  1  0
 13 50  1  6
 14 51  1  0
 14 52  1  0
 15 53  1  0
 15 54  1  0
 16 55  1  0
 16 56  1  0
 17 57  1  0
 19 58  1  0
 19 59  1  0
 21 60  1  0
 22 61  1  0
 23 62  1  0
 24 63  1  0
 25 64  1  0
 28 65  1  0
 29 66  1  0
 32 67  1  0
 32 68  1  0
 32 69  1  0
 33 70  1  0
 33 71  1  0
 33 72  1  0
 34 73  1  0
 34 74  1  0
 34 75  1  0
 35 76  1  0
M  END
>  <meeko>  (3) 
{"is_sidechain": false}

$$$$

     RDKit          3D

 61 63  0  0  0  0  0  0  0  0999 V2000
    6.2870    0.0090  -53.7030 C   0  0  0  0  0  0  0  0  0  0  0  0
    7.6470   -0.4560  -54.1050 C   0  0  0  0  0  0  0  0  0  0  0  0
    8.4920    0.1000  -55.1310 C   0  0  0  0  0  0  0  0  0  0  0  0
    8.2680    1.1970  -56.0750 C   0  0  0  0  0  0  0  0  0  0  0  0
    7.1740    1.7410  -56.2000 O   0  0  0  0  0  0  0  0  0  0  0  0
    9.3950    1.5980  -56.7650 N   0  0  0  0  0  0  0  0  0  0  0  0
    9.3870    2.7030  -57.6710 C   0  0  0  0  0  0  0  0  0  0  0  0
   10.6610    3.3860  -58.1400 C   0  0  0  0  0  0  0  0  0  0  0  0
   10.7400    3.7750  -59.6020 C   0  0  0  0  0  0  0  0  0  0  0  0
   12.0070    2.9530  -57.6030 C   0  0  0  0  0  0  0  0  0  0  0  0
    9.6770    4.1230  -57.2140 C   0  0  0  0  0  0  0  0  0  0  0  0
    8.8030    5.2240  -57.7760 C   0  0  0  0  0  0  0  0  0  0  0  0
   10.0450    4.3790  -55.7690 C   0  0  0  0  0  0  0  0  0  0  0  0
    9.6800   -0.6050  -55.0750 C   0  0  0  0  0  0  0  0  0  0  0  0
    9.5820   -1.5750  -54.1160 N   0  0  0  0  0  0  0  0  0  0  0  0
   10.6500   -2.5200  -53.8080 C   0  0  0  0  0  0  0  0  0  0  0  0
   10.6030   -3.7510  -54.7160 C   0  0  0  0  0  0  0  0  0  0  0  0
   11.7850   -3.8840  -55.6940 C   0  0  0  0  0  0  0  0  0  0  0  0
   11.4910   -3.2490  -57.0530 C   0  0  0  0  0  0  0  0  0  0  0  0
   12.2320   -5.3350  -55.8650 C   0  0  0  0  0  0  0  0  0  0  0  0
    8.3420   -1.5130  -53.5180 C   0  0  0  0  0  0  0  0  0  0  0  0
    7.9170   -2.4100  -52.4450 C   0  0  0  0  0  0  0  0  0  0  0  0
    8.1380   -2.0640  -51.1080 C   0  0  0  0  0  0  0  0  0  0  0  0
    7.7390   -2.9260  -50.0850 C   0  0  0  0  0  0  0  0  0  0  0  0
    7.1130   -4.1340  -50.3940 C   0  0  0  0  0  0  0  0  0  0  0  0
    6.8830   -4.4790  -51.7260 C   0  0  0  0  0  0  0  0  0  0  0  0
    7.2830   -3.6190  -52.7500 C   0  0  0  0  0  0  0  0  0  0  0  0
    6.2172    0.0329  -52.6055 H   0  0  0  0  0  0  0  0  0  0  0  0
    6.1113    1.0183  -54.1036 H   0  0  0  0  0  0  0  0  0  0  0  0
    5.5301   -0.6814  -54.1036 H   0  0  0  0  0  0  0  0  0  0  0  0
   10.2800    1.2050  -56.4830 H   0  0  0  0  0  0  0  0  0  0  0  0
    8.5469    2.2073  -58.1794 H   0  0  0  0  0  0  0  0  0  0  0  0
   10.9583    4.8500  -59.6841 H   0  0  0  0  0  0  0  0  0  0  0  0
   11.5397    3.2000  -60.0917 H   0  0  0  0  0  0  0  0  0  0  0  0
    9.7793    3.5575  -60.0917 H   0  0  0  0  0  0  0  0  0  0  0  0
   11.9828    2.9608  -56.5033 H   0  0  0  0  0  0  0  0  0  0  0  0
   12.2335    1.9367  -57.9576 H   0  0  0  0  0  0  0  0  0  0  0  0
   12.7836    3.6466  -57.9576 H   0  0  0  0  0  0  0  0  0  0  0  0
    8.3520    5.7922  -56.9491 H   0  0  0  0  0  0  0  0  0  0  0  0
    9.4144    5.8983  -58.3936 H   0  0  0  0  0  0  0  0  0  0  0  0
    8.0076    4.7815  -58.3936 H   0  0  0  0  0  0  0  0  0  0  0  0
    9.3211    3.8754  -55.1115 H   0  0  0  0  0  0  0  0  0  0  0  0
   11.0536    3.9866  -55.5724 H   0  0  0  0  0  0  0  0  0  0  0  0
   10.0278    5.4612  -55.5724 H   0  0  0  0  0  0  0  0  0  0  0  0
   10.5636   -0.4157  -55.7022 H   0  0  0  0  0  0  0  0  0  0  0  0
   11.6191   -2.0169  -53.9410 H   0  0  0  0  0  0  0  0  0  0  0  0
   10.5172   -2.8575  -52.7695 H   0  0  0  0  0  0  0  0  0  0  0  0
   10.5867   -4.6461  -54.0768 H   0  0  0  0  0  0  0  0  0  0  0  0
    9.7015   -3.6409  -55.3366 H   0  0  0  0  0  0  0  0  0  0  0  0
   12.6163   -3.3261  -55.2382 H   0  0  0  0  0  0  0  0  0  0  0  0
   11.0331   -2.2600  -56.9042 H   0  0  0  0  0  0  0  0  0  0  0  0
   12.4292   -3.1377  -57.6164 H   0  0  0  0  0  0  0  0  0  0  0  0
   10.7991   -3.8924  -57.6164 H   0  0  0  0  0  0  0  0  0  0  0  0
   12.3734   -5.7941  -54.8755 H   0  0  0  0  0  0  0  0  0  0  0  0
   11.4638   -5.8922  -56.4213 H   0  0  0  0  0  0  0  0  0  0  0  0
   13.1805   -5.3633  -56.4213 H   0  0  0  0  0  0  0  0  0  0  0  0
    8.6275   -1.1101  -50.8619 H   0  0  0  0  0  0  0  0  0  0  0  0
    7.9182   -2.6527  -49.0347 H   0  0  0  0  0  0  0  0  0  0  0  0
    6.8009   -4.8141  -49.5877 H   0  0  0  0  0  0  0  0  0  0  0  0
    6.3860   -5.4296  -51.9695 H   0  0  0  0  0  0  0  0  0  0  0  0
    7.0992   -3.8927  -53.7994 H   0  0  0  0  0  0  0  0  0  0  0  0
  1  2  1  0
  2  3  1  0
  3  4  1  0
  4  5  2  0
  4  6  1  0
  6  7  1  0
  7  8  1  0
  8  9  1  0
  8 10  1  0
  8 11  1  0
 11 12  1  0
 11 13  1  0
  3 14  2  0
 14 15  1  0
 15 16  1  0
 16 17  1  0
 17 18  1  0
 18 19  1  0
 18 20  1  0
 15 21  1  0
 21 22  1  0
 22 23  2  0
 23 24  1  0
 24 25  2  0
 25 26  1  0
 26 27  2  0
 21  2  2  0
 27 22  1  0
 11  7  1  0
  1 28  1  0
  1 29  1  0
  1 30  1  0
  6 31  1  0
  7 32  1  0
  9 33  1  0
  9 34  1  0
  9 35  1  0
 10 36  1  0
 10 37  1  0
 10 38  1  0
 12 39  1  0
 12 40  1  0
 12 41  1  0
 13 42  1  0
 13 43  1  0
 13 44  1  0
 14 45  1  0
 16 46  1  0
 16 47  1  0
 17 48  1  0
 17 49  1  0
 18 50  1  0
 19 51  1  0
 19 52  1  0
 19 53  1  0
 20 54  1  0
 20 55  1  0
 20 56  1  0
 23 57  1  0
 24 58  1  0
 25 59  1  0
 26 60  1  0
 27 61  1  0
M  END
>  <meeko>  (4) 
{"is_sidechain": false}

$$$$

     RDKit          3D

 63 68  0  0  0  0  0  0  0  0999 V2000
    6.1130   -0.0180  -53.8020 C   0  0  0  0  0  0  0  0  0  0  0  0
    7.5140   -0.3510  -54.1980 C   0  0  0  0  0  0  0  0  0  0  0  0
    8.3120    0.2900  -55.2120 C   0  0  0  0  0  0  0  0  0  0  0  0
    8.0330    1.4300  -56.0880 C   0  0  0  0  0  0  0  0  0  0  0  0
    6.9090    1.9080  -56.1960 O   0  0  0  0  0  0  0  0  0  0  0  0
    9.1080    1.8800  -56.8080 N   0  0  0  0  0  0  0  0  0  0  0  0
    9.0690    2.9770  -57.7660 C   0  0  1  0  0  0  0  0  0  0  0  0
    8.5780    4.2990  -57.1440 C   0  0  0  0  0  0  0  0  0  0  0  0
    8.6760    5.4450  -58.1700 C   0  0  2  0  0  0  0  0  0  0  0  0
    7.8430    5.0900  -59.4140 C   0  0  0  0  0  0  0  0  0  0  0  0
    8.3660    3.7950  -60.0560 C   0  0  1  0  0  0  0  0  0  0  0  0
    9.8410    3.9830  -60.4600 C   0  0  0  0  0  0  0  0  0  0  0  0
   10.6820    4.3490  -59.2320 C   0  0  1  0  0  0  0  0  0  0  0  0
   10.1510    5.6280  -58.5770 C   0  0  0  0  0  0  0  0  0  0  0  0
   10.5250    3.2210  -58.2250 C   0  0  0  0  0  0  0  0  0  0  0  0
   11.4770    2.5520  -57.8250 O   0  0  0  0  0  0  0  0  0  0  0  0
    8.2660    2.6400  -59.0380 C   0  0  0  0  0  0  0  0  0  0  0  0
    9.4990   -0.4190  -55.2710 C   0  0  0  0  0  0  0  0  0  0  0  0
    9.4890   -1.3980  -54.3140 N   0  0  0  0  0  0  0  0  0  0  0  0
   10.5970   -2.3260  -54.0900 C   0  0  0  0  0  0  0  0  0  0  0  0
   10.9800   -3.0710  -55.3480 C   0  0  0  0  0  0  0  0  0  0  0  0
   11.4980   -2.3910  -56.4590 C   0  0  0  0  0  0  0  0  0  0  0  0
   11.8640   -3.0910  -57.6120 C   0  0  0  0  0  0  0  0  0  0  0  0
   11.7150   -4.4780  -57.6710 C   0  0  0  0  0  0  0  0  0  0  0  0
   12.1940   -5.2780  -59.1260 Cl  0  0  0  0  0  0  0  0  0  0  0  0
   11.1940   -5.1680  -56.5730 C   0  0  0  0  0  0  0  0  0  0  0  0
   10.9880   -6.8830  -56.5660 Cl  0  0  0  0  0  0  0  0  0  0  0  0
   10.8240   -4.4650  -55.4210 C   0  0  0  0  0  0  0  0  0  0  0  0
    8.2790   -1.3830  -53.6530 C   0  0  0  0  0  0  0  0  0  0  0  0
    7.9330   -2.3090  -52.5760 C   0  0  0  0  0  0  0  0  0  0  0  0
    8.0500   -1.9060  -51.2410 C   0  0  0  0  0  0  0  0  0  0  0  0
    7.7430   -2.7950  -50.2090 C   0  0  0  0  0  0  0  0  0  0  0  0
    7.3080   -4.0860  -50.5080 C   0  0  0  0  0  0  0  0  0  0  0  0
    7.1750   -4.4880  -51.8360 C   0  0  0  0  0  0  0  0  0  0  0  0
    7.4840   -3.6020  -52.8690 C   0  0  0  0  0  0  0  0  0  0  0  0
    6.0366    0.0002  -52.7048 H   0  0  0  0  0  0  0  0  0  0  0  0
    5.8430    0.9694  -54.2048 H   0  0  0  0  0  0  0  0  0  0  0  0
    5.4276   -0.7783  -54.2048 H   0  0  0  0  0  0  0  0  0  0  0  0
    9.9660    1.3400  -56.7880 H   0  0  0  0  0  0  0  0  0  0  0  0
    7.5306    4.1839  -56.8282 H   0  0  0  0  0  0  0  0  0  0  0  0
    9.2099    4.5416  -56.2769 H   0  0  0  0  0  0  0  0  0  0  0  0
    8.2927    6.3761  -57.7271 H   0  0  0  0  0  0  0  0  0  0  0  0
    6.7925    4.9501  -59.1192 H   0  0  0  0  0  0  0  0  0  0  0  0
    7.9243    5.9088  -60.1440 H   0  0  0  0  0  0  0  0  0  0  0  0
    7.7634    3.5594  -60.9456 H   0  0  0  0  0  0  0  0  0  0  0  0
   10.2210    3.0469  -60.8951 H   0  0  0  0  0  0  0  0  0  0  0  0
    9.9108    4.7951  -61.1987 H   0  0  0  0  0  0  0  0  0  0  0  0
   11.7284    4.5019  -59.5346 H   0  0  0  0  0  0  0  0  0  0  0  0
   10.7496    5.8533  -57.6820 H   0  0  0  0  0  0  0  0  0  0  0  0
   10.2245    6.4568  -59.2966 H   0  0  0  0  0  0  0  0  0  0  0  0
    7.2108    2.4828  -58.7700 H   0  0  0  0  0  0  0  0  0  0  0  0
    8.6797    1.7270  -59.4910 H   0  0  0  0  0  0  0  0  0  0  0  0
   10.3212   -0.2263  -55.9759 H   0  0  0  0  0  0  0  0  0  0  0  0
   11.4693   -1.7574  -53.7354 H   0  0  0  0  0  0  0  0  0  0  0  0
   10.2722   -3.0665  -53.3443 H   0  0  0  0  0  0  0  0  0  0  0  0
   11.6173   -1.2981  -56.4231 H   0  0  0  0  0  0  0  0  0  0  0  0
   12.2713   -2.5468  -58.4768 H   0  0  0  0  0  0  0  0  0  0  0  0
   10.4059   -5.0107  -54.5622 H   0  0  0  0  0  0  0  0  0  0  0  0
    8.3850   -0.8854  -51.0038 H   0  0  0  0  0  0  0  0  0  0  0  0
    7.8442   -2.4774  -49.1607 H   0  0  0  0  0  0  0  0  0  0  0  0
    7.0697   -4.7876  -49.6950 H   0  0  0  0  0  0  0  0  0  0  0  0
    6.8261   -5.5046  -52.0700 H   0  0  0  0  0  0  0  0  0  0  0  0
    7.3744   -3.9206  -53.9161 H   0  0  0  0  0  0  0  0  0  0  0  0
  1  2  1  0
  2  3  1  0
  3  4  1  0
  4  5  2  0
  4  6  1  0
  7  6  1  1
  7  8  1  0
  8  9  1  0
  9 10  1  0
 10 11  1  0
 11 12  1  0
 12 13  1  0
 13 14  1  0
 13 15  1  0
 15 16  2  0
 11 17  1  0
  3 18  2  0
 18 19  1  0
 19 20  1  0
 20 21  1  0
 21 22  1  0
 22 23  2  0
 23 24  1  0
 24 25  1  0
 24 26  2  0
 26 27  1  0
 26 28  1  0
 19 29  1  0
 29 30  1  0
 30 31  2  0
 31 32  1  0
 32 33  2  0
 33 34  1  0
 34 35  2  0
 29  2  2  0
 35 30  1  0
 15  7  1  0
 28 21  2  0
 17  7  1  0
 14  9  1  0
  1 36  1  0
  1 37  1  0
  1 38  1  0
  6 39  1  0
  8 40  1  0
  8 41  1  0
  9 42  1  1
 10 43  1  0
 10 44  1  0
 11 45  1  6
 12 46  1  0
 12 47  1  0
 13 48  1  6
 14 49  1  0
 14 50  1  0
 17 51  1  0
 17 52  1  0
 18 53  1  0
 20 54  1  0
 20 55  1  0
 22 56  1  0
 23 57  1  0
 28 58  1  0
 31 59  1  0
 32 60  1  0
 33 61  1  0
 34 62  1  0
 35 63  1  0
M  END
>  <meeko>  (5) 
{"is_sidechain": false}

$$$$

     RDKit          3D

 58 63  0  0  0  0  0  0  0  0999 V2000
   11.3240   -0.6660  -56.5150 C   0  0  0  0  0  0  0  0  0  0  0  0
   10.1920   -0.7830  -55.5050 C   0  0  0  0  0  0  0  0  0  0  0  0
    9.8600   -2.0670  -54.9690 C   0  0  0  0  0  0  0  0  0  0  0  0
   10.6500   -3.2470  -55.3990 C   0  0  0  0  0  0  0  0  0  0  0  0
   11.6410   -3.7930  -54.5680 C   0  0  0  0  0  0  0  0  0  0  0  0
   12.3860   -4.9000  -54.9820 C   0  0  0  0  0  0  0  0  0  0  0  0
   12.1500   -5.4710  -56.2310 C   0  0  0  0  0  0  0  0  0  0  0  0
   11.1710   -4.9380  -57.0670 C   0  0  0  0  0  0  0  0  0  0  0  0
   10.4260   -3.8320  -56.6560 C   0  0  0  0  0  0  0  0  0  0  0  0
    8.7350   -2.2730  -54.0980 C   0  0  0  0  0  0  0  0  0  0  0  0
    8.2670   -3.5500  -53.7350 C   0  0  0  0  0  0  0  0  0  0  0  0
    7.1800   -3.8220  -52.9690 N   0  0  0  0  0  0  0  0  0  0  0  0
    6.4940   -2.7680  -52.5010 C   0  0  0  0  0  0  0  0  0  0  0  0
    6.8540   -1.4620  -52.7600 C   0  0  0  0  0  0  0  0  0  0  0  0
    7.9820   -1.2150  -53.5550 C   0  0  0  0  0  0  0  0  0  0  0  0
    8.4650    0.5060  -53.7010 S   0  0  0  0  0  4  0  0  0  0  0  0
    9.4620    0.3730  -55.1790 C   0  0  0  0  0  0  0  0  0  0  0  0
    9.5540    1.6110  -55.9990 C   0  0  0  0  0  0  0  0  0  0  0  0
   10.0070    2.6360  -55.5110 O   0  0  0  0  0  0  0  0  0  0  0  0
    9.0520    1.4870  -57.2770 N   0  0  0  0  0  0  0  0  0  0  0  0
    8.9790    2.5770  -58.2530 C   0  0  2  0  0  0  0  0  0  0  0  0
    7.9630    3.6630  -57.8220 C   0  0  0  0  0  0  0  0  0  0  0  0
    7.8690    4.7690  -58.8880 C   0  0  1  0  0  0  0  0  0  0  0  0
    9.2560    5.4060  -59.0820 C   0  0  0  0  0  0  0  0  0  0  0  0
   10.2660    4.3430  -59.5460 C   0  0  2  0  0  0  0  0  0  0  0  0
    9.7860    3.7320  -60.8720 C   0  0  0  0  0  0  0  0  0  0  0  0
    8.4050    3.0870  -60.6810 C   0  0  2  0  0  0  0  0  0  0  0  0
    7.4030    4.1550  -60.2180 C   0  0  0  0  0  0  0  0  0  0  0  0
    8.5050    1.9890  -59.6100 C   0  0  0  0  0  0  0  0  0  0  0  0
   10.3620    3.2370  -58.4810 C   0  0  0  0  0  0  0  0  0  0  0  0
   12.2815   -0.5670  -55.9827 H   0  0  0  0  0  0  0  0  0  0  0  0
   11.3467   -1.5666  -57.1462 H   0  0  0  0  0  0  0  0  0  0  0  0
   11.1621    0.2202  -57.1462 H   0  0  0  0  0  0  0  0  0  0  0  0
   11.8327   -3.3451  -53.5818 H   0  0  0  0  0  0  0  0  0  0  0  0
   13.1589   -5.3208  -54.3220 H   0  0  0  0  0  0  0  0  0  0  0  0
   12.7366   -6.3426  -56.5570 H   0  0  0  0  0  0  0  0  0  0  0  0
   10.9851   -5.3898  -58.0526 H   0  0  0  0  0  0  0  0  0  0  0  0
    9.6566   -3.4147  -57.3223 H   0  0  0  0  0  0  0  0  0  0  0  0
    8.8385   -4.4123  -54.1089 H   0  0  0  0  0  0  0  0  0  0  0  0
    5.6037   -2.9541  -51.8824 H   0  0  0  0  0  0  0  0  0  0  0  0
    6.2658   -0.6280  -52.3496 H   0  0  0  0  0  0  0  0  0  0  0  0
    7.3430    1.0720  -54.2050 H   0  0  0  0  0  0  0  0  0  0  0  0
    8.5860    0.6190  -57.5130 H   0  0  0  0  0  0  0  0  0  0  0  0
    6.9732    3.2010  -57.6919 H   0  0  0  0  0  0  0  0  0  0  0  0
    8.3012    4.1100  -56.8755 H   0  0  0  0  0  0  0  0  0  0  0  0
    7.1507    5.5359  -58.5627 H   0  0  0  0  0  0  0  0  0  0  0  0
    9.1889    6.1997  -59.8407 H   0  0  0  0  0  0  0  0  0  0  0  0
    9.5942    5.8303  -58.1251 H   0  0  0  0  0  0  0  0  0  0  0  0
   11.2534    4.8062  -59.6889 H   0  0  0  0  0  0  0  0  0  0  0  0
    9.7172    4.5224  -61.6340 H   0  0  0  0  0  0  0  0  0  0  0  0
   10.5028    2.9635  -61.1970 H   0  0  0  0  0  0  0  0  0  0  0  0
    8.0658    2.6507  -61.6321 H   0  0  0  0  0  0  0  0  0  0  0  0
    7.3342    4.9452  -60.9801 H   0  0  0  0  0  0  0  0  0  0  0  0
    6.4170    3.6886  -60.0755 H   0  0  0  0  0  0  0  0  0  0  0  0
    7.5162    1.5262  -59.4758 H   0  0  0  0  0  0  0  0  0  0  0  0
    9.2388    1.2402  -59.9430 H   0  0  0  0  0  0  0  0  0  0  0  0
   11.0765    2.4716  -58.8182 H   0  0  0  0  0  0  0  0  0  0  0  0
   10.7013    3.6844  -57.5351 H   0  0  0  0  0  0  0  0  0  0  0  0
  1  2  1  0
  2  3  2  0
  3  4  1  0
  4  5  2  0
  5  6  1  0
  6  7  2  0
  7  8  1  0
  8  9  2  0
  3 10  1  0
 10 11  2  0
 11 12  1  0
 12 13  2  0
 13 14  1  0
 14 15  2  0
 15 16  1  0
 16 17  2  0
 17 18  1  0
 18 19  2  0
 18 20  1  0
 21 20  1  1
 21 22  1  0
 22 23  1  0
 23 24  1  0
 24 25  1  0
 25 26  1  0
 26 27  1  0
 27 28  1  0
 27 29  1  0
 25 30  1  0
 17  2  1  0
 29 21  1  0
  9  4  1  0
 15 10  1  0
 30 21  1  0
 28 23  1  0
  1 31  1  0
  1 32  1  0
  1 33  1  0
  5 34  1  0
  6 35  1  0
  7 36  1  0
  8 37  1  0
  9 38  1  0
 11 39  1  0
 13 40  1  0
 14 41  1  0
 16 42  1  0
 20 43  1  0
 22 44  1  0
 22 45  1  0
 23 46  1  1
 24 47  1  0
 24 48  1  0
 25 49  1  6
 26 50  1  0
 26 51  1  0
 27 52  1  6
 28 53  1  0
 28 54  1  0
 29 55  1  0
 29 56  1  0
 30 57  1  0
 30 58  1  0
M  END
>  <meeko>  (6) 
{"is_sidechain": false}

$$$$

     RDKit          3D

 58 63  0  0  0  0  0  0  0  0999 V2000
   11.2780   -0.6480  -56.5060 C   0  0  0  0  0  0  0  0  0  0  0  0
   10.1650   -0.7670  -55.4720 C   0  0  0  0  0  0  0  0  0  0  0  0
    9.4360    0.3920  -55.1470 C   0  0  0  0  0  0  0  0  0  0  0  0
    9.5590    1.6290  -55.9760 C   0  0  0  0  0  0  0  0  0  0  0  0
   10.0460    2.6410  -55.4910 O   0  0  0  0  0  0  0  0  0  0  0  0
    9.0940    1.5170  -57.2690 N   0  0  0  0  0  0  0  0  0  0  0  0
    9.0800    2.6070  -58.2490 C   0  0  2  0  0  0  0  0  0  0  0  0
   10.5310    2.8300  -58.7560 C   0  0  0  0  0  0  0  0  0  0  0  0
   10.5850    3.9620  -59.7930 C   0  0  1  0  0  0  0  0  0  0  0  0
    9.6850    3.5980  -60.9850 C   0  0  0  0  0  0  0  0  0  0  0  0
    8.2370    3.4010  -60.5080 C   0  0  2  0  0  0  0  0  0  0  0  0
    7.7360    4.7000  -59.8550 C   0  0  0  0  0  0  0  0  0  0  0  0
    8.6310    5.0720  -58.6610 C   0  0  2  0  0  0  0  0  0  0  0  0
   10.0760    5.2610  -59.1490 C   0  0  0  0  0  0  0  0  0  0  0  0
    8.5880    3.9370  -57.6220 C   0  0  0  0  0  0  0  0  0  0  0  0
    8.1940    2.2630  -59.4720 C   0  0  0  0  0  0  0  0  0  0  0  0
    8.3640    0.5060  -53.7140 S   0  0  0  0  0  4  0  0  0  0  0  0
    7.9580   -1.2310  -53.5190 C   0  0  0  0  0  0  0  0  0  0  0  0
    6.8450   -1.4980  -52.7090 C   0  0  0  0  0  0  0  0  0  0  0  0
    6.5280   -2.8090  -52.4200 C   0  0  0  0  0  0  0  0  0  0  0  0
    7.2400   -3.8500  -52.8740 N   0  0  0  0  0  0  0  0  0  0  0  0
    8.3080   -3.5590  -53.6620 C   0  0  0  0  0  0  0  0  0  0  0  0
    8.7370   -2.2750  -54.0490 C   0  0  0  0  0  0  0  0  0  0  0  0
    9.8500   -2.0550  -54.9320 C   0  0  0  0  0  0  0  0  0  0  0  0
   10.6490   -3.2270  -55.3660 C   0  0  0  0  0  0  0  0  0  0  0  0
   10.4180   -3.8240  -56.6170 C   0  0  0  0  0  0  0  0  0  0  0  0
   11.1750   -4.9200  -57.0320 C   0  0  0  0  0  0  0  0  0  0  0  0
   12.1730   -5.4340  -56.2050 C   0  0  0  0  0  0  0  0  0  0  0  0
   12.4150   -4.8510  -54.9620 C   0  0  0  0  0  0  0  0  0  0  0  0
   11.6580   -3.7540  -54.5450 C   0  0  0  0  0  0  0  0  0  0  0  0
   12.2455   -0.5446  -55.9930 H   0  0  0  0  0  0  0  0  0  0  0  0
   11.2914   -1.5498  -57.1357 H   0  0  0  0  0  0  0  0  0  0  0  0
   11.1005    0.2363  -57.1357 H   0  0  0  0  0  0  0  0  0  0  0  0
    8.6430    0.6490  -57.5320 H   0  0  0  0  0  0  0  0  0  0  0  0
   11.1735    3.0931  -57.9028 H   0  0  0  0  0  0  0  0  0  0  0  0
   10.8820    1.9024  -59.2318 H   0  0  0  0  0  0  0  0  0  0  0  0
   11.6196    4.1015  -60.1395 H   0  0  0  0  0  0  0  0  0  0  0  0
    9.7171    4.4093  -61.7271 H   0  0  0  0  0  0  0  0  0  0  0  0
   10.0465    2.6635  -61.4389 H   0  0  0  0  0  0  0  0  0  0  0  0
    7.5964    3.1465  -61.3653 H   0  0  0  0  0  0  0  0  0  0  0  0
    7.7617    5.5127  -60.5958 H   0  0  0  0  0  0  0  0  0  0  0  0
    6.7061    4.5495  -59.4992 H   0  0  0  0  0  0  0  0  0  0  0  0
    8.2708    6.0056  -58.2042 H   0  0  0  0  0  0  0  0  0  0  0  0
   10.1071    6.0724  -59.8910 H   0  0  0  0  0  0  0  0  0  0  0  0
   10.7171    5.5156  -58.2922 H   0  0  0  0  0  0  0  0  0  0  0  0
    9.2368    4.1987  -56.7731 H   0  0  0  0  0  0  0  0  0  0  0  0
    7.5505    3.8067  -57.2806 H   0  0  0  0  0  0  0  0  0  0  0  0
    7.1563    2.1175  -59.1374 H   0  0  0  0  0  0  0  0  0  0  0  0
    8.5752    1.3429  -59.9391 H   0  0  0  0  0  0  0  0  0  0  0  0
    7.2360    0.9760  -54.2960 H   0  0  0  0  0  0  0  0  0  0  0  0
    6.2341   -0.6747  -52.3102 H   0  0  0  0  0  0  0  0  0  0  0  0
    5.6504   -3.0094  -51.7878 H   0  0  0  0  0  0  0  0  0  0  0  0
    8.8957   -4.4110  -54.0345 H   0  0  0  0  0  0  0  0  0  0  0  0
    9.6330   -3.4234  -57.2752 H   0  0  0  0  0  0  0  0  0  0  0  0
   10.9842   -5.3793  -58.0131 H   0  0  0  0  0  0  0  0  0  0  0  0
   12.7687   -6.2986  -56.5330 H   0  0  0  0  0  0  0  0  0  0  0  0
   13.2027   -5.2553  -54.3093 H   0  0  0  0  0  0  0  0  0  0  0  0
   11.8545   -3.2984  -53.5633 H   0  0  0  0  0  0  0  0  0  0  0  0
  1  2  1  0
  2  3  2  0
  3  4  1  0
  4  5  2  0
  4  6  1  0
  7  6  1  1
  7  8  1  0
  8  9  1  0
  9 10  1  0
 10 11  1  0
 11 12  1  0
 12 13  1  0
 13 14  1  0
 13 15  1  0
 11 16  1  0
  3 17  1  0
 17 18  2  0
 18 19  1  0
 19 20  2  0
 20 21  1  0
 21 22  2  0
 22 23  1  0
 23 24  2  0
 24 25  1  0
 25 26  2  0
 26 27  1  0
 27 28  2  0
 28 29  1  0
 29 30  2  0
 24  2  1  0
 30 25  1  0
 15  7  1  0
 23 18  1  0
 16  7  1  0
 14  9  1  0
  1 31  1  0
  1 32  1  0
  1 33  1  0
  6 34  1  0
  8 35  1  0
  8 36  1  0
  9 37  1  6
 10 38  1  0
 10 39  1  0
 11 40  1  6
 12 41  1  0
 12 42  1  0
 13 43  1  1
 14 44  1  0
 14 45  1  0
 15 46  1  0
 15 47  1  0
 16 48  1  0
 16 49  1  0
 17 50  1  0
 19 51  1  0
 20 52  1  0
 22 53  1  0
 26 54  1  0
 27 55  1  0
 28 56  1  0
 29 57  1  0
 30 58  1  0
M  END
>  <meeko>  (7) 
{"is_sidechain": false}

$$$$

     RDKit          3D

 51 55  0  0  0  0  0  0  0  0999 V2000
    6.4670    2.2950  -56.5110 O   0  0  0  0  0  0  0  0  0  0  0  0
    7.4880    1.6360  -56.3460 C   0  0  0  0  0  0  0  0  0  0  0  0
    8.6790    1.8930  -56.9900 N   0  0  0  0  0  0  0  0  0  0  0  0
    8.9130    3.0150  -57.9030 C   0  0  2  0  0  0  0  0  0  0  0  0
    7.8210    3.1090  -58.9990 C   0  0  0  0  0  0  0  0  0  0  0  0
    8.1250    4.2640  -59.9690 C   0  0  1  0  0  0  0  0  0  0  0  0
    8.1850    5.5840  -59.1820 C   0  0  0  0  0  0  0  0  0  0  0  0
    9.2930    5.5150  -58.1170 C   0  0  2  0  0  0  0  0  0  0  0  0
   10.6420    5.2580  -58.8050 C   0  0  0  0  0  0  0  0  0  0  0  0
   10.5890    3.9360  -59.5860 C   0  0  2  0  0  0  0  0  0  0  0  0
    9.4810    4.0150  -60.6480 C   0  0  0  0  0  0  0  0  0  0  0  0
   10.2760    2.7880  -58.6140 C   0  0  0  0  0  0  0  0  0  0  0  0
    8.9890    4.3630  -57.1440 C   0  0  0  0  0  0  0  0  0  0  0  0
    7.5270    0.5120  -55.4070 C   0  0  0  0  0  0  0  0  0  0  0  0
    6.4000   -0.2340  -54.9460 C   0  0  0  0  0  0  0  0  0  0  0  0
    6.8450   -1.2030  -54.0770 C   0  0  0  0  0  0  0  0  0  0  0  0
    8.2060   -1.0860  -53.9840 N   0  0  0  0  0  0  0  0  0  0  0  0
    9.0730   -1.9530  -53.1910 C   0  0  0  0  0  0  0  0  0  0  0  0
    8.2930   -2.7860  -52.2050 C   0  0  0  0  0  0  0  0  0  0  0  0
    7.7290   -4.0090  -52.5970 C   0  0  0  0  0  0  0  0  0  0  0  0
    7.0020   -4.7790  -51.6870 C   0  0  0  0  0  0  0  0  0  0  0  0
    6.8290   -4.3350  -50.3780 C   0  0  0  0  0  0  0  0  0  0  0  0
    7.3830   -3.1210  -49.9750 C   0  0  0  0  0  0  0  0  0  0  0  0
    8.1090   -2.3500  -50.8840 C   0  0  0  0  0  0  0  0  0  0  0  0
    8.6350   -0.0650  -54.7990 C   0  0  0  0  0  0  0  0  0  0  0  0
    9.4910    1.4060  -56.6390 H   0  0  0  0  0  0  0  0  0  0  0  0
    7.7904    2.1638  -59.5608 H   0  0  0  0  0  0  0  0  0  0  0  0
    6.8502    3.2970  -58.5171 H   0  0  0  0  0  0  0  0  0  0  0  0
    7.3356    4.3234  -60.7328 H   0  0  0  0  0  0  0  0  0  0  0  0
    8.3976    6.4114  -59.8750 H   0  0  0  0  0  0  0  0  0  0  0  0
    7.2180    5.7510  -58.6850 H   0  0  0  0  0  0  0  0  0  0  0  0
    9.3361    6.4647  -57.5637 H   0  0  0  0  0  0  0  0  0  0  0  0
   10.8601    6.0829  -59.4992 H   0  0  0  0  0  0  0  0  0  0  0  0
   11.4312    5.1953  -58.0413 H   0  0  0  0  0  0  0  0  0  0  0  0
   11.5576    3.7568  -60.0756 H   0  0  0  0  0  0  0  0  0  0  0  0
    9.6987    4.8402  -61.3420 H   0  0  0  0  0  0  0  0  0  0  0  0
    9.4407    3.0654  -61.2017 H   0  0  0  0  0  0  0  0  0  0  0  0
   10.2358    1.8427  -59.1751 H   0  0  0  0  0  0  0  0  0  0  0  0
   11.0670    2.7502  -57.8506 H   0  0  0  0  0  0  0  0  0  0  0  0
    9.7864    4.3080  -56.3882 H   0  0  0  0  0  0  0  0  0  0  0  0
    8.0194    4.5533  -56.6606 H   0  0  0  0  0  0  0  0  0  0  0  0
    5.3530   -0.0627  -55.2367 H   0  0  0  0  0  0  0  0  0  0  0  0
    6.2197   -1.9396  -53.5512 H   0  0  0  0  0  0  0  0  0  0  0  0
    9.6190   -2.6250  -53.8694 H   0  0  0  0  0  0  0  0  0  0  0  0
    9.7636   -1.3130  -52.6223 H   0  0  0  0  0  0  0  0  0  0  0  0
    7.8605   -4.3643  -53.6297 H   0  0  0  0  0  0  0  0  0  0  0  0
    6.5653   -5.7375  -52.0041 H   0  0  0  0  0  0  0  0  0  0  0  0
    6.2553   -4.9423  -49.6625 H   0  0  0  0  0  0  0  0  0  0  0  0
    7.2480   -2.7708  -48.9410 H   0  0  0  0  0  0  0  0  0  0  0  0
    8.5412   -1.3912  -50.5617 H   0  0  0  0  0  0  0  0  0  0  0  0
    9.6807    0.2434  -54.9452 H   0  0  0  0  0  0  0  0  0  0  0  0
  1  2  2  0
  2  3  1  0
  4  3  1  1
  4  5  1  0
  5  6  1  0
  6  7  1  0
  7  8  1  0
  8  9  1  0
  9 10  1  0
 10 11  1  0
 10 12  1  0
  8 13  1  0
  2 14  1  0
 14 15  1  0
 15 16  2  0
 16 17  1  0
 17 18  1  0
 18 19  1  0
 19 20  2  0
 20 21  1  0
 21 22  2  0
 22 23  1  0
 23 24  2  0
 17 25  1  0
 12  4  1  0
 25 14  2  0
 13  4  1  0
 24 19  1  0
 11  6  1  0
  3 26  1  0
  5 27  1  0
  5 28  1  0
  6 29  1  6
  7 30  1  0
  7 31  1  0
  8 32  1  1
  9 33  1  0
  9 34  1  0
 10 35  1  6
 11 36  1  0
 11 37  1  0
 12 38  1  0
 12 39  1  0
 13 40  1  0
 13 41  1  0
 15 42  1  0
 16 43  1  0
 18 44  1  0
 18 45  1  0
 20 46  1  0
 21 47  1  0
 22 48  1  0
 23 49  1  0
 24 50  1  0
 25 51  1  0
M  END
>  <meeko>  (8) 
{"is_sidechain": false}

$$$$

     RDKit          3D

 48 52  0  0  0  0  0  0  0  0999 V2000
    9.7890    1.4330  -55.7590 O   0  0  0  0  0  0  0  0  0  0  0  0
    8.5830    1.2920  -55.9150 C   0  0  0  0  0  0  0  0  0  0  0  0
    7.8490    1.9790  -56.8610 N   0  0  0  0  0  0  0  0  0  0  0  0
    8.3920    2.9950  -57.7670 C   0  0  2  0  0  0  0  0  0  0  0  0
    8.7200    4.3110  -57.0180 C   0  0  0  0  0  0  0  0  0  0  0  0
    9.2340    5.3790  -58.0010 C   0  0  1  0  0  0  0  0  0  0  0  0
   10.4980    4.8530  -58.7030 C   0  0  0  0  0  0  0  0  0  0  0  0
   10.1750    3.5660  -59.4830 C   0  0  2  0  0  0  0  0  0  0  0  0
    9.0880    3.8640  -60.5260 C   0  0  0  0  0  0  0  0  0  0  0  0
    7.8190    4.3790  -59.8280 C   0  0  2  0  0  0  0  0  0  0  0  0
    8.1510    5.6640  -59.0530 C   0  0  0  0  0  0  0  0  0  0  0  0
    7.3180    3.3120  -58.8430 C   0  0  0  0  0  0  0  0  0  0  0  0
    9.6620    2.4970  -58.5020 C   0  0  0  0  0  0  0  0  0  0  0  0
    7.8080    0.3760  -55.0750 C   0  0  0  0  0  0  0  0  0  0  0  0
    6.3970    0.2290  -55.0930 C   0  0  0  0  0  0  0  0  0  0  0  0
    6.0530   -0.7230  -54.1600 C   0  0  0  0  0  0  0  0  0  0  0  0
    7.1950   -1.1840  -53.5350 N   0  0  0  0  0  0  0  0  0  0  0  0
    7.2620   -2.1750  -52.5030 C   0  0  0  0  0  0  0  0  0  0  0  0
    7.7920   -1.8630  -51.2400 C   0  0  0  0  0  0  0  0  0  0  0  0
    7.8560   -2.8340  -50.2360 C   0  0  0  0  0  0  0  0  0  0  0  0
    7.3930   -4.1240  -50.4770 C   0  0  0  0  0  0  0  0  0  0  0  0
    6.8660   -4.4460  -51.7230 C   0  0  0  0  0  0  0  0  0  0  0  0
    6.7990   -3.4790  -52.7320 C   0  0  0  0  0  0  0  0  0  0  0  0
    8.2620   -0.5010  -54.1010 C   0  0  0  0  0  0  0  0  0  0  0  0
    6.8450    1.9030  -56.8020 H   0  0  0  0  0  0  0  0  0  0  0  0
    7.8102    4.6823  -56.5237 H   0  0  0  0  0  0  0  0  0  0  0  0
    9.5025    4.1093  -56.2717 H   0  0  0  0  0  0  0  0  0  0  0  0
    9.4702    6.3038  -57.4542 H   0  0  0  0  0  0  0  0  0  0  0  0
   10.8709    5.6171  -59.4009 H   0  0  0  0  0  0  0  0  0  0  0  0
   11.2640    4.6313  -57.9453 H   0  0  0  0  0  0  0  0  0  0  0  0
   11.0805    3.2005  -59.9895 H   0  0  0  0  0  0  0  0  0  0  0  0
    9.4547    4.6288  -61.2264 H   0  0  0  0  0  0  0  0  0  0  0  0
    8.8499    2.9406  -61.0743 H   0  0  0  0  0  0  0  0  0  0  0  0
    7.0426    4.5890  -60.5783 H   0  0  0  0  0  0  0  0  0  0  0  0
    8.5169    6.4281  -59.7546 H   0  0  0  0  0  0  0  0  0  0  0  0
    7.2432    6.0253  -58.5476 H   0  0  0  0  0  0  0  0  0  0  0  0
    6.4091    3.6811  -58.3454 H   0  0  0  0  0  0  0  0  0  0  0  0
    7.1045    2.3909  -59.4051 H   0  0  0  0  0  0  0  0  0  0  0  0
    9.4205    1.5804  -59.0602 H   0  0  0  0  0  0  0  0  0  0  0  0
   10.4458    2.2941  -57.7573 H   0  0  0  0  0  0  0  0  0  0  0  0
    5.6989    0.7802  -55.7402 H   0  0  0  0  0  0  0  0  0  0  0  0
    5.0291   -1.0632  -53.9459 H   0  0  0  0  0  0  0  0  0  0  0  0
    8.1598   -0.8460  -51.0392 H   0  0  0  0  0  0  0  0  0  0  0  0
    8.2741   -2.5771  -49.2515 H   0  0  0  0  0  0  0  0  0  0  0  0
    7.4437   -4.8859  -49.6852 H   0  0  0  0  0  0  0  0  0  0  0  0
    6.5003   -5.4653  -51.9161 H   0  0  0  0  0  0  0  0  0  0  0  0
    6.3794   -3.7438  -53.7137 H   0  0  0  0  0  0  0  0  0  0  0  0
    9.3164   -0.6357  -53.8180 H   0  0  0  0  0  0  0  0  0  0  0  0
  1  2  2  0
  2  3  1  0
  4  3  1  1
  4  5  1  0
  5  6  1  0
  6  7  1  0
  7  8  1  0
  8  9  1  0
  9 10  1  0
 10 11  1  0
 10 12  1  0
  8 13  1  0
  2 14  1  0
 14 15  1  0
 15 16  2  0
 16 17  1  0
 17 18  1  0
 18 19  2  0
 19 20  1  0
 20 21  2  0
 21 22  1  0
 22 23  2  0
 17 24  1  0
 12  4  1  0
 24 14  2  0
 13  4  1  0
 23 18  1  0
 11  6  1  0
  3 25  1  0
  5 26  1  0
  5 27  1  0
  6 28  1  1
  7 29  1  0
  7 30  1  0
  8 31  1  6
  9 32  1  0
  9 33  1  0
 10 34  1  6
 11 35  1  0
 11 36  1  0
 12 37  1  0
 12 38  1  0
 13 39  1  0
 13 40  1  0
 15 41  1  0
 16 42  1  0
 19 43  1  0
 20 44  1  0
 21 45  1  0
 22 46  1  0
 23 47  1  0
 24 48  1  0
M  END
>  <meeko>  (9) 
{"is_sidechain": false}

$$$$

     RDKit          3D

 61 66  0  0  0  0  0  0  0  0999 V2000
   10.3100    1.6780  -56.0690 C   0  0  0  0  0  0  0  0  0  0  0  0
    8.8730    1.4760  -56.4330 C   0  0  0  0  0  0  0  0  0  0  0  0
    7.9150    0.7750  -55.6320 C   0  0  0  0  0  0  0  0  0  0  0  0
    8.1550    0.0800  -54.3610 C   0  0  0  0  0  0  0  0  0  0  0  0
    8.8110    0.5880  -53.4590 O   0  0  0  0  0  0  0  0  0  0  0  0
    7.5670   -1.1650  -54.2670 N   0  0  0  0  0  0  0  0  0  0  0  0
    7.5940   -2.0160  -53.0740 C   0  0  2  0  0  0  0  0  0  0  0  0
    7.3720   -1.1930  -51.7820 C   0  0  0  0  0  0  0  0  0  0  0  0
    7.3470   -2.1170  -50.5500 C   0  0  1  0  0  0  0  0  0  0  0  0
    6.2000   -3.1290  -50.6970 C   0  0  0  0  0  0  0  0  0  0  0  0
    6.4050   -3.9760  -51.9620 C   0  0  2  0  0  0  0  0  0  0  0  0
    7.7410   -4.7280  -51.8610 C   0  0  0  0  0  0  0  0  0  0  0  0
    8.8980   -3.7250  -51.7220 C   0  0  2  0  0  0  0  0  0  0  0  0
    8.6830   -2.8740  -50.4580 C   0  0  0  0  0  0  0  0  0  0  0  0
    8.9230   -2.8050  -52.9540 C   0  0  0  0  0  0  0  0  0  0  0  0
    6.4410   -3.0500  -53.1880 C   0  0  0  0  0  0  0  0  0  0  0  0
    6.7160    0.8680  -56.3140 C   0  0  0  0  0  0  0  0  0  0  0  0
    6.8870    1.5490  -57.5090 N   0  0  0  0  0  0  0  0  0  0  0  0
    5.8350    1.7400  -58.4660 C   0  0  0  0  0  0  0  0  0  0  0  0
    4.7030    2.4970  -58.1170 C   0  0  0  0  0  0  0  0  0  0  0  0
    3.6660    2.6880  -59.0340 C   0  0  0  0  0  0  0  0  0  0  0  0
    3.7420    2.1200  -60.3030 C   0  0  0  0  0  0  0  0  0  0  0  0
    4.8520    1.3570  -60.6540 C   0  0  0  0  0  0  0  0  0  0  0  0
    5.8930    1.1650  -59.7400 C   0  0  0  0  0  0  0  0  0  0  0  0
    8.2240    1.9530  -57.5740 C   0  0  0  0  0  0  0  0  0  0  0  0
    8.8020    2.8210  -58.6060 C   0  0  0  0  0  0  0  0  0  0  0  0
    9.4860    2.2630  -59.6950 C   0  0  0  0  0  0  0  0  0  0  0  0
   10.0480    3.0860  -60.6720 C   0  0  0  0  0  0  0  0  0  0  0  0
    9.9370    4.4720  -60.5650 C   0  0  0  0  0  0  0  0  0  0  0  0
    9.2690    5.0360  -59.4790 C   0  0  0  0  0  0  0  0  0  0  0  0
    8.7070    4.2150  -58.5000 C   0  0  0  0  0  0  0  0  0  0  0  0
   10.4123    1.6924  -54.9739 H   0  0  0  0  0  0  0  0  0  0  0  0
   10.9121    0.8557  -56.4828 H   0  0  0  0  0  0  0  0  0  0  0  0
   10.6621    2.6345  -56.4828 H   0  0  0  0  0  0  0  0  0  0  0  0
    6.8980   -1.3990  -54.9840 H   0  0  0  0  0  0  0  0  0  0  0  0
    8.1894   -0.4651  -51.6718 H   0  0  0  0  0  0  0  0  0  0  0  0
    6.4062   -0.6715  -51.8546 H   0  0  0  0  0  0  0  0  0  0  0  0
    7.1964   -1.5174  -49.6401 H   0  0  0  0  0  0  0  0  0  0  0  0
    6.1808   -3.7881  -49.8165 H   0  0  0  0  0  0  0  0  0  0  0  0
    5.2471   -2.5853  -50.7772 H   0  0  0  0  0  0  0  0  0  0  0  0
    5.5805   -4.6973  -52.0613 H   0  0  0  0  0  0  0  0  0  0  0  0
    7.7225   -5.3875  -50.9808 H   0  0  0  0  0  0  0  0  0  0  0  0
    7.8888   -5.3268  -52.7718 H   0  0  0  0  0  0  0  0  0  0  0  0
    9.8515   -4.2681  -51.6456 H   0  0  0  0  0  0  0  0  0  0  0  0
    8.6689   -3.5306  -49.5756 H   0  0  0  0  0  0  0  0  0  0  0  0
    9.5033   -2.1464  -50.3706 H   0  0  0  0  0  0  0  0  0  0  0  0
    9.7574   -2.0948  -52.8577 H   0  0  0  0  0  0  0  0  0  0  0  0
    9.0507   -3.4229  -53.8550 H   0  0  0  0  0  0  0  0  0  0  0  0
    6.5913   -3.6574  -54.0927 H   0  0  0  0  0  0  0  0  0  0  0  0
    5.4871   -2.5050  -53.2423 H   0  0  0  0  0  0  0  0  0  0  0  0
    5.7593    0.4584  -55.9577 H   0  0  0  0  0  0  0  0  0  0  0  0
    4.6330    2.9427  -57.1138 H   0  0  0  0  0  0  0  0  0  0  0  0
    2.7881    3.2882  -58.7528 H   0  0  0  0  0  0  0  0  0  0  0  0
    2.9273    2.2738  -61.0259 H   0  0  0  0  0  0  0  0  0  0  0  0
    4.9107    0.9032  -61.6543 H   0  0  0  0  0  0  0  0  0  0  0  0
    6.7643    0.5571  -60.0251 H   0  0  0  0  0  0  0  0  0  0  0  0
    9.5803    1.1703  -59.7799 H   0  0  0  0  0  0  0  0  0  0  0  0
   10.5787    2.6413  -61.5267 H   0  0  0  0  0  0  0  0  0  0  0  0
   10.3765    5.1202  -61.3374 H   0  0  0  0  0  0  0  0  0  0  0  0
    9.1847    6.1294  -59.3936 H   0  0  0  0  0  0  0  0  0  0  0  0
    8.1870    4.6645  -57.6412 H   0  0  0  0  0  0  0  0  0  0  0  0
  1  2  1  0
  2  3  1  0
  3  4  1  0
  4  5  2  0
  4  6  1  0
  7  6  1  6
  7  8  1  0
  8  9  1  0
  9 10  1  0
 10 11  1  0
 11 12  1  0
 12 13  1  0
 13 14  1  0
 13 15  1  0
 11 16  1  0
  3 17  2  0
 17 18  1  0
 18 19  1  0
 19 20  2  0
 20 21  1  0
 21 22  2  0
 22 23  1  0
 23 24  2  0
 18 25  1  0
 25 26  1  0
 26 27  2  0
 27 28  1  0
 28 29  2  0
 29 30  1  0
 30 31  2  0
 25  2  2  0
 31 26  1  0
 15  7  1  0
 24 19  1  0
 16  7  1  0
 14  9  1  0
  1 32  1  0
  1 33  1  0
  1 34  1  0
  6 35  1  0
  8 36  1  0
  8 37  1  0
  9 38  1  1
 10 39  1  0
 10 40  1  0
 11 41  1  6
 12 42  1  0
 12 43  1  0
 13 44  1  1
 14 45  1  0
 14 46  1  0
 15 47  1  0
 15 48  1  0
 16 49  1  0
 16 50  1  0
 17 51  1  0
 20 52  1  0
 21 53  1  0
 22 54  1  0
 23 55  1  0
 24 56  1  0
 27 57  1  0
 28 58  1  0
 29 59  1  0
 30 60  1  0
 31 61  1  0
M  END
>  <meeko>  (10) 
{"is_sidechain": false}

$$$$

     RDKit          3D

 51 53  0  0  0  0  0  0  0  0999 V2000
    9.7100    3.4170  -61.3470 C   0  0  0  0  0  0  0  0  0  0  0  0
    9.8960    2.3130  -60.3170 C   0  0  0  0  0  0  0  0  0  0  0  0
    9.0440    2.4790  -59.0460 C   0  0  0  0  0  0  0  0  0  0  0  0
    9.8190    2.7340  -57.7280 C   0  0  2  0  0  0  0  0  0  0  0  0
    9.2470    3.8740  -57.0840 O   0  0  0  0  0  0  0  0  0  0  0  0
   11.2980    3.0460  -58.0100 C   0  0  0  0  0  0  0  0  0  0  0  0
   11.9350    3.9780  -57.5210 O   0  0  0  0  0  0  0  0  0  0  0  0
    9.7750    1.5330  -56.7840 C   0  0  0  0  0  0  0  0  0  0  0  0
   10.8190    0.6700  -56.4980 C   0  0  0  0  0  0  0  0  0  0  0  0
   10.4000   -0.2630  -55.5840 N   0  0  0  0  0  0  0  0  0  0  0  0
   11.2480   -1.3430  -55.0770 C   0  0  0  0  0  0  0  0  0  0  0  0
   11.2180   -2.5690  -55.9560 C   0  0  0  0  0  0  0  0  0  0  0  0
   11.9220   -2.5830  -57.1700 C   0  0  0  0  0  0  0  0  0  0  0  0
   11.9140   -3.7170  -57.9850 C   0  0  0  0  0  0  0  0  0  0  0  0
   11.2090   -4.8520  -57.5940 C   0  0  0  0  0  0  0  0  0  0  0  0
   10.5120   -4.8560  -56.3880 C   0  0  0  0  0  0  0  0  0  0  0  0
   10.5190   -3.7240  -55.5710 C   0  0  0  0  0  0  0  0  0  0  0  0
    9.0720   -0.0510  -55.2860 C   0  0  0  0  0  0  0  0  0  0  0  0
    8.3060   -0.8900  -54.3670 C   0  0  0  0  0  0  0  0  0  0  0  0
    7.4220   -1.8530  -54.8630 C   0  0  0  0  0  0  0  0  0  0  0  0
    6.6920   -2.6550  -53.9840 C   0  0  0  0  0  0  0  0  0  0  0  0
    6.8400   -2.4940  -52.6060 C   0  0  0  0  0  0  0  0  0  0  0  0
    7.7140   -1.5300  -52.1070 C   0  0  0  0  0  0  0  0  0  0  0  0
    8.4430   -0.7270  -52.9850 C   0  0  0  0  0  0  0  0  0  0  0  0
    8.6590    1.0760  -55.9910 C   0  0  0  0  0  0  0  0  0  0  0  0
    7.2960    1.6870  -55.9310 C   0  0  0  0  0  0  0  0  0  0  0  0
    9.5485    4.3755  -60.8320 H   0  0  0  0  0  0  0  0  0  0  0  0
   10.6092    3.4861  -61.9769 H   0  0  0  0  0  0  0  0  0  0  0  0
    8.8378    3.1877  -61.9769 H   0  0  0  0  0  0  0  0  0  0  0  0
    9.6291    1.3551  -60.7874 H   0  0  0  0  0  0  0  0  0  0  0  0
   10.9478    2.3556  -59.9976 H   0  0  0  0  0  0  0  0  0  0  0  0
    8.3658    3.3301  -59.2060 H   0  0  0  0  0  0  0  0  0  0  0  0
    8.5360    1.5135  -58.9054 H   0  0  0  0  0  0  0  0  0  0  0  0
    9.4930    4.6390  -57.6340 H   0  0  0  0  0  0  0  0  0  0  0  0
   11.8303    2.3812  -58.7062 H   0  0  0  0  0  0  0  0  0  0  0  0
   11.8269    0.7240  -56.9353 H   0  0  0  0  0  0  0  0  0  0  0  0
   12.2840   -0.9783  -55.0172 H   0  0  0  0  0  0  0  0  0  0  0  0
   10.8609   -1.6332  -54.0891 H   0  0  0  0  0  0  0  0  0  0  0  0
   12.4858   -1.6917  -57.4827 H   0  0  0  0  0  0  0  0  0  0  0  0
   12.4653   -3.7134  -58.9369 H   0  0  0  0  0  0  0  0  0  0  0  0
   11.2024   -5.7447  -58.2367 H   0  0  0  0  0  0  0  0  0  0  0  0
    9.9550   -5.7528  -56.0788 H   0  0  0  0  0  0  0  0  0  0  0  0
    9.9718   -3.7372  -54.6168 H   0  0  0  0  0  0  0  0  0  0  0  0
    7.3014   -1.9791  -55.9491 H   0  0  0  0  0  0  0  0  0  0  0  0
    6.0000   -3.4140  -54.3778 H   0  0  0  0  0  0  0  0  0  0  0  0
    6.2668   -3.1280  -51.9135 H   0  0  0  0  0  0  0  0  0  0  0  0
    7.8292   -1.4021  -51.0206 H   0  0  0  0  0  0  0  0  0  0  0  0
    9.1279    0.0370  -52.5885 H   0  0  0  0  0  0  0  0  0  0  0  0
    6.9997    1.8198  -54.8800 H   0  0  0  0  0  0  0  0  0  0  0  0
    7.3101    2.6649  -56.4344 H   0  0  0  0  0  0  0  0  0  0  0  0
    6.5753    1.0258  -56.4344 H   0  0  0  0  0  0  0  0  0  0  0  0
  1  2  1  0
  2  3  1  0
  3  4  1  0
  4  5  1  1
  4  6  1  0
  6  7  2  0
  4  8  1  0
  8  9  2  0
  9 10  1  0
 10 11  1  0
 11 12  1  0
 12 13  2  0
 13 14  1  0
 14 15  2  0
 15 16  1  0
 16 17  2  0
 10 18  1  0
 18 19  1  0
 19 20  2  0
 20 21  1  0
 21 22  2  0
 22 23  1  0
 23 24  2  0
 18 25  2  0
 25 26  1  0
 25  8  1  0
 17 12  1  0
 24 19  1  0
  1 27  1  0
  1 28  1  0
  1 29  1  0
  2 30  1  0
  2 31  1  0
  3 32  1  0
  3 33  1  0
  5 34  1  0
  6 35  1  0
  9 36  1  0
 11 37  1  0
 11 38  1  0
 13 39  1  0
 14 40  1  0
 15 41  1  0
 16 42  1  0
 17 43  1  0
 20 44  1  0
 21 45  1  0
 22 46  1  0
 23 47  1  0
 24 48  1  0
 26 49  1  0
 26 50  1  0
 26 51  1  0
M  END
>  <meeko>  (11) 
{"is_sidechain": false}

$$$$

     RDKit          3D

 51 53  0  0  0  0  0  0  0  0999 V2000
    9.9690    3.9750  -60.9840 C   0  0  0  0  0  0  0  0  0  0  0  0
   10.0600    2.6040  -60.3290 C   0  0  0  0  0  0  0  0  0  0  0  0
    9.2700    2.5630  -59.0130 C   0  0  0  0  0  0  0  0  0  0  0  0
   10.1380    2.7350  -57.7450 C   0  0  1  0  0  0  0  0  0  0  0  0
   11.5140    2.8620  -58.1470 O   0  0  0  0  0  0  0  0  0  0  0  0
    9.8290    4.0360  -56.9950 C   0  0  0  0  0  0  0  0  0  0  0  0
    9.8680    5.1660  -57.4800 O   0  0  0  0  0  0  0  0  0  0  0  0
    9.9780    1.5540  -56.7960 C   0  0  0  0  0  0  0  0  0  0  0  0
   10.9580    0.6250  -56.4870 C   0  0  0  0  0  0  0  0  0  0  0  0
   10.4600   -0.2740  -55.5770 N   0  0  0  0  0  0  0  0  0  0  0  0
   11.2280   -1.3930  -55.0330 C   0  0  0  0  0  0  0  0  0  0  0  0
   11.2130   -2.6020  -55.9350 C   0  0  0  0  0  0  0  0  0  0  0  0
   11.8930   -2.5980  -57.1630 C   0  0  0  0  0  0  0  0  0  0  0  0
   11.8640   -3.7190  -57.9940 C   0  0  0  0  0  0  0  0  0  0  0  0
   11.1540   -4.8540  -57.6110 C   0  0  0  0  0  0  0  0  0  0  0  0
   10.4710   -4.8710  -56.3970 C   0  0  0  0  0  0  0  0  0  0  0  0
   10.4970   -3.7500  -55.5650 C   0  0  0  0  0  0  0  0  0  0  0  0
    9.1400    0.0240  -55.3140 C   0  0  0  0  0  0  0  0  0  0  0  0
    8.3080   -0.7450  -54.3920 C   0  0  0  0  0  0  0  0  0  0  0  0
    7.4980   -1.7800  -54.8720 C   0  0  0  0  0  0  0  0  0  0  0  0
    6.7010   -2.5140  -53.9920 C   0  0  0  0  0  0  0  0  0  0  0  0
    6.7160   -2.2230  -52.6290 C   0  0  0  0  0  0  0  0  0  0  0  0
    7.5290   -1.1990  -52.1420 C   0  0  0  0  0  0  0  0  0  0  0  0
    8.3260   -0.4630  -53.0220 C   0  0  0  0  0  0  0  0  0  0  0  0
    8.8110    1.1630  -56.0460 C   0  0  0  0  0  0  0  0  0  0  0  0
    7.4830    1.8490  -56.0200 C   0  0  0  0  0  0  0  0  0  0  0  0
    9.9175    4.7505  -60.2056 H   0  0  0  0  0  0  0  0  0  0  0  0
   10.8580    4.1421  -61.6099 H   0  0  0  0  0  0  0  0  0  0  0  0
    9.0657    4.0231  -61.6099 H   0  0  0  0  0  0  0  0  0  0  0  0
    9.6502    1.8499  -61.0170 H   0  0  0  0  0  0  0  0  0  0  0  0
   11.1167    2.3937  -60.1073 H   0  0  0  0  0  0  0  0  0  0  0  0
    8.5249    3.3720  -59.0330 H   0  0  0  0  0  0  0  0  0  0  0  0
    8.8141    1.5639  -58.9499 H   0  0  0  0  0  0  0  0  0  0  0  0
   11.4990    3.2690  -59.0290 H   0  0  0  0  0  0  0  0  0  0  0  0
    9.5490    3.9521  -55.9345 H   0  0  0  0  0  0  0  0  0  0  0  0
   11.9753    0.6101  -56.9051 H   0  0  0  0  0  0  0  0  0  0  0  0
   12.2704   -1.0701  -54.8944 H   0  0  0  0  0  0  0  0  0  0  0  0
   10.7622   -1.6836  -54.0798 H   0  0  0  0  0  0  0  0  0  0  0  0
   12.4535   -1.7037  -57.4730 H   0  0  0  0  0  0  0  0  0  0  0  0
   12.4028   -3.7059  -58.9529 H   0  0  0  0  0  0  0  0  0  0  0  0
   11.1325   -5.7369  -58.2668 H   0  0  0  0  0  0  0  0  0  0  0  0
    9.9110   -5.7679  -56.0937 H   0  0  0  0  0  0  0  0  0  0  0  0
    9.9508   -3.7673  -54.6103 H   0  0  0  0  0  0  0  0  0  0  0  0
    7.4893   -2.0160  -55.9463 H   0  0  0  0  0  0  0  0  0  0  0  0
    6.0607   -3.3226  -54.3744 H   0  0  0  0  0  0  0  0  0  0  0  0
    6.0864   -2.8011  -51.9367 H   0  0  0  0  0  0  0  0  0  0  0  0
    7.5423   -0.9714  -51.0659 H   0  0  0  0  0  0  0  0  0  0  0  0
    8.9700    0.3411  -52.6363 H   0  0  0  0  0  0  0  0  0  0  0  0
    7.1733    2.0090  -54.9767 H   0  0  0  0  0  0  0  0  0  0  0  0
    7.5615    2.8194  -56.5321 H   0  0  0  0  0  0  0  0  0  0  0  0
    6.7371    1.2234  -56.5321 H   0  0  0  0  0  0  0  0  0  0  0  0
  1  2  1  0
  2  3  1  0
  3  4  1  0
  4  5  1  6
  4  6  1  0
  6  7  2  0
  4  8  1  0
  8  9  2  0
  9 10  1  0
 10 11  1  0
 11 12  1  0
 12 13  2  0
 13 14  1  0
 14 15  2  0
 15 16  1  0
 16 17  2  0
 10 18  1  0
 18 19  1  0
 19 20  2  0
 20 21  1  0
 21 22  2  0
 22 23  1  0
 23 24  2  0
 18 25  2  0
 25 26  1  0
 25  8  1  0
 17 12  1  0
 24 19  1  0
  1 27  1  0
  1 28  1  0
  1 29  1  0
  2 30  1  0
  2 31  1  0
  3 32  1  0
  3 33  1  0
  5 34  1  0
  6 35  1  0
  9 36  1  0
 11 37  1  0
 11 38  1  0
 13 39  1  0
 14 40  1  0
 15 41  1  0
 16 42  1  0
 17 43  1  0
 20 44  1  0
 21 45  1  0
 22 46  1  0
 23 47  1  0
 24 48  1  0
 26 49  1  0
 26 50  1  0
 26 51  1  0
M  END
>  <meeko>  (12) 
{"is_sidechain": false}

$$$$

     RDKit          3D

 39 42  0  0  0  0  0  0  0  0999 V2000
    8.5640   -2.8040  -52.5320 C   0  0  0  0  0  0  0  0  0  0  0  0
    9.4620   -2.4750  -53.7460 C   0  0  0  0  0  0  0  0  0  0  0  0
   10.3630   -3.1440  -54.4730 C   0  0  0  0  0  0  0  0  0  0  0  0
   11.0870   -4.4630  -54.7140 C   0  0  0  0  0  0  0  0  0  0  0  0
   11.8380   -4.4420  -55.8320 C   0  0  0  0  0  0  0  0  0  0  0  0
   11.6570   -3.2170  -56.7370 C   0  0  0  0  0  0  0  0  0  0  0  0
   11.0370   -2.1070  -56.4240 N   0  0  0  0  0  0  0  0  0  0  0  0
   10.6460   -2.0600  -55.1270 N   0  0  0  0  0  0  0  0  0  0  0  0
    9.4940   -1.5120  -54.6530 N   0  0  0  0  0  0  0  0  0  0  0  0
    9.4260   -0.0810  -54.3690 C   0  0  0  0  0  0  0  0  0  0  0  0
    8.4570    0.6970  -55.2400 C   0  0  0  0  0  0  0  0  0  0  0  0
    7.0790    0.4410  -55.1750 C   0  0  0  0  0  0  0  0  0  0  0  0
    6.1860    1.1550  -55.9750 C   0  0  0  0  0  0  0  0  0  0  0  0
    6.6590    2.1310  -56.8480 C   0  0  0  0  0  0  0  0  0  0  0  0
    8.0260    2.3930  -56.9260 C   0  0  0  0  0  0  0  0  0  0  0  0
    8.9220    1.6790  -56.1270 C   0  0  0  0  0  0  0  0  0  0  0  0
   12.2110   -3.3740  -58.1370 C   0  0  0  0  0  0  0  0  0  0  0  0
   11.8300   -4.7450  -58.6800 C   0  0  0  0  0  0  0  0  0  0  0  0
   12.3360   -5.9100  -57.8180 C   0  0  0  0  0  0  0  0  0  0  0  0
   12.6870   -5.5420  -56.3730 C   0  0  0  0  0  0  0  0  0  0  0  0
    9.1159   -2.6018  -51.6022 H   0  0  0  0  0  0  0  0  0  0  0  0
    7.6595   -2.1789  -52.5649 H   0  0  0  0  0  0  0  0  0  0  0  0
    8.2774   -3.8655  -52.5649 H   0  0  0  0  0  0  0  0  0  0  0  0
   11.0054   -5.3353  -54.0489 H   0  0  0  0  0  0  0  0  0  0  0  0
    9.1198    0.0452  -53.3200 H   0  0  0  0  0  0  0  0  0  0  0  0
   10.4263    0.3241  -54.5819 H   0  0  0  0  0  0  0  0  0  0  0  0
    6.6993   -0.3292  -54.4875 H   0  0  0  0  0  0  0  0  0  0  0  0
    5.1075    0.9466  -55.9158 H   0  0  0  0  0  0  0  0  0  0  0  0
    5.9541    2.6954  -57.4762 H   0  0  0  0  0  0  0  0  0  0  0  0
    8.3994    3.1628  -57.6174 H   0  0  0  0  0  0  0  0  0  0  0  0
    9.9998    1.8883  -56.1939 H   0  0  0  0  0  0  0  0  0  0  0  0
   11.7921   -2.5921  -58.7875 H   0  0  0  0  0  0  0  0  0  0  0  0
   13.3067   -3.2799  -58.1117 H   0  0  0  0  0  0  0  0  0  0  0  0
   10.7330   -4.8044  -58.7355 H   0  0  0  0  0  0  0  0  0  0  0  0
   12.3050   -4.8442  -59.6672 H   0  0  0  0  0  0  0  0  0  0  0  0
   11.5521   -6.6813  -57.7928 H   0  0  0  0  0  0  0  0  0  0  0  0
   13.2717   -6.2529  -58.2836 H   0  0  0  0  0  0  0  0  0  0  0  0
   12.5523   -6.4325  -55.7414 H   0  0  0  0  0  0  0  0  0  0  0  0
   13.7288   -5.1890  -56.3659 H   0  0  0  0  0  0  0  0  0  0  0  0
  1  2  1  0
  2  3  2  0
  3  4  1  0
  4  5  2  0
  5  6  1  0
  6  7  2  0
  7  8  1  0
  8  9  1  0
  9 10  1  0
 10 11  1  0
 11 12  2  0
 12 13  1  0
 13 14  2  0
 14 15  1  0
 15 16  2  0
  6 17  1  0
 17 18  1  0
 18 19  1  0
 19 20  1  0
  9  2  1  0
 16 11  1  0
  8  3  1  0
 20  5  1  0
  1 21  1  0
  1 22  1  0
  1 23  1  0
  4 24  1  0
 10 25  1  0
 10 26  1  0
 12 27  1  0
 13 28  1  0
 14 29  1  0
 15 30  1  0
 16 31  1  0
 17 32  1  0
 17 33  1  0
 18 34  1  0
 18 35  1  0
 19 36  1  0
 19 37  1  0
 20 38  1  0
 20 39  1  0
M  END
>  <meeko>  (13) 
{"is_sidechain": false}

$$$$

     RDKit          3D

 59 63  0  0  0  0  0  0  0  0999 V2000
    5.1380    0.7130  -55.2670 O   0  0  0  0  0  0  0  0  0  0  0  0
    6.2850    0.8850  -55.6650 C   0  0  0  0  0  0  0  0  0  0  0  0
    7.3890    0.5910  -54.8980 N   0  0  0  0  0  0  0  0  0  0  0  0
    7.2800    0.1500  -53.5110 C   0  0  2  0  0  0  0  0  0  0  0  0
    8.6420   -0.3020  -52.9740 C   0  0  0  0  0  0  0  0  0  0  0  0
    9.0820   -1.6210  -53.6110 C   0  0  0  0  0  0  0  0  0  0  0  0
    7.9850   -2.6970  -53.5640 C   0  0  1  0  0  0  0  0  0  0  0  0
    7.7260   -3.4120  -52.2440 C   0  0  0  0  0  0  0  0  0  0  0  0
    8.7420   -3.7660  -51.3430 C   0  0  0  0  0  0  0  0  0  0  0  0
    8.4440   -4.4420  -50.1540 C   0  0  0  0  0  0  0  0  0  0  0  0
    7.1280   -4.7870  -49.8500 C   0  0  0  0  0  0  0  0  0  0  0  0
    6.1180   -4.4560  -50.7430 C   0  0  0  0  0  0  0  0  0  0  0  0
    4.8170   -4.7770  -50.4950 O   0  0  0  0  0  0  0  0  0  0  0  0
    6.4070   -3.7830  -51.9260 C   0  0  0  0  0  0  0  0  0  0  0  0
    6.7630   -2.1620  -54.1110 O   0  0  0  0  0  0  0  0  0  0  0  0
    6.2800   -1.0070  -53.4120 C   0  0  0  0  0  0  0  0  0  0  0  0
    6.5710    1.4360  -56.9880 C   0  0  0  0  0  0  0  0  0  0  0  0
    5.6750    1.4680  -58.0870 C   0  0  0  0  0  0  0  0  0  0  0  0
    6.3030    2.0500  -59.1790 C   0  0  0  0  0  0  0  0  0  0  0  0
    5.7610    2.1210  -60.5390 C   0  0  0  0  0  0  0  0  0  0  0  0
    6.5140    2.6710  -61.5850 C   0  0  0  0  0  0  0  0  0  0  0  0
    5.9960    2.7200  -62.8810 C   0  0  0  0  0  0  0  0  0  0  0  0
    4.7250    2.2100  -63.1440 C   0  0  0  0  0  0  0  0  0  0  0  0
    3.9740    1.6460  -62.1130 C   0  0  0  0  0  0  0  0  0  0  0  0
    4.4910    1.5970  -60.8170 C   0  0  0  0  0  0  0  0  0  0  0  0
    7.5770    2.4460  -58.7640 N   0  0  0  0  0  0  0  0  0  0  0  0
    8.5700    3.1850  -59.4840 C   0  0  0  0  0  0  0  0  0  0  0  0
    9.3150    2.5600  -60.4970 C   0  0  0  0  0  0  0  0  0  0  0  0
   10.2940    3.2710  -61.1990 C   0  0  0  0  0  0  0  0  0  0  0  0
   10.5460    4.6050  -60.8910 C   0  0  0  0  0  0  0  0  0  0  0  0
    9.8220    5.2300  -59.8790 C   0  0  0  0  0  0  0  0  0  0  0  0
    8.8400    4.5250  -59.1760 C   0  0  0  0  0  0  0  0  0  0  0  0
    7.7390    2.0150  -57.4520 C   0  0  0  0  0  0  0  0  0  0  0  0
    8.3020    0.8890  -55.2120 H   0  0  0  0  0  0  0  0  0  0  0  0
    6.9276    0.9973  -52.9045 H   0  0  0  0  0  0  0  0  0  0  0  0
    9.3906    0.4718  -53.1995 H   0  0  0  0  0  0  0  0  0  0  0  0
    8.5534   -0.4540  -51.8882 H   0  0  0  0  0  0  0  0  0  0  0  0
    9.3462   -1.4334  -54.6622 H   0  0  0  0  0  0  0  0  0  0  0  0
    9.9415   -1.9972  -53.0367 H   0  0  0  0  0  0  0  0  0  0  0  0
    8.3958   -3.5099  -54.1808 H   0  0  0  0  0  0  0  0  0  0  0  0
    9.7863   -3.5089  -51.5741 H   0  0  0  0  0  0  0  0  0  0  0  0
    9.2529   -4.7025  -49.4555 H   0  0  0  0  0  0  0  0  0  0  0  0
    6.8928   -5.3150  -48.9141 H   0  0  0  0  0  0  0  0  0  0  0  0
    4.5580   -4.3900  -49.6430 H   0  0  0  0  0  0  0  0  0  0  0  0
    5.5920   -3.5375  -52.6228 H   0  0  0  0  0  0  0  0  0  0  0  0
    5.3221   -0.6938  -53.8527 H   0  0  0  0  0  0  0  0  0  0  0  0
    6.1481   -1.2677  -52.3515 H   0  0  0  0  0  0  0  0  0  0  0  0
    4.6421    1.0899  -58.0755 H   0  0  0  0  0  0  0  0  0  0  0  0
    7.5203    3.0670  -61.3838 H   0  0  0  0  0  0  0  0  0  0  0  0
    6.5907    3.1610  -63.6945 H   0  0  0  0  0  0  0  0  0  0  0  0
    4.3151    2.2525  -64.1639 H   0  0  0  0  0  0  0  0  0  0  0  0
    2.9733    1.2394  -62.3211 H   0  0  0  0  0  0  0  0  0  0  0  0
    3.8978    1.1442  -60.0088 H   0  0  0  0  0  0  0  0  0  0  0  0
    9.1274    1.5038  -60.7403 H   0  0  0  0  0  0  0  0  0  0  0  0
   10.8663    2.7747  -61.9966 H   0  0  0  0  0  0  0  0  0  0  0  0
   11.3146    5.1636  -61.4453 H   0  0  0  0  0  0  0  0  0  0  0  0
   10.0234    6.2827  -59.6315 H   0  0  0  0  0  0  0  0  0  0  0  0
    8.2756    5.0259  -58.3757 H   0  0  0  0  0  0  0  0  0  0  0  0
    8.6642    2.1195  -56.8662 H   0  0  0  0  0  0  0  0  0  0  0  0
  1  2  2  0
  2  3  1  0
  3  4  1  0
  4  5  1  0
  5  6  1  0
  6  7  1  0
  7  8  1  0
  8  9  2  0
  9 10  1  0
 10 11  2  0
 11 12  1  0
 12 13  1  0
 12 14  2  0
  7 15  1  0
 15 16  1  0
  2 17  1  0
 17 18  1  0
 18 19  2  0
 19 20  1  0
 20 21  2  0
 21 22  1  0
 22 23  2  0
 23 24  1  0
 24 25  2  0
 19 26  1  0
 26 27  1  0
 27 28  2  0
 28 29  1  0
 29 30  2  0
 30 31  1  0
 31 32  2  0
 26 33  1  0
 16  4  1  0
 33 17  2  0
 14  8  1  0
 25 20  1  0
 32 27  1  0
  3 34  1  0
  4 35  1  1
  5 36  1  0
  5 37  1  0
  6 38  1  0
  6 39  1  0
  7 40  1  6
  9 41  1  0
 10 42  1  0
 11 43  1  0
 13 44  1  0
 14 45  1  0
 16 46  1  0
 16 47  1  0
 18 48  1  0
 21 49  1  0
 22 50  1  0
 23 51  1  0
 24 52  1  0
 25 53  1  0
 28 54  1  0
 29 55  1  0
 30 56  1  0
 31 57  1  0
 32 58  1  0
 33 59  1  0
M  END
>  <meeko>  (14) 
{"is_sidechain": false}

$$$$

     RDKit          3D

 63 68  0  0  0  0  0  0  0  0999 V2000
    9.6610    1.4320  -55.7530 O   0  0  0  0  0  0  0  0  0  0  0  0
    8.4640    1.2860  -55.9750 C   0  0  0  0  0  0  0  0  0  0  0  0
    7.7760    1.9120  -56.9930 N   0  0  0  0  0  0  0  0  0  0  0  0
    8.3440    2.9510  -57.8590 C   0  0  2  0  0  0  0  0  0  0  0  0
    8.6440    4.2500  -57.0730 C   0  0  0  0  0  0  0  0  0  0  0  0
    9.1870    5.3390  -58.0130 C   0  0  1  0  0  0  0  0  0  0  0  0
   10.4760    4.8360  -58.6850 C   0  0  0  0  0  0  0  0  0  0  0  0
   10.1850    3.5660  -59.5030 C   0  0  2  0  0  0  0  0  0  0  0  0
    9.1320    3.8840  -60.5750 C   0  0  0  0  0  0  0  0  0  0  0  0
    7.8390    4.3770  -59.9100 C   0  0  2  0  0  0  0  0  0  0  0  0
    8.1370    5.6440  -59.0930 C   0  0  0  0  0  0  0  0  0  0  0  0
    7.3090    3.2840  -58.9680 C   0  0  0  0  0  0  0  0  0  0  0  0
    9.6420    2.4730  -58.5630 C   0  0  0  0  0  0  0  0  0  0  0  0
    7.6330    0.4310  -55.1630 C   0  0  0  0  0  0  0  0  0  0  0  0
    6.2620    0.2570  -55.2070 C   0  0  0  0  0  0  0  0  0  0  0  0
    5.9280   -0.7360  -54.2610 C   0  0  0  0  0  0  0  0  0  0  0  0
    7.0920   -1.1290  -53.6180 C   0  0  0  0  0  0  0  0  0  0  0  0
    7.2540   -2.1300  -52.5610 C   0  0  0  0  0  0  0  0  0  0  0  0
    7.5340   -1.7220  -51.2500 C   0  0  0  0  0  0  0  0  0  0  0  0
    7.7090   -2.6650  -50.2330 C   0  0  0  0  0  0  0  0  0  0  0  0
    7.6120   -4.0250  -50.5200 C   0  0  0  0  0  0  0  0  0  0  0  0
    7.3430   -4.4430  -51.8210 C   0  0  0  0  0  0  0  0  0  0  0  0
    7.1680   -3.5000  -52.8380 C   0  0  0  0  0  0  0  0  0  0  0  0
    8.1230   -0.3700  -54.1510 N   0  0  0  0  0  0  0  0  0  0  0  0
    9.4480   -0.3910  -53.7160 N   0  0  0  0  0  0  0  0  0  0  0  0
   10.2530   -1.5510  -53.8790 C   0  0  0  0  0  0  0  0  0  0  0  0
   10.6920   -2.2520  -52.7460 C   0  0  0  0  0  0  0  0  0  0  0  0
   11.4520   -3.4220  -52.8720 C   0  0  0  0  0  0  0  0  0  0  0  0
   11.7810   -3.9080  -54.1360 C   0  0  0  0  0  0  0  0  0  0  0  0
   11.3890   -3.1850  -55.2610 C   0  0  0  0  0  0  0  0  0  0  0  0
   11.6380   -3.8530  -56.9230 S   0  0  0  0  0  0  0  0  0  0  0  0
   12.8820   -4.6080  -56.7950 O   0  0  0  0  0  0  0  0  0  0  0  0
   10.4410   -4.6740  -57.1120 O   0  0  0  0  0  0  0  0  0  0  0  0
   11.7110   -2.6400  -57.7280 O   0  0  0  0  0  0  0  0  0  0  0  0
   10.6700   -1.9940  -55.1370 C   0  0  0  0  0  0  0  0  0  0  0  0
    6.7740    2.0030  -56.8250 H   0  0  0  0  0  0  0  0  0  0  0  0
    7.7175    4.6090  -56.6011 H   0  0  0  0  0  0  0  0  0  0  0  0
    9.4025    4.0331  -56.3064 H   0  0  0  0  0  0  0  0  0  0  0  0
    9.4032    6.2510  -57.4372 H   0  0  0  0  0  0  0  0  0  0  0  0
   10.8667    5.6175  -59.3532 H   0  0  0  0  0  0  0  0  0  0  0  0
   11.2190    4.6016  -57.9084 H   0  0  0  0  0  0  0  0  0  0  0  0
   11.1086    3.2145  -59.9861 H   0  0  0  0  0  0  0  0  0  0  0  0
    9.5185    4.6663  -61.2447 H   0  0  0  0  0  0  0  0  0  0  0  0
    8.9169    2.9724  -61.1518 H   0  0  0  0  0  0  0  0  0  0  0  0
    7.0886    4.6024  -60.6821 H   0  0  0  0  0  0  0  0  0  0  0  0
    8.5207    6.4275  -59.7630 H   0  0  0  0  0  0  0  0  0  0  0  0
    7.2108    5.9873  -58.6090 H   0  0  0  0  0  0  0  0  0  0  0  0
    6.3789    3.6354  -58.4974 H   0  0  0  0  0  0  0  0  0  0  0  0
    7.1243    2.3741  -59.5579 H   0  0  0  0  0  0  0  0  0  0  0  0
    9.4228    1.5685  -59.1494 H   0  0  0  0  0  0  0  0  0  0  0  0
   10.4009    2.2561  -57.7968 H   0  0  0  0  0  0  0  0  0  0  0  0
    5.5593    0.7947  -55.8605 H   0  0  0  0  0  0  0  0  0  0  0  0
    4.9193   -1.1298  -54.0675 H   0  0  0  0  0  0  0  0  0  0  0  0
    7.6169   -0.6497  -51.0190 H   0  0  0  0  0  0  0  0  0  0  0  0
    7.9233   -2.3334  -49.2063 H   0  0  0  0  0  0  0  0  0  0  0  0
    7.7477   -4.7677  -49.7200 H   0  0  0  0  0  0  0  0  0  0  0  0
    7.2681   -5.5166  -52.0486 H   0  0  0  0  0  0  0  0  0  0  0  0
    6.9610   -3.8369  -53.8645 H   0  0  0  0  0  0  0  0  0  0  0  0
    9.4880   -0.0760  -52.7490 H   0  0  0  0  0  0  0  0  0  0  0  0
   10.4357   -1.8775  -51.7440 H   0  0  0  0  0  0  0  0  0  0  0  0
   11.7894   -3.9576  -51.9724 H   0  0  0  0  0  0  0  0  0  0  0  0
   12.3417   -4.8482  -54.2441 H   0  0  0  0  0  0  0  0  0  0  0  0
   10.4311   -1.4024  -56.0331 H   0  0  0  0  0  0  0  0  0  0  0  0
  1  2  2  0
  2  3  1  0
  4  3  1  1
  4  5  1  0
  5  6  1  0
  6  7  1  0
  7  8  1  0
  8  9  1  0
  9 10  1  0
 10 11  1  0
 10 12  1  0
  8 13  1  0
  2 14  1  0
 14 15  2  0
 15 16  1  0
 16 17  2  0
 17 18  1  0
 18 19  2  0
 19 20  1  0
 20 21  2  0
 21 22  1  0
 22 23  2  0
 17 24  1  0
 24 25  1  0
 25 26  1  0
 26 27  1  0
 27 28  2  0
 28 29  1  0
 29 30  2  0
 30 31  1  0
 31 32  2  0
 31 33  2  0
 31 34  1  0
 30 35  1  0
 12  4  1  0
 24 14  1  0
 35 26  2  0
 13  4  1  0
 23 18  1  0
 11  6  1  0
  3 36  1  0
  5 37  1  0
  5 38  1  0
  6 39  1  1
  7 40  1  0
  7 41  1  0
  8 42  1  6
  9 43  1  0
  9 44  1  0
 10 45  1  6
 11 46  1  0
 11 47  1  0
 12 48  1  0
 12 49  1  0
 13 50  1  0
 13 51  1  0
 15 52  1  0
 16 53  1  0
 19 54  1  0
 20 55  1  0
 21 56  1  0
 22 57  1  0
 23 58  1  0
 25 59  1  0
 27 60  1  0
 28 61  1  0
 29 62  1  0
 35 63  1  0
M  CHG  1  34  -1
M  END
>  <meeko>  (15) 
{"is_sidechain": false}

$$$$

     RDKit          3D

 47 48  0  0  0  0  0  0  0  0999 V2000
    5.6110    1.4320  -56.0760 C   0  0  0  0  0  0  0  0  0  0  0  0
    6.7830    1.1790  -57.0210 C   0  0  2  0  0  0  0  0  0  0  0  0
    8.0700    1.5050  -56.3050 C   0  0  0  0  0  0  0  0  0  0  0  0
    8.5470    0.8130  -55.4190 O   0  0  0  0  0  0  0  0  0  0  0  0
    8.5380    2.7020  -56.7670 N   0  0  0  0  0  0  0  0  0  0  0  0
    9.6800    3.4060  -56.2020 C   0  0  0  0  0  0  0  0  0  0  0  0
   10.9720    3.1080  -56.9640 C   0  0  0  0  0  0  0  0  0  0  0  0
   11.5400    4.3010  -57.7490 C   0  0  2  0  0  0  0  0  0  0  0  0
   10.5660    5.3540  -57.7160 O   0  0  0  0  0  0  0  0  0  0  0  0
   11.9670    3.9810  -59.1880 C   0  0  2  0  0  0  0  0  0  0  0  0
   13.4560    4.2210  -59.4250 C   0  0  0  0  0  0  0  0  0  0  0  0
   11.2120    4.8750  -60.1780 C   0  0  0  0  0  0  0  0  0  0  0  0
   11.6140    6.0760  -60.2290 O   0  0  0  0  0  0  0  0  0  0  0  0
   10.2580    4.3200  -60.7860 O   0  0  0  0  0  0  0  0  0  0  0  0
    7.8360    3.1590  -57.8460 C   0  0  0  0  0  0  0  0  0  0  0  0
    8.0290    4.1880  -58.4800 O   0  0  0  0  0  0  0  0  0  0  0  0
    6.7830    2.1500  -58.2060 C   0  0  1  0  0  0  0  0  0  0  0  0
    7.0900    1.5310  -59.5790 C   0  0  2  0  0  0  0  0  0  0  0  0
    8.3340    2.0690  -60.0480 O   0  0  0  0  0  0  0  0  0  0  0  0
    6.0230    1.7100  -60.6430 C   0  0  0  0  0  0  0  0  0  0  0  0
    6.3090    2.4580  -61.7980 C   0  0  0  0  0  0  0  0  0  0  0  0
    5.3590    2.6010  -62.8110 C   0  0  0  0  0  0  0  0  0  0  0  0
    4.1070    2.0060  -62.6820 C   0  0  0  0  0  0  0  0  0  0  0  0
    3.8010    1.2740  -61.5380 C   0  0  0  0  0  0  0  0  0  0  0  0
    4.7520    1.1290  -60.5250 C   0  0  0  0  0  0  0  0  0  0  0  0
    5.9570    1.3573  -55.0345 H   0  0  0  0  0  0  0  0  0  0  0  0
    5.2053    2.4384  -56.2563 H   0  0  0  0  0  0  0  0  0  0  0  0
    4.8262    0.6826  -56.2563 H   0  0  0  0  0  0  0  0  0  0  0  0
    6.6950    0.1333  -57.3507 H   0  0  0  0  0  0  0  0  0  0  0  0
    9.4855    4.4879  -56.2424 H   0  0  0  0  0  0  0  0  0  0  0  0
    9.8108    3.0633  -55.1650 H   0  0  0  0  0  0  0  0  0  0  0  0
   11.7313    2.7819  -56.2380 H   0  0  0  0  0  0  0  0  0  0  0  0
   10.7255    2.3346  -57.7063 H   0  0  0  0  0  0  0  0  0  0  0  0
   12.4760    4.6058  -57.2582 H   0  0  0  0  0  0  0  0  0  0  0  0
   11.0860    6.1690  -57.9460 H   0  0  0  0  0  0  0  0  0  0  0  0
   11.7375    2.9162  -59.3412 H   0  0  0  0  0  0  0  0  0  0  0  0
   13.9725    4.3043  -58.4574 H   0  0  0  0  0  0  0  0  0  0  0  0
   13.8771    3.3791  -59.9942 H   0  0  0  0  0  0  0  0  0  0  0  0
   13.5912    5.1525  -59.9942 H   0  0  0  0  0  0  0  0  0  0  0  0
    5.7711    2.5598  -58.3407 H   0  0  0  0  0  0  0  0  0  0  0  0
    7.1331    0.4441  -59.4153 H   0  0  0  0  0  0  0  0  0  0  0  0
    8.9640    1.3290  -60.0890 H   0  0  0  0  0  0  0  0  0  0  0  0
    7.2936    2.9367  -61.9052 H   0  0  0  0  0  0  0  0  0  0  0  0
    5.6000    3.1843  -63.7119 H   0  0  0  0  0  0  0  0  0  0  0  0
    3.3606    2.1141  -63.4828 H   0  0  0  0  0  0  0  0  0  0  0  0
    2.8096    0.8094  -61.4317 H   0  0  0  0  0  0  0  0  0  0  0  0
    4.5007    0.5516  -59.6231 H   0  0  0  0  0  0  0  0  0  0  0  0
  1  2  1  0
  2  3  1  0
  3  4  2  0
  3  5  1  0
  5  6  1  0
  6  7  1  0
  7  8  1  0
  8  9  1  0
  8 10  1  0
 10 11  1  0
 10 12  1  0
 12 13  2  0
 12 14  1  0
  5 15  1  0
 15 16  2  0
 15 17  1  0
 17 18  1  0
 18 19  1  0
 18 20  1  0
 20 21  2  0
 21 22  1  0
 22 23  2  0
 23 24  1  0
 24 25  2  0
 17  2  1  0
 25 20  1  0
  1 26  1  0
  1 27  1  0
  1 28  1  0
  2 29  1  6
  6 30  1  0
  6 31  1  0
  7 32  1  0
  7 33  1  0
  8 34  1  1
  9 35  1  0
 10 36  1  6
 11 37  1  0
 11 38  1  0
 11 39  1  0
 17 40  1  6
 18 41  1  1
 19 42  1  0
 21 43  1  0
 22 44  1  0
 23 45  1  0
 24 46  1  0
 25 47  1  0
M  CHG  1  14  -1
M  END
>  <meeko>  (16) 
{"is_sidechain": false}

$$$$

     RDKit          3D

 47 48  0  0  0  0  0  0  0  0999 V2000
   11.2870    2.8370  -57.5020 C   0  0  0  0  0  0  0  0  0  0  0  0
   11.7210    3.6730  -58.7020 C   0  0  2  0  0  0  0  0  0  0  0  0
   13.1110    4.3100  -58.5640 C   0  0  0  0  0  0  0  0  0  0  0  0
   13.3790    4.8410  -57.4520 O   0  0  0  0  0  0  0  0  0  0  0  0
   13.8330    4.2150  -59.5980 O   0  0  0  0  0  0  0  0  0  0  0  0
   10.7460    4.8050  -59.0610 C   0  0  1  0  0  0  0  0  0  0  0  0
   11.5060    5.9810  -59.4000 O   0  0  0  0  0  0  0  0  0  0  0  0
    9.8020    4.4920  -60.2300 C   0  0  0  0  0  0  0  0  0  0  0  0
    8.3360    4.7120  -59.8460 C   0  0  0  0  0  0  0  0  0  0  0  0
    7.7250    3.4860  -59.3540 N   0  0  0  0  0  0  0  0  0  0  0  0
    7.6220    3.1670  -58.0250 C   0  0  0  0  0  0  0  0  0  0  0  0
    8.0070    3.8520  -57.0890 O   0  0  0  0  0  0  0  0  0  0  0  0
    7.0870    1.7540  -57.9250 C   0  0  1  0  0  0  0  0  0  0  0  0
    6.1900    1.4640  -56.7200 C   0  0  2  0  0  0  0  0  0  0  0  0
    5.5790    2.6450  -56.2130 O   0  0  0  0  0  0  0  0  0  0  0  0
    6.8560    0.6470  -55.6240 C   0  0  0  0  0  0  0  0  0  0  0  0
    6.0810   -0.2170  -54.8320 C   0  0  0  0  0  0  0  0  0  0  0  0
    6.6680   -0.9810  -53.8210 C   0  0  0  0  0  0  0  0  0  0  0  0
    8.0380   -0.8960  -53.5890 C   0  0  0  0  0  0  0  0  0  0  0  0
    8.8210   -0.0500  -54.3690 C   0  0  0  0  0  0  0  0  0  0  0  0
    8.2350    0.7170  -55.3790 C   0  0  0  0  0  0  0  0  0  0  0  0
    6.4530    1.5360  -59.3120 C   0  0  1  0  0  0  0  0  0  0  0  0
    4.9650    1.8340  -59.4490 C   0  0  0  0  0  0  0  0  0  0  0  0
    7.2170    2.5140  -60.1650 C   0  0  0  0  0  0  0  0  0  0  0  0
    7.3260    2.4190  -61.3790 O   0  0  0  0  0  0  0  0  0  0  0  0
   11.5586    3.3601  -56.5732 H   0  0  0  0  0  0  0  0  0  0  0  0
   10.1976    2.6879  -57.5337 H   0  0  0  0  0  0  0  0  0  0  0  0
   11.7919    1.8602  -57.5337 H   0  0  0  0  0  0  0  0  0  0  0  0
   11.7380    2.9201  -59.5038 H   0  0  0  0  0  0  0  0  0  0  0  0
   10.1108    4.9494  -58.1746 H   0  0  0  0  0  0  0  0  0  0  0  0
   12.2190    6.0270  -58.7400 H   0  0  0  0  0  0  0  0  0  0  0  0
   10.0517    5.1490  -61.0761 H   0  0  0  0  0  0  0  0  0  0  0  0
    9.9310    3.4341  -60.5023 H   0  0  0  0  0  0  0  0  0  0  0  0
    8.2836    5.4786  -59.0589 H   0  0  0  0  0  0  0  0  0  0  0  0
    7.7883    5.0352  -60.7435 H   0  0  0  0  0  0  0  0  0  0  0  0
    7.8748    1.0180  -57.7065 H   0  0  0  0  0  0  0  0  0  0  0  0
    5.3906    0.8161  -57.1089 H   0  0  0  0  0  0  0  0  0  0  0  0
    6.1280    3.4050  -56.4690 H   0  0  0  0  0  0  0  0  0  0  0  0
    4.9982   -0.2926  -55.0106 H   0  0  0  0  0  0  0  0  0  0  0  0
    6.0473   -1.6505  -53.2075 H   0  0  0  0  0  0  0  0  0  0  0  0
    8.5005   -1.4959  -52.7913 H   0  0  0  0  0  0  0  0  0  0  0  0
    9.9043    0.0149  -54.1897 H   0  0  0  0  0  0  0  0  0  0  0  0
    8.8625    1.3834  -55.9890 H   0  0  0  0  0  0  0  0  0  0  0  0
    6.5153    0.4699  -59.5757 H   0  0  0  0  0  0  0  0  0  0  0  0
    4.5155    1.9240  -58.4491 H   0  0  0  0  0  0  0  0  0  0  0  0
    4.8290    2.7772  -59.9984 H   0  0  0  0  0  0  0  0  0  0  0  0
    4.4763    1.0159  -59.9984 H   0  0  0  0  0  0  0  0  0  0  0  0
  1  2  1  0
  2  3  1  0
  3  4  2  0
  3  5  1  0
  2  6  1  0
  6  7  1  0
  6  8  1  0
  8  9  1  0
  9 10  1  0
 10 11  1  0
 11 12  2  0
 11 13  1  0
 13 14  1  0
 14 15  1  0
 14 16  1  0
 16 17  2  0
 17 18  1  0
 18 19  2  0
 19 20  1  0
 20 21  2  0
 13 22  1  0
 22 23  1  0
 22 24  1  0
 24 25  2  0
 24 10  1  0
 21 16  1  0
  1 26  1  0
  1 27  1  0
  1 28  1  0
  2 29  1  6
  6 30  1  1
  7 31  1  0
  8 32  1  0
  8 33  1  0
  9 34  1  0
  9 35  1  0
 13 36  1  1
 14 37  1  6
 15 38  1  0
 17 39  1  0
 18 40  1  0
 19 41  1  0
 20 42  1  0
 21 43  1  0
 22 44  1  6
 23 45  1  0
 23 46  1  0
 23 47  1  0
M  CHG  1   5  -1
M  END
>  <meeko>  (17) 
{"is_sidechain": false}

$$$$

     RDKit          3D

 47 48  0  0  0  0  0  0  0  0999 V2000
    7.2310    2.9150  -61.0420 C   0  0  0  0  0  0  0  0  0  0  0  0
    7.7460    2.1680  -59.8210 C   0  0  2  0  0  0  0  0  0  0  0  0
    6.6140    1.8650  -58.8700 C   0  0  0  0  0  0  0  0  0  0  0  0
    5.5760    1.3130  -59.2060 O   0  0  0  0  0  0  0  0  0  0  0  0
    6.9860    2.2320  -57.6100 N   0  0  0  0  0  0  0  0  0  0  0  0
    6.1850    1.9550  -56.4210 C   0  0  0  0  0  0  0  0  0  0  0  0
    6.4200    0.5320  -55.9130 C   0  0  0  0  0  0  0  0  0  0  0  0
    6.5590    0.3810  -54.3900 C   0  0  1  0  0  0  0  0  0  0  0  0
    5.4820   -0.4160  -53.8900 O   0  0  0  0  0  0  0  0  0  0  0  0
    7.9170   -0.0830  -53.8300 C   0  0  2  0  0  0  0  0  0  0  0  0
    9.0130   -0.0240  -54.8890 C   0  0  0  0  0  0  0  0  0  0  0  0
    7.8600   -1.4460  -53.1170 C   0  0  0  0  0  0  0  0  0  0  0  0
    7.9800   -2.4420  -53.8930 O   0  0  0  0  0  0  0  0  0  0  0  0
    7.7060   -1.4310  -51.8680 O   0  0  0  0  0  0  0  0  0  0  0  0
    8.2520    2.7340  -57.5700 C   0  0  0  0  0  0  0  0  0  0  0  0
    8.9350    2.9680  -56.5820 O   0  0  0  0  0  0  0  0  0  0  0  0
    8.7300    2.9820  -58.9790 C   0  0  1  0  0  0  0  0  0  0  0  0
   10.2010    2.5550  -59.0820 C   0  0  2  0  0  0  0  0  0  0  0  0
   10.5890    1.8470  -57.8980 O   0  0  0  0  0  0  0  0  0  0  0  0
   11.1490    3.7280  -59.2250 C   0  0  0  0  0  0  0  0  0  0  0  0
   10.7540    4.9030  -59.8840 C   0  0  0  0  0  0  0  0  0  0  0  0
   11.6430    5.9670  -60.0390 C   0  0  0  0  0  0  0  0  0  0  0  0
   12.9390    5.8720  -59.5370 C   0  0  0  0  0  0  0  0  0  0  0  0
   13.3450    4.7140  -58.8750 C   0  0  0  0  0  0  0  0  0  0  0  0
   12.4550    3.6490  -58.7170 C   0  0  0  0  0  0  0  0  0  0  0  0
    6.6344    3.7804  -60.7177 H   0  0  0  0  0  0  0  0  0  0  0  0
    8.0826    3.2622  -61.6456 H   0  0  0  0  0  0  0  0  0  0  0  0
    6.6037    2.2426  -61.6456 H   0  0  0  0  0  0  0  0  0  0  0  0
    8.2316    1.2712  -60.2331 H   0  0  0  0  0  0  0  0  0  0  0  0
    6.4595    2.6681  -55.6297 H   0  0  0  0  0  0  0  0  0  0  0  0
    5.1224    2.0584  -56.6859 H   0  0  0  0  0  0  0  0  0  0  0  0
    5.5706   -0.0870  -56.2376 H   0  0  0  0  0  0  0  0  0  0  0  0
    7.3871    0.2199  -56.3341 H   0  0  0  0  0  0  0  0  0  0  0  0
    6.5074    1.4130  -54.0128 H   0  0  0  0  0  0  0  0  0  0  0  0
    4.7420    0.2290  -53.7360 H   0  0  0  0  0  0  0  0  0  0  0  0
    8.1816    0.6388  -53.0433 H   0  0  0  0  0  0  0  0  0  0  0  0
    9.9955    0.0289  -54.3973 H   0  0  0  0  0  0  0  0  0  0  0  0
    8.9652   -0.9260  -55.5168 H   0  0  0  0  0  0  0  0  0  0  0  0
    8.8687    0.8677  -55.5168 H   0  0  0  0  0  0  0  0  0  0  0  0
    8.7321    4.0282  -59.3188 H   0  0  0  0  0  0  0  0  0  0  0  0
   10.2705    1.9261  -59.9818 H   0  0  0  0  0  0  0  0  0  0  0  0
    9.9440    2.0930  -57.2020 H   0  0  0  0  0  0  0  0  0  0  0  0
    9.7321    4.9857  -60.2826 H   0  0  0  0  0  0  0  0  0  0  0  0
   11.3203    6.8816  -60.5580 H   0  0  0  0  0  0  0  0  0  0  0  0
   13.6411    6.7094  -59.6627 H   0  0  0  0  0  0  0  0  0  0  0  0
   14.3676    4.6390  -58.4766 H   0  0  0  0  0  0  0  0  0  0  0  0
   12.7806    2.7402  -58.1897 H   0  0  0  0  0  0  0  0  0  0  0  0
  1  2  1  0
  2  3  1  0
  3  4  2  0
  3  5  1  0
  5  6  1  0
  6  7  1  0
  7  8  1  0
  8  9  1  0
  8 10  1  0
 10 11  1  0
 10 12  1  0
 12 13  2  0
 12 14  1  0
  5 15  1  0
 15 16  2  0
 15 17  1  0
 17 18  1  0
 18 19  1  0
 18 20  1  0
 20 21  2  0
 21 22  1  0
 22 23  2  0
 23 24  1  0
 24 25  2  0
 17  2  1  0
 25 20  1  0
  1 26  1  0
  1 27  1  0
  1 28  1  0
  2 29  1  6
  6 30  1  0
  6 31  1  0
  7 32  1  0
  7 33  1  0
  8 34  1  1
  9 35  1  0
 10 36  1  1
 11 37  1  0
 11 38  1  0
 11 39  1  0
 17 40  1  6
 18 41  1  6
 19 42  1  0
 21 43  1  0
 22 44  1  0
 23 45  1  0
 24 46  1  0
 25 47  1  0
M  CHG  1  14  -1
M  END
>  <meeko>  (18) 
{"is_sidechain": false}

$$$$

     RDKit          3D

 47 48  0  0  0  0  0  0  0  0999 V2000
    9.2050    0.5590  -55.3470 C   0  0  0  0  0  0  0  0  0  0  0  0
    8.0820    0.4170  -54.3230 C   0  0  2  0  0  0  0  0  0  0  0  0
    8.2420   -1.0100  -53.7690 C   0  0  0  0  0  0  0  0  0  0  0  0
    8.6720   -1.8650  -54.6020 O   0  0  0  0  0  0  0  0  0  0  0  0
    7.9190   -1.1550  -52.5590 O   0  0  0  0  0  0  0  0  0  0  0  0
    6.6430    0.4950  -54.8500 C   0  0  2  0  0  0  0  0  0  0  0  0
    5.9200   -0.7050  -54.5600 O   0  0  0  0  0  0  0  0  0  0  0  0
    6.5050    0.7990  -56.3480 C   0  0  0  0  0  0  0  0  0  0  0  0
    6.0630    2.2200  -56.6860 C   0  0  0  0  0  0  0  0  0  0  0  0
    6.7470    2.7360  -57.8670 N   0  0  0  0  0  0  0  0  0  0  0  0
    7.9300    3.4140  -57.8290 C   0  0  0  0  0  0  0  0  0  0  0  0
    8.5600    3.7610  -56.8390 O   0  0  0  0  0  0  0  0  0  0  0  0
    8.3940    3.6840  -59.2360 C   0  0  1  0  0  0  0  0  0  0  0  0
    9.7660    3.0450  -59.4980 C   0  0  2  0  0  0  0  0  0  0  0  0
    9.9580    1.9890  -58.5470 O   0  0  0  0  0  0  0  0  0  0  0  0
   10.9820    3.9520  -59.5300 C   0  0  0  0  0  0  0  0  0  0  0  0
   10.8570    5.2800  -59.9710 C   0  0  0  0  0  0  0  0  0  0  0  0
   11.9600    6.1360  -60.0040 C   0  0  0  0  0  0  0  0  0  0  0  0
   13.2150    5.6740  -59.6180 C   0  0  0  0  0  0  0  0  0  0  0  0
   13.3670    4.3510  -59.2130 C   0  0  0  0  0  0  0  0  0  0  0  0
   12.2620    3.4970  -59.1780 C   0  0  0  0  0  0  0  0  0  0  0  0
    7.1640    3.3340  -60.0840 C   0  0  1  0  0  0  0  0  0  0  0  0
    7.3350    2.6650  -61.4320 C   0  0  0  0  0  0  0  0  0  0  0  0
    6.3040    2.5250  -59.1430 C   0  0  0  0  0  0  0  0  0  0  0  0
    5.3340    1.8650  -59.4870 O   0  0  0  0  0  0  0  0  0  0  0  0
   10.1650    0.6804  -54.8239 H   0  0  0  0  0  0  0  0  0  0  0  0
    9.2423   -0.3416  -55.9775 H   0  0  0  0  0  0  0  0  0  0  0  0
    9.0170    1.4405  -55.9775 H   0  0  0  0  0  0  0  0  0  0  0  0
    8.1873    1.2573  -53.6210 H   0  0  0  0  0  0  0  0  0  0  0  0
    6.2165    1.3561  -54.3147 H   0  0  0  0  0  0  0  0  0  0  0  0
    6.5390   -1.1920  -53.9570 H   0  0  0  0  0  0  0  0  0  0  0  0
    7.4824    0.6252  -56.8217 H   0  0  0  0  0  0  0  0  0  0  0  0
    5.7107    0.1359  -56.7215 H   0  0  0  0  0  0  0  0  0  0  0  0
    4.9792    2.2201  -56.8743 H   0  0  0  0  0  0  0  0  0  0  0  0
    6.3175    2.8679  -55.8343 H   0  0  0  0  0  0  0  0  0  0  0  0
    8.6655    4.7166  -59.5007 H   0  0  0  0  0  0  0  0  0  0  0  0
    9.7122    2.6901  -60.5378 H   0  0  0  0  0  0  0  0  0  0  0  0
   10.7050    2.2520  -57.9820 H   0  0  0  0  0  0  0  0  0  0  0  0
    9.8740    5.6518  -60.2957 H   0  0  0  0  0  0  0  0  0  0  0  0
   11.8367    7.1775  -60.3357 H   0  0  0  0  0  0  0  0  0  0  0  0
   14.0820    6.3508  -59.6329 H   0  0  0  0  0  0  0  0  0  0  0  0
   14.3592    3.9772  -58.9199 H   0  0  0  0  0  0  0  0  0  0  0  0
   12.3976    2.4500  -58.8692 H   0  0  0  0  0  0  0  0  0  0  0  0
    6.7295    4.2782  -60.4442 H   0  0  0  0  0  0  0  0  0  0  0  0
    7.6050    1.6088  -61.2855 H   0  0  0  0  0  0  0  0  0  0  0  0
    6.3919    2.7278  -61.9948 H   0  0  0  0  0  0  0  0  0  0  0  0
    8.1323    3.1726  -61.9948 H   0  0  0  0  0  0  0  0  0  0  0  0
  1  2  1  0
  2  3  1  0
  3  4  2  0
  3  5  1  0
  2  6  1  0
  6  7  1  0
  6  8  1  0
  8  9  1  0
  9 10  1  0
 10 11  1  0
 11 12  2  0
 11 13  1  0
 13 14  1  0
 14 15  1  0
 14 16  1  0
 16 17  2  0
 17 18  1  0
 18 19  2  0
 19 20  1  0
 20 21  2  0
 13 22  1  0
 22 23  1  0
 22 24  1  0
 24 25  2  0
 24 10  1  0
 21 16  1  0
  1 26  1  0
  1 27  1  0
  1 28  1  0
  2 29  1  1
  6 30  1  1
  7 31  1  0
  8 32  1  0
  8 33  1  0
  9 34  1  0
  9 35  1  0
 13 36  1  1
 14 37  1  6
 15 38  1  0
 17 39  1  0
 18 40  1  0
 19 41  1  0
 20 42  1  0
 21 43  1  0
 22 44  1  6
 23 45  1  0
 23 46  1  0
 23 47  1  0
M  CHG  1   5  -1
M  END
>  <meeko>  (19) 
{"is_sidechain": false}

$$$$

     RDKit          3D

 52 54  0  0  0  0  0  0  0  0999 V2000
    6.7240    0.3030  -54.0620 C   0  0  0  0  0  0  0  0  0  0  0  0
    8.0840   -0.1800  -54.4470 C   0  0  0  0  0  0  0  0  0  0  0  0
    8.9480    0.4410  -55.4160 C   0  0  0  0  0  0  0  0  0  0  0  0
    8.6600    1.6420  -56.2130 C   0  0  0  0  0  0  0  0  0  0  0  0
    7.5190    1.9480  -56.5400 O   0  0  0  0  0  0  0  0  0  0  0  0
    9.7690    2.3970  -56.5360 N   0  0  0  0  0  0  0  0  0  0  0  0
    9.7340    3.6840  -57.2460 C   0  0  0  0  0  0  0  0  0  0  0  0
    9.1290    3.5290  -58.6510 C   0  0  0  0  0  0  0  0  0  0  0  0
    8.9440    4.7280  -56.4410 C   0  0  0  0  0  0  0  0  0  0  0  0
   11.1840    4.1790  -57.4010 C   0  0  0  0  0  0  0  0  0  0  0  0
   10.0910   -0.3390  -55.4650 C   0  0  0  0  0  0  0  0  0  0  0  0
    9.9670   -1.3730  -54.5660 N   0  0  0  0  0  0  0  0  0  0  0  0
   10.9710   -2.4240  -54.3920 C   0  0  0  0  0  0  0  0  0  0  0  0
   11.1850   -3.2440  -55.6400 C   0  0  0  0  0  0  0  0  0  0  0  0
   10.7770   -4.5870  -55.6760 C   0  0  0  0  0  0  0  0  0  0  0  0
   10.9560   -5.3540  -56.8280 C   0  0  0  0  0  0  0  0  0  0  0  0
   11.5370   -4.7890  -57.9610 C   0  0  0  0  0  0  0  0  0  0  0  0
   11.9360   -3.4540  -57.9440 C   0  0  0  0  0  0  0  0  0  0  0  0
   11.7590   -2.6850  -56.7920 C   0  0  0  0  0  0  0  0  0  0  0  0
    8.7380   -1.3000  -53.9430 C   0  0  0  0  0  0  0  0  0  0  0  0
    8.2780   -2.2620  -52.9460 C   0  0  0  0  0  0  0  0  0  0  0  0
    8.3620   -1.9570  -51.5810 C   0  0  0  0  0  0  0  0  0  0  0  0
    7.9260   -2.8780  -50.6290 C   0  0  0  0  0  0  0  0  0  0  0  0
    7.4000   -4.0960  -51.0450 C   0  0  0  0  0  0  0  0  0  0  0  0
    6.9840   -4.9820  -50.1300 F   0  0  0  0  0  0  0  0  0  0  0  0
    7.2990   -4.4100  -52.3970 C   0  0  0  0  0  0  0  0  0  0  0  0
    7.7370   -3.4900  -53.3500 C   0  0  0  0  0  0  0  0  0  0  0  0
    6.6421    0.3321  -52.9654 H   0  0  0  0  0  0  0  0  0  0  0  0
    6.5648    1.3127  -54.4685 H   0  0  0  0  0  0  0  0  0  0  0  0
    5.9636   -0.3801  -54.4685 H   0  0  0  0  0  0  0  0  0  0  0  0
   10.6240    2.1620  -56.0540 H   0  0  0  0  0  0  0  0  0  0  0  0
    8.0667    3.2568  -58.5648 H   0  0  0  0  0  0  0  0  0  0  0  0
    9.2208    4.4797  -59.1967 H   0  0  0  0  0  0  0  0  0  0  0  0
    9.6666    2.7396  -59.1967 H   0  0  0  0  0  0  0  0  0  0  0  0
    9.0833    4.5439  -55.3655 H   0  0  0  0  0  0  0  0  0  0  0  0
    9.3078    5.7356  -56.6907 H   0  0  0  0  0  0  0  0  0  0  0  0
    7.8754    4.6517  -56.6907 H   0  0  0  0  0  0  0  0  0  0  0  0
   11.6280    4.3306  -56.4061 H   0  0  0  0  0  0  0  0  0  0  0  0
   11.7700    3.4300  -57.9538 H   0  0  0  0  0  0  0  0  0  0  0  0
   11.1897    5.1300  -57.9538 H   0  0  0  0  0  0  0  0  0  0  0  0
   10.9584   -0.1607  -56.1176 H   0  0  0  0  0  0  0  0  0  0  0  0
   11.9257   -1.9545  -54.1125 H   0  0  0  0  0  0  0  0  0  0  0  0
   10.6045   -3.1042  -53.6090 H   0  0  0  0  0  0  0  0  0  0  0  0
   10.3118   -5.0389  -54.7876 H   0  0  0  0  0  0  0  0  0  0  0  0
   10.6377   -6.4068  -56.8414 H   0  0  0  0  0  0  0  0  0  0  0  0
   11.6805   -5.3955  -58.8674 H   0  0  0  0  0  0  0  0  0  0  0  0
   12.3910   -3.0053  -58.8393 H   0  0  0  0  0  0  0  0  0  0  0  0
   12.0726   -1.6307  -56.7875 H   0  0  0  0  0  0  0  0  0  0  0  0
    8.7729   -0.9886  -51.2595 H   0  0  0  0  0  0  0  0  0  0  0  0
    7.9977   -2.6426  -49.5569 H   0  0  0  0  0  0  0  0  0  0  0  0
    6.8772   -5.3759  -52.7118 H   0  0  0  0  0  0  0  0  0  0  0  0
    7.6575   -3.7290  -54.4208 H   0  0  0  0  0  0  0  0  0  0  0  0
  1  2  1  0
  2  3  1  0
  3  4  1  0
  4  5  2  0
  4  6  1  0
  6  7  1  0
  7  8  1  0
  7  9  1  0
  7 10  1  0
  3 11  2  0
 11 12  1  0
 12 13  1  0
 13 14  1  0
 14 15  2  0
 15 16  1  0
 16 17  2  0
 17 18  1  0
 18 19  2  0
 12 20  1  0
 20 21  1  0
 21 22  1  0
 22 23  2  0
 23 24  1  0
 24 25  1  0
 24 26  2  0
 26 27  1  0
 20  2  2  0
 27 21  2  0
 19 14  1  0
  1 28  1  0
  1 29  1  0
  1 30  1  0
  6 31  1  0
  8 32  1  0
  8 33  1  0
  8 34  1  0
  9 35  1  0
  9 36  1  0
  9 37  1  0
 10 38  1  0
 10 39  1  0
 10 40  1  0
 11 41  1  0
 13 42  1  0
 13 43  1  0
 15 44  1  0
 16 45  1  0
 17 46  1  0
 18 47  1  0
 19 48  1  0
 22 49  1  0
 23 50  1  0
 26 51  1  0
 27 52  1  0
M  END
>  <meeko>  (20) 
{"is_sidechain": false}

$$$$

     RDKit          3D

 18 18  0  0  0  0  0  0  0  0999 V2000
    8.6790   -2.0730  -52.5900 O   0  0  0  0  0  0  0  0  0  0  0  0
    9.8080   -2.5860  -52.8230 C   0  0  0  0  0  0  0  0  0  0  0  0
   10.7810   -2.7920  -52.0410 O   0  0  0  0  0  0  0  0  0  0  0  0
   10.0730   -3.0380  -54.2620 C   0  0  0  0  0  0  0  0  0  0  0  0
   11.1750   -3.7250  -54.6080 C   0  0  0  0  0  0  0  0  0  0  0  0
   11.5280   -4.2070  -55.9540 C   0  0  0  0  0  0  0  0  0  0  0  0
   11.5550   -3.3850  -57.0890 C   0  0  0  0  0  0  0  0  0  0  0  0
   11.8980   -3.9010  -58.3430 C   0  0  0  0  0  0  0  0  0  0  0  0
   12.2200   -5.2490  -58.4810 C   0  0  0  0  0  0  0  0  0  0  0  0
   12.2000   -6.0810  -57.3640 C   0  0  0  0  0  0  0  0  0  0  0  0
   11.8560   -5.5620  -56.1130 C   0  0  0  0  0  0  0  0  0  0  0  0
    9.3353   -2.7917  -55.0399 H   0  0  0  0  0  0  0  0  0  0  0  0
   11.8879   -3.9509  -53.8014 H   0  0  0  0  0  0  0  0  0  0  0  0
   11.3028   -2.3187  -56.9921 H   0  0  0  0  0  0  0  0  0  0  0  0
   11.9135   -3.2405  -59.2225 H   0  0  0  0  0  0  0  0  0  0  0  0
   12.4889   -5.6547  -59.4675 H   0  0  0  0  0  0  0  0  0  0  0  0
   12.4549   -7.1461  -57.4666 H   0  0  0  0  0  0  0  0  0  0  0  0
   11.8421   -6.2275  -55.2373 H   0  0  0  0  0  0  0  0  0  0  0  0
  1  2  2  0
  2  3  1  0
  2  4  1  0
  4  5  2  0
  5  6  1  0
  6  7  2  0
  7  8  1  0
  8  9  2  0
  9 10  1  0
 10 11  2  0
 11  6  1  0
  4 12  1  0
  5 13  1  0
  7 14  1  0
  8 15  1  0
  9 16  1  0
 10 17  1  0
 11 18  1  0
M  CHG  1   3  -1
M  END
>  <meeko>  (21) 
{"is_sidechain": false}

$$$$

     RDKit          3D

 53 56  0  0  0  0  0  0  0  0999 V2000
    6.6230    0.7400  -54.8610 C   0  0  0  0  0  0  0  0  0  0  0  0
    8.0320    0.3380  -55.1480 C   0  0  0  0  0  0  0  0  0  0  0  0
    8.9690    1.0130  -56.0080 C   0  0  0  0  0  0  0  0  0  0  0  0
    8.8250    2.2040  -56.8480 C   0  0  0  0  0  0  0  0  0  0  0  0
    7.9790    2.2880  -57.7330 O   0  0  0  0  0  0  0  0  0  0  0  0
    9.6700    3.2380  -56.5280 N   0  0  0  0  0  0  0  0  0  0  0  0
    9.5380    4.5190  -57.1750 C   0  0  0  0  0  0  0  0  0  0  0  0
   10.7820    4.8450  -57.9560 C   0  0  0  0  0  0  0  0  0  0  0  0
   12.0210    4.2970  -57.5910 C   0  0  0  0  0  0  0  0  0  0  0  0
   13.1660    4.5790  -58.3360 C   0  0  0  0  0  0  0  0  0  0  0  0
   13.0840    5.4030  -59.4570 C   0  0  0  0  0  0  0  0  0  0  0  0
   11.8570    5.9440  -59.8360 C   0  0  0  0  0  0  0  0  0  0  0  0
   10.7100    5.6640  -59.0910 C   0  0  0  0  0  0  0  0  0  0  0  0
   10.1600    0.3180  -55.8970 C   0  0  0  0  0  0  0  0  0  0  0  0
    9.9880   -0.7440  -55.0490 N   0  0  0  0  0  0  0  0  0  0  0  0
   11.0370   -1.7170  -54.7420 C   0  0  0  0  0  0  0  0  0  0  0  0
   11.1520   -2.8040  -55.7820 C   0  0  0  0  0  0  0  0  0  0  0  0
   10.6610   -4.0970  -55.5430 C   0  0  0  0  0  0  0  0  0  0  0  0
   10.7880   -5.0960  -56.5090 C   0  0  0  0  0  0  0  0  0  0  0  0
   11.4150   -4.8180  -57.7220 C   0  0  0  0  0  0  0  0  0  0  0  0
   11.9170   -3.5440  -57.9690 C   0  0  0  0  0  0  0  0  0  0  0  0
   11.7910   -2.5420  -57.0040 C   0  0  0  0  0  0  0  0  0  0  0  0
    8.6830   -0.7660  -54.6000 C   0  0  0  0  0  0  0  0  0  0  0  0
    8.1610   -1.7770  -53.6840 C   0  0  0  0  0  0  0  0  0  0  0  0
    7.6050   -2.9600  -54.1820 C   0  0  0  0  0  0  0  0  0  0  0  0
    7.1060   -3.9280  -53.3100 C   0  0  0  0  0  0  0  0  0  0  0  0
    7.1660   -3.7190  -51.9320 C   0  0  0  0  0  0  0  0  0  0  0  0
    7.7290   -2.5430  -51.4350 C   0  0  0  0  0  0  0  0  0  0  0  0
    7.8030   -2.2880  -49.7350 Cl  0  0  0  0  0  0  0  0  0  0  0  0
    8.2280   -1.5730  -52.3020 C   0  0  0  0  0  0  0  0  0  0  0  0
    6.4687    0.7840  -53.7728 H   0  0  0  0  0  0  0  0  0  0  0  0
    6.4275    1.7298  -55.2994 H   0  0  0  0  0  0  0  0  0  0  0  0
    5.9347    0.0024  -55.2994 H   0  0  0  0  0  0  0  0  0  0  0  0
   10.1250    3.2100  -55.6280 H   0  0  0  0  0  0  0  0  0  0  0  0
    8.6774    4.4919  -57.8596 H   0  0  0  0  0  0  0  0  0  0  0  0
    9.3871    5.2919  -56.4069 H   0  0  0  0  0  0  0  0  0  0  0  0
   12.0899    3.6404  -56.7112 H   0  0  0  0  0  0  0  0  0  0  0  0
   14.1345    4.1507  -58.0385 H   0  0  0  0  0  0  0  0  0  0  0  0
   13.9879    5.6263  -60.0427 H   0  0  0  0  0  0  0  0  0  0  0  0
   11.7922    6.5919  -60.7225 H   0  0  0  0  0  0  0  0  0  0  0  0
    9.7428    6.0893  -59.3970 H   0  0  0  0  0  0  0  0  0  0  0  0
   11.0981    0.5775  -56.4094 H   0  0  0  0  0  0  0  0  0  0  0  0
   11.9993   -1.1877  -54.6795 H   0  0  0  0  0  0  0  0  0  0  0  0
   10.7721   -2.1985  -53.7891 H   0  0  0  0  0  0  0  0  0  0  0  0
   10.1713   -4.3251  -54.5848 H   0  0  0  0  0  0  0  0  0  0  0  0
   10.3929   -6.1037  -56.3128 H   0  0  0  0  0  0  0  0  0  0  0  0
   11.5130   -5.6053  -58.4839 H   0  0  0  0  0  0  0  0  0  0  0  0
   12.4139   -3.3256  -58.9258 H   0  0  0  0  0  0  0  0  0  0  0  0
   12.1960   -1.5389  -57.2034 H   0  0  0  0  0  0  0  0  0  0  0  0
    7.5609   -3.1282  -55.2682 H   0  0  0  0  0  0  0  0  0  0  0  0
    6.6661   -4.8542  -53.7083 H   0  0  0  0  0  0  0  0  0  0  0  0
    6.7713   -4.4779  -51.2404 H   0  0  0  0  0  0  0  0  0  0  0  0
    8.6729   -0.6504  -51.9010 H   0  0  0  0  0  0  0  0  0  0  0  0
  1  2  1  0
  2  3  1  0
  3  4  1  0
  4  5  2  0
  4  6  1  0
  6  7  1  0
  7  8  1  0
  8  9  2  0
  9 10  1  0
 10 11  2  0
 11 12  1  0
 12 13  2  0
  3 14  2  0
 14 15  1  0
 15 16  1  0
 16 17  1  0
 17 18  2  0
 18 19  1  0
 19 20  2  0
 20 21  1  0
 21 22  2  0
 15 23  1  0
 23 24  1  0
 24 25  2  0
 25 26  1  0
 26 27  2  0
 27 28  1  0
 28 29  1  0
 28 30  2  0
 23  2  2  0
 30 24  1  0
 13  8  1  0
 22 17  1  0
  1 31  1  0
  1 32  1  0
  1 33  1  0
  6 34  1  0
  7 35  1  0
  7 36  1  0
  9 37  1  0
 10 38  1  0
 11 39  1  0
 12 40  1  0
 13 41  1  0
 14 42  1  0
 16 43  1  0
 16 44  1  0
 18 45  1  0
 19 46  1  0
 20 47  1  0
 21 48  1  0
 22 49  1  0
 25 50  1  0
 26 51  1  0
 27 52  1  0
 30 53  1  0
M  END
>  <meeko>  (22) 
{"is_sidechain": false}

$$$$

     RDKit          3D

 59 64  0  0  0  0  0  0  0  0999 V2000
    9.7830    2.5080  -55.4840 O   0  0  0  0  0  0  0  0  0  0  0  0
    9.4520    1.5220  -56.1340 C   0  0  0  0  0  0  0  0  0  0  0  0
    9.1570    1.5800  -57.4780 N   0  0  0  0  0  0  0  0  0  0  0  0
    9.2930    2.7720  -58.3190 C   0  0  2  0  0  0  0  0  0  0  0  0
    8.7400    4.0430  -57.6250 C   0  0  0  0  0  0  0  0  0  0  0  0
    8.8510    5.2620  -58.5570 C   0  0  1  0  0  0  0  0  0  0  0  0
   10.3270    5.4770  -58.9350 C   0  0  0  0  0  0  0  0  0  0  0  0
   10.8750    4.2350  -59.6600 C   0  0  2  0  0  0  0  0  0  0  0  0
   10.0430    3.9820  -60.9280 C   0  0  0  0  0  0  0  0  0  0  0  0
    8.5690    3.7590  -60.5540 C   0  0  2  0  0  0  0  0  0  0  0  0
    8.0340    5.0040  -59.8320 C   0  0  0  0  0  0  0  0  0  0  0  0
    8.4650    2.5470  -59.6150 C   0  0  0  0  0  0  0  0  0  0  0  0
   10.7660    3.0150  -58.7290 C   0  0  0  0  0  0  0  0  0  0  0  0
    9.3670    0.1480  -55.5160 C   0  0  0  0  0  0  0  0  0  0  0  0
   10.5840   -0.7410  -55.5290 C   0  0  0  0  0  0  0  0  0  0  0  0
   11.6110   -0.3730  -56.1070 O   0  0  0  0  0  0  0  0  0  0  0  0
   10.4910   -1.9730  -54.8950 N   0  0  0  0  0  0  0  0  0  0  0  0
   11.6710   -2.8420  -54.8500 C   0  0  0  0  0  0  0  0  0  0  0  0
   11.7250   -3.8040  -56.0150 C   0  0  0  0  0  0  0  0  0  0  0  0
   11.7150   -5.1900  -55.8000 C   0  0  0  0  0  0  0  0  0  0  0  0
   11.7760   -6.0740  -56.8790 C   0  0  0  0  0  0  0  0  0  0  0  0
   11.8490   -5.5820  -58.1820 C   0  0  0  0  0  0  0  0  0  0  0  0
   11.8610   -4.2070  -58.4070 C   0  0  0  0  0  0  0  0  0  0  0  0
   11.7990   -3.3220  -57.3300 C   0  0  0  0  0  0  0  0  0  0  0  0
    9.3290   -2.3950  -54.2860 C   0  0  0  0  0  0  0  0  0  0  0  0
    8.2190   -1.6450  -54.2900 C   0  0  0  0  0  0  0  0  0  0  0  0
    7.0060   -2.1280  -53.6340 C   0  0  0  0  0  0  0  0  0  0  0  0
    5.8890   -1.3820  -53.6570 C   0  0  0  0  0  0  0  0  0  0  0  0
    5.8550   -0.1000  -54.3320 C   0  0  0  0  0  0  0  0  0  0  0  0
    6.9410    0.4120  -54.9400 C   0  0  0  0  0  0  0  0  0  0  0  0
    8.2250   -0.3140  -54.9450 C   0  0  0  0  0  0  0  0  0  0  0  0
    9.1770    0.6840  -57.9650 H   0  0  0  0  0  0  0  0  0  0  0  0
    7.6834    3.8820  -57.3651 H   0  0  0  0  0  0  0  0  0  0  0  0
    9.3306    4.2362  -56.7173 H   0  0  0  0  0  0  0  0  0  0  0  0
    8.4642    6.1556  -58.0453 H   0  0  0  0  0  0  0  0  0  0  0  0
   10.4089    6.3508  -59.5982 H   0  0  0  0  0  0  0  0  0  0  0  0
   10.9118    5.6456  -58.0187 H   0  0  0  0  0  0  0  0  0  0  0  0
   11.9278    4.3987  -59.9335 H   0  0  0  0  0  0  0  0  0  0  0  0
   10.1217    4.8531  -61.5951 H   0  0  0  0  0  0  0  0  0  0  0  0
   10.4256    3.0856  -61.4379 H   0  0  0  0  0  0  0  0  0  0  0  0
    7.9791    3.5773  -61.4645 H   0  0  0  0  0  0  0  0  0  0  0  0
    8.1146    5.8750  -60.4990 H   0  0  0  0  0  0  0  0  0  0  0  0
    6.9810    4.8396  -59.5597 H   0  0  0  0  0  0  0  0  0  0  0  0
    7.4101    2.3909  -59.3451 H   0  0  0  0  0  0  0  0  0  0  0  0
    8.8646    1.6649  -60.1367 H   0  0  0  0  0  0  0  0  0  0  0  0
   11.1469    2.1257  -59.2525 H   0  0  0  0  0  0  0  0  0  0  0  0
   11.3593    3.2065  -57.8227 H   0  0  0  0  0  0  0  0  0  0  0  0
   12.5734   -2.2132  -54.8694 H   0  0  0  0  0  0  0  0  0  0  0  0
   11.6133   -3.4373  -53.9268 H   0  0  0  0  0  0  0  0  0  0  0  0
   11.6587   -5.5832  -54.7742 H   0  0  0  0  0  0  0  0  0  0  0  0
   11.7665   -7.1595  -56.7012 H   0  0  0  0  0  0  0  0  0  0  0  0
   11.8971   -6.2791  -59.0316 H   0  0  0  0  0  0  0  0  0  0  0  0
   11.9194   -3.8188  -59.4346 H   0  0  0  0  0  0  0  0  0  0  0  0
   11.8082   -2.2375  -57.5138 H   0  0  0  0  0  0  0  0  0  0  0  0
    9.3125   -3.3733  -53.7834 H   0  0  0  0  0  0  0  0  0  0  0  0
    7.0074   -3.1015  -53.1218 H   0  0  0  0  0  0  0  0  0  0  0  0
    4.9831   -1.7512  -53.1540 H   0  0  0  0  0  0  0  0  0  0  0  0
    4.9148    0.4708  -54.3478 H   0  0  0  0  0  0  0  0  0  0  0  0
    6.8699    1.3884  -55.4417 H   0  0  0  0  0  0  0  0  0  0  0  0
  1  2  2  0
  2  3  1  0
  4  3  1  1
  4  5  1  0
  5  6  1  0
  6  7  1  0
  7  8  1  0
  8  9  1  0
  9 10  1  0
 10 11  1  0
 10 12  1  0
  8 13  1  0
  2 14  1  0
 14 15  1  0
 15 16  2  0
 15 17  1  0
 17 18  1  0
 18 19  1  0
 19 20  2  0
 20 21  1  0
 21 22  2  0
 22 23  1  0
 23 24  2  0
 17 25  1  0
 25 26  2  0
 26 27  1  0
 27 28  2  0
 28 29  1  0
 29 30  2  0
 30 31  1  0
 12  4  1  0
 31 14  2  0
 13  4  1  0
 24 19  1  0
 31 26  1  0
 11  6  1  0
  3 32  1  0
  5 33  1  0
  5 34  1  0
  6 35  1  1
  7 36  1  0
  7 37  1  0
  8 38  1  6
  9 39  1  0
  9 40  1  0
 10 41  1  6
 11 42  1  0
 11 43  1  0
 12 44  1  0
 12 45  1  0
 13 46  1  0
 13 47  1  0
 18 48  1  0
 18 49  1  0
 20 50  1  0
 21 51  1  0
 22 52  1  0
 23 53  1  0
 24 54  1  0
 25 55  1  0
 27 56  1  0
 28 57  1  0
 29 58  1  0
 30 59  1  0
M  END
>  <meeko>  (23) 
{"is_sidechain": false}

$$$$

     RDKit          3D

 57 62  0  0  0  0  0  0  0  0999 V2000
    9.6790    2.6130  -55.5700 O   0  0  0  0  0  0  0  0  0  0  0  0
    9.6490    1.5780  -56.2300 C   0  0  0  0  0  0  0  0  0  0  0  0
    9.5550    1.5710  -57.6130 N   0  0  0  0  0  0  0  0  0  0  0  0
    9.4130    2.7720  -58.4430 C   0  0  2  0  0  0  0  0  0  0  0  0
    8.0480    3.4660  -58.2160 C   0  0  0  0  0  0  0  0  0  0  0  0
    7.9010    4.6880  -59.1400 C   0  0  1  0  0  0  0  0  0  0  0  0
    9.0420    5.6810  -58.8560 C   0  0  0  0  0  0  0  0  0  0  0  0
   10.4030    5.0130  -59.1170 C   0  0  2  0  0  0  0  0  0  0  0  0
   10.4700    4.5520  -60.5810 C   0  0  0  0  0  0  0  0  0  0  0  0
    9.3390    3.5540  -60.8680 C   0  0  2  0  0  0  0  0  0  0  0  0
    7.9840    4.2290  -60.6060 C   0  0  0  0  0  0  0  0  0  0  0  0
    9.4880    2.3420  -59.9340 C   0  0  0  0  0  0  0  0  0  0  0  0
   10.5530    3.7920  -58.1920 C   0  0  0  0  0  0  0  0  0  0  0  0
    9.6930    0.2340  -55.6110 C   0  0  0  0  0  0  0  0  0  0  0  0
    8.9050   -0.2760  -54.5540 C   0  0  0  0  0  0  0  0  0  0  0  0
    9.3480   -1.5650  -54.3180 C   0  0  0  0  0  0  0  0  0  0  0  0
    8.9390   -2.4370  -53.2220 C   0  0  0  0  0  0  0  0  0  0  0  0
    7.8120   -3.2570  -53.3580 C   0  0  0  0  0  0  0  0  0  0  0  0
    7.4050   -4.0760  -52.3030 C   0  0  0  0  0  0  0  0  0  0  0  0
    8.1160   -4.0730  -51.1040 C   0  0  0  0  0  0  0  0  0  0  0  0
    9.2300   -3.2490  -50.9550 C   0  0  0  0  0  0  0  0  0  0  0  0
    9.6390   -2.4290  -52.0090 C   0  0  0  0  0  0  0  0  0  0  0  0
   10.3070   -1.8190  -55.3000 N   0  0  0  0  0  0  0  0  0  0  0  0
   11.0000   -3.0240  -55.6440 C   0  0  0  0  0  0  0  0  0  0  0  0
   11.1660   -3.3450  -57.0050 C   0  0  0  0  0  0  0  0  0  0  0  0
   11.8340   -4.5100  -57.3880 C   0  0  0  0  0  0  0  0  0  0  0  0
   12.3370   -5.3750  -56.4220 C   0  0  0  0  0  0  0  0  0  0  0  0
   12.1610   -5.0800  -55.0720 C   0  0  0  0  0  0  0  0  0  0  0  0
   11.4920   -3.9140  -54.6810 C   0  0  0  0  0  0  0  0  0  0  0  0
   10.5690   -0.6930  -56.0190 N   0  0  0  0  0  0  0  0  0  0  0  0
    9.3170    0.6910  -58.0470 H   0  0  0  0  0  0  0  0  0  0  0  0
    7.2393    2.7517  -58.4300 H   0  0  0  0  0  0  0  0  0  0  0  0
    7.9913    3.8032  -57.1705 H   0  0  0  0  0  0  0  0  0  0  0  0
    6.9316    5.1746  -58.9572 H   0  0  0  0  0  0  0  0  0  0  0  0
    8.9345    6.5562  -59.5136 H   0  0  0  0  0  0  0  0  0  0  0  0
    8.9916    5.9949  -57.8029 H   0  0  0  0  0  0  0  0  0  0  0  0
   11.2127    5.7307  -58.9185 H   0  0  0  0  0  0  0  0  0  0  0  0
   10.3634    5.4240  -61.2430 H   0  0  0  0  0  0  0  0  0  0  0  0
   11.4385    4.0630  -60.7623 H   0  0  0  0  0  0  0  0  0  0  0  0
    9.3917    3.2268  -61.9169 H   0  0  0  0  0  0  0  0  0  0  0  0
    7.8773    5.1013  -61.2676 H   0  0  0  0  0  0  0  0  0  0  0  0
    7.1767    3.5090  -60.8058 H   0  0  0  0  0  0  0  0  0  0  0  0
    8.6792    1.6262  -60.1425 H   0  0  0  0  0  0  0  0  0  0  0  0
   10.4697    1.8799  -60.1153 H   0  0  0  0  0  0  0  0  0  0  0  0
   11.5209    3.3073  -58.3877 H   0  0  0  0  0  0  0  0  0  0  0  0
   10.5007    4.1312  -57.1469 H   0  0  0  0  0  0  0  0  0  0  0  0
    8.0975    0.2494  -54.0230 H   0  0  0  0  0  0  0  0  0  0  0  0
    7.2447   -3.2559  -54.3004 H   0  0  0  0  0  0  0  0  0  0  0  0
    6.5233   -4.7236  -52.4180 H   0  0  0  0  0  0  0  0  0  0  0  0
    7.7975   -4.7216  -50.2747 H   0  0  0  0  0  0  0  0  0  0  0  0
    9.7875   -3.2444  -50.0067 H   0  0  0  0  0  0  0  0  0  0  0  0
   10.5144   -1.7743  -51.8859 H   0  0  0  0  0  0  0  0  0  0  0  0
   10.7648   -2.6702  -57.7755 H   0  0  0  0  0  0  0  0  0  0  0  0
   11.9625   -4.7439  -58.4551 H   0  0  0  0  0  0  0  0  0  0  0  0
   12.8715   -6.2882  -56.7227 H   0  0  0  0  0  0  0  0  0  0  0  0
   12.5506   -5.7683  -54.3075 H   0  0  0  0  0  0  0  0  0  0  0  0
   11.3521   -3.6958  -53.6120 H   0  0  0  0  0  0  0  0  0  0  0  0
  1  2  2  0
  2  3  1  0
  4  3  1  1
  4  5  1  0
  5  6  1  0
  6  7  1  0
  7  8  1  0
  8  9  1  0
  9 10  1  0
 10 11  1  0
 10 12  1  0
  8 13  1  0
  2 14  1  0
 14 15  1  0
 15 16  2  0
 16 17  1  0
 17 18  2  0
 18 19  1  0
 19 20  2  0
 20 21  1  0
 21 22  2  0
 16 23  1  0
 23 24  1  0
 24 25  2  0
 25 26  1  0
 26 27  2  0
 27 28  1  0
 28 29  2  0
 23 30  1  0
 12  4  1  0
 30 14  2  0
 13  4  1  0
 22 17  1  0
 29 24  1  0
 11  6  1  0
  3 31  1  0
  5 32  1  0
  5 33  1  0
  6 34  1  6
  7 35  1  0
  7 36  1  0
  8 37  1  1
  9 38  1  0
  9 39  1  0
 10 40  1  6
 11 41  1  0
 11 42  1  0
 12 43  1  0
 12 44  1  0
 13 45  1  0
 13 46  1  0
 15 47  1  0
 18 48  1  0
 19 49  1  0
 20 50  1  0
 21 51  1  0
 22 52  1  0
 25 53  1  0
 26 54  1  0
 27 55  1  0
 28 56  1  0
 29 57  1  0
M  END
>  <meeko>  (24) 
{"is_sidechain": false}

$$$$

     RDKit          3D

 66 71  0  0  0  0  0  0  0  0999 V2000
   11.9910   -0.8490  -56.1540 C   0  0  0  0  0  0  0  0  0  0  0  0
   11.5370   -2.2780  -56.2820 C   0  0  0  0  0  0  0  0  0  0  0  0
   11.8970   -2.9940  -57.4370 C   0  0  0  0  0  0  0  0  0  0  0  0
   11.5170   -4.3250  -57.6050 C   0  0  0  0  0  0  0  0  0  0  0  0
   10.7770   -4.9620  -56.6160 C   0  0  0  0  0  0  0  0  0  0  0  0
   10.4080   -4.2650  -55.4670 C   0  0  0  0  0  0  0  0  0  0  0  0
   10.7590   -2.9130  -55.2880 C   0  0  0  0  0  0  0  0  0  0  0  0
   10.3420   -2.2000  -54.0160 C   0  0  0  0  0  0  0  0  0  0  0  0
    9.2020   -1.3010  -54.2070 N   0  0  0  0  0  0  0  0  0  0  0  0
    9.2680   -0.3580  -55.1730 N   0  0  0  0  0  0  0  0  0  0  0  0
    8.0720    0.2630  -55.1170 C   0  0  0  0  0  0  0  0  0  0  0  0
    7.7570    1.3880  -56.0230 C   0  0  0  0  0  0  0  0  0  0  0  0
    6.6380    1.8780  -56.1170 O   0  0  0  0  0  0  0  0  0  0  0  0
    8.8570    1.8120  -56.7380 N   0  0  0  0  0  0  0  0  0  0  0  0
    8.8870    2.8900  -57.7200 C   0  0  2  0  0  0  0  0  0  0  0  0
    8.7690    4.2800  -57.0450 C   0  0  0  0  0  0  0  0  0  0  0  0
    8.8510    5.4000  -58.0960 C   0  0  1  0  0  0  0  0  0  0  0  0
   10.2010    5.3150  -58.8260 C   0  0  0  0  0  0  0  0  0  0  0  0
   10.3360    3.9520  -59.5220 C   0  0  2  0  0  0  0  0  0  0  0  0
    9.1940    3.7830  -60.5370 C   0  0  0  0  0  0  0  0  0  0  0  0
    7.8380    3.8600  -59.8180 C   0  0  2  0  0  0  0  0  0  0  0  0
    7.7120    5.2230  -59.1160 C   0  0  0  0  0  0  0  0  0  0  0  0
    7.7560    2.7390  -58.7660 C   0  0  0  0  0  0  0  0  0  0  0  0
   10.2440    2.8360  -58.4700 C   0  0  0  0  0  0  0  0  0  0  0  0
    7.2360   -0.3140  -54.1150 C   0  0  0  0  0  0  0  0  0  0  0  0
    5.8530    0.1010  -53.7650 C   0  0  0  0  0  0  0  0  0  0  0  0
    7.9930   -1.3310  -53.5520 C   0  0  0  0  0  0  0  0  0  0  0  0
    7.6550   -2.2720  -52.4920 C   0  0  0  0  0  0  0  0  0  0  0  0
    7.0760   -3.5080  -52.8010 C   0  0  0  0  0  0  0  0  0  0  0  0
    6.7530   -4.4070  -51.7830 C   0  0  0  0  0  0  0  0  0  0  0  0
    7.0120   -4.0780  -50.4540 C   0  0  0  0  0  0  0  0  0  0  0  0
    7.5980   -2.8520  -50.1400 C   0  0  0  0  0  0  0  0  0  0  0  0
    7.9210   -1.9510  -51.1570 C   0  0  0  0  0  0  0  0  0  0  0  0
   12.0749   -0.5849  -55.0895 H   0  0  0  0  0  0  0  0  0  0  0  0
   12.9710   -0.7307  -56.6395 H   0  0  0  0  0  0  0  0  0  0  0  0
   11.2590   -0.1868  -56.6395 H   0  0  0  0  0  0  0  0  0  0  0  0
   12.4876   -2.4965  -58.2204 H   0  0  0  0  0  0  0  0  0  0  0  0
   11.8020   -4.8692  -58.5175 H   0  0  0  0  0  0  0  0  0  0  0  0
   10.4830   -6.0147  -56.7399 H   0  0  0  0  0  0  0  0  0  0  0  0
    9.8315   -4.7808  -54.6849 H   0  0  0  0  0  0  0  0  0  0  0  0
   10.0694   -2.9558  -53.2646 H   0  0  0  0  0  0  0  0  0  0  0  0
   11.1938   -1.5841  -53.6917 H   0  0  0  0  0  0  0  0  0  0  0  0
    9.7020    1.2810  -56.5370 H   0  0  0  0  0  0  0  0  0  0  0  0
    7.8046    4.3465  -56.5201 H   0  0  0  0  0  0  0  0  0  0  0  0
    9.5985    4.4003  -56.3326 H   0  0  0  0  0  0  0  0  0  0  0  0
    8.7585    6.3782  -57.6014 H   0  0  0  0  0  0  0  0  0  0  0  0
   10.2597    6.1156  -59.5780 H   0  0  0  0  0  0  0  0  0  0  0  0
   11.0150    5.4299  -58.0951 H   0  0  0  0  0  0  0  0  0  0  0  0
   11.3043    3.8967  -60.0410 H   0  0  0  0  0  0  0  0  0  0  0  0
    9.2536    4.5832  -61.2894 H   0  0  0  0  0  0  0  0  0  0  0  0
    9.2882    2.8029  -61.0275 H   0  0  0  0  0  0  0  0  0  0  0  0
    7.0247    3.7427  -60.5493 H   0  0  0  0  0  0  0  0  0  0  0  0
    7.7678    6.0253  -59.8665 H   0  0  0  0  0  0  0  0  0  0  0  0
    6.7471    5.2691  -58.5898 H   0  0  0  0  0  0  0  0  0  0  0  0
    6.7827    2.7920  -58.2563 H   0  0  0  0  0  0  0  0  0  0  0  0
    7.8680    1.7688  -59.2720 H   0  0  0  0  0  0  0  0  0  0  0  0
   10.3400    1.8611  -58.9703 H   0  0  0  0  0  0  0  0  0  0  0  0
   11.0543    2.9753  -57.7392 H   0  0  0  0  0  0  0  0  0  0  0  0
    5.7457    0.1332  -52.6707 H   0  0  0  0  0  0  0  0  0  0  0  0
    5.6528    1.0988  -54.1826 H   0  0  0  0  0  0  0  0  0  0  0  0
    5.1365   -0.6217  -54.1826 H   0  0  0  0  0  0  0  0  0  0  0  0
    6.8747   -3.7721  -53.8497 H   0  0  0  0  0  0  0  0  0  0  0  0
    6.2938   -5.3755  -52.0301 H   0  0  0  0  0  0  0  0  0  0  0  0
    6.7542   -4.7855  -49.6522 H   0  0  0  0  0  0  0  0  0  0  0  0
    7.8059   -2.5946  -49.0909 H   0  0  0  0  0  0  0  0  0  0  0  0
    8.3860   -0.9859  -50.9073 H   0  0  0  0  0  0  0  0  0  0  0  0
  1  2  1  0
  2  3  2  0
  3  4  1  0
  4  5  2  0
  5  6  1  0
  6  7  2  0
  7  8  1  0
  8  9  1  0
  9 10  1  0
 10 11  2  0
 11 12  1  0
 12 13  2  0
 12 14  1  0
 15 14  1  1
 15 16  1  0
 16 17  1  0
 17 18  1  0
 18 19  1  0
 19 20  1  0
 20 21  1  0
 21 22  1  0
 21 23  1  0
 19 24  1  0
 11 25  1  0
 25 26  1  0
 25 27  2  0
 27 28  1  0
 28 29  2  0
 29 30  1  0
 30 31  2  0
 31 32  1  0
 32 33  2  0
  7  2  1  0
 27  9  1  0
 33 28  1  0
 23 15  1  0
 24 15  1  0
 22 17  1  0
  1 34  1  0
  1 35  1  0
  1 36  1  0
  3 37  1  0
  4 38  1  0
  5 39  1  0
  6 40  1  0
  8 41  1  0
  8 42  1  0
 14 43  1  0
 16 44  1  0
 16 45  1  0
 17 46  1  1
 18 47  1  0
 18 48  1  0
 19 49  1  6
 20 50  1  0
 20 51  1  0
 21 52  1  6
 22 53  1  0
 22 54  1  0
 23 55  1  0
 23 56  1  0
 24 57  1  0
 24 58  1  0
 26 59  1  0
 26 60  1  0
 26 61  1  0
 29 62  1  0
 30 63  1  0
 31 64  1  0
 32 65  1  0
 33 66  1  0
M  END
>  <meeko>  (25) 
{"is_sidechain": false}

$$$$

     RDKit          3D

 63 67  0  0  0  0  0  0  0  0999 V2000
    8.4320   -3.2270  -52.7180 C   0  0  0  0  0  0  0  0  0  0  0  0
    9.3840   -2.1760  -52.7600 O   0  0  0  0  0  0  0  0  0  0  0  0
    9.3160   -1.3210  -53.7870 C   0  0  0  0  0  0  0  0  0  0  0  0
    8.4800   -0.2790  -54.1670 C   0  0  0  0  0  0  0  0  0  0  0  0
    7.2590    0.2310  -53.4900 C   0  0  0  0  0  0  0  0  0  0  0  0
    9.0530    0.2280  -55.3820 C   0  0  0  0  0  0  0  0  0  0  0  0
    8.6120    1.3760  -56.2040 C   0  0  0  0  0  0  0  0  0  0  0  0
    7.4980    1.8790  -56.1190 O   0  0  0  0  0  0  0  0  0  0  0  0
    9.5990    1.8180  -57.0590 N   0  0  0  0  0  0  0  0  0  0  0  0
    9.5140    2.9610  -57.9620 C   0  0  2  0  0  0  0  0  0  0  0  0
    8.3870    2.7820  -59.0080 C   0  0  0  0  0  0  0  0  0  0  0  0
    8.3510    3.9790  -59.9750 C   0  0  1  0  0  0  0  0  0  0  0  0
    8.1130    5.2700  -59.1740 C   0  0  0  0  0  0  0  0  0  0  0  0
    9.2450    5.4780  -58.1530 C   0  0  2  0  0  0  0  0  0  0  0  0
   10.5870    5.5700  -58.8980 C   0  0  0  0  0  0  0  0  0  0  0  0
   10.8350    4.2780  -59.6940 C   0  0  2  0  0  0  0  0  0  0  0  0
    9.6980    4.0800  -60.7090 C   0  0  0  0  0  0  0  0  0  0  0  0
   10.8600    3.0860  -58.7250 C   0  0  0  0  0  0  0  0  0  0  0  0
    9.2810    4.2810  -57.1870 C   0  0  0  0  0  0  0  0  0  0  0  0
   10.1310   -0.4930  -55.7520 N   0  0  0  0  0  0  0  0  0  0  0  0
   10.2590   -1.4120  -54.7810 N   0  0  0  0  0  0  0  0  0  0  0  0
   11.3390   -2.3820  -54.8580 C   0  0  0  0  0  0  0  0  0  0  0  0
   11.1530   -3.4270  -55.9720 C   0  0  0  0  0  0  0  0  0  0  0  0
   11.9650   -3.0120  -57.2100 C   0  0  0  0  0  0  0  0  0  0  0  0
   11.8530   -4.0370  -58.3360 C   0  0  0  0  0  0  0  0  0  0  0  0
   12.2550   -5.4310  -57.8680 C   0  0  0  0  0  0  0  0  0  0  0  0
   11.4550   -5.8590  -56.6430 C   0  0  0  0  0  0  0  0  0  0  0  0
   11.5620   -4.8380  -55.5110 C   0  0  0  0  0  0  0  0  0  0  0  0
    8.2066   -3.4759  -51.6705 H   0  0  0  0  0  0  0  0  0  0  0  0
    7.5100   -2.9071  -53.2255 H   0  0  0  0  0  0  0  0  0  0  0  0
    8.8413   -4.1130  -53.2255 H   0  0  0  0  0  0  0  0  0  0  0  0
    7.3937    0.1747  -52.3997 H   0  0  0  0  0  0  0  0  0  0  0  0
    7.0860    1.2766  -53.7846 H   0  0  0  0  0  0  0  0  0  0  0  0
    6.3937   -0.3809  -53.7846 H   0  0  0  0  0  0  0  0  0  0  0  0
   10.4760    1.3110  -56.9590 H   0  0  0  0  0  0  0  0  0  0  0  0
    8.5679    1.8602  -59.5803 H   0  0  0  0  0  0  0  0  0  0  0  0
    7.4222    2.7207  -58.4832 H   0  0  0  0  0  0  0  0  0  0  0  0
    7.5406    3.8402  -60.7058 H   0  0  0  0  0  0  0  0  0  0  0  0
    8.0845    6.1259  -59.8644 H   0  0  0  0  0  0  0  0  0  0  0  0
    7.1562    5.1883  -58.6375 H   0  0  0  0  0  0  0  0  0  0  0  0
    9.0707    6.4053  -57.5876 H   0  0  0  0  0  0  0  0  0  0  0  0
   10.5621    6.4251  -59.5896 H   0  0  0  0  0  0  0  0  0  0  0  0
   11.3978    5.7056  -58.1670 H   0  0  0  0  0  0  0  0  0  0  0  0
   11.7963    4.3480  -60.2242 H   0  0  0  0  0  0  0  0  0  0  0  0
    9.6733    4.9355  -61.4000 H   0  0  0  0  0  0  0  0  0  0  0  0
    9.8735    3.1514  -61.2719 H   0  0  0  0  0  0  0  0  0  0  0  0
   11.0372    2.1623  -59.2955 H   0  0  0  0  0  0  0  0  0  0  0  0
   11.6645    3.2468  -57.9923 H   0  0  0  0  0  0  0  0  0  0  0  0
   10.0975    4.4245  -56.4640 H   0  0  0  0  0  0  0  0  0  0  0  0
    8.3154    4.2189  -56.6637 H   0  0  0  0  0  0  0  0  0  0  0  0
   12.2790   -1.8413  -55.0424 H   0  0  0  0  0  0  0  0  0  0  0  0
   11.3495   -2.9281  -53.9032 H   0  0  0  0  0  0  0  0  0  0  0  0
   10.0837   -3.4652  -56.2272 H   0  0  0  0  0  0  0  0  0  0  0  0
   11.5901   -2.0435  -57.5725 H   0  0  0  0  0  0  0  0  0  0  0  0
   13.0228   -2.9438  -56.9159 H   0  0  0  0  0  0  0  0  0  0  0  0
   10.8120   -4.0658  -58.6903 H   0  0  0  0  0  0  0  0  0  0  0  0
   12.5350   -3.7356  -59.1447 H   0  0  0  0  0  0  0  0  0  0  0  0
   12.0736   -6.1480  -58.6823 H   0  0  0  0  0  0  0  0  0  0  0  0
   13.3206   -5.4107  -57.5957 H   0  0  0  0  0  0  0  0  0  0  0  0
   10.3978   -5.9659  -56.9275 H   0  0  0  0  0  0  0  0  0  0  0  0
   11.8656   -6.8138  -56.2826 H   0  0  0  0  0  0  0  0  0  0  0  0
   10.9019   -5.1488  -54.6878 H   0  0  0  0  0  0  0  0  0  0  0  0
   12.6115   -4.7996  -55.1837 H   0  0  0  0  0  0  0  0  0  0  0  0
  1  2  1  0
  2  3  1  0
  3  4  2  0
  4  5  1  0
  4  6  1  0
  6  7  1  0
  7  8  2  0
  7  9  1  0
 10  9  1  1
 10 11  1  0
 11 12  1  0
 12 13  1  0
 13 14  1  0
 14 15  1  0
 15 16  1  0
 16 17  1  0
 16 18  1  0
 14 19  1  0
  6 20  2  0
 20 21  1  0
 21 22  1  0
 22 23  1  0
 23 24  1  0
 24 25  1  0
 25 26  1  0
 26 27  1  0
 27 28  1  0
 21  3  1  0
 28 23  1  0
 18 10  1  0
 19 10  1  0
 17 12  1  0
  1 29  1  0
  1 30  1  0
  1 31  1  0
  5 32  1  0
  5 33  1  0
  5 34  1  0
  9 35  1  0
 11 36  1  0
 11 37  1  0
 12 38  1  6
 13 39  1  0
 13 40  1  0
 14 41  1  1
 15 42  1  0
 15 43  1  0
 16 44  1  6
 17 45  1  0
 17 46  1  0
 18 47  1  0
 18 48  1  0
 19 49  1  0
 19 50  1  0
 22 51  1  0
 22 52  1  0
 23 53  1  0
 24 54  1  0
 24 55  1  0
 25 56  1  0
 25 57  1  0
 26 58  1  0
 26 59  1  0
 27 60  1  0
 27 61  1  0
 28 62  1  0
 28 63  1  0
M  END
>  <meeko>  (26) 
{"is_sidechain": false}

$$$$

     RDKit          3D

 62 67  0  0  0  0  0  0  0  0999 V2000
    5.9970   -0.1470  -53.9050 C   0  0  0  0  0  0  0  0  0  0  0  0
    7.4330   -0.4370  -54.1610 C   0  0  0  0  0  0  0  0  0  0  0  0
    8.3030    0.2170  -55.0930 C   0  0  0  0  0  0  0  0  0  0  0  0
    7.9810    1.2950  -56.0530 C   0  0  0  0  0  0  0  0  0  0  0  0
    6.8730    1.8180  -56.1210 O   0  0  0  0  0  0  0  0  0  0  0  0
    9.0560    1.6800  -56.8370 N   0  0  0  0  0  0  0  0  0  0  0  0
    9.0380    2.7930  -57.7880 C   0  0  2  0  0  0  0  0  0  0  0  0
    8.9230    4.1580  -57.0680 C   0  0  0  0  0  0  0  0  0  0  0  0
    8.9660    5.3130  -58.0860 C   0  0  1  0  0  0  0  0  0  0  0  0
   10.2990    5.2660  -58.8490 C   0  0  0  0  0  0  0  0  0  0  0  0
   10.4320    3.9280  -59.5940 C   0  0  2  0  0  0  0  0  0  0  0  0
    9.2680    3.7800  -60.5860 C   0  0  0  0  0  0  0  0  0  0  0  0
    7.9300    3.8170  -59.8320 C   0  0  2  0  0  0  0  0  0  0  0  0
    7.8050    5.1540  -59.0820 C   0  0  0  0  0  0  0  0  0  0  0  0
    7.8860    2.6610  -58.8170 C   0  0  0  0  0  0  0  0  0  0  0  0
   10.3760    2.7790  -58.5770 C   0  0  0  0  0  0  0  0  0  0  0  0
    9.5470   -0.2800  -55.0130 N   0  0  0  0  0  0  0  0  0  0  0  0
    9.4740   -1.2590  -54.0870 N   0  0  0  0  0  0  0  0  0  0  0  0
   10.6900   -1.9860  -53.7390 C   0  0  0  0  0  0  0  0  0  0  0  0
   11.1070   -2.8770  -54.8490 C   0  0  0  0  0  0  0  0  0  0  0  0
   11.1900   -2.6280  -56.2030 C   0  0  0  0  0  0  0  0  0  0  0  0
   11.6270   -3.8020  -56.7280 N   0  0  0  0  0  0  0  0  0  0  0  0
   11.8840   -4.1210  -58.1070 C   0  0  0  0  0  0  0  0  0  0  0  0
   11.8170   -4.7270  -55.7740 N   0  0  0  0  0  0  0  0  0  0  0  0
   11.5090   -4.1680  -54.6110 N   0  0  0  0  0  0  0  0  0  0  0  0
    8.2210   -1.3930  -53.5340 C   0  0  0  0  0  0  0  0  0  0  0  0
    7.8840   -2.3510  -52.4870 C   0  0  0  0  0  0  0  0  0  0  0  0
    8.0960   -2.0350  -51.1400 C   0  0  0  0  0  0  0  0  0  0  0  0
    7.7610   -2.9530  -50.1420 C   0  0  0  0  0  0  0  0  0  0  0  0
    7.2210   -4.1910  -50.4830 C   0  0  0  0  0  0  0  0  0  0  0  0
    7.0130   -4.5140  -51.8230 C   0  0  0  0  0  0  0  0  0  0  0  0
    7.3430   -3.5970  -52.8220 C   0  0  0  0  0  0  0  0  0  0  0  0
    5.8179   -0.1108  -52.8203 H   0  0  0  0  0  0  0  0  0  0  0  0
    5.7332    0.8225  -54.3527 H   0  0  0  0  0  0  0  0  0  0  0  0
    5.3777   -0.9382  -54.3527 H   0  0  0  0  0  0  0  0  0  0  0  0
    9.9610    1.3680  -56.5120 H   0  0  0  0  0  0  0  0  0  0  0  0
    7.9718    4.1970  -56.5169 H   0  0  0  0  0  0  0  0  0  0  0  0
    9.7696    4.2653  -56.3739 H   0  0  0  0  0  0  0  0  0  0  0  0
    8.8739    6.2748  -57.5602 H   0  0  0  0  0  0  0  0  0  0  0  0
   10.3325    6.0919  -59.5748 H   0  0  0  0  0  0  0  0  0  0  0  0
   11.1283    5.3644  -58.1330 H   0  0  0  0  0  0  0  0  0  0  0  0
   11.3876    3.9000  -60.1381 H   0  0  0  0  0  0  0  0  0  0  0  0
    9.3004    4.6057  -61.3120 H   0  0  0  0  0  0  0  0  0  0  0  0
    9.3607    2.8183  -61.1119 H   0  0  0  0  0  0  0  0  0  0  0  0
    7.1006    3.7145  -60.5473 H   0  0  0  0  0  0  0  0  0  0  0  0
    7.8316    5.9812  -59.8065 H   0  0  0  0  0  0  0  0  0  0  0  0
    6.8534    5.1693  -58.5304 H   0  0  0  0  0  0  0  0  0  0  0  0
    6.9229    2.6828  -58.2860 H   0  0  0  0  0  0  0  0  0  0  0  0
    8.0013    1.7101  -59.3579 H   0  0  0  0  0  0  0  0  0  0  0  0
   10.4676    1.8219  -59.1114 H   0  0  0  0  0  0  0  0  0  0  0  0
   11.2032    2.9048  -57.8629 H   0  0  0  0  0  0  0  0  0  0  0  0
   11.4949   -1.2650  -53.5335 H   0  0  0  0  0  0  0  0  0  0  0  0
   10.4905   -2.6011  -52.8491 H   0  0  0  0  0  0  0  0  0  0  0  0
   10.9562   -1.6940  -56.7350 H   0  0  0  0  0  0  0  0  0  0  0  0
   12.5732   -4.9765  -58.1632 H   0  0  0  0  0  0  0  0  0  0  0  0
   10.9382   -4.3787  -58.6061 H   0  0  0  0  0  0  0  0  0  0  0  0
   12.3371   -3.2518  -58.6061 H   0  0  0  0  0  0  0  0  0  0  0  0
    8.5277   -1.0609  -50.8666 H   0  0  0  0  0  0  0  0  0  0  0  0
    7.9239   -2.6978  -49.0845 H   0  0  0  0  0  0  0  0  0  0  0  0
    6.9590   -4.9130  -49.6956 H   0  0  0  0  0  0  0  0  0  0  0  0
    6.5885   -5.4922  -52.0932 H   0  0  0  0  0  0  0  0  0  0  0  0
    7.1769   -3.8552  -53.8783 H   0  0  0  0  0  0  0  0  0  0  0  0
  1  2  1  0
  2  3  1  0
  3  4  1  0
  4  5  2  0
  4  6  1  0
  7  6  1  1
  7  8  1  0
  8  9  1  0
  9 10  1  0
 10 11  1  0
 11 12  1  0
 12 13  1  0
 13 14  1  0
 13 15  1  0
 11 16  1  0
  3 17  2  0
 17 18  1  0
 18 19  1  0
 19 20  1  0
 20 21  2  0
 21 22  1  0
 22 23  1  0
 22 24  1  0
 24 25  2  0
 18 26  1  0
 26 27  1  0
 27 28  2  0
 28 29  1  0
 29 30  2  0
 30 31  1  0
 31 32  2  0
 26  2  2  0
 32 27  1  0
 15  7  1  0
 25 20  1  0
 16  7  1  0
 14  9  1  0
  1 33  1  0
  1 34  1  0
  1 35  1  0
  6 36  1  0
  8 37  1  0
  8 38  1  0
  9 39  1  1
 10 40  1  0
 10 41  1  0
 11 42  1  6
 12 43  1  0
 12 44  1  0
 13 45  1  6
 14 46  1  0
 14 47  1  0
 15 48  1  0
 15 49  1  0
 16 50  1  0
 16 51  1  0
 19 52  1  0
 19 53  1  0
 21 54  1  0
 23 55  1  0
 23 56  1  0
 23 57  1  0
 28 58  1  0
 29 59  1  0
 30 60  1  0
 31 61  1  0
 32 62  1  0
M  END
>  <meeko>  (27) 
{"is_sidechain": false}

$$$$

     RDKit          3D

 48 52  0  0  0  0  0  0  0  0999 V2000
    7.9120    1.0500  -55.5620 O   0  0  0  0  0  0  0  0  0  0  0  0
    9.0600    0.6470  -55.7100 C   0  0  0  0  0  0  0  0  0  0  0  0
   10.0130    1.2450  -56.5070 N   0  0  0  0  0  0  0  0  0  0  0  0
    9.8270    2.4550  -57.3060 C   0  0  2  0  0  0  0  0  0  0  0  0
    9.5320    3.6870  -56.4160 C   0  0  0  0  0  0  0  0  0  0  0  0
    9.3870    4.9540  -57.2780 C   0  0  1  0  0  0  0  0  0  0  0  0
   10.6970    5.1980  -58.0450 C   0  0  0  0  0  0  0  0  0  0  0  0
   11.0040    3.9980  -58.9540 C   0  0  2  0  0  0  0  0  0  0  0  0
    9.8520    3.8070  -59.9530 C   0  0  0  0  0  0  0  0  0  0  0  0
    8.5380    3.5540  -59.1960 C   0  0  2  0  0  0  0  0  0  0  0  0
    8.2400    4.7560  -58.2830 C   0  0  0  0  0  0  0  0  0  0  0  0
    8.6810    2.2870  -58.3350 C   0  0  0  0  0  0  0  0  0  0  0  0
   11.1370    2.7330  -58.0900 C   0  0  0  0  0  0  0  0  0  0  0  0
    9.5370   -0.5850  -55.0050 C   0  0  0  0  0  0  0  0  0  0  0  0
   10.7570   -1.1270  -55.3400 C   0  0  0  0  0  0  0  0  0  0  0  0
   11.1010   -2.2510  -54.6370 C   0  0  0  0  0  0  0  0  0  0  0  0
   10.3200   -2.8000  -53.6880 N   0  0  0  0  0  0  0  0  0  0  0  0
    9.1420   -2.1960  -53.4310 C   0  0  0  0  0  0  0  0  0  0  0  0
    8.2750   -2.7870  -52.3910 C   0  0  0  0  0  0  0  0  0  0  0  0
    8.4850   -2.5250  -51.0210 C   0  0  0  0  0  0  0  0  0  0  0  0
    7.6680   -3.0820  -50.0300 C   0  0  0  0  0  0  0  0  0  0  0  0
    6.6170   -3.9180  -50.3890 C   0  0  0  0  0  0  0  0  0  0  0  0
    6.3950   -4.1880  -51.7320 C   0  0  0  0  0  0  0  0  0  0  0  0
    5.3830   -4.9930  -52.0840 F   0  0  0  0  0  0  0  0  0  0  0  0
    7.2040   -3.6370  -52.7230 C   0  0  0  0  0  0  0  0  0  0  0  0
    8.7070   -1.0910  -54.0590 N   0  0  0  0  0  0  0  0  0  0  0  0
   10.9170    0.7790  -56.5170 H   0  0  0  0  0  0  0  0  0  0  0  0
    8.5970    3.5175  -55.8619 H   0  0  0  0  0  0  0  0  0  0  0  0
   10.3684    3.8277  -55.7156 H   0  0  0  0  0  0  0  0  0  0  0  0
    9.1688    5.8178  -56.6329 H   0  0  0  0  0  0  0  0  0  0  0  0
   10.5959    6.1045  -58.6599 H   0  0  0  0  0  0  0  0  0  0  0  0
   11.5189    5.3258  -57.3252 H   0  0  0  0  0  0  0  0  0  0  0  0
   11.9413    4.1782  -59.5008 H   0  0  0  0  0  0  0  0  0  0  0  0
    9.7494    4.7128  -60.5687 H   0  0  0  0  0  0  0  0  0  0  0  0
   10.0710    2.9422  -60.5965 H   0  0  0  0  0  0  0  0  0  0  0  0
    7.7168    3.4208  -59.9156 H   0  0  0  0  0  0  0  0  0  0  0  0
    8.1344    5.6622  -58.8975 H   0  0  0  0  0  0  0  0  0  0  0  0
    7.3072    4.5666  -57.7317 H   0  0  0  0  0  0  0  0  0  0  0  0
    7.7376    2.1053  -57.7993 H   0  0  0  0  0  0  0  0  0  0  0  0
    8.9151    1.4360  -58.9915 H   0  0  0  0  0  0  0  0  0  0  0  0
   11.3557    1.8739  -58.7412 H   0  0  0  0  0  0  0  0  0  0  0  0
   11.9522    2.8861  -57.3675 H   0  0  0  0  0  0  0  0  0  0  0  0
   11.4063   -0.6907  -56.1134 H   0  0  0  0  0  0  0  0  0  0  0  0
   12.0659   -2.7301  -54.8595 H   0  0  0  0  0  0  0  0  0  0  0  0
    9.3132   -1.8651  -50.7232 H   0  0  0  0  0  0  0  0  0  0  0  0
    7.8573   -2.8586  -48.9697 H   0  0  0  0  0  0  0  0  0  0  0  0
    5.9691   -4.3602  -49.6178 H   0  0  0  0  0  0  0  0  0  0  0  0
    7.0029   -3.8695  -53.7792 H   0  0  0  0  0  0  0  0  0  0  0  0
  1  2  2  0
  2  3  1  0
  4  3  1  1
  4  5  1  0
  5  6  1  0
  6  7  1  0
  7  8  1  0
  8  9  1  0
  9 10  1  0
 10 11  1  0
 10 12  1  0
  8 13  1  0
  2 14  1  0
 14 15  1  0
 15 16  2  0
 16 17  1  0
 17 18  2  0
 18 19  1  0
 19 20  2  0
 20 21  1  0
 21 22  2  0
 22 23  1  0
 23 24  1  0
 23 25  2  0
 18 26  1  0
 12  4  1  0
 26 14  2  0
 13  4  1  0
 25 19  1  0
 11  6  1  0
  3 27  1  0
  5 28  1  0
  5 29  1  0
  6 30  1  1
  7 31  1  0
  7 32  1  0
  8 33  1  6
  9 34  1  0
  9 35  1  0
 10 36  1  6
 11 37  1  0
 11 38  1  0
 12 39  1  0
 12 40  1  0
 13 41  1  0
 13 42  1  0
 15 43  1  0
 16 44  1  0
 20 45  1  0
 21 46  1  0
 22 47  1  0
 25 48  1  0
M  END
>  <meeko>  (28) 
{"is_sidechain": false}

$$$$

     RDKit          3D

 60 65  0  0  0  0  0  0  0  0999 V2000
    6.2750    0.0630  -53.7360 C   0  0  0  0  0  0  0  0  0  0  0  0
    7.6320   -0.4570  -54.0450 C   0  0  0  0  0  0  0  0  0  0  0  0
    8.5440    0.0610  -55.0130 C   0  0  0  0  0  0  0  0  0  0  0  0
    8.3510    1.2130  -55.9150 C   0  0  0  0  0  0  0  0  0  0  0  0
    7.2460    1.6420  -56.2310 O   0  0  0  0  0  0  0  0  0  0  0  0
    9.5410    1.7490  -56.3520 N   0  0  0  0  0  0  0  0  0  0  0  0
    9.6620    2.9000  -57.1860 C   0  0  1  0  0  0  0  0  0  0  0  0
    9.1180    4.2390  -56.6240 C   0  0  0  0  0  0  0  0  0  0  0  0
    9.7710    5.2840  -57.5670 C   0  0  0  0  0  0  0  0  0  0  0  0
   10.5890    4.4080  -58.5470 C   0  0  1  0  0  0  0  0  0  0  0  0
   11.0900    3.3160  -57.5910 C   0  0  0  0  0  0  0  0  0  0  0  0
    9.5880    3.6830  -59.4450 C   0  0  1  0  0  0  0  0  0  0  0  0
    9.6500    2.2150  -59.7930 C   0  0  0  0  0  0  0  0  0  0  0  0
    8.9600    2.6710  -58.5300 C   0  0  1  0  0  0  0  0  0  0  0  0
    9.6940   -0.6460  -55.0260 N   0  0  0  0  0  0  0  0  0  0  0  0
    9.5000   -1.6150  -54.1070 N   0  0  0  0  0  0  0  0  0  0  0  0
   10.5710   -2.5700  -53.8730 C   0  0  0  0  0  0  0  0  0  0  0  0
   10.3470   -3.9190  -54.5580 C   0  0  0  0  0  0  0  0  0  0  0  0
   11.2780   -4.1640  -55.7210 C   0  0  0  0  0  0  0  0  0  0  0  0
   11.1810   -3.3830  -56.8810 C   0  0  0  0  0  0  0  0  0  0  0  0
   12.0290   -3.6180  -57.9640 C   0  0  0  0  0  0  0  0  0  0  0  0
   12.9780   -4.6360  -57.9000 C   0  0  0  0  0  0  0  0  0  0  0  0
   13.0780   -5.4220  -56.7540 C   0  0  0  0  0  0  0  0  0  0  0  0
   12.2310   -5.1900  -55.6680 C   0  0  0  0  0  0  0  0  0  0  0  0
    8.2880   -1.5320  -53.4660 C   0  0  0  0  0  0  0  0  0  0  0  0
    7.8540   -2.4300  -52.4040 C   0  0  0  0  0  0  0  0  0  0  0  0
    7.1020   -3.5690  -52.7090 C   0  0  0  0  0  0  0  0  0  0  0  0
    6.6790   -4.4260  -51.6920 C   0  0  0  0  0  0  0  0  0  0  0  0
    7.0090   -4.1500  -50.3650 C   0  0  0  0  0  0  0  0  0  0  0  0
    7.7650   -3.0200  -50.0560 C   0  0  0  0  0  0  0  0  0  0  0  0
    8.1900   -2.1630  -51.0720 C   0  0  0  0  0  0  0  0  0  0  0  0
    6.1415    0.1142  -52.6453 H   0  0  0  0  0  0  0  0  0  0  0  0
    6.1608    1.0686  -54.1669 H   0  0  0  0  0  0  0  0  0  0  0  0
    5.5180   -0.6088  -54.1669 H   0  0  0  0  0  0  0  0  0  0  0  0
   10.3700    1.3130  -55.9550 H   0  0  0  0  0  0  0  0  0  0  0  0
    8.0204    4.2794  -56.6840 H   0  0  0  0  0  0  0  0  0  0  0  0
    9.3526    4.3980  -55.5611 H   0  0  0  0  0  0  0  0  0  0  0  0
    9.0060    5.8661  -58.1017 H   0  0  0  0  0  0  0  0  0  0  0  0
   10.3844    6.0249  -57.0334 H   0  0  0  0  0  0  0  0  0  0  0  0
   11.3427    4.9531  -59.1342 H   0  0  0  0  0  0  0  0  0  0  0  0
   11.6512    2.5164  -58.0967 H   0  0  0  0  0  0  0  0  0  0  0  0
   11.8051    3.5910  -56.8016 H   0  0  0  0  0  0  0  0  0  0  0  0
    9.3898    4.5176  -60.1336 H   0  0  0  0  0  0  0  0  0  0  0  0
    9.0583    1.8225  -60.6331 H   0  0  0  0  0  0  0  0  0  0  0  0
   10.4544    1.5027  -60.0285 H   0  0  0  0  0  0  0  0  0  0  0  0
    8.0081    2.2989  -58.1234 H   0  0  0  0  0  0  0  0  0  0  0  0
   11.5100   -2.1394  -54.2510 H   0  0  0  0  0  0  0  0  0  0  0  0
   10.6045   -2.7591  -52.7899 H   0  0  0  0  0  0  0  0  0  0  0  0
   10.4994   -4.7163  -53.8157 H   0  0  0  0  0  0  0  0  0  0  0  0
    9.3225   -3.9132  -54.9584 H   0  0  0  0  0  0  0  0  0  0  0  0
   10.4316   -2.5798  -56.9379 H   0  0  0  0  0  0  0  0  0  0  0  0
   11.9481   -2.9987  -58.8695 H   0  0  0  0  0  0  0  0  0  0  0  0
   13.6476   -4.8190  -58.7533 H   0  0  0  0  0  0  0  0  0  0  0  0
   13.8258   -6.2272  -56.7044 H   0  0  0  0  0  0  0  0  0  0  0  0
   12.3124   -5.8156  -54.7669 H   0  0  0  0  0  0  0  0  0  0  0  0
    6.8428   -3.7903  -53.7549 H   0  0  0  0  0  0  0  0  0  0  0  0
    6.0854   -5.3191  -51.9368 H   0  0  0  0  0  0  0  0  0  0  0  0
    6.6729   -4.8235  -49.5628 H   0  0  0  0  0  0  0  0  0  0  0  0
    8.0268   -2.8037  -49.0097 H   0  0  0  0  0  0  0  0  0  0  0  0
    8.7907   -1.2752  -50.8252 H   0  0  0  0  0  0  0  0  0  0  0  0
  1  2  1  0
  2  3  1  0
  3  4  1  0
  4  5  2  0
  4  6  1  0
  7  6  1  1
  7  8  1  0
  8  9  1  0
  9 10  1  0
 10 11  1  0
 10 12  1  0
 12 13  1  0
 13 14  1  0
  3 15  2  0
 15 16  1  0
 16 17  1  0
 17 18  1  0
 18 19  1  0
 19 20  2  0
 20 21  1  0
 21 22  2  0
 22 23  1  0
 23 24  2  0
 16 25  1  0
 25 26  1  0
 26 27  2  0
 27 28  1  0
 28 29  2  0
 29 30  1  0
 30 31  2  0
 25  2  2  0
 31 26  1  0
 11  7  1  0
 14 12  1  0
 24 19  1  0
 14  7  1  0
  1 32  1  0
  1 33  1  0
  1 34  1  0
  6 35  1  0
  8 36  1  0
  8 37  1  0
  9 38  1  0
  9 39  1  0
 10 40  1  6
 11 41  1  0
 11 42  1  0
 12 43  1  6
 13 44  1  0
 13 45  1  0
 14 46  1  1
 17 47  1  0
 17 48  1  0
 18 49  1  0
 18 50  1  0
 20 51  1  0
 21 52  1  0
 22 53  1  0
 23 54  1  0
 24 55  1  0
 27 56  1  0
 28 57  1  0
 29 58  1  0
 30 59  1  0
 31 60  1  0
M  END
>  <meeko>  (29) 
{"is_sidechain": false}

$$$$

     RDKit          3D

 61 66  0  0  0  0  0  0  0  0999 V2000
    5.2320    2.3010  -57.5090 C   0  0  0  0  0  0  0  0  0  0  0  0
    6.6650    2.4760  -57.9430 C   0  0  0  0  0  0  0  0  0  0  0  0
    6.9090    3.2240  -59.1100 C   0  0  0  0  0  0  0  0  0  0  0  0
    8.2290    3.3450  -59.5330 C   0  0  0  0  0  0  0  0  0  0  0  0
    8.6480    4.0370  -60.6270 O   0  0  0  0  0  0  0  0  0  0  0  0
    9.9950    3.8800  -60.7020 C   0  0  0  0  0  0  0  0  0  0  0  0
   10.4510    3.1080  -59.6570 C   0  0  0  0  0  0  0  0  0  0  0  0
    9.3090    2.7620  -58.8890 C   0  0  0  0  0  0  0  0  0  0  0  0
    9.0660    2.0180  -57.7240 C   0  0  0  0  0  0  0  0  0  0  0  0
    7.7430    1.8970  -57.2280 C   0  0  0  0  0  0  0  0  0  0  0  0
    7.5420    1.1590  -55.9160 C   0  0  0  0  0  0  0  0  0  0  0  0
    9.1240    0.7790  -55.0800 S   0  0  0  0  0  0  0  0  0  0  0  0
    8.5880   -0.4250  -53.8890 C   0  0  0  0  0  0  0  0  0  0  0  0
    7.4770   -0.2520  -53.1020 N   0  0  0  0  0  0  0  0  0  0  0  0
    7.2850   -1.3020  -52.3100 C   0  0  0  0  0  0  0  0  0  0  0  0
    8.2900   -2.1630  -52.5290 N   0  0  0  0  0  0  0  0  0  0  0  0
    8.3690   -3.4960  -51.9370 C   0  0  0  0  0  0  0  0  0  0  0  0
    9.1570   -1.6230  -53.5200 C   0  0  0  0  0  0  0  0  0  0  0  0
   10.3320   -2.2170  -54.1110 C   0  0  0  0  0  0  0  0  0  0  0  0
   11.4890   -2.0900  -53.7270 O   0  0  0  0  0  0  0  0  0  0  0  0
    9.9800   -2.9860  -55.2100 N   0  0  0  0  0  0  0  0  0  0  0  0
   10.9350   -3.7780  -56.0050 C   0  0  2  0  0  0  0  0  0  0  0  0
   10.1270   -4.7940  -56.8590 C   0  0  0  0  0  0  0  0  0  0  0  0
   11.0610   -5.6650  -57.7130 C   0  0  1  0  0  0  0  0  0  0  0  0
   11.8720   -4.7600  -58.6530 C   0  0  0  0  0  0  0  0  0  0  0  0
   12.7000   -3.7600  -57.8310 C   0  0  2  0  0  0  0  0  0  0  0  0
   13.6520   -4.5320  -56.9020 C   0  0  0  0  0  0  0  0  0  0  0  0
   12.8500   -5.4410  -55.9560 C   0  0  2  0  0  0  0  0  0  0  0  0
   12.0200   -6.4310  -56.7890 C   0  0  0  0  0  0  0  0  0  0  0  0
   11.9050   -4.5770  -55.1020 C   0  0  0  0  0  0  0  0  0  0  0  0
   11.7530   -2.8940  -56.9800 C   0  0  0  0  0  0  0  0  0  0  0  0
    5.1798    2.2946  -56.4103 H   0  0  0  0  0  0  0  0  0  0  0  0
    4.6264    3.1319  -57.9000 H   0  0  0  0  0  0  0  0  0  0  0  0
    4.8441    1.3488  -57.9000 H   0  0  0  0  0  0  0  0  0  0  0  0
    6.0862    3.6957  -59.6673 H   0  0  0  0  0  0  0  0  0  0  0  0
   10.6330    4.3098  -61.4883 H   0  0  0  0  0  0  0  0  0  0  0  0
   11.4929    2.8174  -59.4573 H   0  0  0  0  0  0  0  0  0  0  0  0
    9.8994    1.5302  -57.1972 H   0  0  0  0  0  0  0  0  0  0  0  0
    6.9313    1.7848  -55.2487 H   0  0  0  0  0  0  0  0  0  0  0  0
    7.0440    0.2044  -56.1411 H   0  0  0  0  0  0  0  0  0  0  0  0
    6.8530    0.5470  -53.1790 H   0  0  0  0  0  0  0  0  0  0  0  0
    6.4532   -1.4398  -51.6035 H   0  0  0  0  0  0  0  0  0  0  0  0
    8.3640   -3.4110  -50.8403 H   0  0  0  0  0  0  0  0  0  0  0  0
    7.5047   -4.0935  -52.2624 H   0  0  0  0  0  0  0  0  0  0  0  0
    9.2978   -3.9873  -52.2624 H   0  0  0  0  0  0  0  0  0  0  0  0
    9.0140   -3.2770  -55.2820 H   0  0  0  0  0  0  0  0  0  0  0  0
    9.5437   -5.4427  -56.1890 H   0  0  0  0  0  0  0  0  0  0  0  0
    9.4606   -4.2334  -57.5311 H   0  0  0  0  0  0  0  0  0  0  0  0
   10.4700   -6.3790  -58.3054 H   0  0  0  0  0  0  0  0  0  0  0  0
   12.5473   -5.3788  -59.2622 H   0  0  0  0  0  0  0  0  0  0  0  0
   11.1822   -4.2071  -59.3076 H   0  0  0  0  0  0  0  0  0  0  0  0
   13.2822   -3.1174  -58.5078 H   0  0  0  0  0  0  0  0  0  0  0  0
   14.3313   -5.1485  -57.5090 H   0  0  0  0  0  0  0  0  0  0  0  0
   14.2308   -3.8130  -56.3037 H   0  0  0  0  0  0  0  0  0  0  0  0
   13.5384   -5.9945  -55.3004 H   0  0  0  0  0  0  0  0  0  0  0  0
   12.6951   -7.0506  -57.3976 H   0  0  0  0  0  0  0  0  0  0  0  0
   11.4351   -7.0710  -56.1121 H   0  0  0  0  0  0  0  0  0  0  0  0
   11.3232   -5.2291  -54.4340 H   0  0  0  0  0  0  0  0  0  0  0  0
   12.5062   -3.8691  -54.5126 H   0  0  0  0  0  0  0  0  0  0  0  0
   12.3464   -2.1709  -56.4012 H   0  0  0  0  0  0  0  0  0  0  0  0
   11.0574   -2.3662  -57.6490 H   0  0  0  0  0  0  0  0  0  0  0  0
  1  2  1  0
  2  3  1  0
  3  4  2  0
  4  5  1  0
  5  6  1  0
  6  7  2  0
  7  8  1  0
  8  9  2  0
  9 10  1  0
 10 11  1  0
 11 12  1  0
 12 13  1  0
 13 14  1  0
 14 15  1  0
 15 16  2  0
 16 17  1  0
 16 18  1  0
 18 19  1  0
 19 20  2  0
 19 21  1  0
 22 21  1  1
 22 23  1  0
 23 24  1  0
 24 25  1  0
 25 26  1  0
 26 27  1  0
 27 28  1  0
 28 29  1  0
 28 30  1  0
 26 31  1  0
 10  2  2  0
 18 13  2  0
 30 22  1  0
  8  4  1  0
 31 22  1  0
 29 24  1  0
  1 32  1  0
  1 33  1  0
  1 34  1  0
  3 35  1  0
  6 36  1  0
  7 37  1  0
  9 38  1  0
 11 39  1  0
 11 40  1  0
 14 41  1  0
 15 42  1  0
 17 43  1  0
 17 44  1  0
 17 45  1  0
 21 46  1  0
 23 47  1  0
 23 48  1  0
 24 49  1  6
 25 50  1  0
 25 51  1  0
 26 52  1  6
 27 53  1  0
 27 54  1  0
 28 55  1  1
 29 56  1  0
 29 57  1  0
 30 58  1  0
 30 59  1  0
 31 60  1  0
 31 61  1  0
M  CHG  1  16   1
M  END
>  <meeko>  (30) 
{"is_sidechain": false}

$$$$

     RDKit          3D

 63 68  0  0  0  0  0  0  0  0999 V2000
   11.3720   -2.1510  -52.6920 C   0  0  0  0  0  0  0  0  0  0  0  0
   11.1310   -2.9710  -53.9330 C   0  0  0  0  0  0  0  0  0  0  0  0
   12.0200   -4.0370  -54.1790 C   0  0  0  0  0  0  0  0  0  0  0  0
   11.8580   -4.8780  -55.2770 C   0  0  0  0  0  0  0  0  0  0  0  0
   10.8080   -4.6630  -56.1600 C   0  0  0  0  0  0  0  0  0  0  0  0
    9.9230   -3.6040  -55.9480 C   0  0  0  0  0  0  0  0  0  0  0  0
   10.0650   -2.7500  -54.8390 C   0  0  0  0  0  0  0  0  0  0  0  0
    9.1530   -1.6530  -54.6830 N   0  0  0  0  0  0  0  0  0  0  0  0
    9.2360   -0.5970  -55.5320 N   0  0  0  0  0  0  0  0  0  0  0  0
    8.1790    0.1820  -55.2560 C   0  0  0  0  0  0  0  0  0  0  0  0
    7.9230    1.4080  -56.0390 C   0  0  0  0  0  0  0  0  0  0  0  0
    6.8450    1.9910  -56.0360 O   0  0  0  0  0  0  0  0  0  0  0  0
    9.0230    1.8070  -56.7670 N   0  0  0  0  0  0  0  0  0  0  0  0
    9.0950    2.9510  -57.6710 C   0  0  2  0  0  0  0  0  0  0  0  0
    9.0350    4.2930  -56.9000 C   0  0  0  0  0  0  0  0  0  0  0  0
    9.1600    5.4800  -57.8710 C   0  0  1  0  0  0  0  0  0  0  0  0
   10.5050    5.3920  -58.6100 C   0  0  0  0  0  0  0  0  0  0  0  0
   10.5850    4.0770  -59.4000 C   0  0  2  0  0  0  0  0  0  0  0  0
    9.4340    4.0250  -60.4190 C   0  0  0  0  0  0  0  0  0  0  0  0
    8.0830    4.1060  -59.6910 C   0  0  2  0  0  0  0  0  0  0  0  0
    8.0130    5.4190  -58.8950 C   0  0  0  0  0  0  0  0  0  0  0  0
    7.9570    2.9180  -58.7210 C   0  0  0  0  0  0  0  0  0  0  0  0
   10.4480    2.8950  -58.4280 C   0  0  0  0  0  0  0  0  0  0  0  0
    7.4340   -0.3300  -54.1610 C   0  0  0  0  0  0  0  0  0  0  0  0
    6.2410    0.3040  -53.5370 C   0  0  0  0  0  0  0  0  0  0  0  0
    8.0850   -1.5020  -53.7920 C   0  0  0  0  0  0  0  0  0  0  0  0
    7.8030   -2.3620  -52.6400 C   0  0  0  0  0  0  0  0  0  0  0  0
    7.3410   -3.6720  -52.8230 C   0  0  0  0  0  0  0  0  0  0  0  0
    7.0800   -4.4880  -51.7210 C   0  0  0  0  0  0  0  0  0  0  0  0
    7.2850   -4.0050  -50.4300 C   0  0  0  0  0  0  0  0  0  0  0  0
    7.7550   -2.7070  -50.2370 C   0  0  0  0  0  0  0  0  0  0  0  0
    8.0160   -1.8890  -51.3380 C   0  0  0  0  0  0  0  0  0  0  0  0
   11.1898   -2.7709  -51.8018 H   0  0  0  0  0  0  0  0  0  0  0  0
   12.4128   -1.7950  -52.6841 H   0  0  0  0  0  0  0  0  0  0  0  0
   10.6894   -1.2885  -52.6841 H   0  0  0  0  0  0  0  0  0  0  0  0
   12.8594   -4.2081  -53.4890 H   0  0  0  0  0  0  0  0  0  0  0  0
   12.5588   -5.7092  -55.4442 H   0  0  0  0  0  0  0  0  0  0  0  0
   10.6735   -5.3271  -57.0266 H   0  0  0  0  0  0  0  0  0  0  0  0
    9.1015   -3.4347  -56.6596 H   0  0  0  0  0  0  0  0  0  0  0  0
    9.8200    1.1810  -56.6760 H   0  0  0  0  0  0  0  0  0  0  0  0
    8.0753    4.3613  -56.3669 H   0  0  0  0  0  0  0  0  0  0  0  0
    9.8702    4.3295  -56.1851 H   0  0  0  0  0  0  0  0  0  0  0  0
    9.1074    6.4250  -57.3104 H   0  0  0  0  0  0  0  0  0  0  0  0
   10.5953    6.2403  -59.3044 H   0  0  0  0  0  0  0  0  0  0  0  0
   11.3233    5.4225  -57.8756 H   0  0  0  0  0  0  0  0  0  0  0  0
   11.5497    4.0196  -59.9254 H   0  0  0  0  0  0  0  0  0  0  0  0
    9.5245    4.8726  -61.1142 H   0  0  0  0  0  0  0  0  0  0  0  0
    9.4876    3.0780  -60.9761 H   0  0  0  0  0  0  0  0  0  0  0  0
    7.2646    4.0738  -60.4253 H   0  0  0  0  0  0  0  0  0  0  0  0
    8.0985    6.2692  -59.5878 H   0  0  0  0  0  0  0  0  0  0  0  0
    7.0521    5.4652  -58.3616 H   0  0  0  0  0  0  0  0  0  0  0  0
    6.9870    2.9733  -58.2052 H   0  0  0  0  0  0  0  0  0  0  0  0
    8.0293    1.9819  -59.2942 H   0  0  0  0  0  0  0  0  0  0  0  0
   10.5039    1.9544  -58.9955 H   0  0  0  0  0  0  0  0  0  0  0  0
   11.2637    2.9504  -57.6920 H   0  0  0  0  0  0  0  0  0  0  0  0
    6.3311    0.2561  -52.4417 H   0  0  0  0  0  0  0  0  0  0  0  0
    6.1765    1.3554  -53.8540 H   0  0  0  0  0  0  0  0  0  0  0  0
    5.3336   -0.2309  -53.8540 H   0  0  0  0  0  0  0  0  0  0  0  0
    7.1832   -4.0594  -53.8403 H   0  0  0  0  0  0  0  0  0  0  0  0
    6.7120   -5.5136  -51.8718 H   0  0  0  0  0  0  0  0  0  0  0  0
    7.0758   -4.6485  -49.5627 H   0  0  0  0  0  0  0  0  0  0  0  0
    7.9202   -2.3274  -49.2179 H   0  0  0  0  0  0  0  0  0  0  0  0
    8.3912   -0.8667  -51.1825 H   0  0  0  0  0  0  0  0  0  0  0  0
  1  2  1  0
  2  3  2  0
  3  4  1  0
  4  5  2  0
  5  6  1  0
  6  7  2  0
  7  8  1  0
  8  9  1  0
  9 10  2  0
 10 11  1  0
 11 12  2  0
 11 13  1  0
 14 13  1  1
 14 15  1  0
 15 16  1  0
 16 17  1  0
 17 18  1  0
 18 19  1  0
 19 20  1  0
 20 21  1  0
 20 22  1  0
 18 23  1  0
 10 24  1  0
 24 25  1  0
 24 26  2  0
 26 27  1  0
 27 28  2  0
 28 29  1  0
 29 30  2  0
 30 31  1  0
 31 32  2  0
  7  2  1  0
 26  8  1  0
 32 27  1  0
 22 14  1  0
 23 14  1  0
 21 16  1  0
  1 33  1  0
  1 34  1  0
  1 35  1  0
  3 36  1  0
  4 37  1  0
  5 38  1  0
  6 39  1  0
 13 40  1  0
 15 41  1  0
 15 42  1  0
 16 43  1  1
 17 44  1  0
 17 45  1  0
 18 46  1  6
 19 47  1  0
 19 48  1  0
 20 49  1  6
 21 50  1  0
 21 51  1  0
 22 52  1  0
 22 53  1  0
 23 54  1  0
 23 55  1  0
 25 56  1  0
 25 57  1  0
 25 58  1  0
 28 59  1  0
 29 60  1  0
 30 61  1  0
 31 62  1  0
 32 63  1  0
M  END
>  <meeko>  (31) 
{"is_sidechain": false}

$$$$

     RDKit          3D

 63 68  0  0  0  0  0  0  0  0999 V2000
    6.3160   -0.0600  -53.6690 C   0  0  0  0  0  0  0  0  0  0  0  0
    7.6690   -0.5030  -54.0950 C   0  0  0  0  0  0  0  0  0  0  0  0
    8.4980    0.0700  -55.1150 C   0  0  0  0  0  0  0  0  0  0  0  0
    8.1890    1.1990  -56.0180 C   0  0  0  0  0  0  0  0  0  0  0  0
    7.0810    1.7210  -56.0750 O   0  0  0  0  0  0  0  0  0  0  0  0
    9.2760    1.6240  -56.7640 N   0  0  0  0  0  0  0  0  0  0  0  0
    9.2750    2.7940  -57.6440 C   0  0  2  0  0  0  0  0  0  0  0  0
    8.1910    2.6910  -58.7470 C   0  0  0  0  0  0  0  0  0  0  0  0
    8.2550    3.9100  -59.6840 C   0  0  1  0  0  0  0  0  0  0  0  0
    8.0390    5.1920  -58.8620 C   0  0  0  0  0  0  0  0  0  0  0  0
    9.1340    5.3230  -57.7890 C   0  0  2  0  0  0  0  0  0  0  0  0
   10.5100    5.3670  -58.4720 C   0  0  0  0  0  0  0  0  0  0  0  0
   10.7320    4.0840  -59.2880 C   0  0  2  0  0  0  0  0  0  0  0  0
    9.6350    3.9630  -60.3570 C   0  0  0  0  0  0  0  0  0  0  0  0
   10.6570    2.8700  -58.3490 C   0  0  0  0  0  0  0  0  0  0  0  0
    9.0710    4.1070  -56.8490 C   0  0  0  0  0  0  0  0  0  0  0  0
    9.6760   -0.5690  -55.1880 N   0  0  0  0  0  0  0  0  0  0  0  0
    9.6010   -1.5430  -54.2600 N   0  0  0  0  0  0  0  0  0  0  0  0
   10.7420   -2.4340  -54.0830 C   0  0  0  0  0  0  0  0  0  0  0  0
   11.1410   -3.1100  -55.3740 C   0  0  0  0  0  0  0  0  0  0  0  0
   11.5190   -2.3480  -56.4910 C   0  0  0  0  0  0  0  0  0  0  0  0
   11.8920   -2.9720  -57.6840 C   0  0  0  0  0  0  0  0  0  0  0  0
   11.8860   -4.3630  -57.7760 C   0  0  0  0  0  0  0  0  0  0  0  0
   11.5060   -5.1270  -56.6740 C   0  0  0  0  0  0  0  0  0  0  0  0
   11.5020   -6.8440  -56.7880 Cl  0  0  0  0  0  0  0  0  0  0  0  0
   11.1320   -4.5100  -55.4810 C   0  0  0  0  0  0  0  0  0  0  0  0
    8.4140   -1.5460  -53.5650 C   0  0  0  0  0  0  0  0  0  0  0  0
    8.0860   -2.4890  -52.5050 C   0  0  0  0  0  0  0  0  0  0  0  0
    7.4750   -3.7090  -52.8150 C   0  0  0  0  0  0  0  0  0  0  0  0
    7.1670   -4.6170  -51.8010 C   0  0  0  0  0  0  0  0  0  0  0  0
    7.4630   -4.3070  -50.4730 C   0  0  0  0  0  0  0  0  0  0  0  0
    8.0620   -3.0890  -50.1580 C   0  0  0  0  0  0  0  0  0  0  0  0
    8.3720   -2.1800  -51.1710 C   0  0  0  0  0  0  0  0  0  0  0  0
    6.2647   -0.0432  -52.5703 H   0  0  0  0  0  0  0  0  0  0  0  0
    6.1204    0.9491  -54.0607 H   0  0  0  0  0  0  0  0  0  0  0  0
    5.5614   -0.7580  -54.0607 H   0  0  0  0  0  0  0  0  0  0  0  0
   10.1760    1.2940  -56.4380 H   0  0  0  0  0  0  0  0  0  0  0  0
    8.3574    1.7752  -59.3332 H   0  0  0  0  0  0  0  0  0  0  0  0
    7.2005    2.6621  -58.2695 H   0  0  0  0  0  0  0  0  0  0  0  0
    7.4734    3.8273  -60.4536 H   0  0  0  0  0  0  0  0  0  0  0  0
    8.0790    6.0642  -59.5310 H   0  0  0  0  0  0  0  0  0  0  0  0
    7.0566    5.1427  -58.3696 H   0  0  0  0  0  0  0  0  0  0  0  0
    8.9785    6.2458  -57.2108 H   0  0  0  0  0  0  0  0  0  0  0  0
   10.5564    6.2379  -59.1424 H   0  0  0  0  0  0  0  0  0  0  0  0
   11.2927    5.4464  -57.7032 H   0  0  0  0  0  0  0  0  0  0  0  0
   11.7184    4.1208  -59.7733 H   0  0  0  0  0  0  0  0  0  0  0  0
    9.6810    4.8339  -61.0274 H   0  0  0  0  0  0  0  0  0  0  0  0
    9.7922    3.0407  -60.9355 H   0  0  0  0  0  0  0  0  0  0  0  0
   10.8125    1.9522  -58.9350 H   0  0  0  0  0  0  0  0  0  0  0  0
   11.4367    2.9739  -57.5800 H   0  0  0  0  0  0  0  0  0  0  0  0
    9.8611    4.1961  -56.0889 H   0  0  0  0  0  0  0  0  0  0  0  0
    8.0821    4.0809  -56.3679 H   0  0  0  0  0  0  0  0  0  0  0  0
   11.5953   -1.8479  -53.7111 H   0  0  0  0  0  0  0  0  0  0  0  0
   10.4526   -3.2166  -53.3663 H   0  0  0  0  0  0  0  0  0  0  0  0
   11.5215   -1.2499  -56.4262 H   0  0  0  0  0  0  0  0  0  0  0  0
   12.1907   -2.3652  -58.5515 H   0  0  0  0  0  0  0  0  0  0  0  0
   12.1800   -4.8556  -58.7146 H   0  0  0  0  0  0  0  0  0  0  0  0
   10.8284   -5.1229  -54.6195 H   0  0  0  0  0  0  0  0  0  0  0  0
    7.2368   -3.9531  -53.8608 H   0  0  0  0  0  0  0  0  0  0  0  0
    6.6908   -5.5772  -52.0486 H   0  0  0  0  0  0  0  0  0  0  0  0
    7.2233   -5.0245  -49.6744 H   0  0  0  0  0  0  0  0  0  0  0  0
    8.2907   -2.8436  -49.1104 H   0  0  0  0  0  0  0  0  0  0  0  0
    8.8425   -1.2180  -50.9196 H   0  0  0  0  0  0  0  0  0  0  0  0
  1  2  1  0
  2  3  1  0
  3  4  1  0
  4  5  2  0
  4  6  1  0
  7  6  1  1
  7  8  1  0
  8  9  1  0
  9 10  1  0
 10 11  1  0
 11 12  1  0
 12 13  1  0
 13 14  1  0
 13 15  1  0
 11 16  1  0
  3 17  2  0
 17 18  1  0
 18 19  1  0
 19 20  1  0
 20 21  2  0
 21 22  1  0
 22 23  2  0
 23 24  1  0
 24 25  1  0
 24 26  2  0
 18 27  1  0
 27 28  1  0
 28 29  2  0
 29 30  1  0
 30 31  2  0
 31 32  1  0
 32 33  2  0
 27  2  2  0
 33 28  1  0
 15  7  1  0
 26 20  1  0
 16  7  1  0
 14  9  1  0
  1 34  1  0
  1 35  1  0
  1 36  1  0
  6 37  1  0
  8 38  1  0
  8 39  1  0
  9 40  1  6
 10 41  1  0
 10 42  1  0
 11 43  1  1
 12 44  1  0
 12 45  1  0
 13 46  1  6
 14 47  1  0
 14 48  1  0
 15 49  1  0
 15 50  1  0
 16 51  1  0
 16 52  1  0
 19 53  1  0
 19 54  1  0
 21 55  1  0
 22 56  1  0
 23 57  1  0
 26 58  1  0
 29 59  1  0
 30 60  1  0
 31 61  1  0
 32 62  1  0
 33 63  1  0
M  END
>  <meeko>  (32) 
{"is_sidechain": false}

$$$$

     RDKit          3D

 64 69  0  0  0  0  0  0  0  0999 V2000
    6.1590   -0.0700  -53.7720 C   0  0  0  0  0  0  0  0  0  0  0  0
    7.5520   -0.4630  -54.1060 C   0  0  0  0  0  0  0  0  0  0  0  0
    8.3910    0.1260  -55.0990 C   0  0  0  0  0  0  0  0  0  0  0  0
    8.0730    1.2460  -56.0070 C   0  0  0  0  0  0  0  0  0  0  0  0
    6.9600    1.7540  -56.0810 O   0  0  0  0  0  0  0  0  0  0  0  0
    9.1630    1.6590  -56.7420 N   0  0  0  0  0  0  0  0  0  0  0  0
    9.1960    2.8350  -57.5750 C   0  0  2  0  0  0  0  0  0  0  0  0
   10.5910    2.8700  -58.2390 C   0  0  0  0  0  0  0  0  0  0  0  0
   10.7710    4.0000  -58.9690 C   0  0  0  0  0  0  0  0  0  0  0  0
    9.8900    4.0070  -60.2170 C   0  0  0  0  0  0  0  0  0  0  0  0
    8.4230    4.0210  -59.6970 C   0  0  2  0  0  0  0  0  0  0  0  0
    8.1910    5.3080  -58.8690 C   0  0  0  0  0  0  0  0  0  0  0  0
    9.1810    5.3710  -57.6810 C   0  0  2  0  0  0  0  0  0  0  0  0
   10.6200    5.3180  -58.2250 C   0  0  0  0  0  0  0  0  0  0  0  0
    8.9700    4.1410  -56.7680 C   0  0  0  0  0  0  0  0  0  0  0  0
    8.1860    2.7980  -58.7640 C   0  0  0  0  0  0  0  0  0  0  0  0
    9.5980   -0.4760  -55.1360 N   0  0  0  0  0  0  0  0  0  0  0  0
    9.5260   -1.4270  -54.1850 N   0  0  0  0  0  0  0  0  0  0  0  0
   10.6760   -2.2900  -53.9730 C   0  0  0  0  0  0  0  0  0  0  0  0
   10.4140   -3.7060  -54.4760 C   0  0  0  0  0  0  0  0  0  0  0  0
   11.2890   -4.0370  -55.6590 C   0  0  0  0  0  0  0  0  0  0  0  0
   12.1290   -5.1580  -55.6320 C   0  0  0  0  0  0  0  0  0  0  0  0
   12.9190   -5.4730  -56.7370 C   0  0  0  0  0  0  0  0  0  0  0  0
   12.8750   -4.6750  -57.8780 C   0  0  0  0  0  0  0  0  0  0  0  0
   12.0380   -3.5600  -57.9170 C   0  0  0  0  0  0  0  0  0  0  0  0
   11.2470   -3.2430  -56.8120 C   0  0  0  0  0  0  0  0  0  0  0  0
    8.3180   -1.4670  -53.5330 C   0  0  0  0  0  0  0  0  0  0  0  0
    7.9870   -2.4200  -52.4800 C   0  0  0  0  0  0  0  0  0  0  0  0
    7.2240   -3.5550  -52.7750 C   0  0  0  0  0  0  0  0  0  0  0  0
    6.9180   -4.4760  -51.7720 C   0  0  0  0  0  0  0  0  0  0  0  0
    7.3690   -4.2640  -50.4700 C   0  0  0  0  0  0  0  0  0  0  0  0
    8.1220   -3.1290  -50.1680 C   0  0  0  0  0  0  0  0  0  0  0  0
    8.4280   -2.2080  -51.1700 C   0  0  0  0  0  0  0  0  0  0  0  0
    6.0396   -0.0363  -52.6790 H   0  0  0  0  0  0  0  0  0  0  0  0
    5.9468    0.9231  -54.1948 H   0  0  0  0  0  0  0  0  0  0  0  0
    5.4591   -0.8057  -54.1948 H   0  0  0  0  0  0  0  0  0  0  0  0
   10.0330    1.2140  -56.4590 H   0  0  0  0  0  0  0  0  0  0  0  0
   11.3454    2.0765  -58.1330 H   0  0  0  0  0  0  0  0  0  0  0  0
   10.0906    4.9028  -60.8231 H   0  0  0  0  0  0  0  0  0  0  0  0
   10.0856    3.1339  -60.8569 H   0  0  0  0  0  0  0  0  0  0  0  0
    7.7362    3.9816  -60.5554 H   0  0  0  0  0  0  0  0  0  0  0  0
    8.3424    6.1861  -59.5139 H   0  0  0  0  0  0  0  0  0  0  0  0
    7.1633    5.2997  -58.4770 H   0  0  0  0  0  0  0  0  0  0  0  0
    9.0118    6.2991  -57.1154 H   0  0  0  0  0  0  0  0  0  0  0  0
   10.7950    6.1601  -58.9107 H   0  0  0  0  0  0  0  0  0  0  0  0
   11.3503    5.3898  -57.4055 H   0  0  0  0  0  0  0  0  0  0  0  0
    9.6843    4.1809  -55.9324 H   0  0  0  0  0  0  0  0  0  0  0  0
    7.9407    4.1519  -56.3802 H   0  0  0  0  0  0  0  0  0  0  0  0
    7.1589    2.8319  -58.3716 H   0  0  0  0  0  0  0  0  0  0  0  0
    8.3341    1.8707  -59.3369 H   0  0  0  0  0  0  0  0  0  0  0  0
   11.5395   -1.8734  -54.5123 H   0  0  0  0  0  0  0  0  0  0  0  0
   10.8752   -2.3395  -52.8923 H   0  0  0  0  0  0  0  0  0  0  0  0
   10.6230   -4.4190  -53.6649 H   0  0  0  0  0  0  0  0  0  0  0  0
    9.3625   -3.7737  -54.7917 H   0  0  0  0  0  0  0  0  0  0  0  0
   12.1655   -5.7929  -54.7345 H   0  0  0  0  0  0  0  0  0  0  0  0
   13.5781   -6.3532  -56.7077 H   0  0  0  0  0  0  0  0  0  0  0  0
   13.5003   -4.9242  -58.7480 H   0  0  0  0  0  0  0  0  0  0  0  0
   12.0014   -2.9307  -58.8185 H   0  0  0  0  0  0  0  0  0  0  0  0
   10.5864   -2.3641  -56.8467 H   0  0  0  0  0  0  0  0  0  0  0  0
    6.8641   -3.7221  -53.8009 H   0  0  0  0  0  0  0  0  0  0  0  0
    6.3210   -5.3691  -52.0088 H   0  0  0  0  0  0  0  0  0  0  0  0
    7.1310   -4.9920  -49.6804 H   0  0  0  0  0  0  0  0  0  0  0  0
    8.4744   -2.9604  -49.1397 H   0  0  0  0  0  0  0  0  0  0  0  0
    9.0183   -1.3117  -50.9288 H   0  0  0  0  0  0  0  0  0  0  0  0
  1  2  1  0
  2  3  1  0
  3  4  1  0
  4  5  2  0
  4  6  1  0
  7  6  1  1
  7  8  1  0
  8  9  2  0
  9 10  1  0
 10 11  1  0
 11 12  1  0
 12 13  1  0
 13 14  1  0
 13 15  1  0
 11 16  1  0
  3 17  2  0
 17 18  1  0
 18 19  1  0
 19 20  1  0
 20 21  1  0
 21 22  2  0
 22 23  1  0
 23 24  2  0
 24 25  1  0
 25 26  2  0
 18 27  1  0
 27 28  1  0
 28 29  2  0
 29 30  1  0
 30 31  2  0
 31 32  1  0
 32 33  2  0
 27  2  2  0
 33 28  1  0
 15  7  1  0
 26 21  1  0
 16  7  1  0
 14  9  1  0
  1 34  1  0
  1 35  1  0
  1 36  1  0
  6 37  1  0
  8 38  1  0
 10 39  1  0
 10 40  1  0
 11 41  1  6
 12 42  1  0
 12 43  1  0
 13 44  1  1
 14 45  1  0
 14 46  1  0
 15 47  1  0
 15 48  1  0
 16 49  1  0
 16 50  1  0
 19 51  1  0
 19 52  1  0
 20 53  1  0
 20 54  1  0
 22 55  1  0
 23 56  1  0
 24 57  1  0
 25 58  1  0
 26 59  1  0
 29 60  1  0
 30 61  1  0
 31 62  1  0
 32 63  1  0
 33 64  1  0
M  END
>  <meeko>  (33) 
{"is_sidechain": false}

$$$$

     RDKit          3D

 54 57  0  0  0  0  0  0  0  0999 V2000
    7.4560   -2.3750  -50.8510 C   0  0  0  0  0  0  0  0  0  0  0  0
    7.6780   -2.0380  -52.3320 C   0  0  0  0  0  0  0  0  0  0  0  0
    8.9660   -2.7290  -52.7960 C   0  0  0  0  0  0  0  0  0  0  0  0
    7.7180   -0.4960  -52.5810 C   0  0  0  0  0  0  0  0  0  0  0  0
    8.9160   -0.0470  -53.4540 C   0  0  0  0  0  0  0  0  0  0  0  0
    8.7480   -0.4520  -54.9210 C   0  0  0  0  0  0  0  0  0  0  0  0
    7.4860    0.0780  -55.4440 N   0  0  0  0  0  0  0  0  0  0  0  0
    7.3960    1.2740  -56.1520 C   0  0  0  0  0  0  0  0  0  0  0  0
    6.3870    1.9700  -56.1610 O   0  0  0  0  0  0  0  0  0  0  0  0
    8.5360    1.5920  -56.8500 N   0  0  0  0  0  0  0  0  0  0  0  0
    8.6880    2.7940  -57.6770 C   0  0  2  0  0  0  0  0  0  0  0  0
    7.6310    2.8550  -58.8080 C   0  0  0  0  0  0  0  0  0  0  0  0
    7.8580    4.0920  -59.6940 C   0  0  1  0  0  0  0  0  0  0  0  0
    7.7650    5.3600  -58.8290 C   0  0  0  0  0  0  0  0  0  0  0  0
    8.8360    5.3310  -57.7250 C   0  0  2  0  0  0  0  0  0  0  0  0
   10.2270    5.2450  -58.3700 C   0  0  0  0  0  0  0  0  0  0  0  0
   10.3300    3.9750  -59.2280 C   0  0  2  0  0  0  0  0  0  0  0  0
    9.2570    4.0140  -60.3270 C   0  0  0  0  0  0  0  0  0  0  0  0
   10.0950    2.7460  -58.3360 C   0  0  0  0  0  0  0  0  0  0  0  0
    8.6100    4.0940  -56.8350 C   0  0  0  0  0  0  0  0  0  0  0  0
    6.3060   -0.3520  -54.7000 C   0  0  0  0  0  0  0  0  0  0  0  0
    6.4260    0.0560  -53.2310 C   0  0  0  0  0  0  0  0  0  0  0  0
    7.9534   -1.6199  -50.2246 H   0  0  0  0  0  0  0  0  0  0  0  0
    6.3777   -2.3792  -50.6336 H   0  0  0  0  0  0  0  0  0  0  0  0
    7.8778   -3.3674  -50.6336 H   0  0  0  0  0  0  0  0  0  0  0  0
    6.8293   -2.4109  -52.9241 H   0  0  0  0  0  0  0  0  0  0  0  0
    9.5505   -3.0426  -51.9185 H   0  0  0  0  0  0  0  0  0  0  0  0
    8.7111   -3.6115  -53.4012 H   0  0  0  0  0  0  0  0  0  0  0  0
    9.5603   -2.0286  -53.4012 H   0  0  0  0  0  0  0  0  0  0  0  0
    7.8245   -0.0780  -51.5691 H   0  0  0  0  0  0  0  0  0  0  0  0
    9.0049    1.0479  -53.3970 H   0  0  0  0  0  0  0  0  0  0  0  0
    9.8189   -0.5432  -53.0685 H   0  0  0  0  0  0  0  0  0  0  0  0
    9.5850   -0.0474  -55.5091 H   0  0  0  0  0  0  0  0  0  0  0  0
    8.7377   -1.5495  -54.9945 H   0  0  0  0  0  0  0  0  0  0  0  0
    8.9790    0.7650  -57.2240 H   0  0  0  0  0  0  0  0  0  0  0  0
    7.7097    1.9483  -59.4258 H   0  0  0  0  0  0  0  0  0  0  0  0
    6.6305    2.9211  -58.3556 H   0  0  0  0  0  0  0  0  0  0  0  0
    7.0942    4.1249  -60.4849 H   0  0  0  0  0  0  0  0  0  0  0  0
    7.9214    6.2448  -59.4636 H   0  0  0  0  0  0  0  0  0  0  0  0
    6.7699    5.4033  -58.3621 H   0  0  0  0  0  0  0  0  0  0  0  0
    8.7676    6.2446  -57.1161 H   0  0  0  0  0  0  0  0  0  0  0  0
   10.3893    6.1282  -59.0054 H   0  0  0  0  0  0  0  0  0  0  0  0
   10.9905    5.2095  -57.5789 H   0  0  0  0  0  0  0  0  0  0  0  0
   11.3275    3.9181  -59.6882 H   0  0  0  0  0  0  0  0  0  0  0  0
    9.4188    4.8969  -60.9628 H   0  0  0  0  0  0  0  0  0  0  0  0
    9.3282    3.0991  -60.9336 H   0  0  0  0  0  0  0  0  0  0  0  0
   10.1736    1.8364  -58.9496 H   0  0  0  0  0  0  0  0  0  0  0  0
   10.8539    2.7418  -57.5397 H   0  0  0  0  0  0  0  0  0  0  0  0
    9.3831    4.0652  -56.0530 H   0  0  0  0  0  0  0  0  0  0  0  0
    7.6109    4.1623  -56.3800 H   0  0  0  0  0  0  0  0  0  0  0  0
    5.4117    0.1180  -55.1351 H   0  0  0  0  0  0  0  0  0  0  0  0
    6.2242   -1.4472  -54.7613 H   0  0  0  0  0  0  0  0  0  0  0  0
    6.4371    1.1541  -53.1669 H   0  0  0  0  0  0  0  0  0  0  0  0
    5.5659   -0.3648  -52.6895 H   0  0  0  0  0  0  0  0  0  0  0  0
  1  2  1  0
  2  3  1  0
  2  4  1  0
  4  5  1  0
  5  6  1  0
  6  7  1  0
  7  8  1  0
  8  9  2  0
  8 10  1  0
 11 10  1  1
 11 12  1  0
 12 13  1  0
 13 14  1  0
 14 15  1  0
 15 16  1  0
 16 17  1  0
 17 18  1  0
 17 19  1  0
 15 20  1  0
  7 21  1  0
 21 22  1  0
 22  4  1  0
 19 11  1  0
 20 11  1  0
 18 13  1  0
  1 23  1  0
  1 24  1  0
  1 25  1  0
  2 26  1  0
  3 27  1  0
  3 28  1  0
  3 29  1  0
  4 30  1  0
  5 31  1  0
  5 32  1  0
  6 33  1  0
  6 34  1  0
 10 35  1  0
 12 36  1  0
 12 37  1  0
 13 38  1  6
 14 39  1  0
 14 40  1  0
 15 41  1  1
 16 42  1  0
 16 43  1  0
 17 44  1  6
 18 45  1  0
 18 46  1  0
 19 47  1  0
 19 48  1  0
 20 49  1  0
 20 50  1  0
 21 51  1  0
 21 52  1  0
 22 53  1  0
 22 54  1  0
M  END
>  <meeko>  (34) 
{"is_sidechain": false}

$$$$

     RDKit          3D

 75 80  0  0  0  0  0  0  0  0999 V2000
    6.2850    0.2200  -53.5630 C   0  0  0  0  0  0  0  0  0  0  0  0
    7.5500   -0.4440  -53.9850 C   0  0  0  0  0  0  0  0  0  0  0  0
    8.4290   -0.0110  -55.0210 C   0  0  0  0  0  0  0  0  0  0  0  0
    8.2850    1.1790  -55.8890 C   0  0  0  0  0  0  0  0  0  0  0  0
    7.2100    1.7370  -56.0710 O   0  0  0  0  0  0  0  0  0  0  0  0
    9.4770    1.5710  -56.4570 N   0  0  0  0  0  0  0  0  0  0  0  0
    9.6520    2.6690  -57.4070 C   0  0  2  0  0  0  0  0  0  0  0  0
    9.2480    4.0310  -56.7910 C   0  0  0  0  0  0  0  0  0  0  0  0
    9.4880    5.1720  -57.7950 C   0  0  1  0  0  0  0  0  0  0  0  0
   10.9790    5.2180  -58.1650 C   0  0  0  0  0  0  0  0  0  0  0  0
   11.4040    3.8840  -58.7980 C   0  0  2  0  0  0  0  0  0  0  0  0
   10.5700    3.6330  -60.0640 C   0  0  0  0  0  0  0  0  0  0  0  0
    9.0760    3.5780  -59.7060 C   0  0  2  0  0  0  0  0  0  0  0  0
    8.6580    4.9120  -59.0650 C   0  0  0  0  0  0  0  0  0  0  0  0
    8.8350    2.4360  -58.7020 C   0  0  0  0  0  0  0  0  0  0  0  0
   11.1530    2.7470  -57.7950 C   0  0  0  0  0  0  0  0  0  0  0  0
    9.4830   -0.8430  -55.1350 N   0  0  0  0  0  0  0  0  0  0  0  0
    9.2670   -1.7980  -54.2090 N   0  0  0  0  0  0  0  0  0  0  0  0
   10.2960   -2.8340  -54.0880 C   0  0  2  0  0  0  0  0  0  0  0  0
   11.4980   -2.3520  -53.2720 C   0  0  0  0  0  0  0  0  0  0  0  0
   10.6670   -3.4610  -55.4620 C   0  0  2  0  0  0  0  0  0  0  0  0
   11.3230   -4.8490  -55.3260 C   0  0  0  0  0  0  0  0  0  0  0  0
   11.5750   -5.6020  -56.6320 C   0  0  0  0  0  0  0  0  0  0  0  0
   12.9420   -5.2850  -57.2400 C   0  0  0  0  0  0  0  0  0  0  0  0
   13.1750   -3.8230  -57.6080 C   0  0  0  0  0  0  0  0  0  0  0  0
   11.9150   -2.9720  -57.6700 C   0  0  0  0  0  0  0  0  0  0  0  0
   11.5310   -2.5330  -56.2950 N   0  0  0  0  0  0  0  0  0  0  0  0
    8.1250   -1.5980  -53.4710 C   0  0  0  0  0  0  0  0  0  0  0  0
    7.6600   -2.4360  -52.3730 C   0  0  0  0  0  0  0  0  0  0  0  0
    8.1440   -2.2410  -51.0750 C   0  0  0  0  0  0  0  0  0  0  0  0
    7.6970   -3.0490  -50.0290 C   0  0  0  0  0  0  0  0  0  0  0  0
    6.7800   -4.0690  -50.2780 C   0  0  0  0  0  0  0  0  0  0  0  0
    6.3190   -4.2910  -51.5740 C   0  0  0  0  0  0  0  0  0  0  0  0
    6.7630   -3.4820  -52.6210 C   0  0  0  0  0  0  0  0  0  0  0  0
    6.2338    0.2469  -52.4645 H   0  0  0  0  0  0  0  0  0  0  0  0
    6.2610    1.2470  -53.9564 H   0  0  0  0  0  0  0  0  0  0  0  0
    5.4261   -0.3435  -53.9564 H   0  0  0  0  0  0  0  0  0  0  0  0
   10.2610    0.9620  -56.2450 H   0  0  0  0  0  0  0  0  0  0  0  0
    8.1816    4.0042  -56.5224 H   0  0  0  0  0  0  0  0  0  0  0  0
    9.8615    4.2113  -55.8960 H   0  0  0  0  0  0  0  0  0  0  0  0
    9.1888    6.1302  -57.3452 H   0  0  0  0  0  0  0  0  0  0  0  0
   11.1513    6.0333  -58.8830 H   0  0  0  0  0  0  0  0  0  0  0  0
   11.5720    5.3913  -57.2549 H   0  0  0  0  0  0  0  0  0  0  0  0
   12.4718    3.9220  -59.0596 H   0  0  0  0  0  0  0  0  0  0  0  0
   10.7429    4.4483  -60.7819 H   0  0  0  0  0  0  0  0  0  0  0  0
   10.8703    2.6735  -60.5103 H   0  0  0  0  0  0  0  0  0  0  0  0
    8.4842    3.4022  -60.6164 H   0  0  0  0  0  0  0  0  0  0  0  0
    8.8256    5.7287  -59.7826 H   0  0  0  0  0  0  0  0  0  0  0  0
    7.5927    4.8634  -58.7951 H   0  0  0  0  0  0  0  0  0  0  0  0
    7.7646    2.3941  -58.4518 H   0  0  0  0  0  0  0  0  0  0  0  0
    9.1558    1.4880  -59.1586 H   0  0  0  0  0  0  0  0  0  0  0  0
   11.4571    1.7926  -58.2496 H   0  0  0  0  0  0  0  0  0  0  0  0
   11.7401    2.9453  -56.8862 H   0  0  0  0  0  0  0  0  0  0  0  0
    9.8651   -3.6633  -53.5078 H   0  0  0  0  0  0  0  0  0  0  0  0
   11.2728   -2.4423  -52.1991 H   0  0  0  0  0  0  0  0  0  0  0  0
   12.3768   -2.9673  -53.5152 H   0  0  0  0  0  0  0  0  0  0  0  0
   11.7082   -1.3000  -53.5152 H   0  0  0  0  0  0  0  0  0  0  0  0
    9.7149   -3.6048  -55.9939 H   0  0  0  0  0  0  0  0  0  0  0  0
   12.2917   -4.7155  -54.8222 H   0  0  0  0  0  0  0  0  0  0  0  0
   10.6040   -5.4629  -54.7638 H   0  0  0  0  0  0  0  0  0  0  0  0
   11.5205   -6.6823  -56.4318 H   0  0  0  0  0  0  0  0  0  0  0  0
   10.8079   -5.2835  -57.3532 H   0  0  0  0  0  0  0  0  0  0  0  0
   13.7127   -5.5780  -56.5119 H   0  0  0  0  0  0  0  0  0  0  0  0
   12.9888   -5.8451  -58.1855 H   0  0  0  0  0  0  0  0  0  0  0  0
   13.8478   -3.3840  -56.8566 H   0  0  0  0  0  0  0  0  0  0  0  0
   13.5990   -3.8229  -58.6230 H   0  0  0  0  0  0  0  0  0  0  0  0
   12.1026   -2.0874  -58.2964 H   0  0  0  0  0  0  0  0  0  0  0  0
   11.0968   -3.5666  -58.1025 H   0  0  0  0  0  0  0  0  0  0  0  0
   12.3880   -2.2980  -55.7740 H   0  0  0  0  0  0  0  0  0  0  0  0
   11.0470   -1.6240  -56.3620 H   0  0  0  0  0  0  0  0  0  0  0  0
    8.8799   -1.4475  -50.8782 H   0  0  0  0  0  0  0  0  0  0  0  0
    8.0684   -2.8810  -49.0073 H   0  0  0  0  0  0  0  0  0  0  0  0
    6.4202   -4.6988  -49.4510 H   0  0  0  0  0  0  0  0  0  0  0  0
    5.6050   -5.1040  -51.7720 H   0  0  0  0  0  0  0  0  0  0  0  0
    6.4068   -3.6669  -53.6452 H   0  0  0  0  0  0  0  0  0  0  0  0
  1  2  1  0
  2  3  1  0
  3  4  1  0
  4  5  2  0
  4  6  1  0
  7  6  1  1
  7  8  1  0
  8  9  1  0
  9 10  1  0
 10 11  1  0
 11 12  1  0
 12 13  1  0
 13 14  1  0
 13 15  1  0
 11 16  1  0
  3 17  2  0
 17 18  1  0
 18 19  1  0
 19 20  1  0
 19 21  1  0
 21 22  1  0
 22 23  1  0
 23 24  1  0
 24 25  1  0
 25 26  1  0
 26 27  1  0
 18 28  1  0
 28 29  1  0
 29 30  2  0
 30 31  1  0
 31 32  2  0
 32 33  1  0
 33 34  2  0
 28  2  2  0
 34 29  1  0
 15  7  1  0
 27 21  1  0
 16  7  1  0
 14  9  1  0
  1 35  1  0
  1 36  1  0
  1 37  1  0
  6 38  1  0
  8 39  1  0
  8 40  1  0
  9 41  1  1
 10 42  1  0
 10 43  1  0
 11 44  1  6
 12 45  1  0
 12 46  1  0
 13 47  1  6
 14 48  1  0
 14 49  1  0
 15 50  1  0
 15 51  1  0
 16 52  1  0
 16 53  1  0
 19 54  1  1
 20 55  1  0
 20 56  1  0
 20 57  1  0
 21 58  1  6
 22 59  1  0
 22 60  1  0
 23 61  1  0
 23 62  1  0
 24 63  1  0
 24 64  1  0
 25 65  1  0
 25 66  1  0
 26 67  1  0
 26 68  1  0
 27 69  1  0
 27 70  1  0
 30 71  1  0
 31 72  1  0
 32 73  1  0
 33 74  1  0
 34 75  1  0
M  CHG  1  27   1
M  END
>  <meeko>  (35) 
{"is_sidechain": false}

$$$$

     RDKit          3D

 75 80  0  0  0  0  0  0  0  0999 V2000
    6.3040    0.1050  -53.8470 C   0  0  0  0  0  0  0  0  0  0  0  0
    7.6560   -0.3320  -54.2920 C   0  0  0  0  0  0  0  0  0  0  0  0
    8.4830    0.2550  -55.3000 C   0  0  0  0  0  0  0  0  0  0  0  0
    8.2560    1.4380  -56.1580 C   0  0  0  0  0  0  0  0  0  0  0  0
    7.1930    2.0490  -56.1030 O   0  0  0  0  0  0  0  0  0  0  0  0
    9.3170    1.7890  -56.9650 N   0  0  0  0  0  0  0  0  0  0  0  0
    9.3470    2.9670  -57.8400 C   0  0  2  0  0  0  0  0  0  0  0  0
    8.2240    2.9260  -58.9070 C   0  0  0  0  0  0  0  0  0  0  0  0
    8.3160    4.1480  -59.8380 C   0  0  1  0  0  0  0  0  0  0  0  0
    8.1900    5.4320  -59.0010 C   0  0  0  0  0  0  0  0  0  0  0  0
    9.3230    5.5020  -57.9630 C   0  0  2  0  0  0  0  0  0  0  0  0
   10.6770    5.4860  -58.6910 C   0  0  0  0  0  0  0  0  0  0  0  0
   10.8120    4.2000  -59.5220 C   0  0  2  0  0  0  0  0  0  0  0  0
    9.6750    4.1400  -60.5540 C   0  0  0  0  0  0  0  0  0  0  0  0
   10.7090    2.9830  -58.5890 C   0  0  0  0  0  0  0  0  0  0  0  0
    9.2320    4.2820  -57.0300 C   0  0  0  0  0  0  0  0  0  0  0  0
    9.6660   -0.3840  -55.3700 N   0  0  0  0  0  0  0  0  0  0  0  0
    9.5920   -1.3720  -54.4600 N   0  0  0  0  0  0  0  0  0  0  0  0
   10.7920   -2.1890  -54.2360 C   0  0  1  0  0  0  0  0  0  0  0  0
   11.0420   -2.3290  -52.7290 C   0  0  0  0  0  0  0  0  0  0  0  0
   10.7160   -3.6120  -54.9090 C   0  0  2  0  0  0  0  0  0  0  0  0
   11.9500   -4.4790  -54.6050 C   0  0  0  0  0  0  0  0  0  0  0  0
   12.4540   -5.3600  -55.7510 C   0  0  0  0  0  0  0  0  0  0  0  0
   13.3060   -4.6710  -56.8300 C   0  0  0  0  0  0  0  0  0  0  0  0
   12.5280   -3.8300  -57.8410 C   0  0  0  0  0  0  0  0  0  0  0  0
   11.5310   -2.8470  -57.2320 C   0  0  0  0  0  0  0  0  0  0  0  0
   10.5050   -3.5170  -56.4000 N   0  0  0  0  0  0  0  0  0  0  0  0
    8.4140   -1.3690  -53.7580 C   0  0  0  0  0  0  0  0  0  0  0  0
    8.0950   -2.2860  -52.6700 C   0  0  0  0  0  0  0  0  0  0  0  0
    7.7020   -3.5990  -52.9520 C   0  0  0  0  0  0  0  0  0  0  0  0
    7.3990   -4.4790  -51.9130 C   0  0  0  0  0  0  0  0  0  0  0  0
    7.4770   -4.0490  -50.5890 C   0  0  0  0  0  0  0  0  0  0  0  0
    7.8520   -2.7370  -50.3010 C   0  0  0  0  0  0  0  0  0  0  0  0
    8.1560   -1.8560  -51.3390 C   0  0  0  0  0  0  0  0  0  0  0  0
    6.2660    0.1173  -52.7477 H   0  0  0  0  0  0  0  0  0  0  0  0
    6.0998    1.1149  -54.2323 H   0  0  0  0  0  0  0  0  0  0  0  0
    5.5474   -0.5943  -54.2323 H   0  0  0  0  0  0  0  0  0  0  0  0
   10.2100    1.3640  -56.7510 H   0  0  0  0  0  0  0  0  0  0  0  0
    8.3263    2.0080  -59.5043 H   0  0  0  0  0  0  0  0  0  0  0  0
    7.2496    2.9416  -58.3968 H   0  0  0  0  0  0  0  0  0  0  0  0
    7.5067    4.1091  -60.5820 H   0  0  0  0  0  0  0  0  0  0  0  0
    8.2513    6.3065  -59.6655 H   0  0  0  0  0  0  0  0  0  0  0  0
    7.2228    5.4258  -58.4771 H   0  0  0  0  0  0  0  0  0  0  0  0
    9.2305    6.4259  -57.3732 H   0  0  0  0  0  0  0  0  0  0  0  0
   10.7427    6.3588  -59.3573 H   0  0  0  0  0  0  0  0  0  0  0  0
   11.4870    5.5222  -57.9477 H   0  0  0  0  0  0  0  0  0  0  0  0
   11.7831    4.1937  -60.0387 H   0  0  0  0  0  0  0  0  0  0  0  0
    9.7411    5.0128  -61.2202 H   0  0  0  0  0  0  0  0  0  0  0  0
    9.7686    3.2148  -61.1416 H   0  0  0  0  0  0  0  0  0  0  0  0
   10.8018    2.0637  -59.1858 H   0  0  0  0  0  0  0  0  0  0  0  0
   11.5168    3.0434  -57.8448 H   0  0  0  0  0  0  0  0  0  0  0  0
   10.0495    4.3268  -56.2954 H   0  0  0  0  0  0  0  0  0  0  0  0
    8.2588    4.2991  -56.5175 H   0  0  0  0  0  0  0  0  0  0  0  0
   11.6312   -1.6655  -54.7175 H   0  0  0  0  0  0  0  0  0  0  0  0
   10.2128   -1.8647  -52.1751 H   0  0  0  0  0  0  0  0  0  0  0  0
   11.1074   -3.3950  -52.4656 H   0  0  0  0  0  0  0  0  0  0  0  0
   11.9851   -1.8277  -52.4656 H   0  0  0  0  0  0  0  0  0  0  0  0
    9.8416   -4.1072  -54.4616 H   0  0  0  0  0  0  0  0  0  0  0  0
   12.7697   -3.8060  -54.3131 H   0  0  0  0  0  0  0  0  0  0  0  0
   11.6338   -5.1755  -53.8145 H   0  0  0  0  0  0  0  0  0  0  0  0
   13.0613   -6.1645  -55.3105 H   0  0  0  0  0  0  0  0  0  0  0  0
   11.5477   -5.7009  -56.2730 H   0  0  0  0  0  0  0  0  0  0  0  0
   14.0269   -4.0122  -56.3238 H   0  0  0  0  0  0  0  0  0  0  0  0
   13.7767   -5.4804  -57.4073 H   0  0  0  0  0  0  0  0  0  0  0  0
   13.2528   -3.2557  -58.4366 H   0  0  0  0  0  0  0  0  0  0  0  0
   11.9352   -4.5383  -58.4383 H   0  0  0  0  0  0  0  0  0  0  0  0
   12.0813   -2.1311  -56.6038 H   0  0  0  0  0  0  0  0  0  0  0  0
   11.0110   -2.3441  -58.0607 H   0  0  0  0  0  0  0  0  0  0  0  0
   10.4680   -4.5190  -56.7130 H   0  0  0  0  0  0  0  0  0  0  0  0
    9.5630   -3.1840  -56.6370 H   0  0  0  0  0  0  0  0  0  0  0  0
    7.6318   -3.9382  -53.9960 H   0  0  0  0  0  0  0  0  0  0  0  0
    7.0983   -5.5128  -52.1384 H   0  0  0  0  0  0  0  0  0  0  0  0
    7.2425   -4.7455  -49.7705 H   0  0  0  0  0  0  0  0  0  0  0  0
    7.9080   -2.3972  -49.2563 H   0  0  0  0  0  0  0  0  0  0  0  0
    8.4448   -0.8194  -51.1109 H   0  0  0  0  0  0  0  0  0  0  0  0
  1  2  1  0
  2  3  1  0
  3  4  1  0
  4  5  2  0
  4  6  1  0
  7  6  1  1
  7  8  1  0
  8  9  1  0
  9 10  1  0
 10 11  1  0
 11 12  1  0
 12 13  1  0
 13 14  1  0
 13 15  1  0
 11 16  1  0
  3 17  2  0
 17 18  1  0
 18 19  1  0
 19 20  1  0
 19 21  1  0
 21 22  1  0
 22 23  1  0
 23 24  1  0
 24 25  1  0
 25 26  1  0
 26 27  1  0
 18 28  1  0
 28 29  1  0
 29 30  2  0
 30 31  1  0
 31 32  2  0
 32 33  1  0
 33 34  2  0
 28  2  2  0
 34 29  1  0
 15  7  1  0
 27 21  1  0
 16  7  1  0
 14  9  1  0
  1 35  1  0
  1 36  1  0
  1 37  1  0
  6 38  1  0
  8 39  1  0
  8 40  1  0
  9 41  1  6
 10 42  1  0
 10 43  1  0
 11 44  1  1
 12 45  1  0
 12 46  1  0
 13 47  1  6
 14 48  1  0
 14 49  1  0
 15 50  1  0
 15 51  1  0
 16 52  1  0
 16 53  1  0
 19 54  1  6
 20 55  1  0
 20 56  1  0
 20 57  1  0
 21 58  1  1
 22 59  1  0
 22 60  1  0
 23 61  1  0
 23 62  1  0
 24 63  1  0
 24 64  1  0
 25 65  1  0
 25 66  1  0
 26 67  1  0
 26 68  1  0
 27 69  1  0
 27 70  1  0
 30 71  1  0
 31 72  1  0
 32 73  1  0
 33 74  1  0
 34 75  1  0
M  CHG  1  27   1
M  END
>  <meeko>  (36) 
{"is_sidechain": false}

$$$$

     RDKit          3D

 75 80  0  0  0  0  0  0  0  0999 V2000
    6.0510    0.1290  -53.6770 C   0  0  0  0  0  0  0  0  0  0  0  0
    7.3710   -0.4320  -54.0750 C   0  0  0  0  0  0  0  0  0  0  0  0
    8.2290    0.0580  -55.1060 C   0  0  0  0  0  0  0  0  0  0  0  0
    7.9850    1.2110  -56.0010 C   0  0  0  0  0  0  0  0  0  0  0  0
    6.9030    1.7810  -56.0590 O   0  0  0  0  0  0  0  0  0  0  0  0
    9.0980    1.5610  -56.7400 N   0  0  0  0  0  0  0  0  0  0  0  0
    9.1960    2.7550  -57.5860 C   0  0  2  0  0  0  0  0  0  0  0  0
   10.5930    2.7550  -58.2630 C   0  0  0  0  0  0  0  0  0  0  0  0
   10.7710    3.9890  -59.1620 C   0  0  1  0  0  0  0  0  0  0  0  0
    9.6880    3.9770  -60.2530 C   0  0  0  0  0  0  0  0  0  0  0  0
    8.2950    4.0000  -59.6070 C   0  0  2  0  0  0  0  0  0  0  0  0
    8.1540    5.2700  -58.7490 C   0  0  0  0  0  0  0  0  0  0  0  0
    9.2320    5.2910  -57.6530 C   0  0  2  0  0  0  0  0  0  0  0  0
   10.6220    5.2590  -58.3100 C   0  0  0  0  0  0  0  0  0  0  0  0
    9.0660    4.0530  -56.7530 C   0  0  0  0  0  0  0  0  0  0  0  0
    8.1290    2.7620  -58.7080 C   0  0  0  0  0  0  0  0  0  0  0  0
    9.3510   -0.6920  -55.2030 N   0  0  0  0  0  0  0  0  0  0  0  0
    9.2040   -1.6300  -54.2340 N   0  0  0  0  0  0  0  0  0  0  0  0
   10.2100   -2.6910  -54.1460 C   0  0  2  0  0  0  0  0  0  0  0  0
   11.4980   -2.1630  -53.5090 C   0  0  0  0  0  0  0  0  0  0  0  0
   10.4490   -3.3730  -55.5330 C   0  0  1  0  0  0  0  0  0  0  0  0
   11.5380   -2.6300  -56.3250 C   0  0  0  0  0  0  0  0  0  0  0  0
   11.9920   -3.3050  -57.6170 C   0  0  0  0  0  0  0  0  0  0  0  0
   13.0820   -4.3620  -57.5140 C   0  0  0  0  0  0  0  0  0  0  0  0
   12.6390   -5.6840  -56.8920 C   0  0  0  0  0  0  0  0  0  0  0  0
   11.1670   -5.6710  -56.5210 C   0  0  0  0  0  0  0  0  0  0  0  0
   10.8750   -4.8160  -55.3480 N   0  0  0  0  0  0  0  0  0  0  0  0
    8.0370   -1.5160  -53.5250 C   0  0  0  0  0  0  0  0  0  0  0  0
    7.6370   -2.4120  -52.4470 C   0  0  0  0  0  0  0  0  0  0  0  0
    8.1430   -2.2340  -51.1540 C   0  0  0  0  0  0  0  0  0  0  0  0
    7.7730   -3.1050  -50.1280 C   0  0  0  0  0  0  0  0  0  0  0  0
    6.8930   -4.1540  -50.3890 C   0  0  0  0  0  0  0  0  0  0  0  0
    6.3760   -4.3300  -51.6710 C   0  0  0  0  0  0  0  0  0  0  0  0
    6.7440   -3.4600  -52.6980 C   0  0  0  0  0  0  0  0  0  0  0  0
    5.9811    0.1587  -52.5796 H   0  0  0  0  0  0  0  0  0  0  0  0
    5.9495    1.1480  -54.0786 H   0  0  0  0  0  0  0  0  0  0  0  0
    5.2469   -0.5052  -54.0786 H   0  0  0  0  0  0  0  0  0  0  0  0
    9.9560    1.1490  -56.3990 H   0  0  0  0  0  0  0  0  0  0  0  0
   11.3698    2.7625  -57.4842 H   0  0  0  0  0  0  0  0  0  0  0  0
   10.6798    1.8527  -58.8862 H   0  0  0  0  0  0  0  0  0  0  0  0
   11.7670    3.9717  -59.6286 H   0  0  0  0  0  0  0  0  0  0  0  0
    9.8070    4.8624  -60.8948 H   0  0  0  0  0  0  0  0  0  0  0  0
    9.7922    3.0634  -60.8567 H   0  0  0  0  0  0  0  0  0  0  0  0
    7.5245    3.9938  -60.3920 H   0  0  0  0  0  0  0  0  0  0  0  0
    8.2698    6.1565  -59.3899 H   0  0  0  0  0  0  0  0  0  0  0  0
    7.1607    5.2762  -58.2764 H   0  0  0  0  0  0  0  0  0  0  0  0
    9.1287    6.2040  -57.0482 H   0  0  0  0  0  0  0  0  0  0  0  0
   10.7422    6.1444  -58.9516 H   0  0  0  0  0  0  0  0  0  0  0  0
   11.3927    5.2599  -57.5251 H   0  0  0  0  0  0  0  0  0  0  0  0
    9.8443    4.0637  -55.9758 H   0  0  0  0  0  0  0  0  0  0  0  0
    8.0680    4.0805  -56.2912 H   0  0  0  0  0  0  0  0  0  0  0  0
    7.1272    2.7769  -58.2539 H   0  0  0  0  0  0  0  0  0  0  0  0
    8.2553    1.8585  -59.3226 H   0  0  0  0  0  0  0  0  0  0  0  0
    9.8265   -3.4811  -53.4837 H   0  0  0  0  0  0  0  0  0  0  0  0
   11.4072   -2.2002  -52.4134 H   0  0  0  0  0  0  0  0  0  0  0  0
   12.3468   -2.7857  -53.8279 H   0  0  0  0  0  0  0  0  0  0  0  0
   11.6655   -1.1237  -53.8279 H   0  0  0  0  0  0  0  0  0  0  0  0
    9.5024   -3.3360  -56.0921 H   0  0  0  0  0  0  0  0  0  0  0  0
   11.1488   -1.6339  -56.5825 H   0  0  0  0  0  0  0  0  0  0  0  0
   12.4223   -2.6072  -55.6711 H   0  0  0  0  0  0  0  0  0  0  0  0
   11.1095   -3.7848  -58.0654 H   0  0  0  0  0  0  0  0  0  0  0  0
   12.4422   -2.4964  -58.2115 H   0  0  0  0  0  0  0  0  0  0  0  0
   13.4539   -4.5693  -58.5283 H   0  0  0  0  0  0  0  0  0  0  0  0
   13.8505   -3.9483  -56.8444 H   0  0  0  0  0  0  0  0  0  0  0  0
   12.8162   -6.4940  -57.6149 H   0  0  0  0  0  0  0  0  0  0  0  0
   13.2208   -5.8390  -55.9714 H   0  0  0  0  0  0  0  0  0  0  0  0
   10.5919   -5.2959  -57.3804 H   0  0  0  0  0  0  0  0  0  0  0  0
   10.8845   -6.7008  -56.2568 H   0  0  0  0  0  0  0  0  0  0  0  0
   11.6700   -4.8140  -54.6750 H   0  0  0  0  0  0  0  0  0  0  0  0
   10.1580   -5.3020  -54.7950 H   0  0  0  0  0  0  0  0  0  0  0  0
    8.8348   -1.4045  -50.9457 H   0  0  0  0  0  0  0  0  0  0  0  0
    8.1756   -2.9637  -49.1141 H   0  0  0  0  0  0  0  0  0  0  0  0
    6.6062   -4.8440  -49.5817 H   0  0  0  0  0  0  0  0  0  0  0  0
    5.6774   -5.1552  -51.8735 H   0  0  0  0  0  0  0  0  0  0  0  0
    6.3309   -3.5983  -53.7081 H   0  0  0  0  0  0  0  0  0  0  0  0
  1  2  1  0
  2  3  1  0
  3  4  1  0
  4  5  2  0
  4  6  1  0
  7  6  1  1
  7  8  1  0
  8  9  1  0
  9 10  1  0
 10 11  1  0
 11 12  1  0
 12 13  1  0
 13 14  1  0
 13 15  1  0
 11 16  1  0
  3 17  2  0
 17 18  1  0
 18 19  1  0
 19 20  1  0
 19 21  1  0
 21 22  1  0
 22 23  1  0
 23 24  1  0
 24 25  1  0
 25 26  1  0
 26 27  1  0
 18 28  1  0
 28 29  1  0
 29 30  2  0
 30 31  1  0
 31 32  2  0
 32 33  1  0
 33 34  2  0
 28  2  2  0
 34 29  1  0
 15  7  1  0
 27 21  1  0
 16  7  1  0
 14  9  1  0
  1 35  1  0
  1 36  1  0
  1 37  1  0
  6 38  1  0
  8 39  1  0
  8 40  1  0
  9 41  1  6
 10 42  1  0
 10 43  1  0
 11 44  1  6
 12 45  1  0
 12 46  1  0
 13 47  1  1
 14 48  1  0
 14 49  1  0
 15 50  1  0
 15 51  1  0
 16 52  1  0
 16 53  1  0
 19 54  1  1
 20 55  1  0
 20 56  1  0
 20 57  1  0
 21 58  1  6
 22 59  1  0
 22 60  1  0
 23 61  1  0
 23 62  1  0
 24 63  1  0
 24 64  1  0
 25 65  1  0
 25 66  1  0
 26 67  1  0
 26 68  1  0
 27 69  1  0
 27 70  1  0
 30 71  1  0
 31 72  1  0
 32 73  1  0
 33 74  1  0
 34 75  1  0
M  CHG  1  27   1
M  END
>  <meeko>  (37) 
{"is_sidechain": false}

$$$$

     RDKit          3D

 75 80  0  0  0  0  0  0  0  0999 V2000
    6.2580   -0.0190  -54.1940 C   0  0  0  0  0  0  0  0  0  0  0  0
    7.7040   -0.3110  -54.3950 C   0  0  0  0  0  0  0  0  0  0  0  0
    8.5900    0.3570  -55.2950 C   0  0  0  0  0  0  0  0  0  0  0  0
    8.2690    1.4760  -56.2090 C   0  0  0  0  0  0  0  0  0  0  0  0
    7.1350    1.9190  -56.3390 O   0  0  0  0  0  0  0  0  0  0  0  0
    9.3750    1.9490  -56.8840 N   0  0  0  0  0  0  0  0  0  0  0  0
    9.3650    2.9820  -57.9190 C   0  0  2  0  0  0  0  0  0  0  0  0
   10.7520    2.9920  -58.6140 C   0  0  0  0  0  0  0  0  0  0  0  0
   10.8070    4.0580  -59.7210 C   0  0  1  0  0  0  0  0  0  0  0  0
    9.7210    3.7560  -60.7650 C   0  0  0  0  0  0  0  0  0  0  0  0
    8.3360    3.7690  -60.1000 C   0  0  2  0  0  0  0  0  0  0  0  0
    8.0850    5.1520  -59.4740 C   0  0  0  0  0  0  0  0  0  0  0  0
    9.1680    5.4620  -58.4260 C   0  0  2  0  0  0  0  0  0  0  0  0
   10.5480    5.4410  -59.1010 C   0  0  0  0  0  0  0  0  0  0  0  0
    9.1240    4.3920  -57.3220 C   0  0  0  0  0  0  0  0  0  0  0  0
    8.2910    2.6980  -58.9970 C   0  0  0  0  0  0  0  0  0  0  0  0
    9.8350   -0.1630  -55.2240 N   0  0  0  0  0  0  0  0  0  0  0  0
    9.7300   -1.1430  -54.3060 N   0  0  0  0  0  0  0  0  0  0  0  0
   10.9420   -1.8810  -53.9420 C   0  0  1  0  0  0  0  0  0  0  0  0
   10.7490   -2.5380  -52.5710 C   0  0  0  0  0  0  0  0  0  0  0  0
   11.3170   -2.8890  -55.0630 C   0  0  1  0  0  0  0  0  0  0  0  0
   10.3220   -4.0680  -55.1750 C   0  0  0  0  0  0  0  0  0  0  0  0
   10.7460   -5.2100  -56.0980 C   0  0  0  0  0  0  0  0  0  0  0  0
   12.2540   -5.2980  -56.3770 C   0  0  0  0  0  0  0  0  0  0  0  0
   12.8580   -4.1780  -57.2410 C   0  0  0  0  0  0  0  0  0  0  0  0
   11.9180   -3.0340  -57.5880 C   0  0  0  0  0  0  0  0  0  0  0  0
   11.5210   -2.2160  -56.4080 N   0  0  0  0  0  0  0  0  0  0  0  0
    8.4760   -1.2790  -53.7730 C   0  0  0  0  0  0  0  0  0  0  0  0
    8.1170   -2.2530  -52.7510 C   0  0  0  0  0  0  0  0  0  0  0  0
    7.7290   -3.5490  -53.1130 C   0  0  0  0  0  0  0  0  0  0  0  0
    7.4130   -4.4870  -52.1300 C   0  0  0  0  0  0  0  0  0  0  0  0
    7.4780   -4.1350  -50.7830 C   0  0  0  0  0  0  0  0  0  0  0  0
    7.8510   -2.8430  -50.4160 C   0  0  0  0  0  0  0  0  0  0  0  0
    8.1680   -1.9030  -51.3970 C   0  0  0  0  0  0  0  0  0  0  0  0
    6.0391    0.0252  -53.1169 H   0  0  0  0  0  0  0  0  0  0  0  0
    6.0110    0.9471  -54.6583 H   0  0  0  0  0  0  0  0  0  0  0  0
    5.6555   -0.8136  -54.6583 H   0  0  0  0  0  0  0  0  0  0  0  0
   10.2200    1.4100  -56.7250 H   0  0  0  0  0  0  0  0  0  0  0  0
   11.5277    3.2107  -57.8654 H   0  0  0  0  0  0  0  0  0  0  0  0
   10.9225    2.0053  -59.0694 H   0  0  0  0  0  0  0  0  0  0  0  0
   11.7960    4.0475  -60.2025 H   0  0  0  0  0  0  0  0  0  0  0  0
    9.7529    4.5202  -61.5556 H   0  0  0  0  0  0  0  0  0  0  0  0
    9.9039    2.7623  -61.1998 H   0  0  0  0  0  0  0  0  0  0  0  0
    7.5630    3.5575  -60.8535 H   0  0  0  0  0  0  0  0  0  0  0  0
    8.1116    5.9186  -60.2625 H   0  0  0  0  0  0  0  0  0  0  0  0
    7.0998    5.1525  -58.9848 H   0  0  0  0  0  0  0  0  0  0  0  0
    8.9874    6.4544  -57.9872 H   0  0  0  0  0  0  0  0  0  0  0  0
   10.5794    6.2062  -59.8906 H   0  0  0  0  0  0  0  0  0  0  0  0
   11.3222    5.6509  -58.3484 H   0  0  0  0  0  0  0  0  0  0  0  0
    9.9049    4.6079  -56.5780 H   0  0  0  0  0  0  0  0  0  0  0  0
    8.1314    4.4117  -56.8484 H   0  0  0  0  0  0  0  0  0  0  0  0
    7.2964    2.7043  -58.5271 H   0  0  0  0  0  0  0  0  0  0  0  0
    8.4920    1.7151  -59.4481 H   0  0  0  0  0  0  0  0  0  0  0  0
   11.7955   -1.1930  -53.8515 H   0  0  0  0  0  0  0  0  0  0  0  0
   10.9643   -1.8050  -51.7796 H   0  0  0  0  0  0  0  0  0  0  0  0
    9.7103   -2.8871  -52.4747 H   0  0  0  0  0  0  0  0  0  0  0  0
   11.4338   -3.3934  -52.4747 H   0  0  0  0  0  0  0  0  0  0  0  0
   12.2842   -3.3145  -54.7575 H   0  0  0  0  0  0  0  0  0  0  0  0
   10.1772   -4.4844  -54.1672 H   0  0  0  0  0  0  0  0  0  0  0  0
    9.4085   -3.6471  -55.6203 H   0  0  0  0  0  0  0  0  0  0  0  0
   10.4293   -6.1567  -55.6361 H   0  0  0  0  0  0  0  0  0  0  0  0
   10.2664   -5.0133  -57.0682 H   0  0  0  0  0  0  0  0  0  0  0  0
   12.7743   -5.2901  -55.4079 H   0  0  0  0  0  0  0  0  0  0  0  0
   12.3890   -6.2209  -56.9602 H   0  0  0  0  0  0  0  0  0  0  0  0
   13.7165   -3.7571  -56.6971 H   0  0  0  0  0  0  0  0  0  0  0  0
   13.1245   -4.6485  -58.1989 H   0  0  0  0  0  0  0  0  0  0  0  0
   12.4204   -2.3779  -58.3140 H   0  0  0  0  0  0  0  0  0  0  0  0
   10.9999   -3.4808  -57.9972 H   0  0  0  0  0  0  0  0  0  0  0  0
   10.6650   -1.6970  -56.6500 H   0  0  0  0  0  0  0  0  0  0  0  0
   12.2170   -1.4660  -56.2880 H   0  0  0  0  0  0  0  0  0  0  0  0
    7.6733   -3.8281  -54.1755 H   0  0  0  0  0  0  0  0  0  0  0  0
    7.1123   -5.5051  -52.4182 H   0  0  0  0  0  0  0  0  0  0  0  0
    7.2347   -4.8775  -50.0087 H   0  0  0  0  0  0  0  0  0  0  0  0
    7.8954   -2.5645  -49.3528 H   0  0  0  0  0  0  0  0  0  0  0  0
    8.4591   -0.8831  -51.1051 H   0  0  0  0  0  0  0  0  0  0  0  0
  1  2  1  0
  2  3  1  0
  3  4  1  0
  4  5  2  0
  4  6  1  0
  7  6  1  1
  7  8  1  0
  8  9  1  0
  9 10  1  0
 10 11  1  0
 11 12  1  0
 12 13  1  0
 13 14  1  0
 13 15  1  0
 11 16  1  0
  3 17  2  0
 17 18  1  0
 18 19  1  0
 19 20  1  0
 19 21  1  0
 21 22  1  0
 22 23  1  0
 23 24  1  0
 24 25  1  0
 25 26  1  0
 26 27  1  0
 18 28  1  0
 28 29  1  0
 29 30  2  0
 30 31  1  0
 31 32  2  0
 32 33  1  0
 33 34  2  0
 28  2  2  0
 34 29  1  0
 15  7  1  0
 27 21  1  0
 16  7  1  0
 14  9  1  0
  1 35  1  0
  1 36  1  0
  1 37  1  0
  6 38  1  0
  8 39  1  0
  8 40  1  0
  9 41  1  6
 10 42  1  0
 10 43  1  0
 11 44  1  6
 12 45  1  0
 12 46  1  0
 13 47  1  1
 14 48  1  0
 14 49  1  0
 15 50  1  0
 15 51  1  0
 16 52  1  0
 16 53  1  0
 19 54  1  1
 20 55  1  0
 20 56  1  0
 20 57  1  0
 21 58  1  1
 22 59  1  0
 22 60  1  0
 23 61  1  0
 23 62  1  0
 24 63  1  0
 24 64  1  0
 25 65  1  0
 25 66  1  0
 26 67  1  0
 26 68  1  0
 27 69  1  0
 27 70  1  0
 30 71  1  0
 31 72  1  0
 32 73  1  0
 33 74  1  0
 34 75  1  0
M  CHG  1  27   1
M  END
>  <meeko>  (38) 
{"is_sidechain": false}

$$$$

     RDKit          3D

 18 17  0  0  0  0  0  0  0  0999 V2000
   13.4880    4.2850  -59.3770 C   0  0  0  0  0  0  0  0  0  0  0  0
   12.5680    4.4400  -58.1810 C   0  0  0  0  0  0  0  0  0  0  0  0
   11.5650    5.3950  -58.5130 O   0  0  0  0  0  0  0  0  0  0  0  0
   11.1770    5.3480  -59.8880 C   0  0  0  0  0  0  0  0  0  0  0  0
    9.9000    4.5960  -60.0740 C   0  0  0  0  0  0  0  0  0  0  0  0
    9.7120    3.6190  -60.9770 C   0  0  0  0  0  0  0  0  0  0  0  0
    8.4000    2.8360  -61.1030 C   0  0  0  0  0  0  0  0  0  0  0  0
    8.5640    1.5910  -61.2490 O   0  0  0  0  0  0  0  0  0  0  0  0
    7.3350    3.5100  -61.0330 O   0  0  0  0  0  0  0  0  0  0  0  0
   14.5167    4.1117  -59.0282 H   0  0  0  0  0  0  0  0  0  0  0  0
   13.1580    3.4298  -59.9850 H   0  0  0  0  0  0  0  0  0  0  0  0
   13.4564    5.2011  -59.9850 H   0  0  0  0  0  0  0  0  0  0  0  0
   12.0986    3.4737  -57.9444 H   0  0  0  0  0  0  0  0  0  0  0  0
   13.1388    4.7774  -57.3033 H   0  0  0  0  0  0  0  0  0  0  0  0
   11.0428    6.3758  -60.2563 H   0  0  0  0  0  0  0  0  0  0  0  0
   11.9669    4.8288  -60.4506 H   0  0  0  0  0  0  0  0  0  0  0  0
    9.0524    4.8611  -59.4250 H   0  0  0  0  0  0  0  0  0  0  0  0
   10.5387    3.3691  -61.6582 H   0  0  0  0  0  0  0  0  0  0  0  0
  1  2  1  0
  2  3  1  0
  3  4  1  0
  4  5  1  0
  5  6  2  0
  6  7  1  0
  7  8  2  0
  7  9  1  0
  1 10  1  0
  1 11  1  0
  1 12  1  0
  2 13  1  0
  2 14  1  0
  4 15  1  0
  4 16  1  0
  5 17  1  0
  6 18  1  0
M  CHG  1   9  -1
M  END
>  <meeko>  (39) 
{"is_sidechain": false}

$$$$

     RDKit          3D

 64 67  0  0  0  0  0  0  0  0999 V2000
    6.3000    2.2210  -56.8960 C   0  0  0  0  0  0  0  0  0  0  0  0
    7.7860    1.9230  -56.8610 C   0  0  0  0  0  0  0  0  0  0  0  0
    8.3890    1.0840  -55.9610 C   0  0  0  0  0  0  0  0  0  0  0  0
    7.5480    0.4360  -54.9280 C   0  0  0  0  0  0  0  0  0  0  0  0
    6.6500   -0.5830  -55.2690 C   0  0  0  0  0  0  0  0  0  0  0  0
    5.8620   -1.1860  -54.2890 C   0  0  0  0  0  0  0  0  0  0  0  0
    5.9580   -0.7680  -52.9620 C   0  0  0  0  0  0  0  0  0  0  0  0
    6.8390    0.2540  -52.6130 C   0  0  0  0  0  0  0  0  0  0  0  0
    7.6300    0.8580  -53.5920 C   0  0  0  0  0  0  0  0  0  0  0  0
    9.7970    0.8360  -55.9510 N   0  0  0  0  0  0  0  0  0  0  0  0
   10.4150   -0.1130  -55.0140 C   0  0  0  0  0  0  0  0  0  0  0  0
   10.2290   -1.6050  -55.3760 C   0  0  1  0  0  0  0  0  0  0  0  0
   11.3550   -2.1090  -56.3160 C   0  0  0  0  0  0  0  0  0  0  0  0
   11.2880   -3.5510  -56.8670 C   0  0  0  0  0  0  0  0  0  0  0  0
   11.9620   -4.5020  -55.8680 C   0  0  0  0  0  0  0  0  0  0  0  0
   11.9420   -3.7220  -58.2370 C   0  0  0  0  0  0  0  0  0  0  0  0
   10.0970   -2.4890  -54.1320 C   0  0  2  0  0  0  0  0  0  0  0  0
    8.8060   -3.3200  -53.9780 C   0  0  0  0  0  0  0  0  0  0  0  0
    8.6700   -2.6200  -52.6230 C   0  0  1  0  0  0  0  0  0  0  0  0
    8.9620   -3.4350  -51.3580 C   0  0  2  0  0  0  0  0  0  0  0  0
    8.0750   -2.9700  -50.2090 C   0  0  0  0  0  0  0  0  0  0  0  0
   10.3350   -3.3120  -50.9780 O   0  0  0  0  0  0  0  0  0  0  0  0
    9.7400   -1.6990  -52.9600 O   0  0  0  0  0  0  0  0  0  0  0  0
   10.6980    1.4840  -56.8390 C   0  0  0  0  0  0  0  0  0  0  0  0
   11.9200    1.3520  -56.8070 O   0  0  0  0  0  0  0  0  0  0  0  0
   10.0570    2.3440  -57.7980 C   0  0  0  0  0  0  0  0  0  0  0  0
   10.5050    3.1440  -58.8690 C   0  0  0  0  0  0  0  0  0  0  0  0
   11.8960    3.3330  -59.3430 C   0  0  0  0  0  0  0  0  0  0  0  0
    9.4780    3.7700  -59.4730 N   0  0  0  0  0  0  0  0  0  0  0  0
    8.3930    3.3590  -58.7840 N   0  0  0  0  0  0  0  0  0  0  0  0
    8.7020    2.5110  -57.7700 C   0  0  0  0  0  0  0  0  0  0  0  0
    5.9171    2.2978  -55.8677 H   0  0  0  0  0  0  0  0  0  0  0  0
    6.1289    3.1713  -57.4229 H   0  0  0  0  0  0  0  0  0  0  0  0
    5.7757    1.4101  -57.4229 H   0  0  0  0  0  0  0  0  0  0  0  0
    6.5657   -0.9097  -56.3160 H   0  0  0  0  0  0  0  0  0  0  0  0
    5.1646   -1.9914  -54.5628 H   0  0  0  0  0  0  0  0  0  0  0  0
    5.3374   -1.2457  -52.1895 H   0  0  0  0  0  0  0  0  0  0  0  0
    6.9111    0.5846  -51.5663 H   0  0  0  0  0  0  0  0  0  0  0  0
    8.3206    1.6682  -53.3151 H   0  0  0  0  0  0  0  0  0  0  0  0
   11.4941    0.0972  -54.9777 H   0  0  0  0  0  0  0  0  0  0  0  0
    9.9083    0.0343  -54.0489 H   0  0  0  0  0  0  0  0  0  0  0  0
    9.2795   -1.6833  -55.9258 H   0  0  0  0  0  0  0  0  0  0  0  0
   11.3751   -1.4338  -57.1842 H   0  0  0  0  0  0  0  0  0  0  0  0
   12.2482   -2.1155  -55.6741 H   0  0  0  0  0  0  0  0  0  0  0  0
   10.2215   -3.7874  -56.9965 H   0  0  0  0  0  0  0  0  0  0  0  0
   11.7327   -4.1785  -54.8419 H   0  0  0  0  0  0  0  0  0  0  0  0
   11.5853   -5.5238  -56.0231 H   0  0  0  0  0  0  0  0  0  0  0  0
   13.0509   -4.4851  -56.0231 H   0  0  0  0  0  0  0  0  0  0  0  0
   12.9988   -3.9983  -58.1069 H   0  0  0  0  0  0  0  0  0  0  0  0
   11.4219   -4.5143  -58.7953 H   0  0  0  0  0  0  0  0  0  0  0  0
   11.8763   -2.7765  -58.7953 H   0  0  0  0  0  0  0  0  0  0  0  0
   11.0442   -3.0414  -54.2192 H   0  0  0  0  0  0  0  0  0  0  0  0
    8.0127   -3.0902  -54.7046 H   0  0  0  0  0  0  0  0  0  0  0  0
    8.7818   -4.4139  -54.0912 H   0  0  0  0  0  0  0  0  0  0  0  0
    7.6675   -2.2706  -52.3351 H   0  0  0  0  0  0  0  0  0  0  0  0
    8.7472   -4.4907  -51.5803 H   0  0  0  0  0  0  0  0  0  0  0  0
    8.5540   -3.2211  -49.2512 H   0  0  0  0  0  0  0  0  0  0  0  0
    7.9324   -1.8812  -50.2733 H   0  0  0  0  0  0  0  0  0  0  0  0
    7.0984   -3.4721  -50.2733 H   0  0  0  0  0  0  0  0  0  0  0  0
   10.8390   -3.9660  -51.4920 H   0  0  0  0  0  0  0  0  0  0  0  0
   12.5690    3.4244  -58.4777 H   0  0  0  0  0  0  0  0  0  0  0  0
   12.1968    2.4675  -59.9516 H   0  0  0  0  0  0  0  0  0  0  0  0
   11.9549    4.2474  -59.9516 H   0  0  0  0  0  0  0  0  0  0  0  0
    7.4840    3.7070  -59.0690 H   0  0  0  0  0  0  0  0  0  0  0  0
  1  2  1  0
  2  3  2  0
  3  4  1  0
  4  5  2  0
  5  6  1  0
  6  7  2  0
  7  8  1  0
  8  9  2  0
  3 10  1  0
 10 11  1  0
 11 12  1  0
 12 13  1  0
 13 14  1  0
 14 15  1  0
 14 16  1  0
 12 17  1  0
 17 18  1  0
 18 19  1  0
 19 20  1  0
 20 21  1  0
 20 22  1  0
 19 23  1  0
 10 24  1  0
 24 25  2  0
 24 26  1  0
 26 27  1  0
 27 28  1  0
 27 29  2  0
 29 30  1  0
 30 31  1  0
 31  2  1  0
  9  4  1  0
 23 17  1  0
 31 26  2  0
  1 32  1  0
  1 33  1  0
  1 34  1  0
  5 35  1  0
  6 36  1  0
  7 37  1  0
  8 38  1  0
  9 39  1  0
 11 40  1  0
 11 41  1  0
 12 42  1  6
 13 43  1  0
 13 44  1  0
 14 45  1  0
 15 46  1  0
 15 47  1  0
 15 48  1  0
 16 49  1  0
 16 50  1  0
 16 51  1  0
 17 52  1  1
 18 53  1  0
 18 54  1  0
 19 55  1  1
 20 56  1  6
 21 57  1  0
 21 58  1  0
 21 59  1  0
 22 60  1  0
 28 61  1  0
 28 62  1  0
 28 63  1  0
 30 64  1  0
M  END
>  <meeko>  (40) 
{"is_sidechain": false}

$$$$

     RDKit          3D

 64 67  0  0  0  0  0  0  0  0999 V2000
    7.9820    3.0070  -62.6780 C   0  0  0  0  0  0  0  0  0  0  0  0
    7.1500    2.7950  -61.4290 C   0  0  0  0  0  0  0  0  0  0  0  0
    7.5620    3.0980  -60.1590 C   0  0  0  0  0  0  0  0  0  0  0  0
    8.9100    3.6860  -59.9780 C   0  0  0  0  0  0  0  0  0  0  0  0
   10.0600    2.9740  -60.3440 C   0  0  0  0  0  0  0  0  0  0  0  0
   11.3230    3.5440  -60.1790 C   0  0  0  0  0  0  0  0  0  0  0  0
   11.4460    4.8300  -59.6560 C   0  0  0  0  0  0  0  0  0  0  0  0
   10.3070    5.5520  -59.3010 C   0  0  0  0  0  0  0  0  0  0  0  0
    9.0420    4.9850  -59.4630 C   0  0  0  0  0  0  0  0  0  0  0  0
    6.7390    2.9030  -59.0060 N   0  0  0  0  0  0  0  0  0  0  0  0
    7.2020    3.2210  -57.6460 C   0  0  0  0  0  0  0  0  0  0  0  0
    8.0150    2.0830  -56.9720 C   0  0  1  0  0  0  0  0  0  0  0  0
    9.4070    2.5970  -56.5340 C   0  0  0  0  0  0  0  0  0  0  0  0
   10.5990    1.8230  -57.1450 C   0  0  0  0  0  0  0  0  0  0  0  0
   11.8940    2.6290  -56.9980 C   0  0  0  0  0  0  0  0  0  0  0  0
   10.7820    0.4590  -56.4720 C   0  0  0  0  0  0  0  0  0  0  0  0
    7.2450    1.4960  -55.7770 C   0  0  2  0  0  0  0  0  0  0  0  0
    7.9940    0.7700  -54.6480 C   0  0  0  0  0  0  0  0  0  0  0  0
    7.1630   -0.4520  -55.0590 C   0  0  1  0  0  0  0  0  0  0  0  0
    6.1350   -1.0710  -54.1070 C   0  0  1  0  0  0  0  0  0  0  0  0
    6.6460   -2.3030  -53.3750 C   0  0  0  0  0  0  0  0  0  0  0  0
    5.7810   -0.0890  -53.1270 O   0  0  0  0  0  0  0  0  0  0  0  0
    6.5150    0.2920  -56.1300 O   0  0  0  0  0  0  0  0  0  0  0  0
    5.3950    2.4430  -59.0900 C   0  0  0  0  0  0  0  0  0  0  0  0
    4.6410    2.3380  -58.1260 O   0  0  0  0  0  0  0  0  0  0  0  0
    4.9770    2.0980  -60.4220 C   0  0  0  0  0  0  0  0  0  0  0  0
    3.7970    1.5750  -60.9870 C   0  0  0  0  0  0  0  0  0  0  0  0
    2.5420    1.2000  -60.2930 C   0  0  0  0  0  0  0  0  0  0  0  0
    3.9170    1.4300  -62.3190 N   0  0  0  0  0  0  0  0  0  0  0  0
    5.1660    1.8650  -62.5870 N   0  0  0  0  0  0  0  0  0  0  0  0
    5.8310    2.2750  -61.4740 C   0  0  0  0  0  0  0  0  0  0  0  0
    9.0115    3.2693  -62.3927 H   0  0  0  0  0  0  0  0  0  0  0  0
    7.9910    2.0824  -63.2739 H   0  0  0  0  0  0  0  0  0  0  0  0
    7.5474    3.8231  -63.2739 H   0  0  0  0  0  0  0  0  0  0  0  0
    9.9668    1.9613  -60.7632 H   0  0  0  0  0  0  0  0  0  0  0  0
   12.2225    2.9777  -60.4620 H   0  0  0  0  0  0  0  0  0  0  0  0
   12.4427    5.2760  -59.5231 H   0  0  0  0  0  0  0  0  0  0  0  0
   10.4056    6.5688  -58.8931 H   0  0  0  0  0  0  0  0  0  0  0  0
    8.1450    5.5583  -59.1860 H   0  0  0  0  0  0  0  0  0  0  0  0
    7.8387    4.1165  -57.6982 H   0  0  0  0  0  0  0  0  0  0  0  0
    6.3024    3.3752  -57.0321 H   0  0  0  0  0  0  0  0  0  0  0  0
    8.1616    1.2790  -57.7082 H   0  0  0  0  0  0  0  0  0  0  0  0
    9.4932    3.6521  -56.8330 H   0  0  0  0  0  0  0  0  0  0  0  0
    9.4653    2.4518  -55.4452 H   0  0  0  0  0  0  0  0  0  0  0  0
   10.3767    1.6672  -58.2110 H   0  0  0  0  0  0  0  0  0  0  0  0
   12.1194    2.7693  -55.9305 H   0  0  0  0  0  0  0  0  0  0  0  0
   12.7207    2.0856  -57.4790 H   0  0  0  0  0  0  0  0  0  0  0  0
   11.7715    3.6107  -57.4790 H   0  0  0  0  0  0  0  0  0  0  0  0
   10.7652    0.5841  -55.3793 H   0  0  0  0  0  0  0  0  0  0  0  0
    9.9659   -0.2127  -56.7767 H   0  0  0  0  0  0  0  0  0  0  0  0
   11.7463    0.0262  -56.7767 H   0  0  0  0  0  0  0  0  0  0  0  0
    6.7504    2.4343  -55.4857 H   0  0  0  0  0  0  0  0  0  0  0  0
    9.0793    0.6689  -54.7963 H   0  0  0  0  0  0  0  0  0  0  0  0
    8.0325    1.1479  -53.6157 H   0  0  0  0  0  0  0  0  0  0  0  0
    7.7471   -1.3708  -55.2156 H   0  0  0  0  0  0  0  0  0  0  0  0
    5.2783   -1.3869  -54.7205 H   0  0  0  0  0  0  0  0  0  0  0  0
    6.5780   -2.1390  -52.2894 H   0  0  0  0  0  0  0  0  0  0  0  0
    6.0351   -3.1745  -53.6532 H   0  0  0  0  0  0  0  0  0  0  0  0
    7.6943   -2.4863  -53.6532 H   0  0  0  0  0  0  0  0  0  0  0  0
    5.7400   -0.5650  -52.2750 H   0  0  0  0  0  0  0  0  0  0  0  0
    2.6968    1.2463  -59.2049 H   0  0  0  0  0  0  0  0  0  0  0  0
    1.7418    1.8983  -60.5795 H   0  0  0  0  0  0  0  0  0  0  0  0
    2.2561    0.1772  -60.5795 H   0  0  0  0  0  0  0  0  0  0  0  0
    5.4830    1.8510  -63.5500 H   0  0  0  0  0  0  0  0  0  0  0  0
  1  2  1  0
  2  3  2  0
  3  4  1  0
  4  5  2  0
  5  6  1  0
  6  7  2  0
  7  8  1  0
  8  9  2  0
  3 10  1  0
 10 11  1  0
 11 12  1  0
 12 13  1  0
 13 14  1  0
 14 15  1  0
 14 16  1  0
 12 17  1  0
 17 18  1  0
 18 19  1  0
 19 20  1  0
 20 21  1  0
 20 22  1  0
 19 23  1  0
 10 24  1  0
 24 25  2  0
 24 26  1  0
 26 27  1  0
 27 28  1  0
 27 29  2  0
 29 30  1  0
 30 31  1  0
 31  2  1  0
  9  4  1  0
 23 17  1  0
 31 26  2  0
  1 32  1  0
  1 33  1  0
  1 34  1  0
  5 35  1  0
  6 36  1  0
  7 37  1  0
  8 38  1  0
  9 39  1  0
 11 40  1  0
 11 41  1  0
 12 42  1  6
 13 43  1  0
 13 44  1  0
 14 45  1  0
 15 46  1  0
 15 47  1  0
 15 48  1  0
 16 49  1  0
 16 50  1  0
 16 51  1  0
 17 52  1  1
 18 53  1  0
 18 54  1  0
 19 55  1  6
 20 56  1  6
 21 57  1  0
 21 58  1  0
 21 59  1  0
 22 60  1  0
 28 61  1  0
 28 62  1  0
 28 63  1  0
 30 64  1  0
M  END
>  <meeko>  (41) 
{"is_sidechain": false}

$$$$

     RDKit          3D

 64 67  0  0  0  0  0  0  0  0999 V2000
   12.1730    3.2870  -59.0650 C   0  0  0  0  0  0  0  0  0  0  0  0
   10.7440    3.1570  -58.6680 C   0  0  0  0  0  0  0  0  0  0  0  0
    9.7690    3.8110  -59.2440 N   0  0  0  0  0  0  0  0  0  0  0  0
    8.5320    3.4280  -58.5980 N   0  0  0  0  0  0  0  0  0  0  0  0
    8.8150    2.5610  -57.6650 C   0  0  0  0  0  0  0  0  0  0  0  0
    7.8930    1.8970  -56.7230 C   0  0  0  0  0  0  0  0  0  0  0  0
    6.4560    2.3070  -56.8400 C   0  0  0  0  0  0  0  0  0  0  0  0
    8.4630    1.0220  -55.8610 C   0  0  0  0  0  0  0  0  0  0  0  0
    7.5780    0.3730  -54.8660 C   0  0  0  0  0  0  0  0  0  0  0  0
    6.6600   -0.6120  -55.2580 C   0  0  0  0  0  0  0  0  0  0  0  0
    5.8240   -1.2100  -54.3140 C   0  0  0  0  0  0  0  0  0  0  0  0
    5.8900   -0.8220  -52.9770 C   0  0  0  0  0  0  0  0  0  0  0  0
    6.7880    0.1690  -52.5800 C   0  0  0  0  0  0  0  0  0  0  0  0
    7.6260    0.7670  -53.5210 C   0  0  0  0  0  0  0  0  0  0  0  0
    9.8560    0.7280  -55.8350 N   0  0  0  0  0  0  0  0  0  0  0  0
   10.4220   -0.2930  -54.9140 C   0  0  0  0  0  0  0  0  0  0  0  0
   10.2500   -1.7490  -55.4170 C   0  0  1  0  0  0  0  0  0  0  0  0
   11.4220   -2.2340  -56.3040 C   0  0  0  0  0  0  0  0  0  0  0  0
   11.2640   -3.6800  -56.8190 C   0  0  0  0  0  0  0  0  0  0  0  0
   11.8540   -3.8010  -58.2260 C   0  0  0  0  0  0  0  0  0  0  0  0
   11.9460   -4.6890  -55.8900 C   0  0  0  0  0  0  0  0  0  0  0  0
   10.0690   -2.6340  -54.1700 C   0  0  2  0  0  0  0  0  0  0  0  0
    8.7770   -3.4360  -53.9540 C   0  0  0  0  0  0  0  0  0  0  0  0
    8.6600   -2.6450  -52.6420 C   0  0  1  0  0  0  0  0  0  0  0  0
    8.7930   -3.3580  -51.2920 C   0  0  2  0  0  0  0  0  0  0  0  0
    7.9360   -2.7500  -50.1910 C   0  0  0  0  0  0  0  0  0  0  0  0
   10.1660   -3.3410  -50.8890 O   0  0  0  0  0  0  0  0  0  0  0  0
    9.8340   -1.8520  -52.9690 O   0  0  0  0  0  0  0  0  0  0  0  0
   10.7170    1.4180  -56.7100 C   0  0  0  0  0  0  0  0  0  0  0  0
   12.0620    1.1330  -56.5940 O   0  0  0  0  0  0  0  0  0  0  0  0
   10.2460    2.2910  -57.6080 C   0  0  0  0  0  0  0  0  0  0  0  0
   12.8003    3.3441  -58.1632 H   0  0  0  0  0  0  0  0  0  0  0  0
   12.4686    2.4120  -59.6625 H   0  0  0  0  0  0  0  0  0  0  0  0
   12.3059    4.2009  -59.6625 H   0  0  0  0  0  0  0  0  0  0  0  0
    6.0266    2.4295  -55.8347 H   0  0  0  0  0  0  0  0  0  0  0  0
    6.3898    3.2599  -57.3856 H   0  0  0  0  0  0  0  0  0  0  0  0
    5.8970    1.5325  -57.3856 H   0  0  0  0  0  0  0  0  0  0  0  0
    6.5986   -0.9145  -56.3138 H   0  0  0  0  0  0  0  0  0  0  0  0
    5.1121   -1.9885  -54.6255 H   0  0  0  0  0  0  0  0  0  0  0  0
    5.2332   -1.2978  -52.2339 H   0  0  0  0  0  0  0  0  0  0  0  0
    6.8351    0.4786  -51.5255 H   0  0  0  0  0  0  0  0  0  0  0  0
    8.3288    1.5525  -53.2062 H   0  0  0  0  0  0  0  0  0  0  0  0
   11.4966   -0.0925  -54.7914 H   0  0  0  0  0  0  0  0  0  0  0  0
    9.8695   -0.2128  -53.9662 H   0  0  0  0  0  0  0  0  0  0  0  0
    9.3704   -1.8091  -56.0747 H   0  0  0  0  0  0  0  0  0  0  0  0
   11.4982   -1.5639  -57.1730 H   0  0  0  0  0  0  0  0  0  0  0  0
   12.3244   -2.2174  -55.6753 H   0  0  0  0  0  0  0  0  0  0  0  0
   10.1885   -3.9097  -56.8431 H   0  0  0  0  0  0  0  0  0  0  0  0
   12.9293   -4.0215  -58.1550 H   0  0  0  0  0  0  0  0  0  0  0  0
   11.3479   -4.6140  -58.7671 H   0  0  0  0  0  0  0  0  0  0  0  0
   11.7088   -2.8544  -58.7671 H   0  0  0  0  0  0  0  0  0  0  0  0
   11.7570   -4.4094  -54.8430 H   0  0  0  0  0  0  0  0  0  0  0  0
   11.5413   -5.6940  -56.0799 H   0  0  0  0  0  0  0  0  0  0  0  0
   13.0295   -4.6881  -56.0799 H   0  0  0  0  0  0  0  0  0  0  0  0
   10.9740   -3.2381  -54.3312 H   0  0  0  0  0  0  0  0  0  0  0  0
    7.9800   -3.2453  -54.6877 H   0  0  0  0  0  0  0  0  0  0  0  0
    8.7403   -4.5346  -53.9960 H   0  0  0  0  0  0  0  0  0  0  0  0
    7.6731   -2.2029  -52.4407 H   0  0  0  0  0  0  0  0  0  0  0  0
    8.4299   -4.3861  -51.4376 H   0  0  0  0  0  0  0  0  0  0  0  0
    8.3414   -3.0376  -49.2097 H   0  0  0  0  0  0  0  0  0  0  0  0
    7.9433   -1.6539  -50.2838 H   0  0  0  0  0  0  0  0  0  0  0  0
    6.9039   -3.1190  -50.2838 H   0  0  0  0  0  0  0  0  0  0  0  0
   10.5880   -2.5570  -51.2790 H   0  0  0  0  0  0  0  0  0  0  0  0
   12.4290    0.8850  -57.4550 H   0  0  0  0  0  0  0  0  0  0  0  0
  1  2  1  0
  2  3  2  0
  3  4  1  0
  4  5  2  0
  5  6  1  0
  6  7  1  0
  6  8  2  0
  8  9  1  0
  9 10  2  0
 10 11  1  0
 11 12  2  0
 12 13  1  0
 13 14  2  0
  8 15  1  0
 15 16  1  0
 16 17  1  0
 17 18  1  0
 18 19  1  0
 19 20  1  0
 19 21  1  0
 17 22  1  0
 22 23  1  0
 23 24  1  0
 24 25  1  0
 25 26  1  0
 25 27  1  0
 24 28  1  0
 15 29  1  0
 29 30  1  0
 29 31  2  0
 31  2  1  0
 31  5  1  0
 14  9  1  0
 28 22  1  0
  1 32  1  0
  1 33  1  0
  1 34  1  0
  7 35  1  0
  7 36  1  0
  7 37  1  0
 10 38  1  0
 11 39  1  0
 12 40  1  0
 13 41  1  0
 14 42  1  0
 16 43  1  0
 16 44  1  0
 17 45  1  6
 18 46  1  0
 18 47  1  0
 19 48  1  0
 20 49  1  0
 20 50  1  0
 20 51  1  0
 21 52  1  0
 21 53  1  0
 21 54  1  0
 22 55  1  1
 23 56  1  0
 23 57  1  0
 24 58  1  1
 25 59  1  6
 26 60  1  0
 26 61  1  0
 26 62  1  0
 27 63  1  0
 30 64  1  0
M  END
>  <meeko>  (42) 
{"is_sidechain": false}

$$$$

     RDKit          3D

 64 67  0  0  0  0  0  0  0  0999 V2000
    2.5310    1.1550  -60.6050 C   0  0  0  0  0  0  0  0  0  0  0  0
    3.7300    1.5800  -61.3770 C   0  0  0  0  0  0  0  0  0  0  0  0
    3.8110    1.6030  -62.6840 N   0  0  0  0  0  0  0  0  0  0  0  0
    5.1410    2.0770  -63.0420 N   0  0  0  0  0  0  0  0  0  0  0  0
    5.7930    2.3140  -61.9380 C   0  0  0  0  0  0  0  0  0  0  0  0
    7.1860    2.7700  -61.7500 C   0  0  0  0  0  0  0  0  0  0  0  0
    7.9750    2.9260  -63.0160 C   0  0  0  0  0  0  0  0  0  0  0  0
    7.5800    2.9620  -60.4660 C   0  0  0  0  0  0  0  0  0  0  0  0
    8.9810    3.3930  -60.2400 C   0  0  0  0  0  0  0  0  0  0  0  0
    9.2730    4.7060  -59.8420 C   0  0  0  0  0  0  0  0  0  0  0  0
   10.5960    5.1070  -59.6440 C   0  0  0  0  0  0  0  0  0  0  0  0
   11.6360    4.2010  -59.8460 C   0  0  0  0  0  0  0  0  0  0  0  0
   11.3580    2.8970  -60.2540 C   0  0  0  0  0  0  0  0  0  0  0  0
   10.0360    2.4950  -60.4560 C   0  0  0  0  0  0  0  0  0  0  0  0
    6.7400    2.7390  -59.3290 N   0  0  0  0  0  0  0  0  0  0  0  0
    7.1290    3.2370  -57.9800 C   0  0  0  0  0  0  0  0  0  0  0  0
    7.8720    2.1840  -57.1200 C   0  0  1  0  0  0  0  0  0  0  0  0
    9.2270    2.6920  -56.5710 C   0  0  0  0  0  0  0  0  0  0  0  0
   10.4510    1.9150  -57.0990 C   0  0  0  0  0  0  0  0  0  0  0  0
   11.7290    2.7190  -56.8460 C   0  0  0  0  0  0  0  0  0  0  0  0
   10.5750    0.5370  -56.4430 C   0  0  0  0  0  0  0  0  0  0  0  0
    6.9670    1.8250  -55.9270 C   0  0  2  0  0  0  0  0  0  0  0  0
    7.6110    1.0580  -54.7580 C   0  0  0  0  0  0  0  0  0  0  0  0
    6.9150   -0.1710  -55.3570 C   0  0  1  0  0  0  0  0  0  0  0  0
    6.0390   -0.9940  -54.4160 C   0  0  1  0  0  0  0  0  0  0  0  0
    6.6420   -2.3720  -54.1810 C   0  0  0  0  0  0  0  0  0  0  0  0
    5.9210   -0.3100  -53.1660 O   0  0  0  0  0  0  0  0  0  0  0  0
    6.1220    0.6800  -56.2300 O   0  0  0  0  0  0  0  0  0  0  0  0
    5.4530    2.2130  -59.5500 C   0  0  0  0  0  0  0  0  0  0  0  0
    4.6790    1.8560  -58.4690 O   0  0  0  0  0  0  0  0  0  0  0  0
    4.9680    2.0360  -60.7770 C   0  0  0  0  0  0  0  0  0  0  0  0
    2.7427    1.2300  -59.5282 H   0  0  0  0  0  0  0  0  0  0  0  0
    1.6819    1.8069  -60.8581 H   0  0  0  0  0  0  0  0  0  0  0  0
    2.2820    0.1139  -60.8581 H   0  0  0  0  0  0  0  0  0  0  0  0
    9.0266    3.1339  -62.7694 H   0  0  0  0  0  0  0  0  0  0  0  0
    7.9127    1.9982  -63.6036 H   0  0  0  0  0  0  0  0  0  0  0  0
    7.5643    3.7603  -63.6036 H   0  0  0  0  0  0  0  0  0  0  0  0
    8.4548    5.4243  -59.6849 H   0  0  0  0  0  0  0  0  0  0  0  0
   10.8173    6.1374  -59.3288 H   0  0  0  0  0  0  0  0  0  0  0  0
   12.6775    4.5153  -59.6833 H   0  0  0  0  0  0  0  0  0  0  0  0
   12.1803    2.1847  -60.4168 H   0  0  0  0  0  0  0  0  0  0  0  0
    9.8211    1.4681  -60.7864 H   0  0  0  0  0  0  0  0  0  0  0  0
    7.7875    4.1088  -58.1078 H   0  0  0  0  0  0  0  0  0  0  0  0
    6.1992    3.4889  -57.4489 H   0  0  0  0  0  0  0  0  0  0  0  0
    8.0866    1.3173  -57.7625 H   0  0  0  0  0  0  0  0  0  0  0  0
    9.3402    3.7489  -56.8541 H   0  0  0  0  0  0  0  0  0  0  0  0
    9.2033    2.5447  -55.4812 H   0  0  0  0  0  0  0  0  0  0  0  0
   10.3096    1.7663  -58.1797 H   0  0  0  0  0  0  0  0  0  0  0  0
   11.8900    2.8203  -55.7626 H   0  0  0  0  0  0  0  0  0  0  0  0
   12.5859    2.1970  -57.2968 H   0  0  0  0  0  0  0  0  0  0  0  0
   11.6294    3.7174  -57.2968 H   0  0  0  0  0  0  0  0  0  0  0  0
   10.5649    0.6495  -55.3488 H   0  0  0  0  0  0  0  0  0  0  0  0
    9.7301   -0.0947  -56.7545 H   0  0  0  0  0  0  0  0  0  0  0  0
   11.5191    0.0663  -56.7545 H   0  0  0  0  0  0  0  0  0  0  0  0
    6.5625    2.8256  -55.7144 H   0  0  0  0  0  0  0  0  0  0  0  0
    8.7105    1.0251  -54.7687 H   0  0  0  0  0  0  0  0  0  0  0  0
    7.4954    1.3597  -53.7065 H   0  0  0  0  0  0  0  0  0  0  0  0
    7.5507   -0.9803  -55.7455 H   0  0  0  0  0  0  0  0  0  0  0  0
    5.0479   -1.1195  -54.8763 H   0  0  0  0  0  0  0  0  0  0  0  0
    6.7231   -2.5572  -53.0997 H   0  0  0  0  0  0  0  0  0  0  0  0
    5.9965   -3.1373  -54.6367 H   0  0  0  0  0  0  0  0  0  0  0  0
    7.6421   -2.4172  -54.6367 H   0  0  0  0  0  0  0  0  0  0  0  0
    6.5440    0.4370  -53.1700 H   0  0  0  0  0  0  0  0  0  0  0  0
    4.8190    2.5540  -57.8070 H   0  0  0  0  0  0  0  0  0  0  0  0
  1  2  1  0
  2  3  2  0
  3  4  1  0
  4  5  2  0
  5  6  1  0
  6  7  1  0
  6  8  2  0
  8  9  1  0
  9 10  2  0
 10 11  1  0
 11 12  2  0
 12 13  1  0
 13 14  2  0
  8 15  1  0
 15 16  1  0
 16 17  1  0
 17 18  1  0
 18 19  1  0
 19 20  1  0
 19 21  1  0
 17 22  1  0
 22 23  1  0
 23 24  1  0
 24 25  1  0
 25 26  1  0
 25 27  1  0
 24 28  1  0
 15 29  1  0
 29 30  1  0
 29 31  2  0
 31  2  1  0
 31  5  1  0
 14  9  1  0
 28 22  1  0
  1 32  1  0
  1 33  1  0
  1 34  1  0
  7 35  1  0
  7 36  1  0
  7 37  1  0
 10 38  1  0
 11 39  1  0
 12 40  1  0
 13 41  1  0
 14 42  1  0
 16 43  1  0
 16 44  1  0
 17 45  1  6
 18 46  1  0
 18 47  1  0
 19 48  1  0
 20 49  1  0
 20 50  1  0
 20 51  1  0
 21 52  1  0
 21 53  1  0
 21 54  1  0
 22 55  1  1
 23 56  1  0
 23 57  1  0
 24 58  1  6
 25 59  1  6
 26 60  1  0
 26 61  1  0
 26 62  1  0
 27 63  1  0
 30 64  1  0
M  END
>  <meeko>  (43) 
{"is_sidechain": false}

$$$$

     RDKit          3D

 64 67  0  0  0  0  0  0  0  0999 V2000
    6.2000    2.2780  -56.8310 C   0  0  0  0  0  0  0  0  0  0  0  0
    7.6620    1.9510  -56.6830 C   0  0  0  0  0  0  0  0  0  0  0  0
    8.2250    1.0940  -55.7900 C   0  0  0  0  0  0  0  0  0  0  0  0
    7.3450    0.3690  -54.8490 C   0  0  0  0  0  0  0  0  0  0  0  0
    7.2020    0.7990  -53.5230 C   0  0  0  0  0  0  0  0  0  0  0  0
    6.3590    0.1140  -52.6470 C   0  0  0  0  0  0  0  0  0  0  0  0
    5.6470   -0.9980  -53.0910 C   0  0  0  0  0  0  0  0  0  0  0  0
    5.7700   -1.4260  -54.4130 C   0  0  0  0  0  0  0  0  0  0  0  0
    6.6130   -0.7430  -55.2910 C   0  0  0  0  0  0  0  0  0  0  0  0
    9.6240    0.8560  -55.7700 N   0  0  0  0  0  0  0  0  0  0  0  0
   10.2520   -0.0590  -54.8050 C   0  0  0  0  0  0  0  0  0  0  0  0
   10.1410   -1.5590  -55.1930 C   0  0  1  0  0  0  0  0  0  0  0  0
   11.3630   -1.9850  -56.0400 C   0  0  0  0  0  0  0  0  0  0  0  0
   11.2920   -3.3710  -56.7160 C   0  0  0  0  0  0  0  0  0  0  0  0
   11.9670   -3.3930  -58.0880 C   0  0  0  0  0  0  0  0  0  0  0  0
   11.9430   -4.4170  -55.8040 C   0  0  0  0  0  0  0  0  0  0  0  0
   10.0120   -2.4410  -53.9410 C   0  0  2  0  0  0  0  0  0  0  0  0
    8.9520   -3.5510  -53.8910 C   0  0  0  0  0  0  0  0  0  0  0  0
    8.3650   -2.7650  -52.7120 C   0  0  1  0  0  0  0  0  0  0  0  0
    8.4220   -3.4090  -51.3290 C   0  0  2  0  0  0  0  0  0  0  0  0
    7.3250   -4.4470  -51.1710 C   0  0  0  0  0  0  0  0  0  0  0  0
    8.2370   -2.3950  -50.3400 O   0  0  0  0  0  0  0  0  0  0  0  0
    9.3950   -1.7400  -52.8310 O   0  0  0  0  0  0  0  0  0  0  0  0
   10.5060    1.4410  -56.7150 C   0  0  0  0  0  0  0  0  0  0  0  0
   11.7100    1.1960  -56.7680 O   0  0  0  0  0  0  0  0  0  0  0  0
    9.8770    2.3670  -57.6270 C   0  0  0  0  0  0  0  0  0  0  0  0
   10.4000    3.1500  -58.6360 C   0  0  0  0  0  0  0  0  0  0  0  0
   11.7800    3.3210  -59.1400 C   0  0  0  0  0  0  0  0  0  0  0  0
    9.3270    3.8220  -59.1550 N   0  0  0  0  0  0  0  0  0  0  0  0
    8.1580    3.5260  -58.5570 N   0  0  0  0  0  0  0  0  0  0  0  0
    8.4980    2.6330  -57.6220 C   0  0  0  0  0  0  0  0  0  0  0  0
    5.7444    2.3799  -55.8350 H   0  0  0  0  0  0  0  0  0  0  0  0
    6.0897    3.2230  -57.3831 H   0  0  0  0  0  0  0  0  0  0  0  0
    5.6976    1.4700  -57.3831 H   0  0  0  0  0  0  0  0  0  0  0  0
    7.7571    1.6810  -53.1709 H   0  0  0  0  0  0  0  0  0  0  0  0
    6.2566    0.4523  -51.6053 H   0  0  0  0  0  0  0  0  0  0  0  0
    4.9865   -1.5396  -52.3978 H   0  0  0  0  0  0  0  0  0  0  0  0
    5.2030   -2.3011  -54.7632 H   0  0  0  0  0  0  0  0  0  0  0  0
    6.7038   -1.0783  -56.3347 H   0  0  0  0  0  0  0  0  0  0  0  0
   11.3182    0.2000  -54.7260 H   0  0  0  0  0  0  0  0  0  0  0  0
    9.7148    0.0643  -53.8531 H   0  0  0  0  0  0  0  0  0  0  0  0
    9.2319   -1.6950  -55.7972 H   0  0  0  0  0  0  0  0  0  0  0  0
   11.4963   -1.2344  -56.8330 H   0  0  0  0  0  0  0  0  0  0  0  0
   12.1974   -2.0550  -55.3267 H   0  0  0  0  0  0  0  0  0  0  0  0
   10.2290   -3.6053  -56.8741 H   0  0  0  0  0  0  0  0  0  0  0  0
   13.0588   -3.4286  -57.9590 H   0  0  0  0  0  0  0  0  0  0  0  0
   11.6346   -4.2808  -58.6460 H   0  0  0  0  0  0  0  0  0  0  0  0
   11.6931   -2.4855  -58.6460 H   0  0  0  0  0  0  0  0  0  0  0  0
   11.7727   -4.1433  -54.7523 H   0  0  0  0  0  0  0  0  0  0  0  0
   11.4992   -5.4037  -56.0026 H   0  0  0  0  0  0  0  0  0  0  0  0
   13.0243   -4.4546  -56.0026 H   0  0  0  0  0  0  0  0  0  0  0  0
   11.0583   -2.7801  -53.9239 H   0  0  0  0  0  0  0  0  0  0  0  0
    8.3034   -3.6176  -54.7770 H   0  0  0  0  0  0  0  0  0  0  0  0
    9.2084   -4.6188  -53.8280 H   0  0  0  0  0  0  0  0  0  0  0  0
    7.2887   -2.5440  -52.7651 H   0  0  0  0  0  0  0  0  0  0  0  0
    9.3984   -3.9010  -51.2088 H   0  0  0  0  0  0  0  0  0  0  0  0
    7.1385   -4.6235  -50.1014 H   0  0  0  0  0  0  0  0  0  0  0  0
    6.4036   -4.0823  -51.6486 H   0  0  0  0  0  0  0  0  0  0  0  0
    7.6382   -5.3871  -51.6486 H   0  0  0  0  0  0  0  0  0  0  0  0
    8.5060   -2.8020  -49.4930 H   0  0  0  0  0  0  0  0  0  0  0  0
   12.4728    3.4068  -58.2899 H   0  0  0  0  0  0  0  0  0  0  0  0
   12.0572    2.4503  -59.7525 H   0  0  0  0  0  0  0  0  0  0  0  0
   11.8363    4.2330  -59.7525 H   0  0  0  0  0  0  0  0  0  0  0  0
    9.3180    4.4940  -59.9150 H   0  0  0  0  0  0  0  0  0  0  0  0
  1  2  1  0
  2  3  2  0
  3  4  1  0
  4  5  2  0
  5  6  1  0
  6  7  2  0
  7  8  1  0
  8  9  2  0
  3 10  1  0
 10 11  1  0
 11 12  1  0
 12 13  1  0
 13 14  1  0
 14 15  1  0
 14 16  1  0
 12 17  1  0
 17 18  1  0
 18 19  1  0
 19 20  1  0
 20 21  1  0
 20 22  1  0
 19 23  1  0
 10 24  1  0
 24 25  2  0
 24 26  1  0
 26 27  2  0
 27 28  1  0
 27 29  1  0
 29 30  1  0
 30 31  2  0
 31  2  1  0
  9  4  1  0
 23 17  1  0
 31 26  1  0
  1 32  1  0
  1 33  1  0
  1 34  1  0
  5 35  1  0
  6 36  1  0
  7 37  1  0
  8 38  1  0
  9 39  1  0
 11 40  1  0
 11 41  1  0
 12 42  1  6
 13 43  1  0
 13 44  1  0
 14 45  1  0
 15 46  1  0
 15 47  1  0
 15 48  1  0
 16 49  1  0
 16 50  1  0
 16 51  1  0
 17 52  1  1
 18 53  1  0
 18 54  1  0
 19 55  1  6
 20 56  1  1
 21 57  1  0
 21 58  1  0
 21 59  1  0
 22 60  1  0
 28 61  1  0
 28 62  1  0
 28 63  1  0
 29 64  1  0
M  END
>  <meeko>  (44) 
{"is_sidechain": false}

$$$$

     RDKit          3D

 64 67  0  0  0  0  0  0  0  0999 V2000
    6.4880    2.4770  -56.7760 C   0  0  0  0  0  0  0  0  0  0  0  0
    7.9140    2.0070  -56.6620 C   0  0  0  0  0  0  0  0  0  0  0  0
    8.4050    1.0770  -55.8020 C   0  0  0  0  0  0  0  0  0  0  0  0
    7.4810    0.4310  -54.8470 C   0  0  0  0  0  0  0  0  0  0  0  0
    7.4710    0.8250  -53.5010 C   0  0  0  0  0  0  0  0  0  0  0  0
    6.5920    0.2250  -52.5980 C   0  0  0  0  0  0  0  0  0  0  0  0
    5.7130   -0.7650  -53.0330 C   0  0  0  0  0  0  0  0  0  0  0  0
    5.7040   -1.1520  -54.3730 C   0  0  0  0  0  0  0  0  0  0  0  0
    6.5800   -0.5520  -55.2780 C   0  0  0  0  0  0  0  0  0  0  0  0
    9.7820    0.7370  -55.7820 N   0  0  0  0  0  0  0  0  0  0  0  0
   10.3060   -0.2920  -54.8750 C   0  0  0  0  0  0  0  0  0  0  0  0
   10.1550   -1.7550  -55.3680 C   0  0  1  0  0  0  0  0  0  0  0  0
   11.3840   -2.2690  -56.1550 C   0  0  0  0  0  0  0  0  0  0  0  0
   11.2230   -3.6970  -56.7220 C   0  0  0  0  0  0  0  0  0  0  0  0
   11.8490   -3.7780  -58.1160 C   0  0  0  0  0  0  0  0  0  0  0  0
   11.8680   -4.7430  -55.8090 C   0  0  0  0  0  0  0  0  0  0  0  0
    9.8740   -2.6190  -54.1250 C   0  0  2  0  0  0  0  0  0  0  0  0
    8.5980   -3.4700  -54.0310 C   0  0  0  0  0  0  0  0  0  0  0  0
    8.3620   -2.7270  -52.7060 C   0  0  1  0  0  0  0  0  0  0  0  0
    8.5550   -3.4680  -51.3770 C   0  0  1  0  0  0  0  0  0  0  0  0
    8.1450   -2.5810  -50.2090 C   0  0  0  0  0  0  0  0  0  0  0  0
    7.8000   -4.6830  -51.3370 O   0  0  0  0  0  0  0  0  0  0  0  0
    9.4640   -1.8170  -52.9850 O   0  0  0  0  0  0  0  0  0  0  0  0
   10.7320    1.3660  -56.6270 C   0  0  0  0  0  0  0  0  0  0  0  0
   11.9370    1.1250  -56.6060 O   0  0  0  0  0  0  0  0  0  0  0  0
   10.1690    2.3310  -57.5430 C   0  0  0  0  0  0  0  0  0  0  0  0
   10.7550    3.1020  -58.5260 C   0  0  0  0  0  0  0  0  0  0  0  0
   12.1550    3.2160  -58.9890 C   0  0  0  0  0  0  0  0  0  0  0  0
    9.7260    3.8220  -59.0720 N   0  0  0  0  0  0  0  0  0  0  0  0
    8.5290    3.5690  -58.5120 N   0  0  0  0  0  0  0  0  0  0  0  0
    8.8030    2.6530  -57.5780 C   0  0  0  0  0  0  0  0  0  0  0  0
    6.0662    2.6160  -55.7696 H   0  0  0  0  0  0  0  0  0  0  0  0
    6.4592    3.4322  -57.3208 H   0  0  0  0  0  0  0  0  0  0  0  0
    5.8969    1.7262  -57.3208 H   0  0  0  0  0  0  0  0  0  0  0  0
    8.1591    1.6105  -53.1554 H   0  0  0  0  0  0  0  0  0  0  0  0
    6.5931    0.5338  -51.5422 H   0  0  0  0  0  0  0  0  0  0  0  0
    5.0255   -1.2418  -52.3188 H   0  0  0  0  0  0  0  0  0  0  0  0
    5.0063   -1.9301  -54.7162 H   0  0  0  0  0  0  0  0  0  0  0  0
    6.5634   -0.8523  -56.3361 H   0  0  0  0  0  0  0  0  0  0  0  0
   11.3772   -0.0948  -54.7213 H   0  0  0  0  0  0  0  0  0  0  0  0
    9.7059   -0.2191  -53.9560 H   0  0  0  0  0  0  0  0  0  0  0  0
    9.3260   -1.8132  -56.0887 H   0  0  0  0  0  0  0  0  0  0  0  0
   11.5667   -1.5831  -56.9953 H   0  0  0  0  0  0  0  0  0  0  0  0
   12.2218   -2.3049  -55.4432 H   0  0  0  0  0  0  0  0  0  0  0  0
   10.1463   -3.9138  -56.7824 H   0  0  0  0  0  0  0  0  0  0  0  0
   12.9359   -3.9186  -58.0222 H   0  0  0  0  0  0  0  0  0  0  0  0
   11.4153   -4.6275  -58.6639 H   0  0  0  0  0  0  0  0  0  0  0  0
   11.6458   -2.8461  -58.6639 H   0  0  0  0  0  0  0  0  0  0  0  0
   11.6979   -4.4671  -54.7579 H   0  0  0  0  0  0  0  0  0  0  0  0
   11.4203   -5.7282  -56.0066 H   0  0  0  0  0  0  0  0  0  0  0  0
   12.9493   -4.7853  -56.0066 H   0  0  0  0  0  0  0  0  0  0  0  0
   10.8161   -3.1856  -54.1640 H   0  0  0  0  0  0  0  0  0  0  0  0
    7.8495   -3.2798  -54.8143 H   0  0  0  0  0  0  0  0  0  0  0  0
    8.6012   -4.5671  -54.1113 H   0  0  0  0  0  0  0  0  0  0  0  0
    7.3323   -2.3876  -52.5201 H   0  0  0  0  0  0  0  0  0  0  0  0
    9.6229   -3.7186  -51.2942 H   0  0  0  0  0  0  0  0  0  0  0  0
    8.3800   -3.0895  -49.2623 H   0  0  0  0  0  0  0  0  0  0  0  0
    8.6947   -1.6296  -50.2605 H   0  0  0  0  0  0  0  0  0  0  0  0
    7.0641   -2.3833  -50.2605 H   0  0  0  0  0  0  0  0  0  0  0  0
    7.0810   -4.6220  -51.9860 H   0  0  0  0  0  0  0  0  0  0  0  0
   12.8257    3.2706  -58.1188 H   0  0  0  0  0  0  0  0  0  0  0  0
   12.4132    2.3359  -59.5963 H   0  0  0  0  0  0  0  0  0  0  0  0
   12.2674    4.1263  -59.5963 H   0  0  0  0  0  0  0  0  0  0  0  0
    9.7680    4.5000  -59.8260 H   0  0  0  0  0  0  0  0  0  0  0  0
  1  2  1  0
  2  3  2  0
  3  4  1  0
  4  5  2  0
  5  6  1  0
  6  7  2  0
  7  8  1  0
  8  9  2  0
  3 10  1  0
 10 11  1  0
 11 12  1  0
 12 13  1  0
 13 14  1  0
 14 15  1  0
 14 16  1  0
 12 17  1  0
 17 18  1  0
 18 19  1  0
 19 20  1  0
 20 21  1  0
 20 22  1  0
 19 23  1  0
 10 24  1  0
 24 25  2  0
 24 26  1  0
 26 27  2  0
 27 28  1  0
 27 29  1  0
 29 30  1  0
 30 31  2  0
 31  2  1  0
  9  4  1  0
 23 17  1  0
 31 26  1  0
  1 32  1  0
  1 33  1  0
  1 34  1  0
  5 35  1  0
  6 36  1  0
  7 37  1  0
  8 38  1  0
  9 39  1  0
 11 40  1  0
 11 41  1  0
 12 42  1  6
 13 43  1  0
 13 44  1  0
 14 45  1  0
 15 46  1  0
 15 47  1  0
 15 48  1  0
 16 49  1  0
 16 50  1  0
 16 51  1  0
 17 52  1  1
 18 53  1  0
 18 54  1  0
 19 55  1  6
 20 56  1  1
 21 57  1  0
 21 58  1  0
 21 59  1  0
 22 60  1  0
 28 61  1  0
 28 62  1  0
 28 63  1  0
 29 64  1  0
M  END
>  <meeko>  (45) 
{"is_sidechain": false}

$$$$

     RDKit          3D

 44 47  0  0  0  0  0  0  0  0999 V2000
    7.3150    1.8460  -56.3200 O   0  0  0  0  0  0  0  0  0  0  0  0
    8.4850    1.5180  -56.1800 C   0  0  0  0  0  0  0  0  0  0  0  0
    8.9250    0.5770  -55.1170 C   0  0  0  0  0  0  0  0  0  0  0  0
    8.0090   -0.0480  -54.3600 C   0  0  0  0  0  0  0  0  0  0  0  0
    8.3430   -1.0060  -53.3000 C   0  0  0  0  0  0  0  0  0  0  0  0
    7.4870   -1.2560  -52.2200 C   0  0  0  0  0  0  0  0  0  0  0  0
    7.8300   -2.1960  -51.2440 C   0  0  0  0  0  0  0  0  0  0  0  0
    9.0270   -2.9010  -51.3440 C   0  0  0  0  0  0  0  0  0  0  0  0
    9.8800   -2.6720  -52.4220 C   0  0  0  0  0  0  0  0  0  0  0  0
    9.5360   -1.7340  -53.3990 C   0  0  0  0  0  0  0  0  0  0  0  0
    9.5290    1.9570  -56.9580 N   0  0  0  0  0  0  0  0  0  0  0  0
    9.3930    2.8850  -58.0880 C   0  0  2  0  0  0  0  0  0  0  0  0
    8.3620    2.3750  -59.1260 C   0  0  0  0  0  0  0  0  0  0  0  0
    8.2770    3.3390  -60.3230 C   0  0  1  0  0  0  0  0  0  0  0  0
    7.8610    4.7330  -59.8210 C   0  0  0  0  0  0  0  0  0  0  0  0
    8.8980    5.2660  -58.8180 C   0  0  2  0  0  0  0  0  0  0  0  0
   10.2700    5.3490  -59.5030 C   0  0  0  0  0  0  0  0  0  0  0  0
   10.6950    3.9580  -59.9970 C   0  0  2  0  0  0  0  0  0  0  0  0
    9.6540    3.4340  -60.9990 C   0  0  0  0  0  0  0  0  0  0  0  0
   10.7690    2.9980  -58.7990 C   0  0  0  0  0  0  0  0  0  0  0  0
    8.9830    4.3040  -57.6200 C   0  0  0  0  0  0  0  0  0  0  0  0
    9.9968    0.3933  -54.9511 H   0  0  0  0  0  0  0  0  0  0  0  0
    6.9470    0.1708  -54.5451 H   0  0  0  0  0  0  0  0  0  0  0  0
    6.5367   -0.7079  -52.1392 H   0  0  0  0  0  0  0  0  0  0  0  0
    7.1538   -2.3791  -50.3960 H   0  0  0  0  0  0  0  0  0  0  0  0
    9.2987   -3.6374  -50.5733 H   0  0  0  0  0  0  0  0  0  0  0  0
   10.8245   -3.2299  -52.5039 H   0  0  0  0  0  0  0  0  0  0  0  0
   10.2079   -1.5657  -54.2535 H   0  0  0  0  0  0  0  0  0  0  0  0
   10.4550    1.6050  -56.7620 H   0  0  0  0  0  0  0  0  0  0  0  0
    8.6698    1.3812  -59.4832 H   0  0  0  0  0  0  0  0  0  0  0  0
    7.3740    2.3173  -58.6460 H   0  0  0  0  0  0  0  0  0  0  0  0
    7.5358    2.9674  -61.0459 H   0  0  0  0  0  0  0  0  0  0  0  0
    7.7941    5.4222  -60.6757 H   0  0  0  0  0  0  0  0  0  0  0  0
    6.8835    4.6585  -59.3221 H   0  0  0  0  0  0  0  0  0  0  0  0
    8.5991    6.2657  -58.4698 H   0  0  0  0  0  0  0  0  0  0  0  0
   10.2087    6.0368  -60.3593 H   0  0  0  0  0  0  0  0  0  0  0  0
   11.0128    5.7183  -58.7806 H   0  0  0  0  0  0  0  0  0  0  0  0
   11.6788    4.0231  -60.4848 H   0  0  0  0  0  0  0  0  0  0  0  0
    9.5932    4.1223  -61.8549 H   0  0  0  0  0  0  0  0  0  0  0  0
    9.9565    2.4348  -61.3454 H   0  0  0  0  0  0  0  0  0  0  0  0
   11.0726    2.0023  -59.1546 H   0  0  0  0  0  0  0  0  0  0  0  0
   11.5026    3.3918  -58.0802 H   0  0  0  0  0  0  0  0  0  0  0  0
    9.7316    4.6798  -56.9070 H   0  0  0  0  0  0  0  0  0  0  0  0
    7.9949    4.2474  -57.1399 H   0  0  0  0  0  0  0  0  0  0  0  0
  1  2  2  0
  2  3  1  0
  3  4  2  0
  4  5  1  0
  5  6  2  0
  6  7  1  0
  7  8  2  0
  8  9  1  0
  9 10  2  0
  2 11  1  0
 12 11  1  1
 12 13  1  0
 13 14  1  0
 14 15  1  0
 15 16  1  0
 16 17  1  0
 17 18  1  0
 18 19  1  0
 18 20  1  0
 16 21  1  0
 10  5  1  0
 20 12  1  0
 21 12  1  0
 19 14  1  0
  3 22  1  0
  4 23  1  0
  6 24  1  0
  7 25  1  0
  8 26  1  0
  9 27  1  0
 10 28  1  0
 11 29  1  0
 13 30  1  0
 13 31  1  0
 14 32  1  6
 15 33  1  0
 15 34  1  0
 16 35  1  1
 17 36  1  0
 17 37  1  0
 18 38  1  6
 19 39  1  0
 19 40  1  0
 20 41  1  0
 20 42  1  0
 21 43  1  0
 21 44  1  0
M  END
>  <meeko>  (46) 
{"is_sidechain": false}

$$$$

     RDKit          3D

 47 51  0  0  0  0  0  0  0  0999 V2000
    9.9810    1.6010  -55.7370 O   0  0  0  0  0  0  0  0  0  0  0  0
    8.7900    1.3340  -55.8710 C   0  0  0  0  0  0  0  0  0  0  0  0
    8.0020    1.8980  -56.8650 N   0  0  0  0  0  0  0  0  0  0  0  0
    8.4630    2.9120  -57.8180 C   0  0  2  0  0  0  0  0  0  0  0  0
    8.7360    4.2700  -57.1220 C   0  0  0  0  0  0  0  0  0  0  0  0
    9.1590    5.3310  -58.1520 C   0  0  1  0  0  0  0  0  0  0  0  0
   10.4310    4.8560  -58.8760 C   0  0  0  0  0  0  0  0  0  0  0  0
   10.1610    3.5270  -59.6050 C   0  0  2  0  0  0  0  0  0  0  0  0
    9.0280    3.7290  -60.6230 C   0  0  0  0  0  0  0  0  0  0  0  0
    7.7540    4.1940  -59.9040 C   0  0  2  0  0  0  0  0  0  0  0  0
    8.0320    5.5200  -59.1790 C   0  0  0  0  0  0  0  0  0  0  0  0
    7.3420    3.1330  -58.8710 C   0  0  0  0  0  0  0  0  0  0  0  0
    9.7380    2.4640  -58.5760 C   0  0  0  0  0  0  0  0  0  0  0  0
    8.0720    0.3970  -54.9780 C   0  0  0  0  0  0  0  0  0  0  0  0
    8.6170   -0.5200  -54.0320 C   0  0  0  0  0  0  0  0  0  0  0  0
    7.5430   -1.1540  -53.4360 C   0  0  0  0  0  0  0  0  0  0  0  0
    7.4730   -2.1830  -52.4020 C   0  0  0  0  0  0  0  0  0  0  0  0
    7.8200   -1.9020  -51.0720 C   0  0  0  0  0  0  0  0  0  0  0  0
    7.7480   -2.8950  -50.0900 C   0  0  0  0  0  0  0  0  0  0  0  0
    7.3290   -4.1790  -50.4260 C   0  0  0  0  0  0  0  0  0  0  0  0
    6.9860   -4.4750  -51.7430 C   0  0  0  0  0  0  0  0  0  0  0  0
    7.0600   -3.4830  -52.7250 C   0  0  0  0  0  0  0  0  0  0  0  0
    6.4460   -0.6110  -54.0490 N   0  0  0  0  0  0  0  0  0  0  0  0
    6.7290    0.3210  -54.9680 N   0  0  0  0  0  0  0  0  0  0  0  0
    7.0040    1.7860  -56.7670 H   0  0  0  0  0  0  0  0  0  0  0  0
    7.8207    4.6055  -56.6125 H   0  0  0  0  0  0  0  0  0  0  0  0
    9.5501    4.1380  -56.3942 H   0  0  0  0  0  0  0  0  0  0  0  0
    9.3571    6.2847  -57.6409 H   0  0  0  0  0  0  0  0  0  0  0  0
   10.7380    5.6168  -59.6087 H   0  0  0  0  0  0  0  0  0  0  0  0
   11.2306    4.7043  -58.1360 H   0  0  0  0  0  0  0  0  0  0  0  0
   11.0713    3.1966  -60.1267 H   0  0  0  0  0  0  0  0  0  0  0  0
    9.3299    4.4896  -61.3581 H   0  0  0  0  0  0  0  0  0  0  0  0
    8.8271    2.7759  -61.1341 H   0  0  0  0  0  0  0  0  0  0  0  0
    6.9469    4.3355  -60.6379 H   0  0  0  0  0  0  0  0  0  0  0  0
    8.3329    6.2810  -59.9141 H   0  0  0  0  0  0  0  0  0  0  0  0
    7.1194    5.8449  -58.6580 H   0  0  0  0  0  0  0  0  0  0  0  0
    6.4281    3.4670  -58.3580 H   0  0  0  0  0  0  0  0  0  0  0  0
    7.1651    2.1834  -59.3973 H   0  0  0  0  0  0  0  0  0  0  0  0
    9.5339    1.5174  -59.0978 H   0  0  0  0  0  0  0  0  0  0  0  0
   10.5531    2.3313  -57.8493 H   0  0  0  0  0  0  0  0  0  0  0  0
    9.6827   -0.6896  -53.8184 H   0  0  0  0  0  0  0  0  0  0  0  0
    8.1523   -0.8896  -50.7987 H   0  0  0  0  0  0  0  0  0  0  0  0
    8.0228   -2.6611  -49.0509 H   0  0  0  0  0  0  0  0  0  0  0  0
    7.2688   -4.9588  -49.6525 H   0  0  0  0  0  0  0  0  0  0  0  0
    6.6567   -5.4899  -52.0105 H   0  0  0  0  0  0  0  0  0  0  0  0
    6.7909   -3.7254  -53.7637 H   0  0  0  0  0  0  0  0  0  0  0  0
    5.4720   -0.8410  -53.8920 H   0  0  0  0  0  0  0  0  0  0  0  0
  1  2  2  0
  2  3  1  0
  4  3  1  1
  4  5  1  0
  5  6  1  0
  6  7  1  0
  7  8  1  0
  8  9  1  0
  9 10  1  0
 10 11  1  0
 10 12  1  0
  8 13  1  0
  2 14  1  0
 14 15  1  0
 15 16  2  0
 16 17  1  0
 17 18  2  0
 18 19  1  0
 19 20  2  0
 20 21  1  0
 21 22  2  0
 16 23  1  0
 23 24  1  0
 12  4  1  0
 24 14  2  0
 13  4  1  0
 22 17  1  0
 11  6  1  0
  3 25  1  0
  5 26  1  0
  5 27  1  0
  6 28  1  1
  7 29  1  0
  7 30  1  0
  8 31  1  6
  9 32  1  0
  9 33  1  0
 10 34  1  6
 11 35  1  0
 11 36  1  0
 12 37  1  0
 12 38  1  0
 13 39  1  0
 13 40  1  0
 15 41  1  0
 18 42  1  0
 19 43  1  0
 20 44  1  0
 21 45  1  0
 22 46  1  0
 23 47  1  0
M  END
>  <meeko>  (47) 
{"is_sidechain": false}

$$$$

     RDKit          3D

 47 51  0  0  0  0  0  0  0  0999 V2000
    6.7850    2.0820  -56.6160 O   0  0  0  0  0  0  0  0  0  0  0  0
    7.7790    1.5140  -56.1790 C   0  0  0  0  0  0  0  0  0  0  0  0
    9.0620    1.8020  -56.5860 N   0  0  0  0  0  0  0  0  0  0  0  0
    9.4220    2.8130  -57.5870 C   0  0  2  0  0  0  0  0  0  0  0  0
    8.7480    2.5350  -58.9530 C   0  0  0  0  0  0  0  0  0  0  0  0
    9.1850    3.5800  -59.9950 C   0  0  1  0  0  0  0  0  0  0  0  0
    8.7930    4.9830  -59.5000 C   0  0  0  0  0  0  0  0  0  0  0  0
    9.4880    5.2860  -58.1610 C   0  0  2  0  0  0  0  0  0  0  0  0
   11.0110    5.2080  -58.3510 C   0  0  0  0  0  0  0  0  0  0  0  0
   11.4080    3.8060  -58.8370 C   0  0  2  0  0  0  0  0  0  0  0  0
   10.7090    3.5120  -60.1740 C   0  0  0  0  0  0  0  0  0  0  0  0
   10.9610    2.7660  -57.7970 C   0  0  0  0  0  0  0  0  0  0  0  0
    9.0520    4.2420  -57.1170 C   0  0  0  0  0  0  0  0  0  0  0  0
    7.6750    0.4790  -55.1840 C   0  0  0  0  0  0  0  0  0  0  0  0
    8.4580    0.0810  -54.1190 C   0  0  0  0  0  0  0  0  0  0  0  0
    7.7890   -1.0250  -53.5170 C   0  0  0  0  0  0  0  0  0  0  0  0
    8.2000   -1.8170  -52.3490 C   0  0  0  0  0  0  0  0  0  0  0  0
    7.4070   -1.8360  -51.1900 C   0  0  0  0  0  0  0  0  0  0  0  0
    7.7840   -2.5840  -50.0720 C   0  0  0  0  0  0  0  0  0  0  0  0
    8.9620   -3.3240  -50.0930 C   0  0  0  0  0  0  0  0  0  0  0  0
    9.7620   -3.3170  -51.2330 C   0  0  0  0  0  0  0  0  0  0  0  0
    9.3850   -2.5690  -52.3530 C   0  0  0  0  0  0  0  0  0  0  0  0
    6.6530   -1.2890  -54.1820 N   0  0  0  0  0  0  0  0  0  0  0  0
    6.6120   -0.3810  -55.1660 N   0  0  0  0  0  0  0  0  0  0  0  0
    9.8160    1.2790  -56.1670 H   0  0  0  0  0  0  0  0  0  0  0  0
    9.0382    1.5330  -59.3021 H   0  0  0  0  0  0  0  0  0  0  0  0
    7.6566    2.5931  -58.8284 H   0  0  0  0  0  0  0  0  0  0  0  0
    8.6910    3.3745  -60.9561 H   0  0  0  0  0  0  0  0  0  0  0  0
    9.0997    5.7307  -60.2462 H   0  0  0  0  0  0  0  0  0  0  0  0
    7.7031    5.0220  -59.3563 H   0  0  0  0  0  0  0  0  0  0  0  0
    9.2093    6.2932  -57.8176 H   0  0  0  0  0  0  0  0  0  0  0  0
   11.3239    5.9542  -59.0962 H   0  0  0  0  0  0  0  0  0  0  0  0
   11.5059    5.4109  -57.3898 H   0  0  0  0  0  0  0  0  0  0  0  0
   12.4987    3.7572  -58.9708 H   0  0  0  0  0  0  0  0  0  0  0  0
   11.0219    4.2570  -60.9204 H   0  0  0  0  0  0  0  0  0  0  0  0
   10.9884    2.5039  -60.5140 H   0  0  0  0  0  0  0  0  0  0  0  0
   11.2457    1.7626  -58.1465 H   0  0  0  0  0  0  0  0  0  0  0  0
   11.4521    2.9948  -56.8397 H   0  0  0  0  0  0  0  0  0  0  0  0
    9.5585    4.4513  -56.1632 H   0  0  0  0  0  0  0  0  0  0  0  0
    7.9610    4.3020  -56.9899 H   0  0  0  0  0  0  0  0  0  0  0  0
    9.4101    0.5287  -53.7981 H   0  0  0  0  0  0  0  0  0  0  0  0
    6.4747   -1.2529  -51.1621 H   0  0  0  0  0  0  0  0  0  0  0  0
    7.1487   -2.5879  -49.1740 H   0  0  0  0  0  0  0  0  0  0  0  0
    9.2603   -3.9123  -49.2127 H   0  0  0  0  0  0  0  0  0  0  0  0
   10.6935   -3.9017  -51.2526 H   0  0  0  0  0  0  0  0  0  0  0  0
   10.0249   -2.5701  -53.2477 H   0  0  0  0  0  0  0  0  0  0  0  0
    5.8270   -0.3860  -55.8100 H   0  0  0  0  0  0  0  0  0  0  0  0
  1  2  2  0
  2  3  1  0
  4  3  1  1
  4  5  1  0
  5  6  1  0
  6  7  1  0
  7  8  1  0
  8  9  1  0
  9 10  1  0
 10 11  1  0
 10 12  1  0
  8 13  1  0
  2 14  1  0
 14 15  2  0
 15 16  1  0
 16 17  1  0
 17 18  2  0
 18 19  1  0
 19 20  2  0
 20 21  1  0
 21 22  2  0
 16 23  2  0
 23 24  1  0
 12  4  1  0
 24 14  1  0
 13  4  1  0
 22 17  1  0
 11  6  1  0
  3 25  1  0
  5 26  1  0
  5 27  1  0
  6 28  1  6
  7 29  1  0
  7 30  1  0
  8 31  1  1
  9 32  1  0
  9 33  1  0
 10 34  1  6
 11 35  1  0
 11 36  1  0
 12 37  1  0
 12 38  1  0
 13 39  1  0
 13 40  1  0
 15 41  1  0
 18 42  1  0
 19 43  1  0
 20 44  1  0
 21 45  1  0
 22 46  1  0
 24 47  1  0
M  END
>  <meeko>  (48) 
{"is_sidechain": false}

$$$$

     RDKit          3D

 71 76  0  0  0  0  0  0  0  0999 V2000
   12.2120   -7.0300  -57.6970 C   0  0  0  0  0  0  0  0  0  0  0  0
   11.7200   -5.7370  -58.0250 O   0  0  0  0  0  0  0  0  0  0  0  0
   11.4250   -4.8880  -56.9930 C   0  0  0  0  0  0  0  0  0  0  0  0
   10.3840   -5.0940  -56.0800 C   0  0  0  0  0  0  0  0  0  0  0  0
   10.1170   -4.1600  -55.0740 C   0  0  0  0  0  0  0  0  0  0  0  0
   10.8830   -2.9940  -54.9580 C   0  0  0  0  0  0  0  0  0  0  0  0
   10.5960   -1.9750  -53.8820 C   0  0  0  0  0  0  0  0  0  0  0  0
    9.3940   -1.1940  -54.1680 N   0  0  0  0  0  0  0  0  0  0  0  0
    9.4530   -0.2270  -55.1120 N   0  0  0  0  0  0  0  0  0  0  0  0
    8.2100    0.2990  -55.1270 C   0  0  0  0  0  0  0  0  0  0  0  0
    7.8590    1.3940  -56.0560 C   0  0  0  0  0  0  0  0  0  0  0  0
    6.7250    1.8470  -56.1590 O   0  0  0  0  0  0  0  0  0  0  0  0
    8.9450    1.8390  -56.7790 N   0  0  0  0  0  0  0  0  0  0  0  0
    8.9460    2.9180  -57.7610 C   0  0  2  0  0  0  0  0  0  0  0  0
   10.2810    2.8650  -58.5480 C   0  0  0  0  0  0  0  0  0  0  0  0
   10.3440    3.9820  -59.6020 C   0  0  1  0  0  0  0  0  0  0  0  0
    9.1740    3.8150  -60.5850 C   0  0  0  0  0  0  0  0  0  0  0  0
    7.8380    3.8890  -59.8280 C   0  0  2  0  0  0  0  0  0  0  0  0
    7.7320    5.2510  -59.1210 C   0  0  0  0  0  0  0  0  0  0  0  0
    8.8990    5.4280  -58.1340 C   0  0  2  0  0  0  0  0  0  0  0  0
   10.2280    5.3440  -58.9000 C   0  0  0  0  0  0  0  0  0  0  0  0
    8.8460    4.3060  -57.0810 C   0  0  0  0  0  0  0  0  0  0  0  0
    7.7860    2.7670  -58.7770 C   0  0  0  0  0  0  0  0  0  0  0  0
    7.3690   -0.3330  -54.1620 C   0  0  0  0  0  0  0  0  0  0  0  0
    5.9420   -0.0210  -53.8860 C   0  0  0  0  0  0  0  0  0  0  0  0
    8.1680   -1.2870  -53.5520 C   0  0  0  0  0  0  0  0  0  0  0  0
    7.8550   -2.2390  -52.4950 C   0  0  0  0  0  0  0  0  0  0  0  0
    7.3620   -3.5090  -52.8160 C   0  0  0  0  0  0  0  0  0  0  0  0
    7.0780   -4.4280  -51.8050 C   0  0  0  0  0  0  0  0  0  0  0  0
    7.2760   -4.0790  -50.4690 C   0  0  0  0  0  0  0  0  0  0  0  0
    7.7540   -2.8100  -50.1430 C   0  0  0  0  0  0  0  0  0  0  0  0
    8.0420   -1.8900  -51.1540 C   0  0  0  0  0  0  0  0  0  0  0  0
   11.9220   -2.7850  -55.8730 C   0  0  0  0  0  0  0  0  0  0  0  0
   12.2120   -3.7310  -56.8620 C   0  0  0  0  0  0  0  0  0  0  0  0
   13.2570   -3.3860  -57.6830 O   0  0  0  0  0  0  0  0  0  0  0  0
   14.4830   -4.0460  -57.3790 C   0  0  0  0  0  0  0  0  0  0  0  0
   12.2538   -7.1398  -56.6033 H   0  0  0  0  0  0  0  0  0  0  0  0
   11.5420   -7.7947  -58.1170 H   0  0  0  0  0  0  0  0  0  0  0  0
   13.2209   -7.1558  -58.1170 H   0  0  0  0  0  0  0  0  0  0  0  0
    9.7680   -6.0023  -56.1549 H   0  0  0  0  0  0  0  0  0  0  0  0
    9.2957   -4.3436  -54.3657 H   0  0  0  0  0  0  0  0  0  0  0  0
   10.4583   -2.4995  -52.9250 H   0  0  0  0  0  0  0  0  0  0  0  0
   11.4478   -1.2804  -53.8387 H   0  0  0  0  0  0  0  0  0  0  0  0
    9.8120    1.3600  -56.5460 H   0  0  0  0  0  0  0  0  0  0  0  0
   11.1181    2.9864  -57.8448 H   0  0  0  0  0  0  0  0  0  0  0  0
   10.3466    1.8945  -59.0616 H   0  0  0  0  0  0  0  0  0  0  0  0
   11.2971    3.9266  -60.1484 H   0  0  0  0  0  0  0  0  0  0  0  0
    9.2120    4.6174  -61.3365 H   0  0  0  0  0  0  0  0  0  0  0  0
    9.2550    2.8363  -61.0805 H   0  0  0  0  0  0  0  0  0  0  0  0
    7.0042    3.7716  -60.5358 H   0  0  0  0  0  0  0  0  0  0  0  0
    7.7659    6.0541  -59.8719 H   0  0  0  0  0  0  0  0  0  0  0  0
    6.7827    5.2956  -58.5670 H   0  0  0  0  0  0  0  0  0  0  0  0
    8.8204    6.4063  -57.6373 H   0  0  0  0  0  0  0  0  0  0  0  0
   10.2665    6.1460  -59.6519 H   0  0  0  0  0  0  0  0  0  0  0  0
   11.0615    5.4573  -58.1911 H   0  0  0  0  0  0  0  0  0  0  0  0
    9.6854    4.4271  -56.3805 H   0  0  0  0  0  0  0  0  0  0  0  0
    7.8894    4.3696  -56.5416 H   0  0  0  0  0  0  0  0  0  0  0  0
    6.8268    2.8179  -58.2409 H   0  0  0  0  0  0  0  0  0  0  0  0
    7.8853    1.7977  -59.2875 H   0  0  0  0  0  0  0  0  0  0  0  0
    5.7781    0.0148  -52.7989 H   0  0  0  0  0  0  0  0  0  0  0  0
    5.6878    0.9539  -54.3275 H   0  0  0  0  0  0  0  0  0  0  0  0
    5.3041   -0.8009  -54.3275 H   0  0  0  0  0  0  0  0  0  0  0  0
    7.1979   -3.7835  -53.8685 H   0  0  0  0  0  0  0  0  0  0  0  0
    6.6979   -5.4278  -52.0616 H   0  0  0  0  0  0  0  0  0  0  0  0
    7.0551   -4.8048  -49.6725 H   0  0  0  0  0  0  0  0  0  0  0  0
    7.9043   -2.5334  -49.0890 H   0  0  0  0  0  0  0  0  0  0  0  0
    8.4167   -0.8889  -50.8946 H   0  0  0  0  0  0  0  0  0  0  0  0
   12.5192   -1.8632  -55.8133 H   0  0  0  0  0  0  0  0  0  0  0  0
   14.6036   -4.1109  -56.2876 H   0  0  0  0  0  0  0  0  0  0  0  0
   14.4701   -5.0591  -57.8074 H   0  0  0  0  0  0  0  0  0  0  0  0
   15.3216   -3.4774  -57.8074 H   0  0  0  0  0  0  0  0  0  0  0  0
  1  2  1  0
  2  3  1  0
  3  4  1  0
  4  5  2  0
  5  6  1  0
  6  7  1  0
  7  8  1  0
  8  9  1  0
  9 10  2  0
 10 11  1  0
 11 12  2  0
 11 13  1  0
 14 13  1  1
 14 15  1  0
 15 16  1  0
 16 17  1  0
 17 18  1  0
 18 19  1  0
 19 20  1  0
 20 21  1  0
 20 22  1  0
 18 23  1  0
 10 24  1  0
 24 25  1  0
 24 26  2  0
 26 27  1  0
 27 28  2  0
 28 29  1  0
 29 30  2  0
 30 31  1  0
 31 32  2  0
  6 33  2  0
 33 34  1  0
 34 35  1  0
 35 36  1  0
 34  3  2  0
 26  8  1  0
 32 27  1  0
 22 14  1  0
 23 14  1  0
 21 16  1  0
  1 37  1  0
  1 38  1  0
  1 39  1  0
  4 40  1  0
  5 41  1  0
  7 42  1  0
  7 43  1  0
 13 44  1  0
 15 45  1  0
 15 46  1  0
 16 47  1  6
 17 48  1  0
 17 49  1  0
 18 50  1  6
 19 51  1  0
 19 52  1  0
 20 53  1  1
 21 54  1  0
 21 55  1  0
 22 56  1  0
 22 57  1  0
 23 58  1  0
 23 59  1  0
 25 60  1  0
 25 61  1  0
 25 62  1  0
 28 63  1  0
 29 64  1  0
 30 65  1  0
 31 66  1  0
 32 67  1  0
 33 68  1  0
 36 69  1  0
 36 70  1  0
 36 71  1  0
M  END
>  <meeko>  (49) 
{"is_sidechain": false}

$$$$

     RDKit          3D

 46 50  0  0  0  0  0  0  0  0999 V2000
    6.6710    1.6410  -56.1810 O   0  0  0  0  0  0  0  0  0  0  0  0
    7.8150    1.2570  -55.9610 C   0  0  0  0  0  0  0  0  0  0  0  0
    8.9430    1.7590  -56.5710 N   0  0  0  0  0  0  0  0  0  0  0  0
    8.9830    2.8190  -57.5730 C   0  0  2  0  0  0  0  0  0  0  0  0
    8.7010    4.2080  -56.9460 C   0  0  0  0  0  0  0  0  0  0  0  0
    8.7960    5.3130  -58.0140 C   0  0  1  0  0  0  0  0  0  0  0  0
   10.2090    5.3170  -58.6160 C   0  0  0  0  0  0  0  0  0  0  0  0
   10.5090    3.9560  -59.2640 C   0  0  2  0  0  0  0  0  0  0  0  0
    9.4810    3.6830  -60.3720 C   0  0  0  0  0  0  0  0  0  0  0  0
    8.0630    3.6690  -59.7810 C   0  0  2  0  0  0  0  0  0  0  0  0
    7.7710    5.0300  -59.1260 C   0  0  0  0  0  0  0  0  0  0  0  0
    7.9670    2.5640  -58.7150 C   0  0  0  0  0  0  0  0  0  0  0  0
   10.4030    2.8550  -58.1970 C   0  0  0  0  0  0  0  0  0  0  0  0
    8.1170    0.1870  -54.9970 C   0  0  0  0  0  0  0  0  0  0  0  0
    7.2120   -0.4300  -54.0960 C   0  0  0  0  0  0  0  0  0  0  0  0
    7.9440   -1.3650  -53.3910 C   0  0  0  0  0  0  0  0  0  0  0  0
    7.5590   -2.3080  -52.3430 C   0  0  0  0  0  0  0  0  0  0  0  0
    6.6760   -3.3540  -52.6270 C   0  0  0  0  0  0  0  0  0  0  0  0
    6.3330   -4.2320  -51.6110 C   0  0  0  0  0  0  0  0  0  0  0  0
    6.8010   -4.1380  -50.3500 N   0  0  0  0  0  0  0  0  0  0  0  0
    7.6410   -3.1170  -50.0910 C   0  0  0  0  0  0  0  0  0  0  0  0
    8.0470   -2.1900  -51.0390 C   0  0  0  0  0  0  0  0  0  0  0  0
    9.2100   -1.2700  -53.9120 N   0  0  0  0  0  0  0  0  0  0  0  0
    9.3530   -0.3390  -54.8700 N   0  0  0  0  0  0  0  0  0  0  0  0
    9.8070    1.3160  -56.2650 H   0  0  0  0  0  0  0  0  0  0  0  0
    7.6903    4.2104  -56.5120 H   0  0  0  0  0  0  0  0  0  0  0  0
    9.4505    4.4037  -56.1650 H   0  0  0  0  0  0  0  0  0  0  0  0
    8.5870    6.2910  -57.5559 H   0  0  0  0  0  0  0  0  0  0  0  0
   10.2776    6.1065  -59.3789 H   0  0  0  0  0  0  0  0  0  0  0  0
   10.9411    5.5053  -57.8169 H   0  0  0  0  0  0  0  0  0  0  0  0
   11.5222    3.9654  -59.6922 H   0  0  0  0  0  0  0  0  0  0  0  0
    9.5498    4.4721  -61.1353 H   0  0  0  0  0  0  0  0  0  0  0  0
    9.6922    2.7042  -60.8274 H   0  0  0  0  0  0  0  0  0  0  0  0
    7.3322    3.4778  -60.5806 H   0  0  0  0  0  0  0  0  0  0  0  0
    7.8331    5.8211  -59.8878 H   0  0  0  0  0  0  0  0  0  0  0  0
    6.7619    5.0097  -58.6885 H   0  0  0  0  0  0  0  0  0  0  0  0
    6.9493    2.5516  -58.2976 H   0  0  0  0  0  0  0  0  0  0  0  0
    8.1969    1.5964  -59.1851 H   0  0  0  0  0  0  0  0  0  0  0  0
   10.6159    1.8814  -58.6626 H   0  0  0  0  0  0  0  0  0  0  0  0
   11.1303    3.0688  -57.3999 H   0  0  0  0  0  0  0  0  0  0  0  0
    6.1407   -0.2080  -53.9816 H   0  0  0  0  0  0  0  0  0  0  0  0
    6.2611   -3.4779  -53.6382 H   0  0  0  0  0  0  0  0  0  0  0  0
    5.6393   -5.0525  -51.8468 H   0  0  0  0  0  0  0  0  0  0  0  0
    8.0278   -3.0125  -49.0666 H   0  0  0  0  0  0  0  0  0  0  0  0
    8.7390   -1.3784  -50.7700 H   0  0  0  0  0  0  0  0  0  0  0  0
   10.0220   -1.8250  -53.6630 H   0  0  0  0  0  0  0  0  0  0  0  0
  1  2  2  0
  2  3  1  0
  4  3  1  1
  4  5  1  0
  5  6  1  0
  6  7  1  0
  7  8  1  0
  8  9  1  0
  9 10  1  0
 10 11  1  0
 10 12  1  0
  8 13  1  0
  2 14  1  0
 14 15  1  0
 15 16  2  0
 16 17  1  0
 17 18  2  0
 18 19  1  0
 19 20  2  0
 20 21  1  0
 21 22  2  0
 16 23  1  0
 23 24  1  0
 12  4  1  0
 24 14  2  0
 13  4  1  0
 22 17  1  0
 11  6  1  0
  3 25  1  0
  5 26  1  0
  5 27  1  0
  6 28  1  1
  7 29  1  0
  7 30  1  0
  8 31  1  6
  9 32  1  0
  9 33  1  0
 10 34  1  6
 11 35  1  0
 11 36  1  0
 12 37  1  0
 12 38  1  0
 13 39  1  0
 13 40  1  0
 15 41  1  0
 18 42  1  0
 19 43  1  0
 21 44  1  0
 22 45  1  0
 23 46  1  0
M  END
>  <meeko>  (50) 
{"is_sidechain": false}

$$$$

     RDKit          3D

 46 50  0  0  0  0  0  0  0  0999 V2000
    9.8880    1.6070  -55.7500 O   0  0  0  0  0  0  0  0  0  0  0  0
    8.7010    1.3330  -55.8750 C   0  0  0  0  0  0  0  0  0  0  0  0
    7.8820    1.9150  -56.8240 N   0  0  0  0  0  0  0  0  0  0  0  0
    8.3240    2.9540  -57.7650 C   0  0  2  0  0  0  0  0  0  0  0  0
    9.5670    2.5150  -58.5810 C   0  0  0  0  0  0  0  0  0  0  0  0
    9.9650    3.6040  -59.5930 C   0  0  1  0  0  0  0  0  0  0  0  0
    8.8010    3.8440  -60.5650 C   0  0  0  0  0  0  0  0  0  0  0  0
    7.5550    4.3000  -59.7890 C   0  0  2  0  0  0  0  0  0  0  0  0
    7.8720    5.6030  -59.0380 C   0  0  0  0  0  0  0  0  0  0  0  0
    9.0320    5.3740  -58.0560 C   0  0  2  0  0  0  0  0  0  0  0  0
   10.2730    4.9080  -58.8370 C   0  0  0  0  0  0  0  0  0  0  0  0
    8.6340    4.2880  -57.0410 C   0  0  0  0  0  0  0  0  0  0  0  0
    7.1700    3.2130  -58.7730 C   0  0  0  0  0  0  0  0  0  0  0  0
    8.0350    0.3930  -55.0110 C   0  0  0  0  0  0  0  0  0  0  0  0
    8.5790   -0.4810  -54.0890 C   0  0  0  0  0  0  0  0  0  0  0  0
    7.4920   -1.1900  -53.5120 C   0  0  0  0  0  0  0  0  0  0  0  0
    7.5220   -2.2210  -52.4700 C   0  0  0  0  0  0  0  0  0  0  0  0
    7.8900   -1.9170  -51.1550 C   0  0  0  0  0  0  0  0  0  0  0  0
    7.8970   -2.9350  -50.2140 C   0  0  0  0  0  0  0  0  0  0  0  0
    7.5700   -4.2150  -50.4870 N   0  0  0  0  0  0  0  0  0  0  0  0
    7.2210   -4.4900  -51.7600 C   0  0  0  0  0  0  0  0  0  0  0  0
    7.1820   -3.5440  -52.7700 C   0  0  0  0  0  0  0  0  0  0  0  0
    6.3360   -0.7830  -54.0660 N   0  0  0  0  0  0  0  0  0  0  0  0
    6.6980    0.1250  -54.9820 N   0  0  0  0  0  0  0  0  0  0  0  0
    6.8940    1.9110  -56.6180 H   0  0  0  0  0  0  0  0  0  0  0  0
   10.4065    2.3373  -57.8928 H   0  0  0  0  0  0  0  0  0  0  0  0
    9.3225    1.5938  -59.1302 H   0  0  0  0  0  0  0  0  0  0  0  0
   10.8540    3.2814  -60.1547 H   0  0  0  0  0  0  0  0  0  0  0  0
    9.0849    4.6224  -61.2885 H   0  0  0  0  0  0  0  0  0  0  0  0
    8.5739    2.9074  -61.0954 H   0  0  0  0  0  0  0  0  0  0  0  0
    6.7234    4.4695  -60.4888 H   0  0  0  0  0  0  0  0  0  0  0  0
    8.1556    6.3811  -59.7620 H   0  0  0  0  0  0  0  0  0  0  0  0
    6.9814    5.9226  -58.4771 H   0  0  0  0  0  0  0  0  0  0  0  0
    9.2573    6.3108  -57.5253 H   0  0  0  0  0  0  0  0  0  0  0  0
   10.5623    5.6867  -59.5581 H   0  0  0  0  0  0  0  0  0  0  0  0
   11.0959    4.7275  -58.1297 H   0  0  0  0  0  0  0  0  0  0  0  0
    9.4626    4.1321  -56.3345 H   0  0  0  0  0  0  0  0  0  0  0  0
    7.7330    4.6178  -56.5030 H   0  0  0  0  0  0  0  0  0  0  0  0
    6.2766    3.5386  -58.2201 H   0  0  0  0  0  0  0  0  0  0  0  0
    6.9683    2.2801  -59.3197 H   0  0  0  0  0  0  0  0  0  0  0  0
    9.6455   -0.6036  -53.8489 H   0  0  0  0  0  0  0  0  0  0  0  0
    8.1682   -0.8907  -50.8733 H   0  0  0  0  0  0  0  0  0  0  0  0
    8.1866   -2.6840  -49.1829 H   0  0  0  0  0  0  0  0  0  0  0  0
    6.9515   -5.5266  -52.0107 H   0  0  0  0  0  0  0  0  0  0  0  0
    6.8885   -3.8281  -53.7913 H   0  0  0  0  0  0  0  0  0  0  0  0
    5.9750    0.5180  -55.5740 H   0  0  0  0  0  0  0  0  0  0  0  0
  1  2  2  0
  2  3  1  0
  4  3  1  1
  4  5  1  0
  5  6  1  0
  6  7  1  0
  7  8  1  0
  8  9  1  0
  9 10  1  0
 10 11  1  0
 10 12  1  0
  8 13  1  0
  2 14  1  0
 14 15  2  0
 15 16  1  0
 16 17  1  0
 17 18  2  0
 18 19  1  0
 19 20  2  0
 20 21  1  0
 21 22  2  0
 16 23  2  0
 23 24  1  0
 12  4  1  0
 24 14  1  0
 13  4  1  0
 22 17  1  0
 11  6  1  0
  3 25  1  0
  5 26  1  0
  5 27  1  0
  6 28  1  6
  7 29  1  0
  7 30  1  0
  8 31  1  6
  9 32  1  0
  9 33  1  0
 10 34  1  1
 11 35  1  0
 11 36  1  0
 12 37  1  0
 12 38  1  0
 13 39  1  0
 13 40  1  0
 15 41  1  0
 18 42  1  0
 19 43  1  0
 21 44  1  0
 22 45  1  0
 24 46  1  0
M  END
>  <meeko>  (51) 
{"is_sidechain": false}

$$$$

     RDKit          3D

 62 65  0  0  0  0  0  0  0  0999 V2000
    4.8670    2.3470  -57.5790 C   0  0  0  0  0  0  0  0  0  0  0  0
    5.9710    1.7070  -56.8970 N   0  0  0  0  0  0  0  0  0  0  0  0
    5.6980    0.7590  -55.9840 N   0  0  0  0  0  0  0  0  0  0  0  0
    6.9080    0.4150  -55.4910 C   0  0  0  0  0  0  0  0  0  0  0  0
    7.0350   -0.6540  -54.4850 C   0  0  0  0  0  0  0  0  0  0  0  0
    6.5430   -0.5920  -53.3630 O   0  0  0  0  0  0  0  0  0  0  0  0
    7.8210   -1.7020  -54.9190 N   0  0  0  0  0  0  0  0  0  0  0  0
    8.2770   -2.7610  -54.0360 C   0  0  2  0  0  0  0  0  0  0  0  0
    8.8720   -2.1920  -52.7420 C   0  0  0  0  0  0  0  0  0  0  0  0
   10.2250   -1.5220  -52.9710 C   0  0  0  0  0  0  0  0  0  0  0  0
   11.2130   -2.4670  -53.6540 C   0  0  0  0  0  0  0  0  0  0  0  0
   10.6550   -3.0130  -54.9810 C   0  0  1  0  0  0  0  0  0  0  0  0
   11.6270   -3.9720  -55.7300 C   0  0  0  0  0  0  0  0  0  0  0  0
   10.9200   -5.2860  -56.1290 C   0  0  0  0  0  0  0  0  0  0  0  0
   11.7650   -6.0930  -57.1060 C   0  0  0  0  0  0  0  0  0  0  0  0
   11.9960   -5.3390  -58.4170 C   0  0  0  0  0  0  0  0  0  0  0  0
   11.8840   -3.8220  -58.2730 C   0  0  0  0  0  0  0  0  0  0  0  0
   12.3830   -3.3350  -56.9170 C   0  0  0  0  0  0  0  0  0  0  0  0
    9.2790   -3.6770  -54.7520 C   0  0  0  0  0  0  0  0  0  0  0  0
    7.9460    1.1680  -56.1040 C   0  0  0  0  0  0  0  0  0  0  0  0
    9.3580    1.1320  -55.7850 C   0  0  0  0  0  0  0  0  0  0  0  0
    9.8910    2.3140  -55.3600 N   0  0  0  0  0  0  0  0  0  0  0  0
   10.0430    0.1190  -55.8590 O   0  0  0  0  0  0  0  0  0  0  0  0
    7.3130    1.9680  -57.0520 C   0  0  0  0  0  0  0  0  0  0  0  0
    7.8530    2.9680  -57.9690 C   0  0  0  0  0  0  0  0  0  0  0  0
    7.9100    4.3150  -57.5880 C   0  0  0  0  0  0  0  0  0  0  0  0
    8.4320    5.2760  -58.4570 C   0  0  0  0  0  0  0  0  0  0  0  0
    8.9040    4.8950  -59.7130 C   0  0  0  0  0  0  0  0  0  0  0  0
    8.8540    3.5550  -60.0920 C   0  0  0  0  0  0  0  0  0  0  0  0
    9.4420    3.0840  -61.6380 Cl  0  0  0  0  0  0  0  0  0  0  0  0
    8.3340    2.5910  -59.2280 C   0  0  0  0  0  0  0  0  0  0  0  0
    4.1643    2.7543  -56.8372 H   0  0  0  0  0  0  0  0  0  0  0  0
    5.2491    3.1636  -58.2092 H   0  0  0  0  0  0  0  0  0  0  0  0
    4.3482    1.6096  -58.2092 H   0  0  0  0  0  0  0  0  0  0  0  0
    8.3020   -1.5170  -55.7950 H   0  0  0  0  0  0  0  0  0  0  0  0
    7.4020   -3.3670  -53.7582 H   0  0  0  0  0  0  0  0  0  0  0  0
    8.1745   -1.4483  -52.3292 H   0  0  0  0  0  0  0  0  0  0  0  0
    9.0252   -3.0296  -52.0456 H   0  0  0  0  0  0  0  0  0  0  0  0
   10.0813   -0.6357  -53.6065 H   0  0  0  0  0  0  0  0  0  0  0  0
   10.6394   -1.2405  -51.9917 H   0  0  0  0  0  0  0  0  0  0  0  0
   12.1459   -1.9209  -53.8575 H   0  0  0  0  0  0  0  0  0  0  0  0
   11.3932   -3.3188  -52.9817 H   0  0  0  0  0  0  0  0  0  0  0  0
   10.5345   -2.1450  -55.6458 H   0  0  0  0  0  0  0  0  0  0  0  0
   12.4171   -4.2086  -55.0021 H   0  0  0  0  0  0  0  0  0  0  0  0
   10.7445   -5.8876  -55.2249 H   0  0  0  0  0  0  0  0  0  0  0  0
    9.9679   -5.0338  -56.6187 H   0  0  0  0  0  0  0  0  0  0  0  0
   12.7392   -6.3063  -56.6419 H   0  0  0  0  0  0  0  0  0  0  0  0
   11.2245   -7.0226  -57.3376 H   0  0  0  0  0  0  0  0  0  0  0  0
   13.0040   -5.5807  -58.7852 H   0  0  0  0  0  0  0  0  0  0  0  0
   11.2098   -5.6574  -59.1173 H   0  0  0  0  0  0  0  0  0  0  0  0
   12.4831   -3.3457  -59.0631 H   0  0  0  0  0  0  0  0  0  0  0  0
   10.8213   -3.5516  -58.3593 H   0  0  0  0  0  0  0  0  0  0  0  0
   13.4506   -3.5840  -56.8265 H   0  0  0  0  0  0  0  0  0  0  0  0
   12.2087   -2.2498  -56.8732 H   0  0  0  0  0  0  0  0  0  0  0  0
    8.8594   -3.9578  -55.7293 H   0  0  0  0  0  0  0  0  0  0  0  0
    9.4419   -4.5518  -54.1053 H   0  0  0  0  0  0  0  0  0  0  0  0
   10.8910    2.3420  -55.2210 H   0  0  0  0  0  0  0  0  0  0  0  0
    9.3740    3.1800  -55.4010 H   0  0  0  0  0  0  0  0  0  0  0  0
    7.5409    4.6181  -56.5971 H   0  0  0  0  0  0  0  0  0  0  0  0
    8.4708    6.3319  -58.1512 H   0  0  0  0  0  0  0  0  0  0  0  0
    9.3138    5.6489  -60.4012 H   0  0  0  0  0  0  0  0  0  0  0  0
    8.3021    1.5355  -59.5360 H   0  0  0  0  0  0  0  0  0  0  0  0
  1  2  1  0
  2  3  1  0
  3  4  2  0
  4  5  1  0
  5  6  2  0
  5  7  1  0
  7  8  1  0
  8  9  1  0
  9 10  1  0
 10 11  1  0
 11 12  1  0
 12 13  1  0
 13 14  1  0
 14 15  1  0
 15 16  1  0
 16 17  1  0
 17 18  1  0
 12 19  1  0
  4 20  1  0
 20 21  1  0
 21 22  1  0
 21 23  2  0
 20 24  2  0
 24 25  1  0
 25 26  2  0
 26 27  1  0
 27 28  2  0
 28 29  1  0
 29 30  1  0
 29 31  2  0
 24  2  1  0
 31 25  1  0
 19  8  1  0
 18 13  1  0
  1 32  1  0
  1 33  1  0
  1 34  1  0
  7 35  1  0
  8 36  1  1
  9 37  1  0
  9 38  1  0
 10 39  1  0
 10 40  1  0
 11 41  1  0
 11 42  1  0
 12 43  1  6
 13 44  1  0
 14 45  1  0
 14 46  1  0
 15 47  1  0
 15 48  1  0
 16 49  1  0
 16 50  1  0
 17 51  1  0
 17 52  1  0
 18 53  1  0
 18 54  1  0
 19 55  1  0
 19 56  1  0
 22 57  1  0
 22 58  1  0
 26 59  1  0
 27 60  1  0
 28 61  1  0
 31 62  1  0
M  END
>  <meeko>  (52) 
{"is_sidechain": false}

$$$$

     RDKit          3D

 63 66  0  0  0  0  0  0  0  0999 V2000
   12.6840    7.1940  -60.6130 C   0  0  0  0  0  0  0  0  0  0  0  0
   13.0730    6.2780  -59.4590 C   0  0  0  0  0  0  0  0  0  0  0  0
   11.8600    5.5240  -58.9210 C   0  0  0  0  0  0  0  0  0  0  0  0
   11.5200    4.1600  -59.5630 C   0  0  2  0  0  0  0  0  0  0  0  0
   10.4010    4.2260  -60.6170 C   0  0  0  0  0  0  0  0  0  0  0  0
    8.9900    3.9970  -60.0850 C   0  0  0  0  0  0  0  0  0  0  0  0
    8.9060    2.7470  -59.2230 C   0  0  0  0  0  0  0  0  0  0  0  0
    9.8910    2.8150  -58.0560 C   0  0  1  0  0  0  0  0  0  0  0  0
    9.7950    1.6120  -57.2530 N   0  0  0  0  0  0  0  0  0  0  0  0
    8.8940    1.4730  -56.2200 C   0  0  0  0  0  0  0  0  0  0  0  0
    7.9810    2.2910  -56.0680 O   0  0  0  0  0  0  0  0  0  0  0  0
    9.0510    0.2900  -55.3330 C   0  0  0  0  0  0  0  0  0  0  0  0
   10.1290   -0.5090  -55.5060 N   0  0  0  0  0  0  0  0  0  0  0  0
    9.9870   -1.4980  -54.6030 N   0  0  0  0  0  0  0  0  0  0  0  0
   11.0670   -2.4720  -54.4680 C   0  0  0  0  0  0  0  0  0  0  0  0
   11.2510   -3.3310  -55.6970 C   0  0  0  0  0  0  0  0  0  0  0  0
   10.9460   -4.7000  -55.6550 C   0  0  0  0  0  0  0  0  0  0  0  0
   11.1180   -5.5010  -56.7860 C   0  0  0  0  0  0  0  0  0  0  0  0
   11.6090   -4.9460  -57.9660 C   0  0  0  0  0  0  0  0  0  0  0  0
   11.9320   -3.5920  -58.0160 C   0  0  0  0  0  0  0  0  0  0  0  0
   11.7580   -2.7900  -56.8880 C   0  0  0  0  0  0  0  0  0  0  0  0
    8.8560   -1.3890  -53.8330 C   0  0  0  0  0  0  0  0  0  0  0  0
    8.4940   -2.3120  -52.7640 C   0  0  0  0  0  0  0  0  0  0  0  0
    9.3460   -2.4770  -51.6640 C   0  0  0  0  0  0  0  0  0  0  0  0
    9.0210   -3.3770  -50.6460 C   0  0  0  0  0  0  0  0  0  0  0  0
    7.8400   -4.1140  -50.7230 C   0  0  0  0  0  0  0  0  0  0  0  0
    6.9840   -3.9380  -51.8080 C   0  0  0  0  0  0  0  0  0  0  0  0
    5.5320   -4.8610  -51.9030 Cl  0  0  0  0  0  0  0  0  0  0  0  0
    7.3000   -3.0370  -52.8240 C   0  0  0  0  0  0  0  0  0  0  0  0
    8.2390   -0.2320  -54.2820 C   0  0  0  0  0  0  0  0  0  0  0  0
    6.8920    0.3520  -53.7500 C   0  0  0  0  0  0  0  0  0  0  0  0
    5.9290    0.3780  -54.5780 O   0  0  0  0  0  0  0  0  0  0  0  0
    6.8580    0.7570  -52.5520 O   0  0  0  0  0  0  0  0  0  0  0  0
   11.3290    3.0130  -58.5560 C   0  0  0  0  0  0  0  0  0  0  0  0
   12.2834    8.1373  -60.2134 H   0  0  0  0  0  0  0  0  0  0  0  0
   13.5706    7.4040  -61.2293 H   0  0  0  0  0  0  0  0  0  0  0  0
   11.9172    6.7019  -61.2293 H   0  0  0  0  0  0  0  0  0  0  0  0
   13.8192    5.5515  -59.8132 H   0  0  0  0  0  0  0  0  0  0  0  0
   13.4876    6.8952  -58.6484 H   0  0  0  0  0  0  0  0  0  0  0  0
   12.0310    5.3490  -57.8486 H   0  0  0  0  0  0  0  0  0  0  0  0
   11.0018    6.1677  -59.1643 H   0  0  0  0  0  0  0  0  0  0  0  0
   12.4326    3.9001  -60.1195 H   0  0  0  0  0  0  0  0  0  0  0  0
   10.4311    5.2221  -61.0826 H   0  0  0  0  0  0  0  0  0  0  0  0
   10.5976    3.4041  -61.3212 H   0  0  0  0  0  0  0  0  0  0  0  0
    8.6921    4.8666  -59.4808 H   0  0  0  0  0  0  0  0  0  0  0  0
    8.3181    3.8639  -60.9457 H   0  0  0  0  0  0  0  0  0  0  0  0
    7.8846    2.6527  -58.8258 H   0  0  0  0  0  0  0  0  0  0  0  0
    9.1613    1.8764  -59.8449 H   0  0  0  0  0  0  0  0  0  0  0  0
    9.6279    3.6826  -57.4331 H   0  0  0  0  0  0  0  0  0  0  0  0
   10.6210    0.9940  -57.2290 H   0  0  0  0  0  0  0  0  0  0  0  0
   12.0048   -1.9298  -54.2768 H   0  0  0  0  0  0  0  0  0  0  0  0
   10.8006   -3.1424  -53.6376 H   0  0  0  0  0  0  0  0  0  0  0  0
   10.5682   -5.1461  -54.7232 H   0  0  0  0  0  0  0  0  0  0  0  0
   10.8657   -6.5709  -56.7453 H   0  0  0  0  0  0  0  0  0  0  0  0
   11.7414   -5.5767  -58.8574 H   0  0  0  0  0  0  0  0  0  0  0  0
   12.3247   -3.1547  -58.9458 H   0  0  0  0  0  0  0  0  0  0  0  0
   12.0209   -1.7228  -56.9328 H   0  0  0  0  0  0  0  0  0  0  0  0
   10.2768   -1.8942  -51.6015 H   0  0  0  0  0  0  0  0  0  0  0  0
    9.6951   -3.5038  -49.7860 H   0  0  0  0  0  0  0  0  0  0  0  0
    7.5849   -4.8321  -49.9297 H   0  0  0  0  0  0  0  0  0  0  0  0
    6.6117   -2.8969  -53.6706 H   0  0  0  0  0  0  0  0  0  0  0  0
   11.9677    3.2160  -57.6837 H   0  0  0  0  0  0  0  0  0  0  0  0
   11.5962    2.0896  -59.0907 H   0  0  0  0  0  0  0  0  0  0  0  0
  1  2  1  0
  2  3  1  0
  3  4  1  0
  4  5  1  0
  5  6  1  0
  6  7  1  0
  7  8  1  0
  8  9  1  0
  9 10  1  0
 10 11  2  0
 10 12  1  0
 12 13  2  0
 13 14  1  0
 14 15  1  0
 15 16  1  0
 16 17  2  0
 17 18  1  0
 18 19  2  0
 19 20  1  0
 20 21  2  0
 14 22  1  0
 22 23  1  0
 23 24  2  0
 24 25  1  0
 25 26  2  0
 26 27  1  0
 27 28  1  0
 27 29  2  0
 22 30  2  0
 30 31  1  0
 31 32  2  0
 31 33  1  0
  8 34  1  0
 34  4  1  0
 30 12  1  0
 21 16  1  0
 29 23  1  0
  1 35  1  0
  1 36  1  0
  1 37  1  0
  2 38  1  0
  2 39  1  0
  3 40  1  0
  3 41  1  0
  4 42  1  6
  5 43  1  0
  5 44  1  0
  6 45  1  0
  6 46  1  0
  7 47  1  0
  7 48  1  0
  8 49  1  1
  9 50  1  0
 15 51  1  0
 15 52  1  0
 17 53  1  0
 18 54  1  0
 19 55  1  0
 20 56  1  0
 21 57  1  0
 24 58  1  0
 25 59  1  0
 26 60  1  0
 29 61  1  0
 34 62  1  0
 34 63  1  0
M  CHG  1  33  -1
M  END
>  <meeko>  (53) 
{"is_sidechain": false}

$$$$

     RDKit          3D

 63 66  0  0  0  0  0  0  0  0999 V2000
   10.4820    4.3370  -60.5990 C   0  0  0  0  0  0  0  0  0  0  0  0
   10.0750    2.8970  -60.8670 C   0  0  0  0  0  0  0  0  0  0  0  0
    8.6360    2.8100  -61.3790 C   0  0  0  0  0  0  0  0  0  0  0  0
    7.5870    2.8840  -60.2540 C   0  0  1  0  0  0  0  0  0  0  0  0
    6.2980    2.1180  -60.6090 C   0  0  0  0  0  0  0  0  0  0  0  0
    5.5070    1.6390  -59.3880 C   0  0  0  0  0  0  0  0  0  0  0  0
    5.7300    2.5350  -58.1760 C   0  0  0  0  0  0  0  0  0  0  0  0
    7.2060    2.5720  -57.7530 C   0  0  1  0  0  0  0  0  0  0  0  0
    7.4670    1.5930  -56.7160 N   0  0  0  0  0  0  0  0  0  0  0  0
    8.6540    1.5460  -56.0150 C   0  0  0  0  0  0  0  0  0  0  0  0
    9.4730    2.4660  -56.0970 O   0  0  0  0  0  0  0  0  0  0  0  0
    8.8770    0.3630  -55.1450 C   0  0  0  0  0  0  0  0  0  0  0  0
   10.0520   -0.3020  -55.2270 N   0  0  0  0  0  0  0  0  0  0  0  0
    9.9460   -1.3160  -54.3450 N   0  0  0  0  0  0  0  0  0  0  0  0
   11.0190   -2.3060  -54.2990 C   0  0  0  0  0  0  0  0  0  0  0  0
   11.1320   -3.1220  -55.5660 C   0  0  0  0  0  0  0  0  0  0  0  0
   10.6130   -4.4240  -55.6370 C   0  0  0  0  0  0  0  0  0  0  0  0
   10.7290   -5.1720  -56.8100 C   0  0  0  0  0  0  0  0  0  0  0  0
   11.3710   -4.6320  -57.9210 C   0  0  0  0  0  0  0  0  0  0  0  0
   11.9040   -3.3460  -57.8610 C   0  0  0  0  0  0  0  0  0  0  0  0
   11.7920   -2.5980  -56.6880 C   0  0  0  0  0  0  0  0  0  0  0  0
    8.7510   -1.3440  -53.6680 C   0  0  0  0  0  0  0  0  0  0  0  0
    8.4070   -2.3230  -52.6420 C   0  0  0  0  0  0  0  0  0  0  0  0
    9.2260   -2.4900  -51.5200 C   0  0  0  0  0  0  0  0  0  0  0  0
    8.8870   -3.4080  -50.5230 C   0  0  0  0  0  0  0  0  0  0  0  0
    7.7220   -4.1630  -50.6410 C   0  0  0  0  0  0  0  0  0  0  0  0
    6.9110   -4.0090  -51.7650 C   0  0  0  0  0  0  0  0  0  0  0  0
    5.4680   -4.9400  -51.9070 Cl  0  0  0  0  0  0  0  0  0  0  0  0
    7.2520   -3.1030  -52.7670 C   0  0  0  0  0  0  0  0  0  0  0  0
    8.0290   -0.2890  -54.2030 C   0  0  0  0  0  0  0  0  0  0  0  0
    6.5610    0.0990  -53.8670 C   0  0  0  0  0  0  0  0  0  0  0  0
    5.7190   -0.0500  -54.8060 O   0  0  0  0  0  0  0  0  0  0  0  0
    6.3160    0.5020  -52.6920 O   0  0  0  0  0  0  0  0  0  0  0  0
    8.1730    2.3620  -58.9350 C   0  0  0  0  0  0  0  0  0  0  0  0
   10.5304    4.5084  -59.5135 H   0  0  0  0  0  0  0  0  0  0  0  0
   11.4693    4.5280  -61.0448 H   0  0  0  0  0  0  0  0  0  0  0  0
    9.7407    5.0166  -61.0448 H   0  0  0  0  0  0  0  0  0  0  0  0
   10.7502    2.4689  -61.6225 H   0  0  0  0  0  0  0  0  0  0  0  0
   10.1410    2.3370  -59.9225 H   0  0  0  0  0  0  0  0  0  0  0  0
    8.4615    3.6435  -62.0752 H   0  0  0  0  0  0  0  0  0  0  0  0
    8.5217    1.8319  -61.8691 H   0  0  0  0  0  0  0  0  0  0  0  0
    7.3161    3.9432  -60.1325 H   0  0  0  0  0  0  0  0  0  0  0  0
    5.6520    2.7823  -61.2018 H   0  0  0  0  0  0  0  0  0  0  0  0
    6.6025    1.2196  -61.1659 H   0  0  0  0  0  0  0  0  0  0  0  0
    4.4355    1.6384  -59.6369 H   0  0  0  0  0  0  0  0  0  0  0  0
    5.8566    0.6279  -59.1320 H   0  0  0  0  0  0  0  0  0  0  0  0
    5.4059    3.5563  -58.4247 H   0  0  0  0  0  0  0  0  0  0  0  0
    5.1462    2.1258  -57.3383 H   0  0  0  0  0  0  0  0  0  0  0  0
    7.3917    3.5817  -57.3580 H   0  0  0  0  0  0  0  0  0  0  0  0
    6.8990    0.7320  -56.7250 H   0  0  0  0  0  0  0  0  0  0  0  0
   11.9718   -1.7813  -54.1351 H   0  0  0  0  0  0  0  0  0  0  0  0
   10.7849   -3.0035  -53.4812 H   0  0  0  0  0  0  0  0  0  0  0  0
   10.1103   -4.8590  -54.7606 H   0  0  0  0  0  0  0  0  0  0  0  0
   10.3127   -6.1891  -56.8565 H   0  0  0  0  0  0  0  0  0  0  0  0
   11.4575   -5.2206  -58.8463 H   0  0  0  0  0  0  0  0  0  0  0  0
   12.4131   -2.9202  -58.7382 H   0  0  0  0  0  0  0  0  0  0  0  0
   12.2253   -1.5880  -56.6426 H   0  0  0  0  0  0  0  0  0  0  0  0
   10.1449   -1.8933  -51.4220 H   0  0  0  0  0  0  0  0  0  0  0  0
    9.5389   -3.5346  -49.6461 H   0  0  0  0  0  0  0  0  0  0  0  0
    7.4434   -4.8768  -49.8518 H   0  0  0  0  0  0  0  0  0  0  0  0
    6.6131   -3.0008  -53.6566 H   0  0  0  0  0  0  0  0  0  0  0  0
    9.1111    2.8971  -58.7263 H   0  0  0  0  0  0  0  0  0  0  0  0
    8.3483    1.2815  -59.0440 H   0  0  0  0  0  0  0  0  0  0  0  0
  1  2  1  0
  2  3  1  0
  3  4  1  0
  4  5  1  0
  5  6  1  0
  6  7  1  0
  7  8  1  0
  8  9  1  0
  9 10  1  0
 10 11  2  0
 10 12  1  0
 12 13  2  0
 13 14  1  0
 14 15  1  0
 15 16  1  0
 16 17  2  0
 17 18  1  0
 18 19  2  0
 19 20  1  0
 20 21  2  0
 14 22  1  0
 22 23  1  0
 23 24  2  0
 24 25  1  0
 25 26  2  0
 26 27  1  0
 27 28  1  0
 27 29  2  0
 22 30  2  0
 30 31  1  0
 31 32  2  0
 31 33  1  0
  8 34  1  0
 34  4  1  0
 30 12  1  0
 21 16  1  0
 29 23  1  0
  1 35  1  0
  1 36  1  0
  1 37  1  0
  2 38  1  0
  2 39  1  0
  3 40  1  0
  3 41  1  0
  4 42  1  1
  5 43  1  0
  5 44  1  0
  6 45  1  0
  6 46  1  0
  7 47  1  0
  7 48  1  0
  8 49  1  1
  9 50  1  0
 15 51  1  0
 15 52  1  0
 17 53  1  0
 18 54  1  0
 19 55  1  0
 20 56  1  0
 21 57  1  0
 24 58  1  0
 25 59  1  0
 26 60  1  0
 29 61  1  0
 34 62  1  0
 34 63  1  0
M  CHG  1  33  -1
M  END
>  <meeko>  (54) 
{"is_sidechain": false}

$$$$

     RDKit          3D

 69 73  0  0  0  0  0  0  0  0999 V2000
    9.4890   -3.4400  -50.6130 C   0  0  0  0  0  0  0  0  0  0  0  0
    8.0150   -3.4430  -51.0260 C   0  0  2  0  0  0  0  0  0  0  0  0
    7.2500   -4.3850  -50.0750 C   0  0  0  0  0  0  0  0  0  0  0  0
    5.7600   -4.4360  -50.3870 C   0  0  0  0  0  0  0  0  0  0  0  0
    5.5170   -4.8320  -51.8350 C   0  0  0  0  0  0  0  0  0  0  0  0
    6.2530   -3.9030  -52.7930 C   0  0  0  0  0  0  0  0  0  0  0  0
    7.7740   -3.8430  -52.5130 C   0  0  1  0  0  0  0  0  0  0  0  0
    8.4510   -2.9410  -53.5910 C   0  0  2  0  0  0  0  0  0  0  0  0
    9.8780   -3.4050  -53.9540 C   0  0  0  0  0  0  0  0  0  0  0  0
   10.7830   -2.2600  -54.4040 C   0  0  0  0  0  0  0  0  0  0  0  0
   10.0130   -1.2000  -55.1850 C   0  0  0  0  0  0  0  0  0  0  0  0
    8.9050   -0.6410  -54.4090 N   0  0  0  0  0  0  0  0  0  0  0  0
    8.3890    0.6480  -54.6010 C   0  0  0  0  0  0  0  0  0  0  0  0
    8.0850    1.3620  -53.6410 O   0  0  0  0  0  0  0  0  0  0  0  0
    8.2060    1.1490  -55.9820 C   0  0  0  0  0  0  0  0  0  0  0  0
    7.0510    0.9560  -56.6330 N   0  0  0  0  0  0  0  0  0  0  0  0
    7.1640    1.6080  -57.8160 N   0  0  0  0  0  0  0  0  0  0  0  0
    6.0050    1.6680  -58.6600 C   0  0  0  0  0  0  0  0  0  0  0  0
    5.8500    0.8720  -59.8010 C   0  0  0  0  0  0  0  0  0  0  0  0
    4.6950    0.9710  -60.5860 C   0  0  0  0  0  0  0  0  0  0  0  0
    3.6890    1.8720  -60.2510 C   0  0  0  0  0  0  0  0  0  0  0  0
    3.8360    2.6860  -59.1340 C   0  0  0  0  0  0  0  0  0  0  0  0
    4.9880    2.5900  -58.3470 C   0  0  0  0  0  0  0  0  0  0  0  0
    8.4520    2.1130  -57.9850 C   0  0  0  0  0  0  0  0  0  0  0  0
    8.9800    2.7130  -59.2130 C   0  0  0  0  0  0  0  0  0  0  0  0
    8.6510    2.1720  -60.4640 C   0  0  0  0  0  0  0  0  0  0  0  0
    9.1490    2.7480  -61.6350 C   0  0  0  0  0  0  0  0  0  0  0  0
    9.9730    3.8710  -61.5630 C   0  0  0  0  0  0  0  0  0  0  0  0
   10.2910    4.4170  -60.3200 C   0  0  0  0  0  0  0  0  0  0  0  0
   11.3070    5.8040  -60.2340 Cl  0  0  0  0  0  0  0  0  0  0  0  0
    9.7980    3.8490  -59.1470 C   0  0  0  0  0  0  0  0  0  0  0  0
    9.1330    1.8780  -56.7850 C   0  0  0  0  0  0  0  0  0  0  0  0
   10.5200    2.2540  -56.5230 C   0  0  0  0  0  0  0  0  0  0  0  0
   10.7590    3.4970  -56.0250 N   0  0  0  0  0  0  0  0  0  0  0  0
   11.4760    1.5150  -56.7390 O   0  0  0  0  0  0  0  0  0  0  0  0
    8.3970   -1.4340  -53.2900 C   0  0  0  0  0  0  0  0  0  0  0  0
    9.5623   -3.4399  -49.5154 H   0  0  0  0  0  0  0  0  0  0  0  0
    9.9838   -4.3371  -51.0134 H   0  0  0  0  0  0  0  0  0  0  0  0
    9.9801   -2.5409  -51.0134 H   0  0  0  0  0  0  0  0  0  0  0  0
    7.6429   -2.4110  -50.9456 H   0  0  0  0  0  0  0  0  0  0  0  0
    7.6663   -5.3987  -50.1707 H   0  0  0  0  0  0  0  0  0  0  0  0
    7.3666   -3.9977  -49.0520 H   0  0  0  0  0  0  0  0  0  0  0  0
    5.2799   -5.1738  -49.7274 H   0  0  0  0  0  0  0  0  0  0  0  0
    5.3342   -3.4352  -50.2224 H   0  0  0  0  0  0  0  0  0  0  0  0
    5.8726   -5.8614  -51.9897 H   0  0  0  0  0  0  0  0  0  0  0  0
    4.4386   -4.7585  -52.0392 H   0  0  0  0  0  0  0  0  0  0  0  0
    6.0979   -4.2623  -53.8210 H   0  0  0  0  0  0  0  0  0  0  0  0
    5.8480   -2.8900  -52.6519 H   0  0  0  0  0  0  0  0  0  0  0  0
    8.2600   -4.8246  -52.6143 H   0  0  0  0  0  0  0  0  0  0  0  0
    7.8260   -3.0801  -54.4855 H   0  0  0  0  0  0  0  0  0  0  0  0
   10.3275   -3.8799  -53.0695 H   0  0  0  0  0  0  0  0  0  0  0  0
    9.7909   -4.1057  -54.7975 H   0  0  0  0  0  0  0  0  0  0  0  0
   11.2319   -1.7913  -53.5158 H   0  0  0  0  0  0  0  0  0  0  0  0
   11.5564   -2.6766  -55.0660 H   0  0  0  0  0  0  0  0  0  0  0  0
   10.7031   -0.3869  -55.4545 H   0  0  0  0  0  0  0  0  0  0  0  0
    9.5914   -1.6790  -56.0810 H   0  0  0  0  0  0  0  0  0  0  0  0
    6.6422    0.1629  -60.0831 H   0  0  0  0  0  0  0  0  0  0  0  0
    4.5820    0.3318  -61.4741 H   0  0  0  0  0  0  0  0  0  0  0  0
    2.7808    1.9398  -60.8679 H   0  0  0  0  0  0  0  0  0  0  0  0
    3.0468    3.4051  -58.8693 H   0  0  0  0  0  0  0  0  0  0  0  0
    5.1013    3.2446  -57.4703 H   0  0  0  0  0  0  0  0  0  0  0  0
    7.9973    1.2893  -60.5236 H   0  0  0  0  0  0  0  0  0  0  0  0
    8.8915    2.3162  -62.6134 H   0  0  0  0  0  0  0  0  0  0  0  0
   10.3704    4.3242  -62.4832 H   0  0  0  0  0  0  0  0  0  0  0  0
   10.0502    4.2911  -58.1718 H   0  0  0  0  0  0  0  0  0  0  0  0
   11.7200    3.7730  -55.8930 H   0  0  0  0  0  0  0  0  0  0  0  0
   10.0380    4.2040  -55.8960 H   0  0  0  0  0  0  0  0  0  0  0  0
    9.0080   -1.2261  -52.3992 H   0  0  0  0  0  0  0  0  0  0  0  0
    7.3464   -1.1552  -53.1208 H   0  0  0  0  0  0  0  0  0  0  0  0
  1  2  1  0
  2  3  1  0
  3  4  1  0
  4  5  1  0
  5  6  1  0
  6  7  1  0
  7  8  1  0
  8  9  1  0
  9 10  1  0
 10 11  1  0
 11 12  1  0
 12 13  1  0
 13 14  2  0
 13 15  1  0
 15 16  2  0
 16 17  1  0
 17 18  1  0
 18 19  2  0
 19 20  1  0
 20 21  2  0
 21 22  1  0
 22 23  2  0
 17 24  1  0
 24 25  1  0
 25 26  2  0
 26 27  1  0
 27 28  2  0
 28 29  1  0
 29 30  1  0
 29 31  2  0
 24 32  2  0
 32 33  1  0
 33 34  1  0
 33 35  2  0
 12 36  1  0
  7  2  1  0
 36  8  1  0
 32 15  1  0
 23 18  1  0
 31 25  1  0
  1 37  1  0
  1 38  1  0
  1 39  1  0
  2 40  1  6
  3 41  1  0
  3 42  1  0
  4 43  1  0
  4 44  1  0
  5 45  1  0
  5 46  1  0
  6 47  1  0
  6 48  1  0
  7 49  1  1
  8 50  1  6
  9 51  1  0
  9 52  1  0
 10 53  1  0
 10 54  1  0
 11 55  1  0
 11 56  1  0
 19 57  1  0
 20 58  1  0
 21 59  1  0
 22 60  1  0
 23 61  1  0
 26 62  1  0
 27 63  1  0
 28 64  1  0
 31 65  1  0
 34 66  1  0
 34 67  1  0
 36 68  1  0
 36 69  1  0
M  END
>  <meeko>  (55) 
{"is_sidechain": false}

$$$$

     RDKit          3D

 69 73  0  0  0  0  0  0  0  0999 V2000
   12.9340   -2.9260  -57.4830 C   0  0  0  0  0  0  0  0  0  0  0  0
   11.5680   -3.5750  -57.7180 C   0  0  1  0  0  0  0  0  0  0  0  0
   11.7130   -4.8070  -58.6350 C   0  0  0  0  0  0  0  0  0  0  0  0
   12.3500   -6.0020  -57.9320 C   0  0  0  0  0  0  0  0  0  0  0  0
   11.5910   -6.3700  -56.6640 C   0  0  0  0  0  0  0  0  0  0  0  0
   11.4420   -5.1760  -55.7240 C   0  0  0  0  0  0  0  0  0  0  0  0
   10.7940   -3.9650  -56.4260 C   0  0  1  0  0  0  0  0  0  0  0  0
   10.4440   -2.8240  -55.4210 C   0  0  2  0  0  0  0  0  0  0  0  0
   11.0910   -3.0360  -54.0410 C   0  0  0  0  0  0  0  0  0  0  0  0
   10.8310   -1.8370  -53.1350 C   0  0  0  0  0  0  0  0  0  0  0  0
    9.3380   -1.5560  -53.0160 C   0  0  0  0  0  0  0  0  0  0  0  0
    8.7140   -1.3960  -54.3290 N   0  0  0  0  0  0  0  0  0  0  0  0
    7.5290   -0.6560  -54.5000 C   0  0  0  0  0  0  0  0  0  0  0  0
    6.5660   -0.7800  -53.7420 O   0  0  0  0  0  0  0  0  0  0  0  0
    7.4340    0.2560  -55.6560 C   0  0  0  0  0  0  0  0  0  0  0  0
    6.3000    0.4130  -56.3540 N   0  0  0  0  0  0  0  0  0  0  0  0
    6.5760    1.3440  -57.3040 N   0  0  0  0  0  0  0  0  0  0  0  0
    5.5920    1.5830  -58.3170 C   0  0  0  0  0  0  0  0  0  0  0  0
    4.5000    2.4390  -58.1250 C   0  0  0  0  0  0  0  0  0  0  0  0
    3.5670    2.6370  -59.1490 C   0  0  0  0  0  0  0  0  0  0  0  0
    3.7190    1.9950  -60.3760 C   0  0  0  0  0  0  0  0  0  0  0  0
    4.8110    1.1600  -60.5880 C   0  0  0  0  0  0  0  0  0  0  0  0
    5.7460    0.9600  -59.5690 C   0  0  0  0  0  0  0  0  0  0  0  0
    7.8390    1.9110  -57.1050 C   0  0  0  0  0  0  0  0  0  0  0  0
    8.3960    3.0590  -57.8200 C   0  0  0  0  0  0  0  0  0  0  0  0
    8.3880    4.3310  -57.2300 C   0  0  0  0  0  0  0  0  0  0  0  0
    8.8960    5.4340  -57.9210 C   0  0  0  0  0  0  0  0  0  0  0  0
    9.4080    5.2730  -59.2090 C   0  0  0  0  0  0  0  0  0  0  0  0
    9.4060    4.0120  -59.8010 C   0  0  0  0  0  0  0  0  0  0  0  0
   10.0310    3.8180  -61.3930 Cl  0  0  0  0  0  0  0  0  0  0  0  0
    8.8990    2.9060  -59.1180 C   0  0  0  0  0  0  0  0  0  0  0  0
    8.4280    1.1670  -56.0840 C   0  0  0  0  0  0  0  0  0  0  0  0
    9.7670    1.2640  -55.5420 C   0  0  0  0  0  0  0  0  0  0  0  0
   10.7600    0.7190  -56.3010 N   0  0  0  0  0  0  0  0  0  0  0  0
   10.0110    1.7990  -54.4670 O   0  0  0  0  0  0  0  0  0  0  0  0
    8.9490   -2.4820  -55.2820 C   0  0  0  0  0  0  0  0  0  0  0  0
   13.1174   -2.8389  -56.4019 H   0  0  0  0  0  0  0  0  0  0  0  0
   13.7186   -3.5476  -57.9391 H   0  0  0  0  0  0  0  0  0  0  0  0
   12.9477   -1.9251  -57.9391 H   0  0  0  0  0  0  0  0  0  0  0  0
   10.9596   -2.7972  -58.2026 H   0  0  0  0  0  0  0  0  0  0  0  0
   10.7135   -5.1003  -58.9886 H   0  0  0  0  0  0  0  0  0  0  0  0
   12.3755   -4.5226  -59.4658 H   0  0  0  0  0  0  0  0  0  0  0  0
   12.3444   -6.8640  -58.6154 H   0  0  0  0  0  0  0  0  0  0  0  0
   13.3792   -5.7315  -57.6533 H   0  0  0  0  0  0  0  0  0  0  0  0
   10.5898   -6.7319  -56.9410 H   0  0  0  0  0  0  0  0  0  0  0  0
   12.1623   -7.1492  -56.1382 H   0  0  0  0  0  0  0  0  0  0  0  0
   10.8122   -5.4713  -54.8719 H   0  0  0  0  0  0  0  0  0  0  0  0
   12.4473   -4.8780  -55.3915 H   0  0  0  0  0  0  0  0  0  0  0  0
    9.8025   -4.2465  -56.8104 H   0  0  0  0  0  0  0  0  0  0  0  0
   10.8915   -1.9361  -55.8916 H   0  0  0  0  0  0  0  0  0  0  0  0
   10.6656   -3.9382  -53.5773 H   0  0  0  0  0  0  0  0  0  0  0  0
   12.1770   -3.1512  -54.1730 H   0  0  0  0  0  0  0  0  0  0  0  0
   11.2384   -2.0468  -52.1350 H   0  0  0  0  0  0  0  0  0  0  0  0
   11.3199   -0.9543  -53.5729 H   0  0  0  0  0  0  0  0  0  0  0  0
    8.8574   -2.3955  -52.4923 H   0  0  0  0  0  0  0  0  0  0  0  0
    9.2080   -0.6178  -52.4566 H   0  0  0  0  0  0  0  0  0  0  0  0
    4.3751    2.9587  -57.1636 H   0  0  0  0  0  0  0  0  0  0  0  0
    2.7079    3.3039  -58.9840 H   0  0  0  0  0  0  0  0  0  0  0  0
    2.9780    2.1479  -61.1744 H   0  0  0  0  0  0  0  0  0  0  0  0
    4.9386    0.6570  -61.5579 H   0  0  0  0  0  0  0  0  0  0  0  0
    6.6132    0.3074  -59.7480 H   0  0  0  0  0  0  0  0  0  0  0  0
    7.9793    4.4613  -56.2171 H   0  0  0  0  0  0  0  0  0  0  0  0
    8.8923    6.4281  -57.4502 H   0  0  0  0  0  0  0  0  0  0  0  0
    9.8117    6.1385  -59.7548 H   0  0  0  0  0  0  0  0  0  0  0  0
    8.8944    1.9162  -59.5979 H   0  0  0  0  0  0  0  0  0  0  0  0
   10.6020    0.4570  -57.2640 H   0  0  0  0  0  0  0  0  0  0  0  0
   11.7070    0.9080  -56.0050 H   0  0  0  0  0  0  0  0  0  0  0  0
    8.4117   -3.3778  -54.9371 H   0  0  0  0  0  0  0  0  0  0  0  0
    8.5866   -2.1504  -56.2662 H   0  0  0  0  0  0  0  0  0  0  0  0
  1  2  1  0
  2  3  1  0
  3  4  1  0
  4  5  1  0
  5  6  1  0
  6  7  1  0
  7  8  1  0
  8  9  1  0
  9 10  1  0
 10 11  1  0
 11 12  1  0
 12 13  1  0
 13 14  2  0
 13 15  1  0
 15 16  2  0
 16 17  1  0
 17 18  1  0
 18 19  2  0
 19 20  1  0
 20 21  2  0
 21 22  1  0
 22 23  2  0
 17 24  1  0
 24 25  1  0
 25 26  2  0
 26 27  1  0
 27 28  2  0
 28 29  1  0
 29 30  1  0
 29 31  2  0
 24 32  2  0
 32 33  1  0
 33 34  1  0
 33 35  2  0
 12 36  1  0
  7  2  1  0
 36  8  1  0
 32 15  1  0
 23 18  1  0
 31 25  1  0
  1 37  1  0
  1 38  1  0
  1 39  1  0
  2 40  1  6
  3 41  1  0
  3 42  1  0
  4 43  1  0
  4 44  1  0
  5 45  1  0
  5 46  1  0
  6 47  1  0
  6 48  1  0
  7 49  1  6
  8 50  1  6
  9 51  1  0
  9 52  1  0
 10 53  1  0
 10 54  1  0
 11 55  1  0
 11 56  1  0
 19 57  1  0
 20 58  1  0
 21 59  1  0
 22 60  1  0
 23 61  1  0
 26 62  1  0
 27 63  1  0
 28 64  1  0
 31 65  1  0
 34 66  1  0
 34 67  1  0
 36 68  1  0
 36 69  1  0
M  END
>  <meeko>  (56) 
{"is_sidechain": false}

$$$$

     RDKit          3D

 66 70  0  0  0  0  0  0  0  0999 V2000
    5.7370    0.1590  -53.6650 N   0  0  0  0  0  0  0  0  0  0  0  0
    6.8860   -0.2230  -53.0450 C   0  0  0  0  0  0  0  0  0  0  0  0
    7.0130    0.0330  -51.8510 O   0  0  0  0  0  0  0  0  0  0  0  0
    7.8990   -0.9260  -53.8300 C   0  0  0  0  0  0  0  0  0  0  0  0
    8.7150   -0.5150  -54.9350 C   0  0  0  0  0  0  0  0  0  0  0  0
    8.7920    0.7860  -55.6390 C   0  0  0  0  0  0  0  0  0  0  0  0
    7.8240    1.5250  -55.7740 O   0  0  0  0  0  0  0  0  0  0  0  0
   10.0700    1.0340  -56.1040 N   0  0  0  0  0  0  0  0  0  0  0  0
   10.5460    2.1490  -56.8140 C   0  0  0  0  0  0  0  0  0  0  0  0
    9.7640    3.2310  -57.1980 C   0  0  0  0  0  0  0  0  0  0  0  0
   10.3430    4.2900  -57.9050 C   0  0  0  0  0  0  0  0  0  0  0  0
   11.6990    4.2410  -58.2170 C   0  0  0  0  0  0  0  0  0  0  0  0
   12.3560    5.3850  -58.9630 C   0  0  0  0  0  0  0  0  0  0  0  0
   13.8010    5.0170  -59.3590 C   0  0  0  0  0  0  0  0  0  0  0  0
   14.3490    5.8440  -60.5270 C   0  0  0  0  0  0  0  0  0  0  0  0
   13.6380    7.1740  -60.6660 C   0  0  0  0  0  0  0  0  0  0  0  0
   14.1890    7.8950  -61.6730 F   0  0  0  0  0  0  0  0  0  0  0  0
   13.8330    7.8940  -59.5290 F   0  0  0  0  0  0  0  0  0  0  0  0
   12.1430    7.0210  -60.9080 C   0  0  0  0  0  0  0  0  0  0  0  0
   11.5360    5.8100  -60.1910 C   0  0  0  0  0  0  0  0  0  0  0  0
   12.4830    3.2010  -57.8470 N   0  0  0  0  0  0  0  0  0  0  0  0
   11.8930    2.1900  -57.1650 C   0  0  0  0  0  0  0  0  0  0  0  0
    9.5270   -1.5130  -55.3470 N   0  0  0  0  0  0  0  0  0  0  0  0
    9.2400   -2.5460  -54.5340 N   0  0  0  0  0  0  0  0  0  0  0  0
    9.9530   -3.8080  -54.7190 C   0  0  0  0  0  0  0  0  0  0  0  0
    9.6670   -4.4450  -56.0820 C   0  0  0  0  0  0  0  0  0  0  0  0
   10.3820   -5.7890  -56.1960 C   0  0  0  0  0  0  0  0  0  0  0  0
   11.5390   -5.8810  -55.3650 O   0  0  0  0  0  0  0  0  0  0  0  0
   12.2640   -4.6590  -55.2920 C   0  0  0  0  0  0  0  0  0  0  0  0
   11.4630   -3.6350  -54.4980 C   0  0  0  0  0  0  0  0  0  0  0  0
    8.2830   -2.2490  -53.5960 C   0  0  0  0  0  0  0  0  0  0  0  0
    7.8140   -3.2100  -52.6000 C   0  0  0  0  0  0  0  0  0  0  0  0
    6.4980   -3.6860  -52.6480 C   0  0  0  0  0  0  0  0  0  0  0  0
    6.0420   -4.5900  -51.6860 C   0  0  0  0  0  0  0  0  0  0  0  0
    6.8990   -5.0220  -50.6740 C   0  0  0  0  0  0  0  0  0  0  0  0
    8.2110   -4.5520  -50.6310 C   0  0  0  0  0  0  0  0  0  0  0  0
    9.2670   -5.0830  -49.3800 Cl  0  0  0  0  0  0  0  0  0  0  0  0
    8.6740   -3.6490  -51.5880 C   0  0  0  0  0  0  0  0  0  0  0  0
    5.0860    0.7110  -53.1250 H   0  0  0  0  0  0  0  0  0  0  0  0
    5.6000    0.1230  -54.6710 H   0  0  0  0  0  0  0  0  0  0  0  0
   10.7250    0.2860  -55.8820 H   0  0  0  0  0  0  0  0  0  0  0  0
    8.6933    3.2549  -56.9470 H   0  0  0  0  0  0  0  0  0  0  0  0
    9.7332    5.1527  -58.2114 H   0  0  0  0  0  0  0  0  0  0  0  0
   12.3928    6.2492  -58.2834 H   0  0  0  0  0  0  0  0  0  0  0  0
   14.4514    5.1753  -58.4861 H   0  0  0  0  0  0  0  0  0  0  0  0
   13.7871    3.9671  -59.6870 H   0  0  0  0  0  0  0  0  0  0  0  0
   15.4199    6.0302  -60.3582 H   0  0  0  0  0  0  0  0  0  0  0  0
   14.1844    5.2734  -61.4529 H   0  0  0  0  0  0  0  0  0  0  0  0
   11.6362    7.9293  -60.5502 H   0  0  0  0  0  0  0  0  0  0  0  0
   12.0008    6.8666  -61.9878 H   0  0  0  0  0  0  0  0  0  0  0  0
   10.5176    6.0669  -59.8641 H   0  0  0  0  0  0  0  0  0  0  0  0
   11.5316    4.9683  -60.8992 H   0  0  0  0  0  0  0  0  0  0  0  0
   12.5238    1.3396  -56.8668 H   0  0  0  0  0  0  0  0  0  0  0  0
    9.5719   -4.5002  -53.9537 H   0  0  0  0  0  0  0  0  0  0  0  0
    8.5833   -4.5995  -56.1907 H   0  0  0  0  0  0  0  0  0  0  0  0
   10.0322   -3.7757  -56.8748 H   0  0  0  0  0  0  0  0  0  0  0  0
    9.6795   -6.5847  -55.9071 H   0  0  0  0  0  0  0  0  0  0  0  0
   10.7180   -5.8940  -57.2382 H   0  0  0  0  0  0  0  0  0  0  0  0
   13.2287   -4.8351  -54.7937 H   0  0  0  0  0  0  0  0  0  0  0  0
   12.4385   -4.2770  -56.3087 H   0  0  0  0  0  0  0  0  0  0  0  0
   11.6843   -3.7599  -53.4278 H   0  0  0  0  0  0  0  0  0  0  0  0
   11.7495   -2.6303  -54.8423 H   0  0  0  0  0  0  0  0  0  0  0  0
    5.8211   -3.3468  -53.4460 H   0  0  0  0  0  0  0  0  0  0  0  0
    5.0073   -4.9612  -51.7265 H   0  0  0  0  0  0  0  0  0  0  0  0
    6.5412   -5.7308  -49.9127 H   0  0  0  0  0  0  0  0  0  0  0  0
    9.7108   -3.2838  -51.5470 H   0  0  0  0  0  0  0  0  0  0  0  0
  1  2  1  0
  2  3  2  0
  2  4  1  0
  4  5  1  0
  5  6  1  0
  6  7  2  0
  6  8  1  0
  8  9  1  0
  9 10  2  0
 10 11  1  0
 11 12  2  0
 12 13  1  0
 13 14  1  0
 14 15  1  0
 15 16  1  0
 16 17  1  0
 16 18  1  0
 16 19  1  0
 19 20  1  0
 12 21  1  0
 21 22  2  0
  5 23  2  0
 23 24  1  0
 24 25  1  0
 25 26  1  0
 26 27  1  0
 27 28  1  0
 28 29  1  0
 29 30  1  0
 24 31  1  0
 31 32  1  0
 32 33  2  0
 33 34  1  0
 34 35  2  0
 35 36  1  0
 36 37  1  0
 36 38  2  0
 31  4  2  0
 38 32  1  0
 22  9  1  0
 30 25  1  0
 20 13  1  0
  1 39  1  0
  1 40  1  0
  8 41  1  0
 10 42  1  0
 11 43  1  0
 13 44  1  0
 14 45  1  0
 14 46  1  0
 15 47  1  0
 15 48  1  0
 19 49  1  0
 19 50  1  0
 20 51  1  0
 20 52  1  0
 22 53  1  0
 25 54  1  0
 26 55  1  0
 26 56  1  0
 27 57  1  0
 27 58  1  0
 29 59  1  0
 29 60  1  0
 30 61  1  0
 30 62  1  0
 33 63  1  0
 34 64  1  0
 35 65  1  0
 38 66  1  0
M  END
>  <meeko>  (57) 
{"is_sidechain": false}

$$$$

     RDKit          3D

 49 52  0  0  0  0  0  0  0  0999 V2000
    6.1560    0.1670  -54.4230 N   0  0  0  0  0  0  0  0  0  0  0  0
    7.1760    0.0750  -53.5250 C   0  0  0  0  0  0  0  0  0  0  0  0
    7.0280    0.5390  -52.4000 O   0  0  0  0  0  0  0  0  0  0  0  0
    8.4030   -0.5730  -53.9680 C   0  0  0  0  0  0  0  0  0  0  0  0
    8.9420   -1.8210  -53.4990 C   0  0  0  0  0  0  0  0  0  0  0  0
    8.4620   -2.7030  -52.4330 C   0  0  0  0  0  0  0  0  0  0  0  0
    9.2490   -2.9060  -51.2880 C   0  0  0  0  0  0  0  0  0  0  0  0
    8.8010   -3.7290  -50.2530 C   0  0  0  0  0  0  0  0  0  0  0  0
    7.5580   -4.3510  -50.3500 C   0  0  0  0  0  0  0  0  0  0  0  0
    6.7670   -4.1420  -51.4780 C   0  0  0  0  0  0  0  0  0  0  0  0
    5.2240   -4.8990  -51.5870 Cl  0  0  0  0  0  0  0  0  0  0  0  0
    7.2090   -3.3200  -52.5160 C   0  0  0  0  0  0  0  0  0  0  0  0
   10.0490   -2.1550  -54.1820 N   0  0  0  0  0  0  0  0  0  0  0  0
   10.2570   -1.1300  -55.0030 N   0  0  0  0  0  0  0  0  0  0  0  0
    9.2770   -0.1800  -54.9810 C   0  0  0  0  0  0  0  0  0  0  0  0
    9.2800    0.9740  -55.8440 C   0  0  0  0  0  0  0  0  0  0  0  0
    8.2780    1.6610  -56.0020 O   0  0  0  0  0  0  0  0  0  0  0  0
   10.4960    1.1870  -56.4680 N   0  0  0  0  0  0  0  0  0  0  0  0
   10.8280    2.2610  -57.3210 C   0  0  0  0  0  0  0  0  0  0  0  0
   11.9670    3.0480  -57.2160 C   0  0  0  0  0  0  0  0  0  0  0  0
   12.2580    4.0720  -58.0520 N   0  0  0  0  0  0  0  0  0  0  0  0
   11.3800    4.3260  -59.0460 C   0  0  0  0  0  0  0  0  0  0  0  0
   11.8520    5.6790  -59.9990 Cl  0  0  0  0  0  0  0  0  0  0  0  0
   10.2130    3.5960  -59.2770 C   0  0  0  0  0  0  0  0  0  0  0  0
    9.2490    3.9320  -60.3940 C   0  0  0  0  0  0  0  0  0  0  0  0
    7.7870    3.8390  -59.9190 C   0  0  0  0  0  0  0  0  0  0  0  0
    7.0210    3.2590  -61.1000 C   0  0  0  0  0  0  0  0  0  0  0  0
    8.0110    2.2810  -61.7060 C   0  0  0  0  0  0  0  0  0  0  0  0
    9.3330    3.0360  -61.6500 C   0  0  0  0  0  0  0  0  0  0  0  0
    9.9470    2.5520  -58.3700 C   0  0  0  0  0  0  0  0  0  0  0  0
    5.3240    0.6660  -54.1400 H   0  0  0  0  0  0  0  0  0  0  0  0
    6.2370   -0.1100  -55.3980 H   0  0  0  0  0  0  0  0  0  0  0  0
   10.2282   -2.4117  -51.2056 H   0  0  0  0  0  0  0  0  0  0  0  0
    9.4280   -3.8860  -49.3629 H   0  0  0  0  0  0  0  0  0  0  0  0
    7.2026   -5.0043  -49.5395 H   0  0  0  0  0  0  0  0  0  0  0  0
    6.5727   -3.1575  -53.3985 H   0  0  0  0  0  0  0  0  0  0  0  0
   11.1020   -1.1390  -55.5680 H   0  0  0  0  0  0  0  0  0  0  0  0
   11.1830    0.4460  -56.3990 H   0  0  0  0  0  0  0  0  0  0  0  0
   12.6756    2.8260  -56.4045 H   0  0  0  0  0  0  0  0  0  0  0  0
    9.5541    4.9520  -60.6705 H   0  0  0  0  0  0  0  0  0  0  0  0
    7.7068    3.1769  -59.0443 H   0  0  0  0  0  0  0  0  0  0  0  0
    7.3908    4.8183  -59.6123 H   0  0  0  0  0  0  0  0  0  0  0  0
    6.1102    2.7417  -60.7642 H   0  0  0  0  0  0  0  0  0  0  0  0
    6.6793    4.0249  -61.8117 H   0  0  0  0  0  0  0  0  0  0  0  0
    8.0614    1.3548  -61.1147 H   0  0  0  0  0  0  0  0  0  0  0  0
    7.7375    1.9692  -62.7248 H   0  0  0  0  0  0  0  0  0  0  0  0
   10.1736    2.3318  -61.5634 H   0  0  0  0  0  0  0  0  0  0  0  0
    9.5014    3.6286  -62.5613 H   0  0  0  0  0  0  0  0  0  0  0  0
    9.0309    1.9545  -58.4876 H   0  0  0  0  0  0  0  0  0  0  0  0
  1  2  1  0
  2  3  2  0
  2  4  1  0
  4  5  1  0
  5  6  1  0
  6  7  2  0
  7  8  1  0
  8  9  2  0
  9 10  1  0
 10 11  1  0
 10 12  2  0
  5 13  2  0
 13 14  1  0
 14 15  1  0
 15 16  1  0
 16 17  2  0
 16 18  1  0
 18 19  1  0
 19 20  1  0
 20 21  2  0
 21 22  1  0
 22 23  1  0
 22 24  2  0
 24 25  1  0
 25 26  1  0
 26 27  1  0
 27 28  1  0
 28 29  1  0
 24 30  1  0
 15  4  2  0
 30 19  2  0
 12  6  1  0
 29 25  1  0
  1 31  1  0
  1 32  1  0
  7 33  1  0
  8 34  1  0
  9 35  1  0
 12 36  1  0
 14 37  1  0
 18 38  1  0
 20 39  1  0
 25 40  1  0
 26 41  1  0
 26 42  1  0
 27 43  1  0
 27 44  1  0
 28 45  1  0
 28 46  1  0
 29 47  1  0
 29 48  1  0
 30 49  1  0
M  END
>  <meeko>  (58) 
{"is_sidechain": false}

$$$$

     RDKit          3D

 49 52  0  0  0  0  0  0  0  0999 V2000
    5.9710    0.0870  -54.3490 N   0  0  0  0  0  0  0  0  0  0  0  0
    7.0260    0.0280  -53.4920 C   0  0  0  0  0  0  0  0  0  0  0  0
    6.8780    0.4700  -52.3570 O   0  0  0  0  0  0  0  0  0  0  0  0
    8.2720   -0.5700  -53.9650 C   0  0  0  0  0  0  0  0  0  0  0  0
    9.2040   -0.1690  -54.9850 C   0  0  0  0  0  0  0  0  0  0  0  0
    9.1830    1.0000  -55.8920 C   0  0  0  0  0  0  0  0  0  0  0  0
    8.1640    1.6420  -56.1260 O   0  0  0  0  0  0  0  0  0  0  0  0
   10.4310    1.2610  -56.4230 N   0  0  0  0  0  0  0  0  0  0  0  0
   10.8000    2.2810  -57.3150 C   0  0  0  0  0  0  0  0  0  0  0  0
   11.9770    3.0140  -57.2470 C   0  0  0  0  0  0  0  0  0  0  0  0
   12.3030    4.0030  -58.1130 N   0  0  0  0  0  0  0  0  0  0  0  0
   11.4210    4.2700  -59.1010 C   0  0  0  0  0  0  0  0  0  0  0  0
   11.9400    5.5740  -60.0970 Cl  0  0  0  0  0  0  0  0  0  0  0  0
   10.2160    3.5920  -59.2920 C   0  0  0  0  0  0  0  0  0  0  0  0
    9.2510    3.9450  -60.4030 C   0  0  0  0  0  0  0  0  0  0  0  0
    7.7910    3.8790  -59.9180 C   0  0  0  0  0  0  0  0  0  0  0  0
    7.0050    3.3090  -61.0900 C   0  0  0  0  0  0  0  0  0  0  0  0
    7.9740    2.3110  -61.7010 C   0  0  0  0  0  0  0  0  0  0  0  0
    9.3090    3.0440  -61.6590 C   0  0  0  0  0  0  0  0  0  0  0  0
    9.9160    2.5890  -58.3520 C   0  0  0  0  0  0  0  0  0  0  0  0
   10.2450   -1.0270  -55.0700 N   0  0  0  0  0  0  0  0  0  0  0  0
    9.9880   -1.9460  -54.1330 N   0  0  0  0  0  0  0  0  0  0  0  0
    8.8330   -1.7350  -53.4380 C   0  0  0  0  0  0  0  0  0  0  0  0
    8.4020   -2.6680  -52.4000 C   0  0  0  0  0  0  0  0  0  0  0  0
    9.2140   -2.9180  -51.2860 C   0  0  0  0  0  0  0  0  0  0  0  0
    8.7910   -3.7900  -50.2790 C   0  0  0  0  0  0  0  0  0  0  0  0
    7.5500   -4.4170  -50.3760 C   0  0  0  0  0  0  0  0  0  0  0  0
    6.7400   -4.1720  -51.4820 C   0  0  0  0  0  0  0  0  0  0  0  0
    5.2050   -4.9430  -51.6040 Cl  0  0  0  0  0  0  0  0  0  0  0  0
    7.1570   -3.3020  -52.4910 C   0  0  0  0  0  0  0  0  0  0  0  0
    5.1610    0.6020  -54.0340 H   0  0  0  0  0  0  0  0  0  0  0  0
    6.0590   -0.0640  -55.3510 H   0  0  0  0  0  0  0  0  0  0  0  0
   11.1460    0.6090  -56.1020 H   0  0  0  0  0  0  0  0  0  0  0  0
   12.6876    2.7773  -56.4413 H   0  0  0  0  0  0  0  0  0  0  0  0
    9.5733    4.9588  -60.6830 H   0  0  0  0  0  0  0  0  0  0  0  0
    7.7057    3.2214  -59.0404 H   0  0  0  0  0  0  0  0  0  0  0  0
    7.4147    4.8666  -59.6129 H   0  0  0  0  0  0  0  0  0  0  0  0
    6.0882    2.8088  -60.7448 H   0  0  0  0  0  0  0  0  0  0  0  0
    6.6703    4.0782  -61.8015 H   0  0  0  0  0  0  0  0  0  0  0  0
    8.0138    1.3864  -61.1064 H   0  0  0  0  0  0  0  0  0  0  0  0
    7.6867    1.9998  -62.7162 H   0  0  0  0  0  0  0  0  0  0  0  0
   10.1386    2.3261  -61.5783 H   0  0  0  0  0  0  0  0  0  0  0  0
    9.4791    3.6315  -62.5733 H   0  0  0  0  0  0  0  0  0  0  0  0
    8.9680    2.0372  -58.4351 H   0  0  0  0  0  0  0  0  0  0  0  0
   10.6400   -2.7160  -54.0180 H   0  0  0  0  0  0  0  0  0  0  0  0
   10.1931   -2.4236  -51.2032 H   0  0  0  0  0  0  0  0  0  0  0  0
    9.4375   -3.9815  -49.4099 H   0  0  0  0  0  0  0  0  0  0  0  0
    7.2124   -5.1013  -49.5837 H   0  0  0  0  0  0  0  0  0  0  0  0
    6.5069   -3.1144  -53.3583 H   0  0  0  0  0  0  0  0  0  0  0  0
  1  2  1  0
  2  3  2  0
  2  4  1  0
  4  5  1  0
  5  6  1  0
  6  7  2  0
  6  8  1  0
  8  9  1  0
  9 10  1  0
 10 11  2  0
 11 12  1  0
 12 13  1  0
 12 14  2  0
 14 15  1  0
 15 16  1  0
 16 17  1  0
 17 18  1  0
 18 19  1  0
 14 20  1  0
  5 21  2  0
 21 22  1  0
 22 23  1  0
 23 24  1  0
 24 25  2  0
 25 26  1  0
 26 27  2  0
 27 28  1  0
 28 29  1  0
 28 30  2  0
 23  4  2  0
 30 24  1  0
 20  9  2  0
 19 15  1  0
  1 31  1  0
  1 32  1  0
  8 33  1  0
 10 34  1  0
 15 35  1  0
 16 36  1  0
 16 37  1  0
 17 38  1  0
 17 39  1  0
 18 40  1  0
 18 41  1  0
 19 42  1  0
 19 43  1  0
 20 44  1  0
 22 45  1  0
 25 46  1  0
 26 47  1  0
 27 48  1  0
 30 49  1  0
M  END
>  <meeko>  (59) 
{"is_sidechain": false}

$$$$

     RDKit          3D

 65 68  0  0  0  0  0  0  0  0999 V2000
    6.1940    0.9340  -52.2690 C   0  0  0  0  0  0  0  0  0  0  0  0
    6.1390   -0.0630  -53.4240 C   0  0  0  0  0  0  0  0  0  0  0  0
    5.2060    0.4050  -54.5410 C   0  0  0  0  0  0  0  0  0  0  0  0
    7.4710   -0.4570  -53.8830 N   0  0  0  0  0  0  0  0  0  0  0  0
    8.0140    0.2780  -54.8830 N   0  0  0  0  0  0  0  0  0  0  0  0
    9.2530   -0.2290  -55.0450 C   0  0  0  0  0  0  0  0  0  0  0  0
   10.1900    0.3370  -56.0280 C   0  0  0  0  0  0  0  0  0  0  0  0
   11.1640   -0.2690  -56.4600 O   0  0  0  0  0  0  0  0  0  0  0  0
    9.8340    1.6050  -56.4410 N   0  0  0  0  0  0  0  0  0  0  0  0
   10.4850    2.2920  -57.5440 C   0  0  1  0  0  0  0  0  0  0  0  0
    9.8000    1.9580  -58.8800 C   0  0  0  0  0  0  0  0  0  0  0  0
    8.8820    3.0780  -59.3490 C   0  0  0  0  0  0  0  0  0  0  0  0
    9.6460    4.3880  -59.5610 C   0  0  0  0  0  0  0  0  0  0  0  0
   10.7340    4.6610  -58.5050 C   0  0  2  0  0  0  0  0  0  0  0  0
   12.1190    4.4700  -59.0840 C   0  0  0  0  0  0  0  0  0  0  0  0
   12.9570    5.6720  -59.4430 C   0  0  0  0  0  0  0  0  0  0  0  0
   13.3350    4.8190  -58.2640 C   0  0  0  0  0  0  0  0  0  0  0  0
   10.5360    3.8010  -57.2500 C   0  0  0  0  0  0  0  0  0  0  0  0
    9.4690   -1.3290  -54.1820 C   0  0  0  0  0  0  0  0  0  0  0  0
   10.6740   -2.1180  -54.0270 C   0  0  0  0  0  0  0  0  0  0  0  0
   11.6060   -1.6770  -53.3580 O   0  0  0  0  0  0  0  0  0  0  0  0
   10.6970   -3.3800  -54.6260 N   0  0  0  0  0  0  0  0  0  0  0  0
   11.9590   -4.0950  -54.6490 C   0  0  0  0  0  0  0  0  0  0  0  0
    9.6600   -3.8850  -55.5130 C   0  0  0  0  0  0  0  0  0  0  0  0
    8.2950   -1.4730  -53.4530 C   0  0  0  0  0  0  0  0  0  0  0  0
    7.9910   -2.4590  -52.4220 C   0  0  0  0  0  0  0  0  0  0  0  0
    8.8760   -2.6480  -51.3520 C   0  0  0  0  0  0  0  0  0  0  0  0
    8.6080   -3.6080  -50.3750 C   0  0  0  0  0  0  0  0  0  0  0  0
    7.4590   -4.3940  -50.4670 C   0  0  0  0  0  0  0  0  0  0  0  0
    6.5920   -4.2230  -51.5440 C   0  0  0  0  0  0  0  0  0  0  0  0
    5.1820   -5.2010  -51.6680 Cl  0  0  0  0  0  0  0  0  0  0  0  0
    6.8550   -3.2670  -52.5250 C   0  0  0  0  0  0  0  0  0  0  0  0
    6.1640    0.3901  -51.3134 H   0  0  0  0  0  0  0  0  0  0  0  0
    7.1256    1.5156  -52.3307 H   0  0  0  0  0  0  0  0  0  0  0  0
    5.3320    1.6146  -52.3307 H   0  0  0  0  0  0  0  0  0  0  0  0
    5.6877   -0.9888  -53.0376 H   0  0  0  0  0  0  0  0  0  0  0  0
    4.3049    0.8570  -54.1008 H   0  0  0  0  0  0  0  0  0  0  0  0
    5.7236    1.1502  -55.1629 H   0  0  0  0  0  0  0  0  0  0  0  0
    4.9182   -0.4554  -55.1629 H   0  0  0  0  0  0  0  0  0  0  0  0
    8.9250    1.9140  -56.1010 H   0  0  0  0  0  0  0  0  0  0  0  0
   11.5228    1.9407  -57.6422 H   0  0  0  0  0  0  0  0  0  0  0  0
   10.5741    1.7909  -59.6434 H   0  0  0  0  0  0  0  0  0  0  0  0
    9.1862    1.0576  -58.7300 H   0  0  0  0  0  0  0  0  0  0  0  0
    8.4143    2.7807  -60.2992 H   0  0  0  0  0  0  0  0  0  0  0  0
    8.1232    3.2467  -58.5707 H   0  0  0  0  0  0  0  0  0  0  0  0
   10.1262    4.3514  -60.5500 H   0  0  0  0  0  0  0  0  0  0  0  0
    8.9102    5.2012  -59.4751 H   0  0  0  0  0  0  0  0  0  0  0  0
   10.6366    5.7135  -58.2004 H   0  0  0  0  0  0  0  0  0  0  0  0
   11.7720    3.5735  -59.6187 H   0  0  0  0  0  0  0  0  0  0  0  0
   13.5761    5.6589  -60.3521 H   0  0  0  0  0  0  0  0  0  0  0  0
   12.7556    6.7426  -59.5952 H   0  0  0  0  0  0  0  0  0  0  0  0
   14.2308    4.1823  -58.3109 H   0  0  0  0  0  0  0  0  0  0  0  0
   13.5246    5.0081  -57.1971 H   0  0  0  0  0  0  0  0  0  0  0  0
   11.3710    3.9936  -56.5603 H   0  0  0  0  0  0  0  0  0  0  0  0
    9.5645    4.0798  -56.8158 H   0  0  0  0  0  0  0  0  0  0  0  0
   12.2923   -4.2838  -53.6179 H   0  0  0  0  0  0  0  0  0  0  0  0
   11.8281   -5.0531  -55.1733 H   0  0  0  0  0  0  0  0  0  0  0  0
   12.7136   -3.4902  -55.1733 H   0  0  0  0  0  0  0  0  0  0  0  0
    8.8303   -4.2891  -54.9144 H   0  0  0  0  0  0  0  0  0  0  0  0
    9.2896   -3.0664  -56.1476 H   0  0  0  0  0  0  0  0  0  0  0  0
   10.0761   -4.6813  -56.1476 H   0  0  0  0  0  0  0  0  0  0  0  0
    9.7874   -2.0361  -51.2817 H   0  0  0  0  0  0  0  0  0  0  0  0
    9.3023   -3.7448  -49.5329 H   0  0  0  0  0  0  0  0  0  0  0  0
    7.2389   -5.1445  -49.6935 H   0  0  0  0  0  0  0  0  0  0  0  0
    6.1701   -3.1492  -53.3777 H   0  0  0  0  0  0  0  0  0  0  0  0
  1  2  1  0
  2  3  1  0
  2  4  1  0
  4  5  1  0
  5  6  2  0
  6  7  1  0
  7  8  2  0
  7  9  1  0
  9 10  1  0
 10 11  1  0
 11 12  1  0
 12 13  1  0
 13 14  1  0
 14 15  1  0
 15 16  1  0
 16 17  1  0
 14 18  1  0
  6 19  1  0
 19 20  1  0
 20 21  2  0
 20 22  1  0
 22 23  1  0
 22 24  1  0
 19 25  2  0
 25 26  1  0
 26 27  2  0
 27 28  1  0
 28 29  2  0
 29 30  1  0
 30 31  1  0
 30 32  2  0
 25  4  1  0
 32 26  1  0
 18 10  1  0
 17 15  1  0
  1 33  1  0
  1 34  1  0
  1 35  1  0
  2 36  1  0
  3 37  1  0
  3 38  1  0
  3 39  1  0
  9 40  1  0
 10 41  1  6
 11 42  1  0
 11 43  1  0
 12 44  1  0
 12 45  1  0
 13 46  1  0
 13 47  1  0
 14 48  1  1
 15 49  1  0
 16 50  1  0
 16 51  1  0
 17 52  1  0
 17 53  1  0
 18 54  1  0
 18 55  1  0
 23 56  1  0
 23 57  1  0
 23 58  1  0
 24 59  1  0
 24 60  1  0
 24 61  1  0
 27 62  1  0
 28 63  1  0
 29 64  1  0
 32 65  1  0
M  END
>  <meeko>  (60) 
{"is_sidechain": false}

$$$$

     RDKit          3D

 65 68  0  0  0  0  0  0  0  0999 V2000
   11.8280   -3.7710  -54.0300 C   0  0  0  0  0  0  0  0  0  0  0  0
   10.4560   -3.6590  -54.6950 C   0  0  0  0  0  0  0  0  0  0  0  0
   10.4990   -4.0630  -56.1660 C   0  0  0  0  0  0  0  0  0  0  0  0
    9.7970   -2.3690  -54.4890 N   0  0  0  0  0  0  0  0  0  0  0  0
   10.0360   -1.4080  -55.4130 N   0  0  0  0  0  0  0  0  0  0  0  0
    9.2510   -0.3760  -55.0440 C   0  0  0  0  0  0  0  0  0  0  0  0
    9.1950    0.8660  -55.8320 C   0  0  0  0  0  0  0  0  0  0  0  0
    8.2090    1.5940  -55.8760 O   0  0  0  0  0  0  0  0  0  0  0  0
   10.3790    1.1410  -56.4840 N   0  0  0  0  0  0  0  0  0  0  0  0
   10.6320    2.3950  -57.1660 C   0  0  1  0  0  0  0  0  0  0  0  0
   12.1360    2.6960  -57.2050 C   0  0  0  0  0  0  0  0  0  0  0  0
   12.4320    3.9790  -57.9740 C   0  0  0  0  0  0  0  0  0  0  0  0
   11.8370    3.9460  -59.3780 C   0  0  0  0  0  0  0  0  0  0  0  0
   10.3300    3.6550  -59.3490 C   0  0  1  0  0  0  0  0  0  0  0  0
    9.7850    3.5650  -60.7530 C   0  0  0  0  0  0  0  0  0  0  0  0
    9.1240    2.2960  -61.2290 C   0  0  0  0  0  0  0  0  0  0  0  0
    8.2960    3.5280  -60.9870 C   0  0  0  0  0  0  0  0  0  0  0  0
   10.0420    2.3580  -58.5790 C   0  0  0  0  0  0  0  0  0  0  0  0
    8.5590   -0.6680  -53.8450 C   0  0  0  0  0  0  0  0  0  0  0  0
    7.5960    0.1600  -53.1450 C   0  0  0  0  0  0  0  0  0  0  0  0
    7.9810    0.9190  -52.2590 O   0  0  0  0  0  0  0  0  0  0  0  0
    6.2630    0.0770  -53.5530 N   0  0  0  0  0  0  0  0  0  0  0  0
    5.2640    0.7450  -52.7380 C   0  0  0  0  0  0  0  0  0  0  0  0
    5.7590   -0.8870  -54.5180 C   0  0  0  0  0  0  0  0  0  0  0  0
    8.9420   -1.9560  -53.4910 C   0  0  0  0  0  0  0  0  0  0  0  0
    8.5150   -2.7370  -52.3360 C   0  0  0  0  0  0  0  0  0  0  0  0
    9.4090   -2.9790  -51.2850 C   0  0  0  0  0  0  0  0  0  0  0  0
    9.0170   -3.7470  -50.1870 C   0  0  0  0  0  0  0  0  0  0  0  0
    7.7340   -4.2880  -50.1380 C   0  0  0  0  0  0  0  0  0  0  0  0
    6.8520   -4.0680  -51.1940 C   0  0  0  0  0  0  0  0  0  0  0  0
    5.2710   -4.7480  -51.1450 Cl  0  0  0  0  0  0  0  0  0  0  0  0
    7.2370   -3.3030  -52.2950 C   0  0  0  0  0  0  0  0  0  0  0  0
   11.7074   -3.7612  -52.9367 H   0  0  0  0  0  0  0  0  0  0  0  0
   12.3088   -4.7114  -54.3374 H   0  0  0  0  0  0  0  0  0  0  0  0
   12.4550   -2.9210  -54.3374 H   0  0  0  0  0  0  0  0  0  0  0  0
    9.8183   -4.3885  -54.1742 H   0  0  0  0  0  0  0  0  0  0  0  0
   10.6151   -5.1541  -56.2433 H   0  0  0  0  0  0  0  0  0  0  0  0
    9.5633   -3.7581  -56.6575 H   0  0  0  0  0  0  0  0  0  0  0  0
   11.3495   -3.5680  -56.6575 H   0  0  0  0  0  0  0  0  0  0  0  0
   11.1460    0.5170  -56.2440 H   0  0  0  0  0  0  0  0  0  0  0  0
   10.1403    3.2053  -56.6077 H   0  0  0  0  0  0  0  0  0  0  0  0
   12.5052    2.8042  -56.1745 H   0  0  0  0  0  0  0  0  0  0  0  0
   12.6403    1.8636  -57.7176 H   0  0  0  0  0  0  0  0  0  0  0  0
   12.0032    4.8304  -57.4252 H   0  0  0  0  0  0  0  0  0  0  0  0
   13.5235    4.0788  -58.0667 H   0  0  0  0  0  0  0  0  0  0  0  0
   12.0026    4.9216  -59.8584 H   0  0  0  0  0  0  0  0  0  0  0  0
   12.3311    3.1406  -59.9411 H   0  0  0  0  0  0  0  0  0  0  0  0
    9.8277    4.4842  -58.8292 H   0  0  0  0  0  0  0  0  0  0  0  0
   10.6141    4.1930  -61.1110 H   0  0  0  0  0  0  0  0  0  0  0  0
    9.2928    1.9400  -62.2560 H   0  0  0  0  0  0  0  0  0  0  0  0
    9.0919    1.2556  -60.8733 H   0  0  0  0  0  0  0  0  0  0  0  0
    7.8594    4.0727  -61.8371 H   0  0  0  0  0  0  0  0  0  0  0  0
    7.4079    3.7610  -60.3812 H   0  0  0  0  0  0  0  0  0  0  0  0
    8.9530    2.2205  -58.5071 H   0  0  0  0  0  0  0  0  0  0  0  0
   10.5095    1.5247  -59.1240 H   0  0  0  0  0  0  0  0  0  0  0  0
    5.4956    0.5901  -51.6739 H   0  0  0  0  0  0  0  0  0  0  0  0
    5.2690    1.8221  -52.9614 H   0  0  0  0  0  0  0  0  0  0  0  0
    4.2706    0.3288  -52.9614 H   0  0  0  0  0  0  0  0  0  0  0  0
    5.3130   -1.7400  -53.9855 H   0  0  0  0  0  0  0  0  0  0  0  0
    4.9954   -0.4090  -55.1492 H   0  0  0  0  0  0  0  0  0  0  0  0
    6.5873   -1.2413  -55.1492 H   0  0  0  0  0  0  0  0  0  0  0  0
   10.4259   -2.5614  -51.3251 H   0  0  0  0  0  0  0  0  0  0  0  0
    9.7210   -3.9250  -49.3607 H   0  0  0  0  0  0  0  0  0  0  0  0
    7.4189   -4.8858  -49.2700 H   0  0  0  0  0  0  0  0  0  0  0  0
    6.5371   -3.1454  -53.1288 H   0  0  0  0  0  0  0  0  0  0  0  0
  1  2  1  0
  2  3  1  0
  2  4  1  0
  4  5  1  0
  5  6  2  0
  6  7  1  0
  7  8  2  0
  7  9  1  0
  9 10  1  0
 10 11  1  0
 11 12  1  0
 12 13  1  0
 13 14  1  0
 14 15  1  0
 15 16  1  0
 16 17  1  0
 14 18  1  0
  6 19  1  0
 19 20  1  0
 20 21  2  0
 20 22  1  0
 22 23  1  0
 22 24  1  0
 19 25  2  0
 25 26  1  0
 26 27  2  0
 27 28  1  0
 28 29  2  0
 29 30  1  0
 30 31  1  0
 30 32  2  0
 25  4  1  0
 32 26  1  0
 18 10  1  0
 17 15  1  0
  1 33  1  0
  1 34  1  0
  1 35  1  0
  2 36  1  0
  3 37  1  0
  3 38  1  0
  3 39  1  0
  9 40  1  0
 10 41  1  1
 11 42  1  0
 11 43  1  0
 12 44  1  0
 12 45  1  0
 13 46  1  0
 13 47  1  0
 14 48  1  1
 15 49  1  0
 16 50  1  0
 16 51  1  0
 17 52  1  0
 17 53  1  0
 18 54  1  0
 18 55  1  0
 23 56  1  0
 23 57  1  0
 23 58  1  0
 24 59  1  0
 24 60  1  0
 24 61  1  0
 27 62  1  0
 28 63  1  0
 29 64  1  0
 32 65  1  0
M  END
>  <meeko>  (61) 
{"is_sidechain": false}

$$$$

     RDKit          3D

 63 67  0  0  0  0  0  0  0  0999 V2000
    9.3930    0.9370  -56.0690 N   0  0  0  0  0  0  0  0  0  0  0  0
    8.8310    2.1110  -56.4770 C   0  0  0  0  0  0  0  0  0  0  0  0
    9.2840    3.1830  -56.0910 O   0  0  0  0  0  0  0  0  0  0  0  0
    7.7110    2.0100  -57.3960 C   0  0  0  0  0  0  0  0  0  0  0  0
    6.4190    1.5380  -57.0640 C   0  0  0  0  0  0  0  0  0  0  0  0
    5.9290    1.1040  -55.7160 C   0  0  0  0  0  0  0  0  0  0  0  0
    6.6300   -0.0670  -55.2800 O   0  0  0  0  0  0  0  0  0  0  0  0
    5.9120   -0.8130  -54.2910 C   0  0  2  0  0  0  0  0  0  0  0  0
    6.2230   -0.1940  -52.9270 C   0  0  0  0  0  0  0  0  0  0  0  0
    7.6860   -0.3850  -52.5170 C   0  0  0  0  0  0  0  0  0  0  0  0
    8.1460   -1.8480  -52.5730 C   0  0  1  0  0  0  0  0  0  0  0  0
    7.5480   -2.6550  -51.4140 C   0  0  0  0  0  0  0  0  0  0  0  0
    8.5180   -3.0390  -50.2590 C   0  0  0  0  0  0  0  0  0  0  0  0
    7.7590   -4.3770  -50.1610 C   0  0  0  0  0  0  0  0  0  0  0  0
    7.3800   -4.1860  -51.6420 C   0  0  0  0  0  0  0  0  0  0  0  0
    7.7920   -2.4850  -53.9250 C   0  0  0  0  0  0  0  0  0  0  0  0
    6.3270   -2.2870  -54.3240 C   0  0  0  0  0  0  0  0  0  0  0  0
    5.5910    1.5760  -58.1100 N   0  0  0  0  0  0  0  0  0  0  0  0
    6.3460    1.9930  -59.1600 N   0  0  0  0  0  0  0  0  0  0  0  0
    5.7460    1.9880  -60.4620 C   0  0  0  0  0  0  0  0  0  0  0  0
    6.3780    2.7040  -61.4990 C   0  0  0  0  0  0  0  0  0  0  0  0
    5.8380    2.7260  -62.7870 C   0  0  0  0  0  0  0  0  0  0  0  0
    4.6540    2.0460  -63.0570 C   0  0  0  0  0  0  0  0  0  0  0  0
    4.0110    1.3570  -62.0320 C   0  0  0  0  0  0  0  0  0  0  0  0
    2.5320    0.5370  -62.3570 Cl  0  0  0  0  0  0  0  0  0  0  0  0
    4.5440    1.3290  -60.7390 C   0  0  0  0  0  0  0  0  0  0  0  0
    7.6350    2.3540  -58.7460 C   0  0  0  0  0  0  0  0  0  0  0  0
    8.6540    2.9880  -59.5790 C   0  0  0  0  0  0  0  0  0  0  0  0
    9.0470    2.3990  -60.7880 C   0  0  0  0  0  0  0  0  0  0  0  0
   10.0330    2.9950  -61.5770 C   0  0  0  0  0  0  0  0  0  0  0  0
   10.6380    4.1810  -61.1590 C   0  0  0  0  0  0  0  0  0  0  0  0
   10.2580    4.7620  -59.9510 C   0  0  0  0  0  0  0  0  0  0  0  0
   11.0100    6.2190  -59.4320 Cl  0  0  0  0  0  0  0  0  0  0  0  0
    9.2750    4.1720  -59.1570 C   0  0  0  0  0  0  0  0  0  0  0  0
   10.2540    1.0070  -55.5450 H   0  0  0  0  0  0  0  0  0  0  0  0
    9.1850    0.0640  -56.5320 H   0  0  0  0  0  0  0  0  0  0  0  0
    6.0947    1.9155  -54.9921 H   0  0  0  0  0  0  0  0  0  0  0  0
    4.8562    0.8709  -55.7857 H   0  0  0  0  0  0  0  0  0  0  0  0
    4.8309   -0.7723  -54.4897 H   0  0  0  0  0  0  0  0  0  0  0  0
    6.0066    0.8836  -52.9709 H   0  0  0  0  0  0  0  0  0  0  0  0
    5.5968   -0.7017  -52.1786 H   0  0  0  0  0  0  0  0  0  0  0  0
    8.3187    0.2062  -53.1954 H   0  0  0  0  0  0  0  0  0  0  0  0
    7.7773   -0.0545  -51.4718 H   0  0  0  0  0  0  0  0  0  0  0  0
    9.2409   -1.8627  -52.4682 H   0  0  0  0  0  0  0  0  0  0  0  0
    6.6879   -1.9863  -51.2619 H   0  0  0  0  0  0  0  0  0  0  0  0
    9.5730   -3.1303  -50.5566 H   0  0  0  0  0  0  0  0  0  0  0  0
    8.6624   -2.3892  -49.3833 H   0  0  0  0  0  0  0  0  0  0  0  0
    8.3941   -5.2519  -49.9582 H   0  0  0  0  0  0  0  0  0  0  0  0
    6.9996   -4.5583  -49.3861 H   0  0  0  0  0  0  0  0  0  0  0  0
    8.0907   -4.6243  -52.3580 H   0  0  0  0  0  0  0  0  0  0  0  0
    6.4572   -4.6113  -52.0635 H   0  0  0  0  0  0  0  0  0  0  0  0
    8.4288   -2.0343  -54.7005 H   0  0  0  0  0  0  0  0  0  0  0  0
    7.9593   -3.5679  -53.8282 H   0  0  0  0  0  0  0  0  0  0  0  0
    6.1825   -2.6729  -55.3439 H   0  0  0  0  0  0  0  0  0  0  0  0
    5.7033   -2.8295  -53.5983 H   0  0  0  0  0  0  0  0  0  0  0  0
    7.3085    3.2525  -61.2911 H   0  0  0  0  0  0  0  0  0  0  0  0
    6.3485    3.2808  -63.5880 H   0  0  0  0  0  0  0  0  0  0  0  0
    4.2297    2.0528  -64.0718 H   0  0  0  0  0  0  0  0  0  0  0  0
    4.0171    0.7880  -59.9392 H   0  0  0  0  0  0  0  0  0  0  0  0
    8.5759    1.4613  -61.1177 H   0  0  0  0  0  0  0  0  0  0  0  0
   10.3327    2.5298  -62.5277 H   0  0  0  0  0  0  0  0  0  0  0  0
   11.4117    4.6552  -61.7807 H   0  0  0  0  0  0  0  0  0  0  0  0
    8.9874    4.6347  -58.2014 H   0  0  0  0  0  0  0  0  0  0  0  0
  1  2  1  0
  2  3  2  0
  2  4  1  0
  4  5  1  0
  5  6  1  0
  6  7  1  0
  7  8  1  0
  8  9  1  0
  9 10  1  0
 10 11  1  0
 11 12  1  0
 12 13  1  0
 13 14  1  0
 14 15  1  0
 11 16  1  0
 16 17  1  0
  5 18  2  0
 18 19  1  0
 19 20  1  0
 20 21  2  0
 21 22  1  0
 22 23  2  0
 23 24  1  0
 24 25  1  0
 24 26  2  0
 19 27  1  0
 27 28  1  0
 28 29  2  0
 29 30  1  0
 30 31  2  0
 31 32  1  0
 32 33  1  0
 32 34  2  0
 27  4  2  0
 34 28  1  0
 17  8  1  0
 26 20  1  0
 15 12  1  0
  1 35  1  0
  1 36  1  0
  6 37  1  0
  6 38  1  0
  8 39  1  1
  9 40  1  0
  9 41  1  0
 10 42  1  0
 10 43  1  0
 11 44  1  6
 12 45  1  0
 13 46  1  0
 13 47  1  0
 14 48  1  0
 14 49  1  0
 15 50  1  0
 15 51  1  0
 16 52  1  0
 16 53  1  0
 17 54  1  0
 17 55  1  0
 21 56  1  0
 22 57  1  0
 23 58  1  0
 26 59  1  0
 29 60  1  0
 30 61  1  0
 31 62  1  0
 34 63  1  0
M  END
>  <meeko>  (62) 
{"is_sidechain": false}

$$$$

     RDKit          3D

 56 59  0  0  0  0  0  0  0  0999 V2000
    6.1370    0.8170  -55.8180 N   0  0  0  0  0  0  0  0  0  0  0  0
    6.8960    0.5150  -54.7270 C   0  0  0  0  0  0  0  0  0  0  0  0
    6.4390    0.6750  -53.5990 O   0  0  0  0  0  0  0  0  0  0  0  0
    8.2420    0.0370  -54.9770 C   0  0  0  0  0  0  0  0  0  0  0  0
    9.2580    0.6470  -55.7910 C   0  0  0  0  0  0  0  0  0  0  0  0
    9.2340    1.8830  -56.6160 C   0  0  0  0  0  0  0  0  0  0  0  0
    8.3750    2.7510  -56.4650 O   0  0  0  0  0  0  0  0  0  0  0  0
   10.2150    2.0090  -57.5810 N   0  0  0  0  0  0  0  0  0  0  0  0
   10.3820    3.2250  -58.3580 C   0  0  0  0  0  0  0  0  0  0  0  0
   11.8640    3.5050  -58.6280 C   0  0  0  0  0  0  0  0  0  0  0  0
   12.0690    4.8320  -59.3620 C   0  0  0  0  0  0  0  0  0  0  0  0
   10.8850    5.2360  -60.2430 C   0  0  0  0  0  0  0  0  0  0  0  0
   10.1490    4.0210  -60.7900 C   0  0  0  0  0  0  0  0  0  0  0  0
    9.5890    3.1370  -59.6720 C   0  0  0  0  0  0  0  0  0  0  0  0
   10.3750   -0.1030  -55.7820 N   0  0  0  0  0  0  0  0  0  0  0  0
   10.1050   -1.1450  -54.9820 N   0  0  0  0  0  0  0  0  0  0  0  0
   11.1790   -2.0990  -54.6980 C   0  0  0  0  0  0  0  0  0  0  0  0
   11.3240   -3.1480  -55.7750 C   0  0  0  0  0  0  0  0  0  0  0  0
   11.0270   -4.4900  -55.4970 C   0  0  0  0  0  0  0  0  0  0  0  0
   11.1570   -5.4650  -56.4890 C   0  0  0  0  0  0  0  0  0  0  0  0
   11.6000   -5.1120  -57.7610 C   0  0  0  0  0  0  0  0  0  0  0  0
   11.9180   -3.7860  -58.0440 C   0  0  0  0  0  0  0  0  0  0  0  0
   11.7860   -2.8100  -57.0560 C   0  0  0  0  0  0  0  0  0  0  0  0
    8.8320   -1.1200  -54.4640 C   0  0  0  0  0  0  0  0  0  0  0  0
    8.3270   -2.1130  -53.5190 C   0  0  0  0  0  0  0  0  0  0  0  0
    7.8800   -3.3550  -53.9830 C   0  0  0  0  0  0  0  0  0  0  0  0
    7.3990   -4.3110  -53.0860 C   0  0  0  0  0  0  0  0  0  0  0  0
    7.3640   -4.0300  -51.7200 C   0  0  0  0  0  0  0  0  0  0  0  0
    7.8160   -2.7960  -51.2570 C   0  0  0  0  0  0  0  0  0  0  0  0
    7.7720   -2.4490  -49.5720 Cl  0  0  0  0  0  0  0  0  0  0  0  0
    8.3020   -1.8390  -52.1460 C   0  0  0  0  0  0  0  0  0  0  0  0
    6.5100    0.8260  -56.7550 H   0  0  0  0  0  0  0  0  0  0  0  0
    5.2230    1.2180  -55.6600 H   0  0  0  0  0  0  0  0  0  0  0  0
   10.9820    1.3410  -57.5860 H   0  0  0  0  0  0  0  0  0  0  0  0
    9.9842    4.0663  -57.7715 H   0  0  0  0  0  0  0  0  0  0  0  0
   12.3995    3.5431  -57.6679 H   0  0  0  0  0  0  0  0  0  0  0  0
   12.2527    2.6982  -59.2668 H   0  0  0  0  0  0  0  0  0  0  0  0
   12.2305    5.6217  -58.6135 H   0  0  0  0  0  0  0  0  0  0  0  0
   12.9353    4.7013  -60.0272 H   0  0  0  0  0  0  0  0  0  0  0  0
   10.1846    5.8374  -59.6449 H   0  0  0  0  0  0  0  0  0  0  0  0
   11.2732    5.8136  -61.0949 H   0  0  0  0  0  0  0  0  0  0  0  0
    9.3164    4.3649  -61.4213 H   0  0  0  0  0  0  0  0  0  0  0  0
   10.8669    3.4217  -61.3691 H   0  0  0  0  0  0  0  0  0  0  0  0
    8.5518    3.4446  -59.4728 H   0  0  0  0  0  0  0  0  0  0  0  0
    9.6589    2.0959  -60.0202 H   0  0  0  0  0  0  0  0  0  0  0  0
   12.1270   -1.5474  -54.6136 H   0  0  0  0  0  0  0  0  0  0  0  0
   10.9258   -2.6164  -53.7609 H   0  0  0  0  0  0  0  0  0  0  0  0
   10.6891   -4.7771  -54.4903 H   0  0  0  0  0  0  0  0  0  0  0  0
   10.9091   -6.5130  -56.2649 H   0  0  0  0  0  0  0  0  0  0  0  0
   11.6988   -5.8802  -58.5421 H   0  0  0  0  0  0  0  0  0  0  0  0
   12.2735   -3.5081  -59.0472 H   0  0  0  0  0  0  0  0  0  0  0  0
   12.0465   -1.7658  -57.2833 H   0  0  0  0  0  0  0  0  0  0  0  0
    7.9076   -3.5794  -55.0595 H   0  0  0  0  0  0  0  0  0  0  0  0
    7.0478   -5.2854  -53.4564 H   0  0  0  0  0  0  0  0  0  0  0  0
    6.9812   -4.7794  -51.0115 H   0  0  0  0  0  0  0  0  0  0  0  0
    8.6650   -0.8710  -51.7701 H   0  0  0  0  0  0  0  0  0  0  0  0
  1  2  1  0
  2  3  2  0
  2  4  1  0
  4  5  1  0
  5  6  1  0
  6  7  2  0
  6  8  1  0
  8  9  1  0
  9 10  1  0
 10 11  1  0
 11 12  1  0
 12 13  1  0
 13 14  1  0
  5 15  2  0
 15 16  1  0
 16 17  1  0
 17 18  1  0
 18 19  2  0
 19 20  1  0
 20 21  2  0
 21 22  1  0
 22 23  2  0
 16 24  1  0
 24 25  1  0
 25 26  2  0
 26 27  1  0
 27 28  2  0
 28 29  1  0
 29 30  1  0
 29 31  2  0
 24  4  2  0
 31 25  1  0
 14  9  1  0
 23 18  1  0
  1 32  1  0
  1 33  1  0
  8 34  1  0
  9 35  1  0
 10 36  1  0
 10 37  1  0
 11 38  1  0
 11 39  1  0
 12 40  1  0
 12 41  1  0
 13 42  1  0
 13 43  1  0
 14 44  1  0
 14 45  1  0
 17 46  1  0
 17 47  1  0
 19 48  1  0
 20 49  1  0
 21 50  1  0
 22 51  1  0
 23 52  1  0
 26 53  1  0
 27 54  1  0
 28 55  1  0
 31 56  1  0
M  END
>  <meeko>  (63) 
{"is_sidechain": false}

$$$$

     RDKit          3D

 72 76  0  0  0  0  0  0  0  0999 V2000
    5.9090    0.2370  -54.3010 N   0  0  0  0  0  0  0  0  0  0  0  0
    6.9810    0.2060  -53.4590 C   0  0  0  0  0  0  0  0  0  0  0  0
    6.9000    0.7210  -52.3480 O   0  0  0  0  0  0  0  0  0  0  0  0
    8.1900   -0.4280  -53.9550 C   0  0  0  0  0  0  0  0  0  0  0  0
    9.0850    0.0570  -54.9730 C   0  0  0  0  0  0  0  0  0  0  0  0
    9.0370    1.2830  -55.8100 C   0  0  0  0  0  0  0  0  0  0  0  0
    9.5610    2.3380  -55.4530 O   0  0  0  0  0  0  0  0  0  0  0  0
    8.3590    1.1950  -57.0090 N   0  0  0  0  0  0  0  0  0  0  0  0
    8.3590    2.2760  -57.9790 C   0  0  2  0  0  0  0  0  0  0  0  0
    7.4960    1.9160  -59.1870 C   0  0  0  0  0  0  0  0  0  0  0  0
    7.3880    3.0770  -60.1760 C   0  0  0  0  0  0  0  0  0  0  0  0
    8.5980    4.0140  -60.1550 C   0  0  0  0  0  0  0  0  0  0  0  0
    9.8930    3.2650  -59.8080 C   0  0  1  0  0  0  0  0  0  0  0  0
   11.1560    4.1470  -60.0080 C   0  0  0  0  0  0  0  0  0  0  0  0
   12.3220    3.7080  -59.1100 C   0  0  0  0  0  0  0  0  0  0  0  0
   13.6230    4.4300  -59.4730 C   0  0  0  0  0  0  0  0  0  0  0  0
   13.4080    5.8440  -60.0150 C   0  0  0  0  0  0  0  0  0  0  0  0
   12.1300    6.4690  -59.4730 C   0  0  0  0  0  0  0  0  0  0  0  0
   10.8890    5.6600  -59.8610 C   0  0  0  0  0  0  0  0  0  0  0  0
    9.7980    2.6220  -58.4070 C   0  0  0  0  0  0  0  0  0  0  0  0
   10.0830   -0.8250  -55.1720 N   0  0  0  0  0  0  0  0  0  0  0  0
    9.8890   -1.7970  -54.2700 N   0  0  0  0  0  0  0  0  0  0  0  0
   10.8810   -2.8670  -54.1800 C   0  0  0  0  0  0  0  0  0  0  0  0
   11.1460   -3.5130  -55.5190 C   0  0  0  0  0  0  0  0  0  0  0  0
   11.6590   -2.7580  -56.5860 C   0  0  0  0  0  0  0  0  0  0  0  0
   11.9060   -3.3550  -57.8230 C   0  0  0  0  0  0  0  0  0  0  0  0
   11.6380   -4.7100  -58.0100 C   0  0  0  0  0  0  0  0  0  0  0  0
   11.1210   -5.4680  -56.9600 C   0  0  0  0  0  0  0  0  0  0  0  0
   10.8720   -4.8740  -55.7230 C   0  0  0  0  0  0  0  0  0  0  0  0
    8.7340   -1.6440  -53.5400 C   0  0  0  0  0  0  0  0  0  0  0  0
    8.3210   -2.5730  -52.4910 C   0  0  0  0  0  0  0  0  0  0  0  0
    9.1760   -2.8380  -51.4140 C   0  0  0  0  0  0  0  0  0  0  0  0
    8.7890   -3.7260  -50.4080 C   0  0  0  0  0  0  0  0  0  0  0  0
    7.5440   -4.3510  -50.4720 C   0  0  0  0  0  0  0  0  0  0  0  0
    6.6910   -4.0840  -51.5410 C   0  0  0  0  0  0  0  0  0  0  0  0
    5.1560   -4.8550  -51.6200 Cl  0  0  0  0  0  0  0  0  0  0  0  0
    7.0710   -3.1990  -52.5490 C   0  0  0  0  0  0  0  0  0  0  0  0
    5.9510   -0.0870  -55.2560 H   0  0  0  0  0  0  0  0  0  0  0  0
    5.0770    0.7150  -53.9870 H   0  0  0  0  0  0  0  0  0  0  0  0
    8.0560    0.2780  -57.3330 H   0  0  0  0  0  0  0  0  0  0  0  0
    7.9231    3.1682  -57.5057 H   0  0  0  0  0  0  0  0  0  0  0  0
    7.9444    1.0524  -59.6999 H   0  0  0  0  0  0  0  0  0  0  0  0
    6.4842    1.6806  -58.8254 H   0  0  0  0  0  0  0  0  0  0  0  0
    7.2870    2.6621  -61.1897 H   0  0  0  0  0  0  0  0  0  0  0  0
    6.5128    3.6735  -59.8791 H   0  0  0  0  0  0  0  0  0  0  0  0
    8.7084    4.4753  -61.1475 H   0  0  0  0  0  0  0  0  0  0  0  0
    8.4264    4.7770  -59.3814 H   0  0  0  0  0  0  0  0  0  0  0  0
   10.0117    2.4376  -60.5231 H   0  0  0  0  0  0  0  0  0  0  0  0
   11.4497    3.9829  -61.0553 H   0  0  0  0  0  0  0  0  0  0  0  0
   12.0698    3.9336  -58.0634 H   0  0  0  0  0  0  0  0  0  0  0  0
   12.4779    2.6289  -59.2555 H   0  0  0  0  0  0  0  0  0  0  0  0
   14.2482    4.4949  -58.5703 H   0  0  0  0  0  0  0  0  0  0  0  0
   14.1028    3.8473  -60.2732 H   0  0  0  0  0  0  0  0  0  0  0  0
   14.2630    6.4713  -59.7225 H   0  0  0  0  0  0  0  0  0  0  0  0
   13.3202    5.7809  -61.1097 H   0  0  0  0  0  0  0  0  0  0  0  0
   12.1949    6.5163  -58.3759 H   0  0  0  0  0  0  0  0  0  0  0  0
   12.0312    7.4743  -59.9084 H   0  0  0  0  0  0  0  0  0  0  0  0
   10.1238    5.8038  -59.0840 H   0  0  0  0  0  0  0  0  0  0  0  0
   10.5614    6.0259  -60.8453 H   0  0  0  0  0  0  0  0  0  0  0  0
   10.3915    1.6959  -58.4093 H   0  0  0  0  0  0  0  0  0  0  0  0
   10.1773    3.3627  -57.6877 H   0  0  0  0  0  0  0  0  0  0  0  0
   11.8224   -2.4460  -53.7972 H   0  0  0  0  0  0  0  0  0  0  0  0
   10.4843   -3.6395  -53.5049 H   0  0  0  0  0  0  0  0  0  0  0  0
   11.8679   -1.6872  -56.4457 H   0  0  0  0  0  0  0  0  0  0  0  0
   12.3125   -2.7558  -58.6511 H   0  0  0  0  0  0  0  0  0  0  0  0
   11.8341   -5.1808  -58.9846 H   0  0  0  0  0  0  0  0  0  0  0  0
   10.9090   -6.5372  -57.1077 H   0  0  0  0  0  0  0  0  0  0  0  0
   10.4578   -5.4767  -54.9013 H   0  0  0  0  0  0  0  0  0  0  0  0
   10.1574   -2.3442  -51.3601 H   0  0  0  0  0  0  0  0  0  0  0  0
    9.4658   -3.9323  -49.5657 H   0  0  0  0  0  0  0  0  0  0  0  0
    7.2366   -5.0519  -49.6819 H   0  0  0  0  0  0  0  0  0  0  0  0
    6.3898   -2.9934  -53.3878 H   0  0  0  0  0  0  0  0  0  0  0  0
  1  2  1  0
  2  3  2  0
  2  4  1  0
  4  5  1  0
  5  6  1  0
  6  7  2  0
  6  8  1  0
  8  9  1  0
  9 10  1  0
 10 11  1  0
 11 12  1  0
 12 13  1  0
 13 14  1  0
 14 15  1  0
 15 16  1  0
 16 17  1  0
 17 18  1  0
 18 19  1  0
 13 20  1  0
  5 21  2  0
 21 22  1  0
 22 23  1  0
 23 24  1  0
 24 25  2  0
 25 26  1  0
 26 27  2  0
 27 28  1  0
 28 29  2  0
 22 30  1  0
 30 31  1  0
 31 32  2  0
 32 33  1  0
 33 34  2  0
 34 35  1  0
 35 36  1  0
 35 37  2  0
 30  4  2  0
 37 31  1  0
 20  9  1  0
 29 24  1  0
 19 14  1  0
  1 38  1  0
  1 39  1  0
  8 40  1  0
  9 41  1  1
 10 42  1  0
 10 43  1  0
 11 44  1  0
 11 45  1  0
 12 46  1  0
 12 47  1  0
 13 48  1  6
 14 49  1  0
 15 50  1  0
 15 51  1  0
 16 52  1  0
 16 53  1  0
 17 54  1  0
 17 55  1  0
 18 56  1  0
 18 57  1  0
 19 58  1  0
 19 59  1  0
 20 60  1  0
 20 61  1  0
 23 62  1  0
 23 63  1  0
 25 64  1  0
 26 65  1  0
 27 66  1  0
 28 67  1  0
 29 68  1  0
 32 69  1  0
 33 70  1  0
 34 71  1  0
 37 72  1  0
M  END
>  <meeko>  (64) 
{"is_sidechain": false}

$$$$

     RDKit          3D

 50 52  0  0  0  0  0  0  0  0999 V2000
    6.1710    0.7570  -54.1250 N   0  0  0  0  0  0  0  0  0  0  0  0
    6.8400    0.8050  -55.3130 C   0  0  0  0  0  0  0  0  0  0  0  0
    6.2650    1.1470  -56.3390 O   0  0  0  0  0  0  0  0  0  0  0  0
    8.2320    0.4030  -55.2710 C   0  0  0  0  0  0  0  0  0  0  0  0
    9.3290    1.0480  -55.9090 C   0  0  0  0  0  0  0  0  0  0  0  0
    9.3350    2.3340  -56.6290 C   0  0  0  0  0  0  0  0  0  0  0  0
    9.8530    3.3580  -56.1980 O   0  0  0  0  0  0  0  0  0  0  0  0
    8.7550    2.2520  -57.8780 N   0  0  0  0  0  0  0  0  0  0  0  0
    8.6940    3.3680  -58.7930 C   0  0  0  0  0  0  0  0  0  0  0  0
    7.3740    4.1330  -58.7200 C   0  0  0  0  0  0  0  0  0  0  0  0
    6.3150    3.2400  -58.3930 O   0  0  0  0  0  0  0  0  0  0  0  0
   10.4700    0.3440  -55.7560 N   0  0  0  0  0  0  0  0  0  0  0  0
   10.1030   -0.7310  -55.0270 N   0  0  0  0  0  0  0  0  0  0  0  0
   11.1070   -1.7530  -54.7260 C   0  0  0  0  0  0  0  0  0  0  0  0
   11.1710   -2.8230  -55.7900 C   0  0  0  0  0  0  0  0  0  0  0  0
   11.8230   -2.5740  -57.0080 C   0  0  0  0  0  0  0  0  0  0  0  0
   11.9030   -3.5690  -57.9840 C   0  0  0  0  0  0  0  0  0  0  0  0
   11.3240   -4.8150  -57.7600 C   0  0  0  0  0  0  0  0  0  0  0  0
   10.6600   -5.0700  -56.5610 C   0  0  0  0  0  0  0  0  0  0  0  0
   10.5800   -4.0790  -55.5830 C   0  0  0  0  0  0  0  0  0  0  0  0
    8.7790   -0.7130  -54.6450 C   0  0  0  0  0  0  0  0  0  0  0  0
    8.1510   -1.7720  -53.8650 C   0  0  0  0  0  0  0  0  0  0  0  0
    7.2290   -2.6360  -54.4640 C   0  0  0  0  0  0  0  0  0  0  0  0
    6.6140   -3.6360  -53.7110 C   0  0  0  0  0  0  0  0  0  0  0  0
    6.9140   -3.7730  -52.3550 C   0  0  0  0  0  0  0  0  0  0  0  0
    7.8430   -2.9190  -51.7390 C   0  0  0  0  0  0  0  0  0  0  0  0
    8.1320   -3.0470  -50.2640 C   0  0  0  0  0  0  0  0  0  0  0  0
    7.4240   -4.0560  -49.6850 F   0  0  0  0  0  0  0  0  0  0  0  0
    9.4420   -3.3190  -50.0090 F   0  0  0  0  0  0  0  0  0  0  0  0
    7.8400   -1.9240  -49.5510 F   0  0  0  0  0  0  0  0  0  0  0  0
    8.4600   -1.9210  -52.5070 C   0  0  0  0  0  0  0  0  0  0  0  0
    5.2120    1.0740  -54.1230 H   0  0  0  0  0  0  0  0  0  0  0  0
    6.6230    0.5350  -53.2510 H   0  0  0  0  0  0  0  0  0  0  0  0
    8.4620    1.3230  -58.1670 H   0  0  0  0  0  0  0  0  0  0  0  0
    9.5139    4.0614  -58.5542 H   0  0  0  0  0  0  0  0  0  0  0  0
    8.7809    2.9615  -59.8114 H   0  0  0  0  0  0  0  0  0  0  0  0
    7.4461    4.9122  -57.9469 H   0  0  0  0  0  0  0  0  0  0  0  0
    7.1690    4.5964  -59.6964 H   0  0  0  0  0  0  0  0  0  0  0  0
    5.6090    3.3930  -59.0460 H   0  0  0  0  0  0  0  0  0  0  0  0
   12.0923   -1.2698  -54.6503 H   0  0  0  0  0  0  0  0  0  0  0  0
   10.8231   -2.2358  -53.7792 H   0  0  0  0  0  0  0  0  0  0  0  0
   12.2739   -1.5882  -57.1947 H   0  0  0  0  0  0  0  0  0  0  0  0
   12.4244   -3.3681  -58.9315 H   0  0  0  0  0  0  0  0  0  0  0  0
   11.3904   -5.5985  -58.5292 H   0  0  0  0  0  0  0  0  0  0  0  0
   10.1990   -6.0533  -56.3863 H   0  0  0  0  0  0  0  0  0  0  0  0
   10.0492   -4.2835  -54.6415 H   0  0  0  0  0  0  0  0  0  0  0  0
    6.9882   -2.5267  -55.5317 H   0  0  0  0  0  0  0  0  0  0  0  0
    5.8923   -4.3168  -54.1860 H   0  0  0  0  0  0  0  0  0  0  0  0
    6.4184   -4.5569  -51.7635 H   0  0  0  0  0  0  0  0  0  0  0  0
    9.1937   -1.2487  -52.0384 H   0  0  0  0  0  0  0  0  0  0  0  0
  1  2  1  0
  2  3  2  0
  2  4  1  0
  4  5  1  0
  5  6  1  0
  6  7  2  0
  6  8  1  0
  8  9  1  0
  9 10  1  0
 10 11  1  0
  5 12  2  0
 12 13  1  0
 13 14  1  0
 14 15  1  0
 15 16  2  0
 16 17  1  0
 17 18  2  0
 18 19  1  0
 19 20  2  0
 13 21  1  0
 21 22  1  0
 22 23  1  0
 23 24  2  0
 24 25  1  0
 25 26  2  0
 26 27  1  0
 27 28  1  0
 27 29  1  0
 27 30  1  0
 26 31  1  0
 21  4  2  0
 31 22  2  0
 20 15  1  0
  1 32  1  0
  1 33  1  0
  8 34  1  0
  9 35  1  0
  9 36  1  0
 10 37  1  0
 10 38  1  0
 11 39  1  0
 14 40  1  0
 14 41  1  0
 16 42  1  0
 17 43  1  0
 18 44  1  0
 19 45  1  0
 20 46  1  0
 23 47  1  0
 24 48  1  0
 25 49  1  0
 31 50  1  0
M  END
>  <meeko>  (65) 
{"is_sidechain": false}

$$$$

     RDKit          3D

 71 75  0  0  0  0  0  0  0  0999 V2000
    2.5650    1.7280  -63.2170 C   0  0  0  0  0  0  0  0  0  0  0  0
    3.5630    2.1960  -62.1910 N   0  0  2  0  0  0  0  0  0  0  0  0
    4.9760    1.8680  -62.5860 C   0  0  0  0  0  0  0  0  0  0  0  0
    5.9460    2.6160  -61.6760 C   0  0  0  0  0  0  0  0  0  0  0  0
    5.4250    2.7960  -60.2370 C   0  0  2  0  0  0  0  0  0  0  0  0
    6.5750    2.9370  -59.2670 C   0  0  0  0  0  0  0  0  0  0  0  0
    7.8690    3.1720  -59.7400 C   0  0  0  0  0  0  0  0  0  0  0  0
    8.9390    3.2410  -58.8490 C   0  0  0  0  0  0  0  0  0  0  0  0
    8.7010    3.0600  -57.4920 C   0  0  0  0  0  0  0  0  0  0  0  0
    9.8670    3.1000  -56.5170 C   0  0  0  0  0  0  0  0  0  0  0  0
    9.8790    1.9700  -55.6130 N   0  0  0  0  0  0  0  0  0  0  0  0
   10.2670    0.7260  -56.0720 C   0  0  0  0  0  0  0  0  0  0  0  0
   10.8030    0.5960  -57.1730 O   0  0  0  0  0  0  0  0  0  0  0  0
    9.9990   -0.4180  -55.1750 C   0  0  0  0  0  0  0  0  0  0  0  0
   10.8560   -1.4550  -55.1840 N   0  0  0  0  0  0  0  0  0  0  0  0
   10.3950   -2.3080  -54.2570 N   0  0  0  0  0  0  0  0  0  0  0  0
   11.1600   -3.5220  -53.9750 C   0  0  0  0  0  0  0  0  0  0  0  0
   11.4580   -4.3150  -55.2240 C   0  0  0  0  0  0  0  0  0  0  0  0
   12.6870   -4.9750  -55.3710 C   0  0  0  0  0  0  0  0  0  0  0  0
   12.9690   -5.7010  -56.5310 C   0  0  0  0  0  0  0  0  0  0  0  0
   12.0320   -5.7650  -57.5590 C   0  0  0  0  0  0  0  0  0  0  0  0
   10.8110   -5.1060  -57.4310 C   0  0  0  0  0  0  0  0  0  0  0  0
   10.5260   -4.3820  -56.2720 C   0  0  0  0  0  0  0  0  0  0  0  0
    9.2470   -1.8740  -53.6430 C   0  0  0  0  0  0  0  0  0  0  0  0
    8.5450   -2.6350  -52.6150 C   0  0  0  0  0  0  0  0  0  0  0  0
    9.0140   -2.6350  -51.2950 C   0  0  0  0  0  0  0  0  0  0  0  0
    8.3390   -3.3530  -50.3070 C   0  0  0  0  0  0  0  0  0  0  0  0
    7.1940   -4.0780  -50.6340 C   0  0  0  0  0  0  0  0  0  0  0  0
    6.7320   -4.0860  -51.9490 C   0  0  0  0  0  0  0  0  0  0  0  0
    5.3180   -4.9810  -52.3510 Cl  0  0  0  0  0  0  0  0  0  0  0  0
    7.4000   -3.3700  -52.9410 C   0  0  0  0  0  0  0  0  0  0  0  0
    8.9370   -0.6480  -54.2350 C   0  0  0  0  0  0  0  0  0  0  0  0
    7.7670    0.1420  -53.8900 C   0  0  0  0  0  0  0  0  0  0  0  0
    6.8740    0.4100  -54.8830 N   0  0  0  0  0  0  0  0  0  0  0  0
    7.5360    0.5710  -52.7640 O   0  0  0  0  0  0  0  0  0  0  0  0
    7.4480    2.8540  -56.9980 N   0  0  0  0  0  0  0  0  0  0  0  0
    6.4310    2.7860  -57.8890 C   0  0  0  0  0  0  0  0  0  0  0  0
    4.4260    1.6910  -59.8810 C   0  0  0  0  0  0  0  0  0  0  0  0
    3.2070    1.7080  -60.8030 C   0  0  0  0  0  0  0  0  0  0  0  0
    1.6823    1.3140  -62.7077 H   0  0  0  0  0  0  0  0  0  0  0  0
    2.2605    2.5772  -63.8464 H   0  0  0  0  0  0  0  0  0  0  0  0
    3.0232    0.9509  -63.8464 H   0  0  0  0  0  0  0  0  0  0  0  0
    3.4850    3.2240  -62.1840 H   0  0  0  0  0  0  0  0  0  0  0  0
    5.1421    0.7851  -62.4876 H   0  0  0  0  0  0  0  0  0  0  0  0
    5.1445    2.1718  -63.6297 H   0  0  0  0  0  0  0  0  0  0  0  0
    6.8904    2.0533  -61.6364 H   0  0  0  0  0  0  0  0  0  0  0  0
    6.0771    3.6222  -62.1006 H   0  0  0  0  0  0  0  0  0  0  0  0
    4.8605    3.7371  -60.1619 H   0  0  0  0  0  0  0  0  0  0  0  0
    8.0436    3.3029  -60.8181 H   0  0  0  0  0  0  0  0  0  0  0  0
    9.9577    3.4361  -59.2152 H   0  0  0  0  0  0  0  0  0  0  0  0
   10.8055    3.1014  -57.0908 H   0  0  0  0  0  0  0  0  0  0  0  0
    9.7601    4.0104  -55.9089 H   0  0  0  0  0  0  0  0  0  0  0  0
    9.3370    2.0440  -54.7640 H   0  0  0  0  0  0  0  0  0  0  0  0
   12.1112   -3.2384  -53.5008 H   0  0  0  0  0  0  0  0  0  0  0  0
   10.5530   -4.1554  -53.3114 H   0  0  0  0  0  0  0  0  0  0  0  0
   13.4350   -4.9205  -54.5663 H   0  0  0  0  0  0  0  0  0  0  0  0
   13.9322   -6.2225  -56.6322 H   0  0  0  0  0  0  0  0  0  0  0  0
   12.2557   -6.3359  -58.4723 H   0  0  0  0  0  0  0  0  0  0  0  0
   10.0713   -5.1563  -58.2436 H   0  0  0  0  0  0  0  0  0  0  0  0
    9.5626   -3.8593  -56.1789 H   0  0  0  0  0  0  0  0  0  0  0  0
    9.9191   -2.0660  -51.0359 H   0  0  0  0  0  0  0  0  0  0  0  0
    8.7099   -3.3469  -49.2714 H   0  0  0  0  0  0  0  0  0  0  0  0
    6.6570   -4.6418  -49.8569 H   0  0  0  0  0  0  0  0  0  0  0  0
    7.0283   -3.3828  -53.9762 H   0  0  0  0  0  0  0  0  0  0  0  0
    6.0250    0.8830  -54.6050 H   0  0  0  0  0  0  0  0  0  0  0  0
    6.8710   -0.0190  -55.8080 H   0  0  0  0  0  0  0  0  0  0  0  0
    5.4201    2.5984  -57.4979 H   0  0  0  0  0  0  0  0  0  0  0  0
    4.9269    0.7158  -59.9712 H   0  0  0  0  0  0  0  0  0  0  0  0
    4.0782    1.8636  -58.8518 H   0  0  0  0  0  0  0  0  0  0  0  0
    2.8012    0.6882  -60.8766 H   0  0  0  0  0  0  0  0  0  0  0  0
    2.4636    2.3977  -60.3767 H   0  0  0  0  0  0  0  0  0  0  0  0
  1  2  1  0
  2  3  1  0
  3  4  1  0
  4  5  1  0
  5  6  1  0
  6  7  2  0
  7  8  1  0
  8  9  2  0
  9 10  1  0
 10 11  1  0
 11 12  1  0
 12 13  2  0
 12 14  1  0
 14 15  2  0
 15 16  1  0
 16 17  1  0
 17 18  1  0
 18 19  2  0
 19 20  1  0
 20 21  2  0
 21 22  1  0
 22 23  2  0
 16 24  1  0
 24 25  1  0
 25 26  2  0
 26 27  1  0
 27 28  2  0
 28 29  1  0
 29 30  1  0
 29 31  2  0
 24 32  2  0
 32 33  1  0
 33 34  1  0
 33 35  2  0
  9 36  1  0
 36 37  2  0
  5 38  1  0
 38 39  1  0
 39  2  1  0
 37  6  1  0
 32 14  1  0
 23 18  1  0
 31 25  1  0
  1 40  1  0
  1 41  1  0
  1 42  1  0
  2 43  1  6
  3 44  1  0
  3 45  1  0
  4 46  1  0
  4 47  1  0
  5 48  1  1
  7 49  1  0
  8 50  1  0
 10 51  1  0
 10 52  1  0
 11 53  1  0
 17 54  1  0
 17 55  1  0
 19 56  1  0
 20 57  1  0
 21 58  1  0
 22 59  1  0
 23 60  1  0
 26 61  1  0
 27 62  1  0
 28 63  1  0
 31 64  1  0
 34 65  1  0
 34 66  1  0
 37 67  1  0
 38 68  1  0
 38 69  1  0
 39 70  1  0
 39 71  1  0
M  CHG  1   2   1
M  END
>  <meeko>  (66) 
{"is_sidechain": false}

$$$$

     RDKit          3D

 71 75  0  0  0  0  0  0  0  0999 V2000
    2.5310    3.0460  -63.1700 C   0  0  0  0  0  0  0  0  0  0  0  0
    2.9620    1.6830  -62.6880 N   0  0  2  0  0  0  0  0  0  0  0  0
    2.8080    1.5030  -61.1920 C   0  0  0  0  0  0  0  0  0  0  0  0
    4.1510    1.3020  -60.4960 C   0  0  0  0  0  0  0  0  0  0  0  0
    5.2130    2.2600  -61.0480 C   0  0  1  0  0  0  0  0  0  0  0  0
    6.5240    2.2100  -60.2990 C   0  0  0  0  0  0  0  0  0  0  0  0
    7.7390    1.8820  -60.9060 C   0  0  0  0  0  0  0  0  0  0  0  0
    8.9180    1.9040  -60.1610 C   0  0  0  0  0  0  0  0  0  0  0  0
    8.8690    2.2740  -58.8200 C   0  0  0  0  0  0  0  0  0  0  0  0
   10.1200    2.3200  -57.9670 C   0  0  0  0  0  0  0  0  0  0  0  0
   10.1500    1.3520  -56.8920 N   0  0  0  0  0  0  0  0  0  0  0  0
    9.2410    1.3660  -55.8570 C   0  0  0  0  0  0  0  0  0  0  0  0
    8.4550    2.2870  -55.6630 O   0  0  0  0  0  0  0  0  0  0  0  0
    9.3140    0.1550  -55.0140 C   0  0  0  0  0  0  0  0  0  0  0  0
   10.3770   -0.6650  -55.1630 N   0  0  0  0  0  0  0  0  0  0  0  0
   10.1580   -1.6640  -54.2860 N   0  0  0  0  0  0  0  0  0  0  0  0
   11.1140   -2.7710  -54.2240 C   0  0  0  0  0  0  0  0  0  0  0  0
   11.2800   -3.4620  -55.5550 C   0  0  0  0  0  0  0  0  0  0  0  0
   11.7410   -2.7590  -56.6790 C   0  0  0  0  0  0  0  0  0  0  0  0
   11.8830   -3.4020  -57.9100 C   0  0  0  0  0  0  0  0  0  0  0  0
   11.5650   -4.7530  -58.0320 C   0  0  0  0  0  0  0  0  0  0  0  0
   11.1000   -5.4610  -56.9260 C   0  0  0  0  0  0  0  0  0  0  0  0
   10.9540   -4.8190  -55.6950 C   0  0  0  0  0  0  0  0  0  0  0  0
    8.9890   -1.5250  -53.5790 C   0  0  0  0  0  0  0  0  0  0  0  0
    8.5430   -2.4890  -52.5780 C   0  0  0  0  0  0  0  0  0  0  0  0
    9.3550   -2.7900  -51.4770 C   0  0  0  0  0  0  0  0  0  0  0  0
    8.9380   -3.7230  -50.5270 C   0  0  0  0  0  0  0  0  0  0  0  0
    7.7030   -4.3560  -50.6680 C   0  0  0  0  0  0  0  0  0  0  0  0
    6.8900   -4.0500  -51.7580 C   0  0  0  0  0  0  0  0  0  0  0  0
    5.3690   -4.8350  -51.9350 Cl  0  0  0  0  0  0  0  0  0  0  0  0
    7.3020   -3.1200  -52.7120 C   0  0  0  0  0  0  0  0  0  0  0  0
    8.4040   -0.3340  -54.0190 C   0  0  0  0  0  0  0  0  0  0  0  0
    7.1430    0.1920  -53.5010 C   0  0  0  0  0  0  0  0  0  0  0  0
    6.0990    0.3380  -54.3610 N   0  0  0  0  0  0  0  0  0  0  0  0
    6.9720    0.5130  -52.3290 O   0  0  0  0  0  0  0  0  0  0  0  0
    7.6980    2.5690  -58.2040 N   0  0  0  0  0  0  0  0  0  0  0  0
    6.5710    2.5430  -58.9470 C   0  0  0  0  0  0  0  0  0  0  0  0
    5.4330    2.0400  -62.5560 C   0  0  0  0  0  0  0  0  0  0  0  0
    4.3060    1.2640  -63.2230 C   0  0  0  0  0  0  0  0  0  0  0  0
    2.3263    3.6932  -62.3044 H   0  0  0  0  0  0  0  0  0  0  0  0
    3.3325    3.4901  -63.7785 H   0  0  0  0  0  0  0  0  0  0  0  0
    1.6198    2.9485  -63.7785 H   0  0  0  0  0  0  0  0  0  0  0  0
    2.2880    1.0350  -63.1170 H   0  0  0  0  0  0  0  0  0  0  0  0
    2.3231    2.3981  -60.7752 H   0  0  0  0  0  0  0  0  0  0  0  0
    2.1998    0.6027  -61.0203 H   0  0  0  0  0  0  0  0  0  0  0  0
    4.0274    1.4863  -59.4186 H   0  0  0  0  0  0  0  0  0  0  0  0
    4.4857    0.2701  -60.6783 H   0  0  0  0  0  0  0  0  0  0  0  0
    4.8112    3.2720  -60.8919 H   0  0  0  0  0  0  0  0  0  0  0  0
    7.7657    1.6066  -61.9706 H   0  0  0  0  0  0  0  0  0  0  0  0
    9.8760    1.6319  -60.6281 H   0  0  0  0  0  0  0  0  0  0  0  0
   10.9870    2.1365  -58.6187 H   0  0  0  0  0  0  0  0  0  0  0  0
   10.1394    3.3129  -57.4941 H   0  0  0  0  0  0  0  0  0  0  0  0
   10.6220    0.4610  -57.0210 H   0  0  0  0  0  0  0  0  0  0  0  0
   12.0906   -2.3771  -53.9061 H   0  0  0  0  0  0  0  0  0  0  0  0
   10.7255   -3.5103  -53.5081 H   0  0  0  0  0  0  0  0  0  0  0  0
   11.9926   -1.6919  -56.5891 H   0  0  0  0  0  0  0  0  0  0  0  0
   12.2462   -2.8417  -58.7842 H   0  0  0  0  0  0  0  0  0  0  0  0
   11.6810   -5.2603  -59.0011 H   0  0  0  0  0  0  0  0  0  0  0  0
   10.8476   -6.5273  -57.0228 H   0  0  0  0  0  0  0  0  0  0  0  0
   10.5801   -5.3822  -54.8273 H   0  0  0  0  0  0  0  0  0  0  0  0
   10.3268   -2.2880  -51.3607 H   0  0  0  0  0  0  0  0  0  0  0  0
    9.5826   -3.9592  -49.6675 H   0  0  0  0  0  0  0  0  0  0  0  0
    7.3721   -5.0936  -49.9220 H   0  0  0  0  0  0  0  0  0  0  0  0
    6.6526   -2.8833  -53.5677 H   0  0  0  0  0  0  0  0  0  0  0  0
    6.0930   -0.0310  -55.3090 H   0  0  0  0  0  0  0  0  0  0  0  0
    5.2120    0.6000  -53.9570 H   0  0  0  0  0  0  0  0  0  0  0  0
    5.6244    2.8027  -58.4505 H   0  0  0  0  0  0  0  0  0  0  0  0
    5.5163    3.0226  -63.0435 H   0  0  0  0  0  0  0  0  0  0  0  0
    6.3498    1.4424  -62.6673 H   0  0  0  0  0  0  0  0  0  0  0  0
    4.3345    1.4510  -64.3066 H   0  0  0  0  0  0  0  0  0  0  0  0
    4.4468    0.1943  -63.0090 H   0  0  0  0  0  0  0  0  0  0  0  0
  1  2  1  0
  2  3  1  0
  3  4  1  0
  4  5  1  0
  5  6  1  0
  6  7  2  0
  7  8  1  0
  8  9  2  0
  9 10  1  0
 10 11  1  0
 11 12  1  0
 12 13  2  0
 12 14  1  0
 14 15  2  0
 15 16  1  0
 16 17  1  0
 17 18  1  0
 18 19  2  0
 19 20  1  0
 20 21  2  0
 21 22  1  0
 22 23  2  0
 16 24  1  0
 24 25  1  0
 25 26  2  0
 26 27  1  0
 27 28  2  0
 28 29  1  0
 29 30  1  0
 29 31  2  0
 24 32  2  0
 32 33  1  0
 33 34  1  0
 33 35  2  0
  9 36  1  0
 36 37  2  0
  5 38  1  0
 38 39  1  0
 39  2  1  0
 37  6  1  0
 32 14  1  0
 23 18  1  0
 31 25  1  0
  1 40  1  0
  1 41  1  0
  1 42  1  0
  2 43  1  1
  3 44  1  0
  3 45  1  0
  4 46  1  0
  4 47  1  0
  5 48  1  1
  7 49  1  0
  8 50  1  0
 10 51  1  0
 10 52  1  0
 11 53  1  0
 17 54  1  0
 17 55  1  0
 19 56  1  0
 20 57  1  0
 21 58  1  0
 22 59  1  0
 23 60  1  0
 26 61  1  0
 27 62  1  0
 28 63  1  0
 31 64  1  0
 34 65  1  0
 34 66  1  0
 37 67  1  0
 38 68  1  0
 38 69  1  0
 39 70  1  0
 39 71  1  0
M  CHG  1   2   1
M  END
>  <meeko>  (67) 
{"is_sidechain": false}

$$$$

     RDKit          3D

 77 82  0  0  0  0  0  0  0  0999 V2000
   12.6130   -0.3990  -56.0630 O   0  0  0  0  0  0  0  0  0  0  0  0
   11.4120   -0.2420  -55.8640 C   0  0  0  0  0  0  0  0  0  0  0  0
   10.6880   -1.0620  -55.0200 N   0  0  0  0  0  0  0  0  0  0  0  0
   11.2480   -2.2590  -54.4100 C   0  0  2  0  0  0  0  0  0  0  0  0
   11.3160   -3.4180  -55.4200 C   0  0  0  0  0  0  0  0  0  0  0  0
   10.2360   -4.4820  -55.2180 C   0  0  0  0  0  0  0  0  0  0  0  0
    8.9040   -3.8820  -54.7870 C   0  0  0  0  0  0  0  0  0  0  0  0
    9.0010   -3.0720  -53.4760 C   0  0  1  0  0  0  0  0  0  0  0  0
    8.3090   -3.7440  -52.2520 C   0  0  0  0  0  0  0  0  0  0  0  0
    6.7710   -3.7450  -52.3200 C   0  0  0  0  0  0  0  0  0  0  0  0
    6.1670   -4.2530  -51.0140 C   0  0  0  0  0  0  0  0  0  0  0  0
    6.5610   -3.3970  -49.8110 C   0  0  0  0  0  0  0  0  0  0  0  0
    7.7600   -2.4900  -50.0710 C   0  0  0  0  0  0  0  0  0  0  0  0
    8.8330   -3.1770  -50.9100 C   0  0  0  0  0  0  0  0  0  0  0  0
   10.4540   -2.6510  -53.1570 C   0  0  0  0  0  0  0  0  0  0  0  0
   10.5290    0.7990  -56.4490 C   0  0  0  0  0  0  0  0  0  0  0  0
    9.2490    1.1100  -56.1790 C   0  0  0  0  0  0  0  0  0  0  0  0
    8.1470    0.6110  -55.2050 C   0  0  0  0  0  0  0  0  0  0  0  0
    6.8870    0.2850  -55.7140 C   0  0  0  0  0  0  0  0  0  0  0  0
    5.8890   -0.1740  -54.8530 C   0  0  0  0  0  0  0  0  0  0  0  0
    6.1620   -0.3010  -53.4950 C   0  0  0  0  0  0  0  0  0  0  0  0
    5.2040   -0.7440  -52.6700 F   0  0  0  0  0  0  0  0  0  0  0  0
    7.4140    0.0220  -52.9810 C   0  0  0  0  0  0  0  0  0  0  0  0
    8.4140    0.4810  -53.8400 C   0  0  0  0  0  0  0  0  0  0  0  0
    9.3530    2.1430  -56.9750 N   0  0  0  0  0  0  0  0  0  0  0  0
   10.5270    1.6160  -57.4670 N   0  0  0  0  0  0  0  0  0  0  0  0
   11.5600    2.5720  -57.8340 C   0  0  0  0  0  0  0  0  0  0  0  0
   11.1420    3.1940  -59.1880 C   0  0  2  0  0  0  0  0  0  0  0  0
   12.3800    3.6690  -59.9720 C   0  0  0  0  0  0  0  0  0  0  0  0
   12.9860    4.9460  -59.4060 C   0  0  0  0  0  0  0  0  0  0  0  0
   11.9530    6.0620  -59.3650 C   0  0  0  0  0  0  0  0  0  0  0  0
   10.7120    5.6530  -58.5820 C   0  0  0  0  0  0  0  0  0  0  0  0
   10.0850    4.3350  -59.0890 C   0  0  2  0  0  0  0  0  0  0  0  0
    8.7680    4.0750  -58.2980 C   0  0  0  0  0  0  0  0  0  0  0  0
    8.3920    2.6220  -57.9520 C   0  0  0  0  0  0  0  0  0  0  0  0
    9.7010   -0.8650  -54.9310 H   0  0  0  0  0  0  0  0  0  0  0  0
   12.2791   -2.0352  -54.0990 H   0  0  0  0  0  0  0  0  0  0  0  0
   11.2067   -3.0017  -56.4323 H   0  0  0  0  0  0  0  0  0  0  0  0
   12.2855   -3.9154  -55.2695 H   0  0  0  0  0  0  0  0  0  0  0  0
   10.0904   -5.0219  -56.1652 H   0  0  0  0  0  0  0  0  0  0  0  0
   10.5749   -5.1565  -54.4179 H   0  0  0  0  0  0  0  0  0  0  0  0
    8.5458   -3.2150  -55.5850 H   0  0  0  0  0  0  0  0  0  0  0  0
    8.2110   -4.7170  -54.6064 H   0  0  0  0  0  0  0  0  0  0  0  0
    8.4213   -2.1569  -53.6671 H   0  0  0  0  0  0  0  0  0  0  0  0
    8.5972   -4.8044  -52.3015 H   0  0  0  0  0  0  0  0  0  0  0  0
    6.4183   -2.7196  -52.5047 H   0  0  0  0  0  0  0  0  0  0  0  0
    6.4563   -4.4131  -53.1353 H   0  0  0  0  0  0  0  0  0  0  0  0
    5.0710   -4.2465  -51.1070 H   0  0  0  0  0  0  0  0  0  0  0  0
    6.5540   -5.2681  -50.8411 H   0  0  0  0  0  0  0  0  0  0  0  0
    5.7020   -2.7672  -49.5365 H   0  0  0  0  0  0  0  0  0  0  0  0
    6.8489   -4.0879  -49.0049 H   0  0  0  0  0  0  0  0  0  0  0  0
    7.4152   -1.5916  -50.6040 H   0  0  0  0  0  0  0  0  0  0  0  0
    8.2055   -2.2333  -49.0986 H   0  0  0  0  0  0  0  0  0  0  0  0
    9.6243   -2.4447  -51.1283 H   0  0  0  0  0  0  0  0  0  0  0  0
    9.2005   -4.0315  -50.3228 H   0  0  0  0  0  0  0  0  0  0  0  0
   10.4283   -1.7896  -52.4734 H   0  0  0  0  0  0  0  0  0  0  0  0
   10.9578   -3.5172  -52.7031 H   0  0  0  0  0  0  0  0  0  0  0  0
    6.6824    0.3898  -56.7897 H   0  0  0  0  0  0  0  0  0  0  0  0
    4.8945   -0.4332  -55.2452 H   0  0  0  0  0  0  0  0  0  0  0  0
    7.6145   -0.0837  -51.9046 H   0  0  0  0  0  0  0  0  0  0  0  0
    9.4073    0.7390  -53.4440 H   0  0  0  0  0  0  0  0  0  0  0  0
   11.6387    3.3561  -57.0665 H   0  0  0  0  0  0  0  0  0  0  0  0
   12.5399    2.0787  -57.9149 H   0  0  0  0  0  0  0  0  0  0  0  0
   10.6391    2.3822  -59.7340 H   0  0  0  0  0  0  0  0  0  0  0  0
   13.1411    2.8754  -59.9405 H   0  0  0  0  0  0  0  0  0  0  0  0
   12.0562    3.8852  -61.0008 H   0  0  0  0  0  0  0  0  0  0  0  0
   13.3480    4.7519  -58.3855 H   0  0  0  0  0  0  0  0  0  0  0  0
   13.8178    5.2590  -60.0542 H   0  0  0  0  0  0  0  0  0  0  0  0
   12.4013    6.9452  -58.8865 H   0  0  0  0  0  0  0  0  0  0  0  0
   11.6483    6.2852  -60.3981 H   0  0  0  0  0  0  0  0  0  0  0  0
   10.9906    5.5250  -57.5256 H   0  0  0  0  0  0  0  0  0  0  0  0
    9.9623    6.4467  -58.7159 H   0  0  0  0  0  0  0  0  0  0  0  0
    9.7606    4.3974  -60.1382 H   0  0  0  0  0  0  0  0  0  0  0  0
    8.8457    4.6250  -57.3485 H   0  0  0  0  0  0  0  0  0  0  0  0
    7.9731    4.4022  -58.9844 H   0  0  0  0  0  0  0  0  0  0  0  0
    7.3773    2.5873  -57.5288 H   0  0  0  0  0  0  0  0  0  0  0  0
    8.4098    1.9922  -58.8537 H   0  0  0  0  0  0  0  0  0  0  0  0
  1  2  2  0
  2  3  1  0
  3  4  1  0
  4  5  1  0
  5  6  1  0
  6  7  1  0
  7  8  1  0
  8  9  1  0
  9 10  1  0
 10 11  1  0
 11 12  1  0
 12 13  1  0
 13 14  1  0
  8 15  1  0
  2 16  1  0
 16 17  2  0
 17 18  1  0
 18 19  1  0
 19 20  2  0
 20 21  1  0
 21 22  1  0
 21 23  2  0
 23 24  1  0
 17 25  1  0
 25 26  1  0
 26 27  1  0
 27 28  1  0
 28 29  1  0
 29 30  1  0
 30 31  1  0
 31 32  1  0
 32 33  1  0
 33 34  1  0
 34 35  1  0
 15  4  1  0
 26 16  1  0
 33 28  1  0
 14  9  1  0
 24 18  2  0
 35 25  1  0
  3 36  1  0
  4 37  1  1
  5 38  1  0
  5 39  1  0
  6 40  1  0
  6 41  1  0
  7 42  1  0
  7 43  1  0
  8 44  1  6
  9 45  1  0
 10 46  1  0
 10 47  1  0
 11 48  1  0
 11 49  1  0
 12 50  1  0
 12 51  1  0
 13 52  1  0
 13 53  1  0
 14 54  1  0
 14 55  1  0
 15 56  1  0
 15 57  1  0
 19 58  1  0
 20 59  1  0
 23 60  1  0
 24 61  1  0
 27 62  1  0
 27 63  1  0
 28 64  1  6
 29 65  1  0
 29 66  1  0
 30 67  1  0
 30 68  1  0
 31 69  1  0
 31 70  1  0
 32 71  1  0
 32 72  1  0
 33 73  1  6
 34 74  1  0
 34 75  1  0
 35 76  1  0
 35 77  1  0
M  END
>  <meeko>  (68) 
{"is_sidechain": false}

$$$$

     RDKit          3D

 77 82  0  0  0  0  0  0  0  0999 V2000
    5.6880    2.5090  -56.5140 O   0  0  0  0  0  0  0  0  0  0  0  0
    6.5220    1.8200  -57.0980 C   0  0  0  0  0  0  0  0  0  0  0  0
    6.8140    0.5310  -56.6960 N   0  0  0  0  0  0  0  0  0  0  0  0
    6.2300   -0.0650  -55.5030 C   0  0  2  0  0  0  0  0  0  0  0  0
    6.0710    0.9980  -54.4010 C   0  0  0  0  0  0  0  0  0  0  0  0
    6.1470    0.3860  -53.0090 C   0  0  0  0  0  0  0  0  0  0  0  0
    7.4880   -0.3120  -52.7560 C   0  0  0  0  0  0  0  0  0  0  0  0
    8.1540   -0.8520  -54.0410 C   0  0  1  0  0  0  0  0  0  0  0  0
    9.2220   -1.9350  -53.7290 C   0  0  0  0  0  0  0  0  0  0  0  0
   10.5630   -1.3150  -53.3040 C   0  0  0  0  0  0  0  0  0  0  0  0
   11.5320   -2.3680  -52.7610 C   0  0  0  0  0  0  0  0  0  0  0  0
   11.3650   -3.7420  -53.4130 C   0  0  0  0  0  0  0  0  0  0  0  0
   10.8170   -3.6330  -54.8280 C   0  0  0  0  0  0  0  0  0  0  0  0
    9.4390   -2.9630  -54.8600 C   0  0  0  0  0  0  0  0  0  0  0  0
    7.0740   -1.2730  -55.0510 C   0  0  0  0  0  0  0  0  0  0  0  0
    7.3400    2.2720  -58.2570 C   0  0  0  0  0  0  0  0  0  0  0  0
    7.0690    2.4240  -59.5660 C   0  0  0  0  0  0  0  0  0  0  0  0
    5.8260    2.2460  -60.4760 C   0  0  0  0  0  0  0  0  0  0  0  0
    5.9740    2.3130  -61.8620 C   0  0  0  0  0  0  0  0  0  0  0  0
    4.8560    2.1370  -62.6780 C   0  0  0  0  0  0  0  0  0  0  0  0
    3.6120    1.9000  -62.0990 C   0  0  0  0  0  0  0  0  0  0  0  0
    2.5420    1.7230  -62.8850 F   0  0  0  0  0  0  0  0  0  0  0  0
    3.4630    1.8350  -60.7170 C   0  0  0  0  0  0  0  0  0  0  0  0
    4.5780    2.0090  -59.8960 C   0  0  0  0  0  0  0  0  0  0  0  0
    8.2190    3.0310  -59.7270 N   0  0  0  0  0  0  0  0  0  0  0  0
    8.5870    2.5900  -58.4680 N   0  0  0  0  0  0  0  0  0  0  0  0
    9.3620    3.4660  -57.6030 C   0  0  0  0  0  0  0  0  0  0  0  0
   10.7100    3.8000  -58.2840 C   0  0  2  0  0  0  0  0  0  0  0  0
   11.6390    4.4800  -57.2690 C   0  0  0  0  0  0  0  0  0  0  0  0
   13.0320    4.7330  -57.8480 C   0  0  0  0  0  0  0  0  0  0  0  0
   13.0200    5.0500  -59.3430 C   0  0  0  0  0  0  0  0  0  0  0  0
   11.6940    5.6590  -59.7780 C   0  0  0  0  0  0  0  0  0  0  0  0
   10.5060    4.6980  -59.5430 C   0  0  1  0  0  0  0  0  0  0  0  0
   10.2240    3.8960  -60.8410 C   0  0  0  0  0  0  0  0  0  0  0  0
    9.1730    2.7900  -60.7970 C   0  0  0  0  0  0  0  0  0  0  0  0
    7.6500    0.1050  -57.0730 H   0  0  0  0  0  0  0  0  0  0  0  0
    5.2217   -0.4421  -55.7292 H   0  0  0  0  0  0  0  0  0  0  0  0
    6.8734    1.7429  -54.5066 H   0  0  0  0  0  0  0  0  0  0  0  0
    5.0811    1.4637  -54.5159 H   0  0  0  0  0  0  0  0  0  0  0  0
    6.0169    1.1843  -52.2634 H   0  0  0  0  0  0  0  0  0  0  0  0
    5.3522   -0.3702  -52.9286 H   0  0  0  0  0  0  0  0  0  0  0  0
    8.1726    0.4092  -52.2858 H   0  0  0  0  0  0  0  0  0  0  0  0
    7.2849   -1.1778  -52.1086 H   0  0  0  0  0  0  0  0  0  0  0  0
    8.7293   -0.0496  -54.5260 H   0  0  0  0  0  0  0  0  0  0  0  0
    8.8025   -2.4962  -52.8810 H   0  0  0  0  0  0  0  0  0  0  0  0
   11.0212   -0.8263  -54.1765 H   0  0  0  0  0  0  0  0  0  0  0  0
   10.3640   -0.5890  -52.5019 H   0  0  0  0  0  0  0  0  0  0  0  0
   12.5603   -2.0203  -52.9392 H   0  0  0  0  0  0  0  0  0  0  0  0
   11.3132   -2.4885  -51.6897 H   0  0  0  0  0  0  0  0  0  0  0  0
   12.3447   -4.2409  -53.4480 H   0  0  0  0  0  0  0  0  0  0  0  0
   10.6479   -4.3207  -52.8122 H   0  0  0  0  0  0  0  0  0  0  0  0
   11.5155   -3.0377  -55.4345 H   0  0  0  0  0  0  0  0  0  0  0  0
   10.7091   -4.6512  -55.2299 H   0  0  0  0  0  0  0  0  0  0  0  0
    9.3263   -2.4468  -55.8248 H   0  0  0  0  0  0  0  0  0  0  0  0
    8.6919   -3.7580  -54.7193 H   0  0  0  0  0  0  0  0  0  0  0  0
    7.5604   -1.7197  -55.9307 H   0  0  0  0  0  0  0  0  0  0  0  0
    6.4074   -2.0002  -54.5643 H   0  0  0  0  0  0  0  0  0  0  0  0
    6.9621    2.5026  -62.3067 H   0  0  0  0  0  0  0  0  0  0  0  0
    4.9567    2.1852  -63.7723 H   0  0  0  0  0  0  0  0  0  0  0  0
    2.4734    1.6478  -60.2748 H   0  0  0  0  0  0  0  0  0  0  0  0
    4.4747    1.9599  -58.8020 H   0  0  0  0  0  0  0  0  0  0  0  0
    8.8010    4.3952  -57.4244 H   0  0  0  0  0  0  0  0  0  0  0  0
    9.5503    2.9619  -56.6436 H   0  0  0  0  0  0  0  0  0  0  0  0
   11.1732    2.8633  -58.6276 H   0  0  0  0  0  0  0  0  0  0  0  0
   11.1973    5.4428  -56.9725 H   0  0  0  0  0  0  0  0  0  0  0  0
   11.7470    3.8090  -56.4041 H   0  0  0  0  0  0  0  0  0  0  0  0
   13.4819    5.5835  -57.3149 H   0  0  0  0  0  0  0  0  0  0  0  0
   13.6109    3.8068  -57.7173 H   0  0  0  0  0  0  0  0  0  0  0  0
   13.8289    5.7623  -59.5630 H   0  0  0  0  0  0  0  0  0  0  0  0
   13.1630    4.1091  -59.8946 H   0  0  0  0  0  0  0  0  0  0  0  0
   11.5225    6.5816  -59.2040 H   0  0  0  0  0  0  0  0  0  0  0  0
   11.7542    5.8646  -60.8569 H   0  0  0  0  0  0  0  0  0  0  0  0
    9.6063    5.2886  -59.3155 H   0  0  0  0  0  0  0  0  0  0  0  0
    9.9042    4.6183  -61.6065 H   0  0  0  0  0  0  0  0  0  0  0  0
   11.1666    3.3655  -61.0412 H   0  0  0  0  0  0  0  0  0  0  0  0
    8.6384    2.7613  -61.7579 H   0  0  0  0  0  0  0  0  0  0  0  0
    9.6770    1.8299  -60.6122 H   0  0  0  0  0  0  0  0  0  0  0  0
  1  2  2  0
  2  3  1  0
  3  4  1  0
  4  5  1  0
  5  6  1  0
  6  7  1  0
  7  8  1  0
  8  9  1  0
  9 10  1  0
 10 11  1  0
 11 12  1  0
 12 13  1  0
 13 14  1  0
  8 15  1  0
  2 16  1  0
 16 17  2  0
 17 18  1  0
 18 19  1  0
 19 20  2  0
 20 21  1  0
 21 22  1  0
 21 23  2  0
 23 24  1  0
 17 25  1  0
 25 26  1  0
 26 27  1  0
 27 28  1  0
 28 29  1  0
 29 30  1  0
 30 31  1  0
 31 32  1  0
 32 33  1  0
 33 34  1  0
 34 35  1  0
 15  4  1  0
 26 16  1  0
 33 28  1  0
 14  9  1  0
 24 18  2  0
 35 25  1  0
  3 36  1  0
  4 37  1  6
  5 38  1  0
  5 39  1  0
  6 40  1  0
  6 41  1  0
  7 42  1  0
  7 43  1  0
  8 44  1  6
  9 45  1  0
 10 46  1  0
 10 47  1  0
 11 48  1  0
 11 49  1  0
 12 50  1  0
 12 51  1  0
 13 52  1  0
 13 53  1  0
 14 54  1  0
 14 55  1  0
 15 56  1  0
 15 57  1  0
 19 58  1  0
 20 59  1  0
 23 60  1  0
 24 61  1  0
 27 62  1  0
 27 63  1  0
 28 64  1  6
 29 65  1  0
 29 66  1  0
 30 67  1  0
 30 68  1  0
 31 69  1  0
 31 70  1  0
 32 71  1  0
 32 72  1  0
 33 73  1  1
 34 74  1  0
 34 75  1  0
 35 76  1  0
 35 77  1  0
M  END
>  <meeko>  (69) 
{"is_sidechain": false}

$$$$

     RDKit          3D

 70 74  0  0  0  0  0  0  0  0999 V2000
   13.6970    4.4220  -59.6080 C   0  0  0  0  0  0  0  0  0  0  0  0
   12.5750    3.3940  -59.5540 C   0  0  0  0  0  0  0  0  0  0  0  0
   11.9420    3.2760  -58.1630 C   0  0  1  0  0  0  0  0  0  0  0  0
   12.1470    4.5280  -57.2800 C   0  0  0  0  0  0  0  0  0  0  0  0
   10.7950    4.8010  -56.6130 C   0  0  0  0  0  0  0  0  0  0  0  0
    9.7760    4.3410  -57.6640 C   0  0  2  0  0  0  0  0  0  0  0  0
    9.6100    5.4120  -58.7550 C   0  0  0  0  0  0  0  0  0  0  0  0
    8.1280    4.0390  -56.9170 S   0  0  0  0  0  0  0  0  0  0  0  0
    7.5890    2.5390  -57.8350 C   0  0  2  0  0  0  0  0  0  0  0  0
    7.8930    1.4260  -56.9730 N   0  0  0  0  0  0  0  0  0  0  0  0
    7.0740    1.0500  -55.9310 C   0  0  0  0  0  0  0  0  0  0  0  0
    6.0230    1.6490  -55.7070 O   0  0  0  0  0  0  0  0  0  0  0  0
    7.5320   -0.0940  -55.1090 C   0  0  0  0  0  0  0  0  0  0  0  0
    8.3650   -1.0010  -55.6380 N   0  0  0  0  0  0  0  0  0  0  0  0
    8.7340   -1.8290  -54.6300 N   0  0  0  0  0  0  0  0  0  0  0  0
    9.7800   -2.7750  -54.8720 C   0  0  0  0  0  0  0  0  0  0  0  0
    9.6950   -3.6060  -56.0040 C   0  0  0  0  0  0  0  0  0  0  0  0
   10.6910   -4.5470  -56.2780 C   0  0  0  0  0  0  0  0  0  0  0  0
   11.7940   -4.6790  -55.4300 C   0  0  0  0  0  0  0  0  0  0  0  0
   12.8810   -5.6640  -55.7420 C   0  0  0  0  0  0  0  0  0  0  0  0
   11.9020   -3.8280  -54.3260 C   0  0  0  0  0  0  0  0  0  0  0  0
   10.9060   -2.8820  -54.0480 C   0  0  0  0  0  0  0  0  0  0  0  0
    7.9730   -1.5890  -53.4870 C   0  0  0  0  0  0  0  0  0  0  0  0
    7.8940   -2.4370  -52.2960 C   0  0  0  0  0  0  0  0  0  0  0  0
    9.0140   -2.6090  -51.4710 C   0  0  0  0  0  0  0  0  0  0  0  0
    8.9330   -3.4030  -50.3250 C   0  0  0  0  0  0  0  0  0  0  0  0
    7.7290   -4.0240  -49.9910 C   0  0  0  0  0  0  0  0  0  0  0  0
    6.6120   -3.8450  -50.8020 C   0  0  0  0  0  0  0  0  0  0  0  0
    5.1260   -4.6070  -50.3860 Cl  0  0  0  0  0  0  0  0  0  0  0  0
    6.6850   -3.0540  -51.9480 C   0  0  0  0  0  0  0  0  0  0  0  0
    7.2370   -0.4390  -53.7610 C   0  0  0  0  0  0  0  0  0  0  0  0
    6.3460    0.2160  -52.8350 C   0  0  0  0  0  0  0  0  0  0  0  0
    5.0200   -0.0190  -53.0720 N   0  0  0  0  0  0  0  0  0  0  0  0
    6.7160    0.9290  -51.9130 O   0  0  0  0  0  0  0  0  0  0  0  0
    8.1960    2.4030  -59.2380 C   0  0  0  0  0  0  0  0  0  0  0  0
    9.7320    2.3830  -59.3240 C   0  0  0  0  0  0  0  0  0  0  0  0
   10.4130    3.0210  -58.1200 C   0  0  1  0  0  0  0  0  0  0  0  0
   13.9943    4.6944  -58.5846 H   0  0  0  0  0  0  0  0  0  0  0  0
   14.5604    3.9949  -60.1392 H   0  0  0  0  0  0  0  0  0  0  0  0
   13.3469    5.3193  -60.1392 H   0  0  0  0  0  0  0  0  0  0  0  0
   11.7945    3.6880  -60.2712 H   0  0  0  0  0  0  0  0  0  0  0  0
   13.0111    2.4153  -59.8028 H   0  0  0  0  0  0  0  0  0  0  0  0
   12.4799    2.3936  -57.7862 H   0  0  0  0  0  0  0  0  0  0  0  0
   12.9171    4.3364  -56.5183 H   0  0  0  0  0  0  0  0  0  0  0  0
   12.4838    5.3897  -57.8751 H   0  0  0  0  0  0  0  0  0  0  0  0
   10.6907    4.2208  -55.6843 H   0  0  0  0  0  0  0  0  0  0  0  0
   10.6655    5.8544  -56.3238 H   0  0  0  0  0  0  0  0  0  0  0  0
    9.4577    6.3944  -58.2842 H   0  0  0  0  0  0  0  0  0  0  0  0
   10.5143    5.4414  -59.3806 H   0  0  0  0  0  0  0  0  0  0  0  0
    8.7392    5.1663  -59.3806 H   0  0  0  0  0  0  0  0  0  0  0  0
    6.5125    2.5939  -58.0545 H   0  0  0  0  0  0  0  0  0  0  0  0
    8.8370    1.0770  -57.0420 H   0  0  0  0  0  0  0  0  0  0  0  0
    8.8337   -3.5138  -56.6819 H   0  0  0  0  0  0  0  0  0  0  0  0
   10.6063   -5.1885  -57.1676 H   0  0  0  0  0  0  0  0  0  0  0  0
   13.3066   -6.0497  -54.8039 H   0  0  0  0  0  0  0  0  0  0  0  0
   12.4637   -6.4979  -56.3255 H   0  0  0  0  0  0  0  0  0  0  0  0
   13.6699   -5.1668  -56.3255 H   0  0  0  0  0  0  0  0  0  0  0  0
   12.7798   -3.9019  -53.6672 H   0  0  0  0  0  0  0  0  0  0  0  0
   11.0101   -2.2192  -53.1763 H   0  0  0  0  0  0  0  0  0  0  0  0
    9.9629   -2.1154  -51.7279 H   0  0  0  0  0  0  0  0  0  0  0  0
    9.8180   -3.5388  -49.6860 H   0  0  0  0  0  0  0  0  0  0  0  0
    7.6628   -4.6524  -49.0906 H   0  0  0  0  0  0  0  0  0  0  0  0
    5.7943   -2.9145  -52.5783 H   0  0  0  0  0  0  0  0  0  0  0  0
    4.7420   -0.8500  -53.5810 H   0  0  0  0  0  0  0  0  0  0  0  0
    4.3960    0.2760  -52.3290 H   0  0  0  0  0  0  0  0  0  0  0  0
    7.8250    1.4631  -59.6727 H   0  0  0  0  0  0  0  0  0  0  0  0
    7.8867    3.3103  -59.7775 H   0  0  0  0  0  0  0  0  0  0  0  0
   10.0636    1.3368  -59.3985 H   0  0  0  0  0  0  0  0  0  0  0  0
   10.0157    2.9727  -60.2082 H   0  0  0  0  0  0  0  0  0  0  0  0
   10.2444    2.1970  -57.4110 H   0  0  0  0  0  0  0  0  0  0  0  0
  1  2  1  0
  2  3  1  0
  3  4  1  0
  4  5  1  0
  5  6  1  0
  6  7  1  6
  6  8  1  0
  8  9  1  0
  9 10  1  0
 10 11  1  0
 11 12  2  0
 11 13  1  0
 13 14  2  0
 14 15  1  0
 15 16  1  0
 16 17  1  0
 17 18  2  0
 18 19  1  0
 19 20  1  0
 19 21  2  0
 21 22  1  0
 15 23  1  0
 23 24  1  0
 24 25  2  0
 25 26  1  0
 26 27  2  0
 27 28  1  0
 28 29  1  0
 28 30  2  0
 23 31  2  0
 31 32  1  0
 32 33  1  0
 32 34  2  0
  9 35  1  0
 35 36  1  0
 36 37  1  0
 37  3  1  0
 37  6  1  0
 31 13  1  0
 22 16  2  0
 30 24  1  0
  1 38  1  0
  1 39  1  0
  1 40  1  0
  2 41  1  0
  2 42  1  0
  3 43  1  1
  4 44  1  0
  4 45  1  0
  5 46  1  0
  5 47  1  0
  7 48  1  0
  7 49  1  0
  7 50  1  0
  9 51  1  6
 10 52  1  0
 17 53  1  0
 18 54  1  0
 20 55  1  0
 20 56  1  0
 20 57  1  0
 21 58  1  0
 22 59  1  0
 25 60  1  0
 26 61  1  0
 27 62  1  0
 30 63  1  0
 33 64  1  0
 33 65  1  0
 35 66  1  0
 35 67  1  0
 36 68  1  0
 36 69  1  0
 37 70  1  1
M  END
>  <meeko>  (70) 
{"is_sidechain": false}

$$$$

     RDKit          3D

 54 58  0  0  0  0  0  0  0  0999 V2000
   13.1180    7.6800  -60.5420 C   0  0  0  0  0  0  0  0  0  0  0  0
   12.6640    6.3630  -59.9850 C   0  0  0  0  0  0  0  0  0  0  0  0
   13.5910    5.3480  -59.7220 C   0  0  0  0  0  0  0  0  0  0  0  0
   13.1720    4.1360  -59.1710 C   0  0  0  0  0  0  0  0  0  0  0  0
   11.8260    3.9330  -58.8680 C   0  0  0  0  0  0  0  0  0  0  0  0
   10.8840    4.9430  -59.1040 C   0  0  0  0  0  0  0  0  0  0  0  0
    9.4260    4.7270  -58.7740 C   0  0  0  0  0  0  0  0  0  0  0  0
    9.1650    3.3390  -58.3500 N   0  0  0  0  0  0  0  0  0  0  0  0
    7.9840    2.7780  -58.4960 C   0  0  0  0  0  0  0  0  0  0  0  0
    7.0350    2.5690  -59.7080 C   0  0  0  0  0  0  0  0  0  0  0  0
    7.5530    2.6660  -61.0010 C   0  0  0  0  0  0  0  0  0  0  0  0
    6.7130    2.4990  -62.1020 C   0  0  0  0  0  0  0  0  0  0  0  0
    5.3570    2.2310  -61.9060 C   0  0  0  0  0  0  0  0  0  0  0  0
    4.8510    2.1320  -60.6100 C   0  0  0  0  0  0  0  0  0  0  0  0
    3.1750    1.8100  -60.3770 Cl  0  0  0  0  0  0  0  0  0  0  0  0
    5.6820    2.2990  -59.5050 C   0  0  0  0  0  0  0  0  0  0  0  0
    7.9880    2.4150  -57.2040 C   0  0  0  0  0  0  0  0  0  0  0  0
    7.0030    1.6060  -56.4390 C   0  0  0  0  0  0  0  0  0  0  0  0
    5.8510    1.9210  -56.1560 O   0  0  0  0  0  0  0  0  0  0  0  0
    7.5680    0.4060  -56.0720 N   0  0  0  0  0  0  0  0  0  0  0  0
    7.0290   -0.2170  -55.0140 N   0  0  0  0  0  0  0  0  0  0  0  0
    7.7050   -1.1370  -54.2710 C   0  0  0  0  0  0  0  0  0  0  0  0
    6.8640   -1.3650  -53.2070 C   0  0  0  0  0  0  0  0  0  0  0  0
    7.1030   -2.3700  -52.0420 C   0  0  0  0  0  0  0  0  0  0  0  0
    7.9130   -2.1360  -50.9520 C   0  0  0  0  0  0  0  0  0  0  0  0
    7.9320   -3.2440  -50.0520 C   0  0  0  0  0  0  0  0  0  0  0  0
    7.1380   -4.2790  -50.4920 C   0  0  0  0  0  0  0  0  0  0  0  0
    6.3760   -3.9130  -51.9800 S   0  0  0  0  0  0  0  0  0  0  0  0
    5.7660   -0.5520  -53.3120 N   0  0  0  0  0  0  0  0  0  0  0  0
    5.8980    0.1730  -54.4170 N   0  0  0  0  0  0  0  0  0  0  0  0
    9.0860    3.0880  -56.9730 N   0  0  0  0  0  0  0  0  0  0  0  0
   10.2550    2.4590  -56.3580 C   0  0  0  0  0  0  0  0  0  0  0  0
   11.3170    6.1560  -59.6640 C   0  0  0  0  0  0  0  0  0  0  0  0
   13.3544    8.3659  -59.7152 H   0  0  0  0  0  0  0  0  0  0  0  0
   14.0153    7.5272  -61.1596 H   0  0  0  0  0  0  0  0  0  0  0  0
   12.3171    8.1126  -61.1596 H   0  0  0  0  0  0  0  0  0  0  0  0
   14.6553    5.5062  -59.9507 H   0  0  0  0  0  0  0  0  0  0  0  0
   13.9049    3.3394  -58.9754 H   0  0  0  0  0  0  0  0  0  0  0  0
   11.5014    2.9728  -58.4405 H   0  0  0  0  0  0  0  0  0  0  0  0
    9.1395    5.4088  -57.9597 H   0  0  0  0  0  0  0  0  0  0  0  0
    8.8350    4.9268  -59.6800 H   0  0  0  0  0  0  0  0  0  0  0  0
    8.6227    2.8739  -61.1513 H   0  0  0  0  0  0  0  0  0  0  0  0
    7.1178    2.5782  -63.1217 H   0  0  0  0  0  0  0  0  0  0  0  0
    4.6900    2.0984  -62.7706 H   0  0  0  0  0  0  0  0  0  0  0  0
    5.2765    2.2190  -58.4856 H   0  0  0  0  0  0  0  0  0  0  0  0
    8.5780    0.3710  -56.0500 H   0  0  0  0  0  0  0  0  0  0  0  0
    8.6873   -1.5889  -54.4733 H   0  0  0  0  0  0  0  0  0  0  0  0
    8.4781   -1.2055  -50.7941 H   0  0  0  0  0  0  0  0  0  0  0  0
    8.5122   -3.2679  -49.1178 H   0  0  0  0  0  0  0  0  0  0  0  0
    7.0087   -5.2283  -49.9515 H   0  0  0  0  0  0  0  0  0  0  0  0
   10.1641    2.5079  -55.2629 H   0  0  0  0  0  0  0  0  0  0  0  0
   10.3144    1.4072  -56.6744 H   0  0  0  0  0  0  0  0  0  0  0  0
   11.1655    2.9890  -56.6744 H   0  0  0  0  0  0  0  0  0  0  0  0
   10.5863    6.9561  -59.8534 H   0  0  0  0  0  0  0  0  0  0  0  0
  1  2  1  0
  2  3  1  0
  3  4  2  0
  4  5  1  0
  5  6  2  0
  6  7  1  0
  7  8  1  0
  8  9  1  0
  9 10  1  0
 10 11  2  0
 11 12  1  0
 12 13  2  0
 13 14  1  0
 14 15  1  0
 14 16  2  0
  9 17  2  0
 17 18  1  0
 18 19  2  0
 18 20  1  0
 20 21  1  0
 21 22  1  0
 22 23  2  0
 23 24  1  0
 24 25  2  0
 25 26  1  0
 26 27  2  0
 27 28  1  0
 23 29  1  0
 29 30  2  0
 17 31  1  0
 31 32  1  0
  6 33  1  0
 33  2  2  0
 31  8  1  0
 16 10  1  0
 30 21  1  0
 28 24  1  0
  1 34  1  0
  1 35  1  0
  1 36  1  0
  3 37  1  0
  4 38  1  0
  5 39  1  0
  7 40  1  0
  7 41  1  0
 11 42  1  0
 12 43  1  0
 13 44  1  0
 16 45  1  0
 20 46  1  0
 22 47  1  0
 25 48  1  0
 26 49  1  0
 27 50  1  0
 32 51  1  0
 32 52  1  0
 32 53  1  0
 33 54  1  0
M  END
>  <meeko>  (71) 
{"is_sidechain": false}

$$$$

     RDKit          3D

 75 80  0  0  0  0  0  0  0  0999 V2000
   12.4300   -3.5290  -58.6920 C   0  0  0  0  0  0  0  0  0  0  0  0
   11.6040   -3.7230  -57.4600 C   0  0  0  0  0  0  0  0  0  0  0  0
   10.9150   -4.9090  -57.2340 C   0  0  0  0  0  0  0  0  0  0  0  0
   10.1780   -5.1590  -56.1330 N   0  0  0  0  0  0  0  0  0  0  0  0
   10.1380   -4.1900  -55.1960 C   0  0  0  0  0  0  0  0  0  0  0  0
    9.3840   -4.4280  -54.1130 F   0  0  0  0  0  0  0  0  0  0  0  0
   10.8000   -2.9720  -55.3030 C   0  0  0  0  0  0  0  0  0  0  0  0
   10.7240   -1.9610  -54.1990 C   0  0  0  0  0  0  0  0  0  0  0  0
    9.5200   -1.1390  -54.3000 N   0  0  0  0  0  0  0  0  0  0  0  0
    9.4760   -0.1890  -55.2440 N   0  0  0  0  0  0  0  0  0  0  0  0
    8.2570    0.3740  -55.1150 C   0  0  0  0  0  0  0  0  0  0  0  0
    7.8780    1.4460  -56.0600 C   0  0  0  0  0  0  0  0  0  0  0  0
    6.7240    1.6780  -56.4040 O   0  0  0  0  0  0  0  0  0  0  0  0
    8.9680    2.1420  -56.5380 N   0  0  0  0  0  0  0  0  0  0  0  0
    8.9170    3.0780  -57.6520 C   0  0  2  0  0  0  0  0  0  0  0  0
    8.8210    2.3440  -59.0090 C   0  0  0  0  0  0  0  0  0  0  0  0
    8.6630    3.1850  -60.2750 C   0  0  0  0  0  0  0  0  0  0  0  0
    7.9630    4.4960  -60.0550 C   0  0  1  0  0  0  0  0  0  0  0  0
    7.4360    4.8740  -58.6970 C   0  0  0  0  0  0  0  0  0  0  0  0
    8.6590    5.5680  -59.2530 C   0  0  1  0  0  0  0  0  0  0  0  0
   10.0250    5.2970  -58.6580 C   0  0  2  0  0  0  0  0  0  0  0  0
   11.0050    5.0470  -59.8240 C   0  0  0  0  0  0  0  0  0  0  0  0
   12.4260    5.5550  -59.6160 C   0  0  0  0  0  0  0  0  0  0  0  0
   13.2780    4.7880  -58.6180 C   0  0  0  0  0  0  0  0  0  0  0  0
   12.5950    4.5100  -57.2840 C   0  0  0  0  0  0  0  0  0  0  0  0
   11.3910    3.5540  -57.2980 C   0  0  0  0  0  0  0  0  0  0  0  0
   10.0040    4.1980  -57.5410 C   0  0  2  0  0  0  0  0  0  0  0  0
    7.5240   -0.2130  -54.0330 C   0  0  0  0  0  0  0  0  0  0  0  0
    6.1920    0.0600  -53.4960 C   0  0  0  0  0  0  0  0  0  0  0  0
    5.1110   -0.3570  -54.2070 N   0  0  0  0  0  0  0  0  0  0  0  0
    5.9990    0.6410  -52.4310 O   0  0  0  0  0  0  0  0  0  0  0  0
    8.3870   -1.1900  -53.5250 C   0  0  0  0  0  0  0  0  0  0  0  0
    8.1950   -2.1500  -52.4400 C   0  0  0  0  0  0  0  0  0  0  0  0
    9.2630   -2.4710  -51.5920 C   0  0  0  0  0  0  0  0  0  0  0  0
    9.0840   -3.3770  -50.5430 C   0  0  0  0  0  0  0  0  0  0  0  0
    7.8380   -3.9670  -50.3390 C   0  0  0  0  0  0  0  0  0  0  0  0
    6.7780   -3.6570  -51.1900 C   0  0  0  0  0  0  0  0  0  0  0  0
    5.2390   -4.3850  -50.9360 Cl  0  0  0  0  0  0  0  0  0  0  0  0
    6.9500   -2.7550  -52.2400 C   0  0  0  0  0  0  0  0  0  0  0  0
   11.5460   -2.7440  -56.4660 C   0  0  0  0  0  0  0  0  0  0  0  0
   13.4640   -3.2862  -58.4057 H   0  0  0  0  0  0  0  0  0  0  0  0
   12.4221   -4.4534  -59.2881 H   0  0  0  0  0  0  0  0  0  0  0  0
   12.0114   -2.7047  -59.2881 H   0  0  0  0  0  0  0  0  0  0  0  0
   10.9749   -5.6937  -58.0026 H   0  0  0  0  0  0  0  0  0  0  0  0
   10.7159   -2.4877  -53.2334 H   0  0  0  0  0  0  0  0  0  0  0  0
   11.5987   -1.2989  -54.2799 H   0  0  0  0  0  0  0  0  0  0  0  0
    9.8580    1.7440  -56.2460 H   0  0  0  0  0  0  0  0  0  0  0  0
    7.9760    3.6446  -57.5931 H   0  0  0  0  0  0  0  0  0  0  0  0
    9.7398    1.7502  -59.1244 H   0  0  0  0  0  0  0  0  0  0  0  0
    7.8842    1.7712  -58.9435 H   0  0  0  0  0  0  0  0  0  0  0  0
    9.6646    3.3915  -60.6802 H   0  0  0  0  0  0  0  0  0  0  0  0
    8.0374    2.6028  -60.9675 H   0  0  0  0  0  0  0  0  0  0  0  0
    7.5140    4.4267  -61.0568 H   0  0  0  0  0  0  0  0  0  0  0  0
    6.4858    5.4211  -58.6086 H   0  0  0  0  0  0  0  0  0  0  0  0
    7.2064    4.3255  -57.7716 H   0  0  0  0  0  0  0  0  0  0  0  0
    8.9449    6.6152  -59.4309 H   0  0  0  0  0  0  0  0  0  0  0  0
   10.3845    6.1740  -58.0998 H   0  0  0  0  0  0  0  0  0  0  0  0
   11.0562    3.9616  -59.9950 H   0  0  0  0  0  0  0  0  0  0  0  0
   10.6061    5.6159  -60.6768 H   0  0  0  0  0  0  0  0  0  0  0  0
   12.9388    5.5226  -60.5886 H   0  0  0  0  0  0  0  0  0  0  0  0
   12.3167    6.5643  -59.1924 H   0  0  0  0  0  0  0  0  0  0  0  0
   13.5526    3.8238  -59.0706 H   0  0  0  0  0  0  0  0  0  0  0  0
   14.1482    5.4235  -58.3968 H   0  0  0  0  0  0  0  0  0  0  0  0
   13.3500    4.0817  -56.6083 H   0  0  0  0  0  0  0  0  0  0  0  0
   12.1838    5.4800  -56.9679 H   0  0  0  0  0  0  0  0  0  0  0  0
   11.5605    2.8138  -58.0939 H   0  0  0  0  0  0  0  0  0  0  0  0
   11.3428    3.1296  -56.2843 H   0  0  0  0  0  0  0  0  0  0  0  0
    9.7054    4.7973  -56.6683 H   0  0  0  0  0  0  0  0  0  0  0  0
    4.2000   -0.0930  -53.8620 H   0  0  0  0  0  0  0  0  0  0  0  0
    5.1640   -0.7310  -55.1510 H   0  0  0  0  0  0  0  0  0  0  0  0
   10.2476   -2.0075  -51.7527 H   0  0  0  0  0  0  0  0  0  0  0  0
    9.9256   -3.6241  -49.8792 H   0  0  0  0  0  0  0  0  0  0  0  0
    7.6914   -4.6746  -49.5097 H   0  0  0  0  0  0  0  0  0  0  0  0
    6.1088   -2.5202  -52.9088 H   0  0  0  0  0  0  0  0  0  0  0  0
   12.0858   -1.7945  -56.5964 H   0  0  0  0  0  0  0  0  0  0  0  0
  1  2  1  0
  2  3  1  0
  3  4  2  0
  4  5  1  0
  5  6  1  0
  5  7  2  0
  7  8  1  0
  8  9  1  0
  9 10  1  0
 10 11  2  0
 11 12  1  0
 12 13  2  0
 12 14  1  0
 14 15  1  0
 15 16  1  0
 16 17  1  0
 17 18  1  0
 18 19  1  0
 19 20  1  0
 20 21  1  0
 21 22  1  0
 22 23  1  0
 23 24  1  0
 24 25  1  0
 25 26  1  0
 26 27  1  0
 11 28  1  0
 28 29  1  0
 29 30  1  0
 29 31  2  0
 28 32  2  0
 32 33  1  0
 33 34  2  0
 34 35  1  0
 35 36  2  0
 36 37  1  0
 37 38  1  0
 37 39  2  0
  7 40  1  0
 40  2  2  0
 32  9  1  0
 39 33  1  0
 27 15  1  0
 20 18  1  0
 27 21  1  0
  1 41  1  0
  1 42  1  0
  1 43  1  0
  3 44  1  0
  8 45  1  0
  8 46  1  0
 14 47  1  0
 15 48  1  1
 16 49  1  0
 16 50  1  0
 17 51  1  0
 17 52  1  0
 18 53  1  6
 19 54  1  0
 19 55  1  0
 20 56  1  6
 21 57  1  1
 22 58  1  0
 22 59  1  0
 23 60  1  0
 23 61  1  0
 24 62  1  0
 24 63  1  0
 25 64  1  0
 25 65  1  0
 26 66  1  0
 26 67  1  0
 27 68  1  1
 30 69  1  0
 30 70  1  0
 34 71  1  0
 35 72  1  0
 36 73  1  0
 39 74  1  0
 40 75  1  0
M  END
>  <meeko>  (72) 
{"is_sidechain": false}

$$$$

     RDKit          3D

 75 80  0  0  0  0  0  0  0  0999 V2000
   11.0780   -6.3470  -56.8030 C   0  0  0  0  0  0  0  0  0  0  0  0
   11.2850   -4.8740  -56.6410 C   0  0  0  0  0  0  0  0  0  0  0  0
   11.7630   -4.0940  -57.6880 C   0  0  0  0  0  0  0  0  0  0  0  0
   11.9400   -2.7590  -57.6170 N   0  0  0  0  0  0  0  0  0  0  0  0
   11.6050   -2.1620  -56.4540 C   0  0  0  0  0  0  0  0  0  0  0  0
   11.8030   -0.8380  -56.3760 F   0  0  0  0  0  0  0  0  0  0  0  0
   11.0980   -2.8350  -55.3490 C   0  0  0  0  0  0  0  0  0  0  0  0
   10.7310   -2.0920  -54.0990 C   0  0  0  0  0  0  0  0  0  0  0  0
    9.4830   -1.3440  -54.2410 N   0  0  0  0  0  0  0  0  0  0  0  0
    9.3900   -0.4370  -55.2260 N   0  0  0  0  0  0  0  0  0  0  0  0
    8.1460    0.0730  -55.1100 C   0  0  0  0  0  0  0  0  0  0  0  0
    7.7120    1.1010  -56.0770 C   0  0  0  0  0  0  0  0  0  0  0  0
    6.5530    1.4910  -56.1850 O   0  0  0  0  0  0  0  0  0  0  0  0
    8.7490    1.5940  -56.8410 N   0  0  0  0  0  0  0  0  0  0  0  0
    8.6240    2.7390  -57.7360 C   0  0  2  0  0  0  0  0  0  0  0  0
    8.1550    2.2840  -59.1160 C   0  0  0  0  0  0  0  0  0  0  0  0
    7.1160    3.2380  -59.6850 C   0  0  0  0  0  0  0  0  0  0  0  0
    7.6170    4.6090  -60.0490 C   0  0  1  0  0  0  0  0  0  0  0  0
    7.7820    5.7070  -59.0110 C   0  0  0  0  0  0  0  0  0  0  0  0
    8.9860    5.1700  -59.7320 C   0  0  1  0  0  0  0  0  0  0  0  0
   10.1460    4.4730  -59.0530 C   0  0  1  0  0  0  0  0  0  0  0  0
   11.2500    5.5650  -58.8310 C   0  0  0  0  0  0  0  0  0  0  0  0
   12.7030    5.2170  -59.1490 C   0  0  0  0  0  0  0  0  0  0  0  0
   13.1700    3.8490  -58.6580 C   0  0  0  0  0  0  0  0  0  0  0  0
   12.5370    3.3580  -57.3680 C   0  0  0  0  0  0  0  0  0  0  0  0
   11.1680    2.6970  -57.5130 C   0  0  0  0  0  0  0  0  0  0  0  0
    9.9190    3.6050  -57.7840 C   0  0  2  0  0  0  0  0  0  0  0  0
    7.4500   -0.4940  -53.9930 C   0  0  0  0  0  0  0  0  0  0  0  0
    6.1120   -0.2590  -53.4550 C   0  0  0  0  0  0  0  0  0  0  0  0
    5.9660    0.6540  -52.4580 N   0  0  0  0  0  0  0  0  0  0  0  0
    5.1080   -0.8400  -53.8620 O   0  0  0  0  0  0  0  0  0  0  0  0
    8.3630   -1.4020  -53.4470 C   0  0  0  0  0  0  0  0  0  0  0  0
    8.2320   -2.3070  -52.3070 C   0  0  0  0  0  0  0  0  0  0  0  0
    9.3500   -2.6070  -51.5170 C   0  0  0  0  0  0  0  0  0  0  0  0
    9.2300   -3.4560  -50.4160 C   0  0  0  0  0  0  0  0  0  0  0  0
    7.9920   -4.0140  -50.1000 C   0  0  0  0  0  0  0  0  0  0  0  0
    6.8810   -3.7260  -50.8920 C   0  0  0  0  0  0  0  0  0  0  0  0
    5.3530   -4.4100  -50.4970 Cl  0  0  0  0  0  0  0  0  0  0  0  0
    6.9950   -2.8800  -51.9940 C   0  0  0  0  0  0  0  0  0  0  0  0
   10.9420   -4.2210  -55.4560 C   0  0  0  0  0  0  0  0  0  0  0  0
   11.0116   -6.8192  -55.8117 H   0  0  0  0  0  0  0  0  0  0  0  0
   10.1457   -6.5274  -57.3582 H   0  0  0  0  0  0  0  0  0  0  0  0
   11.9245   -6.7774  -57.3582 H   0  0  0  0  0  0  0  0  0  0  0  0
   12.0125   -4.5975  -58.6337 H   0  0  0  0  0  0  0  0  0  0  0  0
   10.6176   -2.8157  -53.2784 H   0  0  0  0  0  0  0  0  0  0  0  0
   11.5334   -1.3689  -53.8910 H   0  0  0  0  0  0  0  0  0  0  0  0
    9.6690    1.2520  -56.5640 H   0  0  0  0  0  0  0  0  0  0  0  0
    7.8512    3.4077  -57.3289 H   0  0  0  0  0  0  0  0  0  0  0  0
    9.0195    2.2482  -59.7952 H   0  0  0  0  0  0  0  0  0  0  0  0
    7.6977    1.2884  -59.0181 H   0  0  0  0  0  0  0  0  0  0  0  0
    6.6978    2.7792  -60.5931 H   0  0  0  0  0  0  0  0  0  0  0  0
    6.3798    3.3919  -58.8823 H   0  0  0  0  0  0  0  0  0  0  0  0
    7.0565    4.4592  -60.9836 H   0  0  0  0  0  0  0  0  0  0  0  0
    7.4216    6.7241  -59.2246 H   0  0  0  0  0  0  0  0  0  0  0  0
    7.4979    5.8277  -57.9552 H   0  0  0  0  0  0  0  0  0  0  0  0
    9.7972    5.5789  -60.3523 H   0  0  0  0  0  0  0  0  0  0  0  0
   10.4280    3.6638  -59.7426 H   0  0  0  0  0  0  0  0  0  0  0  0
   10.9803    6.4293  -59.4558 H   0  0  0  0  0  0  0  0  0  0  0  0
   11.2474    5.7289  -57.7433 H   0  0  0  0  0  0  0  0  0  0  0  0
   12.8280    5.2465  -60.2415 H   0  0  0  0  0  0  0  0  0  0  0  0
   13.3165    5.9571  -58.6143 H   0  0  0  0  0  0  0  0  0  0  0  0
   12.9462    3.1136  -59.4449 H   0  0  0  0  0  0  0  0  0  0  0  0
   14.2426    3.9599  -58.4409 H   0  0  0  0  0  0  0  0  0  0  0  0
   13.2200    2.6251  -56.9138 H   0  0  0  0  0  0  0  0  0  0  0  0
   12.3736    4.2554  -56.7532 H   0  0  0  0  0  0  0  0  0  0  0  0
   11.2388    1.9856  -58.3490 H   0  0  0  0  0  0  0  0  0  0  0  0
   10.9736    2.2643  -56.5205 H   0  0  0  0  0  0  0  0  0  0  0  0
    9.7740    4.3519  -56.9896 H   0  0  0  0  0  0  0  0  0  0  0  0
    6.7500    1.0330  -51.9330 H   0  0  0  0  0  0  0  0  0  0  0  0
    5.0530    0.7210  -52.0320 H   0  0  0  0  0  0  0  0  0  0  0  0
   10.3284   -2.1705  -51.7664 H   0  0  0  0  0  0  0  0  0  0  0  0
   10.1110   -3.6847  -49.7983 H   0  0  0  0  0  0  0  0  0  0  0  0
    7.8920   -4.6788  -49.2293 H   0  0  0  0  0  0  0  0  0  0  0  0
    6.1140   -2.6635  -52.6161 H   0  0  0  0  0  0  0  0  0  0  0  0
   10.5486   -4.7969  -54.6054 H   0  0  0  0  0  0  0  0  0  0  0  0
  1  2  1  0
  2  3  1  0
  3  4  2  0
  4  5  1  0
  5  6  1  0
  5  7  2  0
  7  8  1  0
  8  9  1  0
  9 10  1  0
 10 11  2  0
 11 12  1  0
 12 13  2  0
 12 14  1  0
 14 15  1  0
 15 16  1  0
 16 17  1  0
 17 18  1  0
 18 19  1  0
 19 20  1  0
 20 21  1  0
 21 22  1  0
 22 23  1  0
 23 24  1  0
 24 25  1  0
 25 26  1  0
 26 27  1  0
 11 28  1  0
 28 29  1  0
 29 30  1  0
 29 31  2  0
 28 32  2  0
 32 33  1  0
 33 34  2  0
 34 35  1  0
 35 36  2  0
 36 37  1  0
 37 38  1  0
 37 39  2  0
  7 40  1  0
 40  2  2  0
 32  9  1  0
 39 33  1  0
 27 15  1  0
 20 18  1  0
 27 21  1  0
  1 41  1  0
  1 42  1  0
  1 43  1  0
  3 44  1  0
  8 45  1  0
  8 46  1  0
 14 47  1  0
 15 48  1  1
 16 49  1  0
 16 50  1  0
 17 51  1  0
 17 52  1  0
 18 53  1  6
 19 54  1  0
 19 55  1  0
 20 56  1  6
 21 57  1  6
 22 58  1  0
 22 59  1  0
 23 60  1  0
 23 61  1  0
 24 62  1  0
 24 63  1  0
 25 64  1  0
 25 65  1  0
 26 66  1  0
 26 67  1  0
 27 68  1  1
 30 69  1  0
 30 70  1  0
 34 71  1  0
 35 72  1  0
 36 73  1  0
 39 74  1  0
 40 75  1  0
M  END
>  <meeko>  (73) 
{"is_sidechain": false}

$$$$

     RDKit          3D

 75 80  0  0  0  0  0  0  0  0999 V2000
   10.8930   -6.2440  -56.8060 C   0  0  0  0  0  0  0  0  0  0  0  0
   11.1400   -4.7810  -56.6130 C   0  0  0  0  0  0  0  0  0  0  0  0
   11.6810   -4.0060  -57.6310 C   0  0  0  0  0  0  0  0  0  0  0  0
   11.9060   -2.6790  -57.5320 N   0  0  0  0  0  0  0  0  0  0  0  0
   11.5780   -2.0900  -56.3640 C   0  0  0  0  0  0  0  0  0  0  0  0
   11.7880   -0.7690  -56.2750 F   0  0  0  0  0  0  0  0  0  0  0  0
   11.0340   -2.7630  -55.2770 C   0  0  0  0  0  0  0  0  0  0  0  0
   10.7080   -2.0440  -54.0030 C   0  0  0  0  0  0  0  0  0  0  0  0
    9.4830   -1.2490  -54.0880 N   0  0  0  0  0  0  0  0  0  0  0  0
    9.3650   -0.3610  -55.0970 N   0  0  0  0  0  0  0  0  0  0  0  0
    8.1190    0.1410  -54.9630 C   0  0  0  0  0  0  0  0  0  0  0  0
    7.6360    1.2200  -55.8430 C   0  0  0  0  0  0  0  0  0  0  0  0
    6.5010    1.6810  -55.7910 O   0  0  0  0  0  0  0  0  0  0  0  0
    8.6070    1.6800  -56.7050 N   0  0  0  0  0  0  0  0  0  0  0  0
    8.3590    2.6620  -57.7550 C   0  0  2  0  0  0  0  0  0  0  0  0
    6.9220    2.4920  -58.2940 C   0  0  0  0  0  0  0  0  0  0  0  0
    6.7810    1.4910  -59.4350 C   0  0  0  0  0  0  0  0  0  0  0  0
    7.2890    1.9030  -60.8030 C   0  0  1  0  0  0  0  0  0  0  0  0
    7.0030    3.2690  -61.3760 C   0  0  0  0  0  0  0  0  0  0  0  0
    8.4300    2.8630  -61.0820 C   0  0  1  0  0  0  0  0  0  0  0  0
    9.2080    3.5710  -59.9930 C   0  0  2  0  0  0  0  0  0  0  0  0
   10.4280    4.3080  -60.5870 C   0  0  0  0  0  0  0  0  0  0  0  0
   10.9520    5.5330  -59.8390 C   0  0  0  0  0  0  0  0  0  0  0  0
   11.7330    5.2580  -58.5450 C   0  0  0  0  0  0  0  0  0  0  0  0
   11.0830    4.2530  -57.6010 C   0  0  0  0  0  0  0  0  0  0  0  0
   10.8610    2.8350  -58.1430 C   0  0  0  0  0  0  0  0  0  0  0  0
    9.4940    2.5920  -58.8210 C   0  0  1  0  0  0  0  0  0  0  0  0
    7.4240   -0.4930  -53.8990 C   0  0  0  0  0  0  0  0  0  0  0  0
    6.0400   -0.3100  -53.5210 C   0  0  0  0  0  0  0  0  0  0  0  0
    5.1350   -0.9500  -54.3170 N   0  0  0  0  0  0  0  0  0  0  0  0
    5.6840    0.3820  -52.5770 O   0  0  0  0  0  0  0  0  0  0  0  0
    8.3420   -1.3640  -53.3240 C   0  0  0  0  0  0  0  0  0  0  0  0
    8.1750   -2.3030  -52.2220 C   0  0  0  0  0  0  0  0  0  0  0  0
    9.2660   -2.6330  -51.4100 C   0  0  0  0  0  0  0  0  0  0  0  0
    9.1090   -3.5280  -50.3500 C   0  0  0  0  0  0  0  0  0  0  0  0
    7.8620   -4.1000  -50.0980 C   0  0  0  0  0  0  0  0  0  0  0  0
    6.7780   -3.7800  -50.9130 C   0  0  0  0  0  0  0  0  0  0  0  0
    5.2370   -4.4740  -50.5950 Cl  0  0  0  0  0  0  0  0  0  0  0  0
    6.9290   -2.8930  -51.9780 C   0  0  0  0  0  0  0  0  0  0  0  0
   10.7920   -4.1340  -55.4260 C   0  0  0  0  0  0  0  0  0  0  0  0
   10.8102   -6.7344  -55.8249 H   0  0  0  0  0  0  0  0  0  0  0  0
    9.9580   -6.3871  -57.3675 H   0  0  0  0  0  0  0  0  0  0  0  0
   11.7292   -6.6861  -57.3675 H   0  0  0  0  0  0  0  0  0  0  0  0
   11.9421   -4.5046  -58.5761 H   0  0  0  0  0  0  0  0  0  0  0  0
   10.5869   -2.7885  -53.2024 H   0  0  0  0  0  0  0  0  0  0  0  0
   11.5357   -1.3489  -53.7986 H   0  0  0  0  0  0  0  0  0  0  0  0
    9.4900    1.1760  -56.6660 H   0  0  0  0  0  0  0  0  0  0  0  0
    8.3993    3.6902  -57.3661 H   0  0  0  0  0  0  0  0  0  0  0  0
    6.2827    2.1569  -57.4639 H   0  0  0  0  0  0  0  0  0  0  0  0
    6.6268    3.4699  -58.7020 H   0  0  0  0  0  0  0  0  0  0  0  0
    7.3261    0.5813  -59.1428 H   0  0  0  0  0  0  0  0  0  0  0  0
    5.6954    1.3718  -59.5667 H   0  0  0  0  0  0  0  0  0  0  0  0
    7.1009    0.8559  -61.0828 H   0  0  0  0  0  0  0  0  0  0  0  0
    6.6635    3.3676  -62.4177 H   0  0  0  0  0  0  0  0  0  0  0  0
    6.3608    4.1136  -61.0856 H   0  0  0  0  0  0  0  0  0  0  0  0
    9.3707    2.7808  -61.6462 H   0  0  0  0  0  0  0  0  0  0  0  0
    8.6109    4.3759  -59.5395 H   0  0  0  0  0  0  0  0  0  0  0  0
   11.2526    3.5825  -60.6472 H   0  0  0  0  0  0  0  0  0  0  0  0
   10.0723    4.7020  -61.5505 H   0  0  0  0  0  0  0  0  0  0  0  0
   11.6168    6.0831  -60.5212 H   0  0  0  0  0  0  0  0  0  0  0  0
   10.0569    6.0918  -59.5281 H   0  0  0  0  0  0  0  0  0  0  0  0
   12.7261    4.8739  -58.8210 H   0  0  0  0  0  0  0  0  0  0  0  0
   11.7698    6.2125  -57.9996 H   0  0  0  0  0  0  0  0  0  0  0  0
   11.7230    4.1718  -56.7100 H   0  0  0  0  0  0  0  0  0  0  0  0
   10.0744    4.6487  -57.4111 H   0  0  0  0  0  0  0  0  0  0  0  0
   11.6484    2.6270  -58.8824 H   0  0  0  0  0  0  0  0  0  0  0  0
   10.8889    2.1681  -57.2686 H   0  0  0  0  0  0  0  0  0  0  0  0
    9.5273    1.5866  -59.2660 H   0  0  0  0  0  0  0  0  0  0  0  0
    4.1760   -0.9440  -53.9990 H   0  0  0  0  0  0  0  0  0  0  0  0
    5.4230   -1.6540  -54.9800 H   0  0  0  0  0  0  0  0  0  0  0  0
   10.2512   -2.1854  -51.6077 H   0  0  0  0  0  0  0  0  0  0  0  0
    9.9692   -3.7822  -49.7132 H   0  0  0  0  0  0  0  0  0  0  0  0
    7.7349   -4.8006  -49.2596 H   0  0  0  0  0  0  0  0  0  0  0  0
    6.0712   -2.6573  -52.6250 H   0  0  0  0  0  0  0  0  0  0  0  0
   10.3271   -4.7020  -54.6067 H   0  0  0  0  0  0  0  0  0  0  0  0
  1  2  1  0
  2  3  1  0
  3  4  2  0
  4  5  1  0
  5  6  1  0
  5  7  2  0
  7  8  1  0
  8  9  1  0
  9 10  1  0
 10 11  2  0
 11 12  1  0
 12 13  2  0
 12 14  1  0
 14 15  1  0
 15 16  1  0
 16 17  1  0
 17 18  1  0
 18 19  1  0
 19 20  1  0
 20 21  1  0
 21 22  1  0
 22 23  1  0
 23 24  1  0
 24 25  1  0
 25 26  1  0
 26 27  1  0
 11 28  1  0
 28 29  1  0
 29 30  1  0
 29 31  2  0
 28 32  2  0
 32 33  1  0
 33 34  2  0
 34 35  1  0
 35 36  2  0
 36 37  1  0
 37 38  1  0
 37 39  2  0
  7 40  1  0
 40  2  2  0
 32  9  1  0
 39 33  1  0
 27 15  1  0
 20 18  1  0
 27 21  1  0
  1 41  1  0
  1 42  1  0
  1 43  1  0
  3 44  1  0
  8 45  1  0
  8 46  1  0
 14 47  1  0
 15 48  1  1
 16 49  1  0
 16 50  1  0
 17 51  1  0
 17 52  1  0
 18 53  1  6
 19 54  1  0
 19 55  1  0
 20 56  1  6
 21 57  1  1
 22 58  1  0
 22 59  1  0
 23 60  1  0
 23 61  1  0
 24 62  1  0
 24 63  1  0
 25 64  1  0
 25 65  1  0
 26 66  1  0
 26 67  1  0
 27 68  1  6
 30 69  1  0
 30 70  1  0
 34 71  1  0
 35 72  1  0
 36 73  1  0
 39 74  1  0
 40 75  1  0
M  END
>  <meeko>  (74) 
{"is_sidechain": false}

$$$$

     RDKit          3D

 75 80  0  0  0  0  0  0  0  0999 V2000
   10.9460   -6.3130  -56.5180 C   0  0  0  0  0  0  0  0  0  0  0  0
   11.1790   -4.8390  -56.4140 C   0  0  0  0  0  0  0  0  0  0  0  0
   11.7190   -4.1180  -57.4720 C   0  0  0  0  0  0  0  0  0  0  0  0
   11.9200   -2.7820  -57.4540 N   0  0  0  0  0  0  0  0  0  0  0  0
   11.5520   -2.1300  -56.3320 C   0  0  0  0  0  0  0  0  0  0  0  0
   11.7400   -0.8010  -56.3180 F   0  0  0  0  0  0  0  0  0  0  0  0
   11.0080   -2.7410  -55.2110 C   0  0  0  0  0  0  0  0  0  0  0  0
   10.6290   -1.9290  -54.0080 C   0  0  0  0  0  0  0  0  0  0  0  0
    9.3420   -1.2580  -54.1820 N   0  0  0  0  0  0  0  0  0  0  0  0
    9.2320   -0.3460  -55.1560 N   0  0  0  0  0  0  0  0  0  0  0  0
    7.9920    0.1680  -55.0410 C   0  0  0  0  0  0  0  0  0  0  0  0
    7.5600    1.1990  -56.0230 C   0  0  0  0  0  0  0  0  0  0  0  0
    6.8780    2.1690  -55.6900 O   0  0  0  0  0  0  0  0  0  0  0  0
    7.9600    1.0350  -57.3340 N   0  0  0  0  0  0  0  0  0  0  0  0
    7.5010    1.9120  -58.4140 C   0  0  2  0  0  0  0  0  0  0  0  0
    6.3170    1.2010  -59.1080 C   0  0  0  0  0  0  0  0  0  0  0  0
    5.5820    2.0270  -60.1570 C   0  0  0  0  0  0  0  0  0  0  0  0
    6.3200    2.0780  -61.4580 C   0  0  1  0  0  0  0  0  0  0  0  0
    6.3940    3.3700  -62.2290 C   0  0  0  0  0  0  0  0  0  0  0  0
    7.6430    2.7940  -61.5990 C   0  0  1  0  0  0  0  0  0  0  0  0
    8.3700    3.3790  -60.4020 C   0  0  1  0  0  0  0  0  0  0  0  0
    7.7570    4.6870  -59.8720 C   0  0  0  0  0  0  0  0  0  0  0  0
    8.6210    5.6140  -59.0180 C   0  0  0  0  0  0  0  0  0  0  0  0
    9.5390    4.9550  -57.9930 C   0  0  0  0  0  0  0  0  0  0  0  0
   10.5150    3.9750  -58.6330 C   0  0  0  0  0  0  0  0  0  0  0  0
   10.0280    2.5330  -58.6670 C   0  0  0  0  0  0  0  0  0  0  0  0
    8.6760    2.2550  -59.3720 C   0  0  1  0  0  0  0  0  0  0  0  0
    7.3010   -0.4590  -53.9450 C   0  0  0  0  0  0  0  0  0  0  0  0
    5.9630   -0.1800  -53.4570 C   0  0  0  0  0  0  0  0  0  0  0  0
    5.8510    0.7040  -52.4260 N   0  0  0  0  0  0  0  0  0  0  0  0
    4.9590   -0.7160  -53.9160 O   0  0  0  0  0  0  0  0  0  0  0  0
    8.2030   -1.3900  -53.4260 C   0  0  0  0  0  0  0  0  0  0  0  0
    8.0970   -2.2900  -52.2820 C   0  0  0  0  0  0  0  0  0  0  0  0
    9.2260   -2.5880  -51.5100 C   0  0  0  0  0  0  0  0  0  0  0  0
    9.1260   -3.4490  -50.4160 C   0  0  0  0  0  0  0  0  0  0  0  0
    7.8970   -4.0260  -50.0960 C   0  0  0  0  0  0  0  0  0  0  0  0
    6.7740   -3.7390  -50.8700 C   0  0  0  0  0  0  0  0  0  0  0  0
    5.2610   -4.4570  -50.4760 Cl  0  0  0  0  0  0  0  0  0  0  0  0
    6.8670   -2.8760  -51.9610 C   0  0  0  0  0  0  0  0  0  0  0  0
   10.8050   -4.1260  -55.2730 C   0  0  0  0  0  0  0  0  0  0  0  0
   10.8776   -6.7455  -55.5089 H   0  0  0  0  0  0  0  0  0  0  0  0
   10.0074   -6.4985  -57.0608 H   0  0  0  0  0  0  0  0  0  0  0  0
   11.7816   -6.7789  -57.0608 H   0  0  0  0  0  0  0  0  0  0  0  0
   12.0005   -4.6695  -58.3812 H   0  0  0  0  0  0  0  0  0  0  0  0
   10.5666   -2.5956  -53.1352 H   0  0  0  0  0  0  0  0  0  0  0  0
   11.3981   -1.1557  -53.8647 H   0  0  0  0  0  0  0  0  0  0  0  0
    8.3460    0.1360  -57.6140 H   0  0  0  0  0  0  0  0  0  0  0  0
    7.1498    2.8827  -58.0339 H   0  0  0  0  0  0  0  0  0  0  0  0
    6.7051    0.2965  -59.5992 H   0  0  0  0  0  0  0  0  0  0  0  0
    5.5821    0.9935  -58.3163 H   0  0  0  0  0  0  0  0  0  0  0  0
    4.5917    1.5802  -60.3292 H   0  0  0  0  0  0  0  0  0  0  0  0
    5.4975    3.0558  -59.7771 H   0  0  0  0  0  0  0  0  0  0  0  0
    5.9791    1.0532  -61.6666 H   0  0  0  0  0  0  0  0  0  0  0  0
    6.2774    3.3650  -63.3228 H   0  0  0  0  0  0  0  0  0  0  0  0
    5.8723    4.3371  -62.1776 H   0  0  0  0  0  0  0  0  0  0  0  0
    8.6462    2.5541  -61.9811 H   0  0  0  0  0  0  0  0  0  0  0  0
    9.3552    3.7528  -60.7178 H   0  0  0  0  0  0  0  0  0  0  0  0
    7.4280    5.2672  -60.7468 H   0  0  0  0  0  0  0  0  0  0  0  0
    6.9685    4.3502  -59.1830 H   0  0  0  0  0  0  0  0  0  0  0  0
    9.2530    6.2010  -59.7006 H   0  0  0  0  0  0  0  0  0  0  0  0
    7.9070    6.2041  -58.4247 H   0  0  0  0  0  0  0  0  0  0  0  0
   10.1128    5.7389  -57.4770 H   0  0  0  0  0  0  0  0  0  0  0  0
    8.9077    4.3899  -57.2915 H   0  0  0  0  0  0  0  0  0  0  0  0
   10.6999    4.3000  -59.6675 H   0  0  0  0  0  0  0  0  0  0  0  0
   11.4224    3.9850  -58.0112 H   0  0  0  0  0  0  0  0  0  0  0  0
   10.7968    1.9368  -59.1802 H   0  0  0  0  0  0  0  0  0  0  0  0
    9.8563    2.2684  -57.6132 H   0  0  0  0  0  0  0  0  0  0  0  0
    8.7867    1.3165  -59.9349 H   0  0  0  0  0  0  0  0  0  0  0  0
    6.6480    1.1210  -51.9670 H   0  0  0  0  0  0  0  0  0  0  0  0
    4.9290    0.8920  -52.0590 H   0  0  0  0  0  0  0  0  0  0  0  0
   10.1977   -2.1410  -51.7670 H   0  0  0  0  0  0  0  0  0  0  0  0
   10.0147   -3.6721  -49.8073 H   0  0  0  0  0  0  0  0  0  0  0  0
    7.8144   -4.7057  -49.2351 H   0  0  0  0  0  0  0  0  0  0  0  0
    5.9763   -2.6562  -52.5679 H   0  0  0  0  0  0  0  0  0  0  0  0
   10.3501   -4.6527  -54.4212 H   0  0  0  0  0  0  0  0  0  0  0  0
  1  2  1  0
  2  3  1  0
  3  4  2  0
  4  5  1  0
  5  6  1  0
  5  7  2  0
  7  8  1  0
  8  9  1  0
  9 10  1  0
 10 11  2  0
 11 12  1  0
 12 13  2  0
 12 14  1  0
 14 15  1  0
 15 16  1  0
 16 17  1  0
 17 18  1  0
 18 19  1  0
 19 20  1  0
 20 21  1  0
 21 22  1  0
 22 23  1  0
 23 24  1  0
 24 25  1  0
 25 26  1  0
 26 27  1  0
 11 28  1  0
 28 29  1  0
 29 30  1  0
 29 31  2  0
 28 32  2  0
 32 33  1  0
 33 34  2  0
 34 35  1  0
 35 36  2  0
 36 37  1  0
 37 38  1  0
 37 39  2  0
  7 40  1  0
 40  2  2  0
 32  9  1  0
 39 33  1  0
 27 15  1  0
 20 18  1  0
 27 21  1  0
  1 41  1  0
  1 42  1  0
  1 43  1  0
  3 44  1  0
  8 45  1  0
  8 46  1  0
 14 47  1  0
 15 48  1  1
 16 49  1  0
 16 50  1  0
 17 51  1  0
 17 52  1  0
 18 53  1  6
 19 54  1  0
 19 55  1  0
 20 56  1  6
 21 57  1  6
 22 58  1  0
 22 59  1  0
 23 60  1  0
 23 61  1  0
 24 62  1  0
 24 63  1  0
 25 64  1  0
 25 65  1  0
 26 66  1  0
 26 67  1  0
 27 68  1  6
 30 69  1  0
 30 70  1  0
 34 71  1  0
 35 72  1  0
 36 73  1  0
 39 74  1  0
 40 75  1  0
M  END
>  <meeko>  (75) 
{"is_sidechain": false}

$$$$

     RDKit          3D

 48 51  0  0  0  0  0  0  0  0999 V2000
    7.2110    1.5060  -56.1770 O   0  0  0  0  0  0  0  0  0  0  0  0
    8.3410    1.2040  -55.7770 C   0  0  0  0  0  0  0  0  0  0  0  0
    9.4170    2.0170  -56.0620 N   0  0  0  0  0  0  0  0  0  0  0  0
    9.3080    3.2380  -56.8590 C   0  0  0  0  0  0  0  0  0  0  0  0
    9.9580    4.4870  -56.2130 C   0  0  0  0  0  0  0  0  0  0  0  0
   10.4390    4.8740  -57.6260 C   0  0  0  0  0  0  0  0  0  0  0  0
   10.3660    3.3760  -57.9800 C   0  0  0  0  0  0  0  0  0  0  0  0
    8.5930   -0.0160  -54.9650 C   0  0  0  0  0  0  0  0  0  0  0  0
    9.6950   -0.7570  -55.2250 N   0  0  0  0  0  0  0  0  0  0  0  0
    9.6580   -1.7690  -54.3340 N   0  0  0  0  0  0  0  0  0  0  0  0
   10.8050   -2.6700  -54.2640 C   0  0  0  0  0  0  0  0  0  0  0  0
   11.0990   -3.3700  -55.5710 C   0  0  0  0  0  0  0  0  0  0  0  0
   11.6810   -2.6820  -56.6470 C   0  0  0  0  0  0  0  0  0  0  0  0
   11.9650   -3.3420  -57.8440 C   0  0  0  0  0  0  0  0  0  0  0  0
   11.6800   -4.6990  -57.9770 C   0  0  0  0  0  0  0  0  0  0  0  0
   11.1140   -5.3990  -56.9140 C   0  0  0  0  0  0  0  0  0  0  0  0
   10.8290   -4.7400  -55.7160 C   0  0  0  0  0  0  0  0  0  0  0  0
    8.5660   -1.7430  -53.5030 C   0  0  0  0  0  0  0  0  0  0  0  0
    8.2840   -2.7510  -52.4870 C   0  0  0  0  0  0  0  0  0  0  0  0
    7.4500   -3.8350  -52.7720 C   0  0  0  0  0  0  0  0  0  0  0  0
    7.1560   -4.7820  -51.7880 C   0  0  0  0  0  0  0  0  0  0  0  0
    7.6970   -4.6520  -50.5090 C   0  0  0  0  0  0  0  0  0  0  0  0
    8.5430   -3.5830  -50.2190 C   0  0  0  0  0  0  0  0  0  0  0  0
    8.8390   -2.6400  -51.2070 C   0  0  0  0  0  0  0  0  0  0  0  0
    7.8880   -0.5910  -53.8660 C   0  0  0  0  0  0  0  0  0  0  0  0
    6.6040   -0.0170  -53.2020 C   0  0  0  0  0  0  0  0  0  0  0  0
    5.5070   -0.3540  -53.7480 O   0  0  0  0  0  0  0  0  0  0  0  0
    6.7480    0.7570  -52.2110 O   0  0  0  0  0  0  0  0  0  0  0  0
   10.3320    1.7340  -55.6780 H   0  0  0  0  0  0  0  0  0  0  0  0
    8.2311    3.1828  -57.0764 H   0  0  0  0  0  0  0  0  0  0  0  0
    9.2467    5.1932  -55.7598 H   0  0  0  0  0  0  0  0  0  0  0  0
   10.6530    4.4071  -55.3641 H   0  0  0  0  0  0  0  0  0  0  0  0
    9.7438    5.5139  -58.1891 H   0  0  0  0  0  0  0  0  0  0  0  0
   11.3526    5.4651  -57.7870 H   0  0  0  0  0  0  0  0  0  0  0  0
    9.9937    3.1606  -58.9924 H   0  0  0  0  0  0  0  0  0  0  0  0
   11.2647    2.7425  -58.0111 H   0  0  0  0  0  0  0  0  0  0  0  0
   11.6906   -2.0852  -53.9747 H   0  0  0  0  0  0  0  0  0  0  0  0
   10.5618   -3.4487  -53.5261 H   0  0  0  0  0  0  0  0  0  0  0  0
   11.9157   -1.6121  -56.5462 H   0  0  0  0  0  0  0  0  0  0  0  0
   12.4142   -2.7900  -58.6828 H   0  0  0  0  0  0  0  0  0  0  0  0
   11.9019   -5.2177  -58.9213 H   0  0  0  0  0  0  0  0  0  0  0  0
   10.8914   -6.4712  -57.0181 H   0  0  0  0  0  0  0  0  0  0  0  0
   10.3886   -5.3000  -54.8778 H   0  0  0  0  0  0  0  0  0  0  0  0
    7.0214   -3.9437  -53.7792 H   0  0  0  0  0  0  0  0  0  0  0  0
    6.4971   -5.6311  -52.0221 H   0  0  0  0  0  0  0  0  0  0  0  0
    7.4565   -5.3915  -49.7310 H   0  0  0  0  0  0  0  0  0  0  0  0
    8.9773   -3.4817  -49.2134 H   0  0  0  0  0  0  0  0  0  0  0  0
    9.5144   -1.8029  -50.9765 H   0  0  0  0  0  0  0  0  0  0  0  0
  1  2  2  0
  2  3  1  0
  3  4  1  0
  4  5  1  0
  5  6  1  0
  6  7  1  0
  2  8  1  0
  8  9  2  0
  9 10  1  0
 10 11  1  0
 11 12  1  0
 12 13  2  0
 13 14  1  0
 14 15  2  0
 15 16  1  0
 16 17  2  0
 10 18  1  0
 18 19  1  0
 19 20  2  0
 20 21  1  0
 21 22  2  0
 22 23  1  0
 23 24  2  0
 18 25  2  0
 25 26  1  0
 26 27  2  0
 26 28  1  0
  7  4  1  0
 25  8  1  0
 17 12  1  0
 24 19  1  0
  3 29  1  0
  4 30  1  0
  5 31  1  0
  5 32  1  0
  6 33  1  0
  6 34  1  0
  7 35  1  0
  7 36  1  0
 11 37  1  0
 11 38  1  0
 13 39  1  0
 14 40  1  0
 15 41  1  0
 16 42  1  0
 17 43  1  0
 20 44  1  0
 21 45  1  0
 22 46  1  0
 23 47  1  0
 24 48  1  0
M  CHG  1  28  -1
M  END
>  <meeko>  (76) 
{"is_sidechain": false}

$$$$

     RDKit          3D

 69 73  0  0  0  0  0  0  0  0999 V2000
    6.5430   -3.2180  -54.4400 C   0  0  0  0  0  0  0  0  0  0  0  0
    7.3540   -3.2540  -53.1720 C   0  0  0  0  0  0  0  0  0  0  0  0
    7.0810   -4.2520  -52.2220 C   0  0  0  0  0  0  0  0  0  0  0  0
    7.8180   -4.3380  -51.0400 C   0  0  0  0  0  0  0  0  0  0  0  0
    8.8460   -3.4350  -50.7930 C   0  0  0  0  0  0  0  0  0  0  0  0
    9.1390   -2.4450  -51.7310 C   0  0  0  0  0  0  0  0  0  0  0  0
    8.4020   -2.3460  -52.9230 C   0  0  0  0  0  0  0  0  0  0  0  0
    8.7630   -1.2990  -53.8780 C   0  0  0  0  0  0  0  0  0  0  0  0
    8.1020   -0.1270  -54.2390 C   0  0  0  0  0  0  0  0  0  0  0  0
    6.8460    0.3830  -53.7260 C   0  0  0  0  0  0  0  0  0  0  0  0
    6.8030    0.6270  -52.3840 N   0  0  0  0  0  0  0  0  0  0  0  0
    5.8730    0.6240  -54.4310 O   0  0  0  0  0  0  0  0  0  0  0  0
    8.9570    0.5040  -55.1860 C   0  0  0  0  0  0  0  0  0  0  0  0
    8.7230    1.7410  -55.9530 C   0  0  0  0  0  0  0  0  0  0  0  0
    9.3670    2.7730  -55.8040 O   0  0  0  0  0  0  0  0  0  0  0  0
    7.6550    1.6260  -56.8180 N   0  0  0  0  0  0  0  0  0  0  0  0
    7.1120    2.7380  -57.5750 C   0  0  2  0  0  0  0  0  0  0  0  0
    6.4320    2.2630  -58.8630 C   0  0  0  0  0  0  0  0  0  0  0  0
    7.4020    1.6070  -59.8470 C   0  0  0  0  0  0  0  0  0  0  0  0
    8.8410    2.1090  -59.7320 C   0  0  0  0  0  0  0  0  0  0  0  0
    8.9170    3.5590  -59.2340 C   0  0  2  0  0  0  0  0  0  0  0  0
   10.3450    4.0740  -59.2100 C   0  0  0  0  0  0  0  0  0  0  0  0
   10.6640    5.2980  -59.8170 C   0  0  0  0  0  0  0  0  0  0  0  0
   11.9750    5.7810  -59.8040 C   0  0  0  0  0  0  0  0  0  0  0  0
   12.9870    5.0490  -59.1840 C   0  0  0  0  0  0  0  0  0  0  0  0
   12.6870    3.8320  -58.5770 C   0  0  0  0  0  0  0  0  0  0  0  0
   11.3790    3.3570  -58.5930 C   0  0  0  0  0  0  0  0  0  0  0  0
   11.1200    2.1840  -57.9930 F   0  0  0  0  0  0  0  0  0  0  0  0
    8.2080    3.7710  -57.8770 C   0  0  0  0  0  0  0  0  0  0  0  0
   10.0920   -0.2020  -55.3700 N   0  0  0  0  0  0  0  0  0  0  0  0
    9.9670   -1.2600  -54.5450 N   0  0  0  0  0  0  0  0  0  0  0  0
   11.0690   -2.2170  -54.4680 C   0  0  0  0  0  0  0  0  0  0  0  0
   11.1780   -3.0570  -55.7160 C   0  0  0  0  0  0  0  0  0  0  0  0
   11.8150   -2.5520  -56.8610 C   0  0  0  0  0  0  0  0  0  0  0  0
   11.9240   -3.3320  -58.0140 C   0  0  0  0  0  0  0  0  0  0  0  0
   11.3950   -4.6210  -58.0360 C   0  0  0  0  0  0  0  0  0  0  0  0
   10.7570   -5.1320  -56.9080 C   0  0  0  0  0  0  0  0  0  0  0  0
   10.6460   -4.3540  -55.7540 C   0  0  0  0  0  0  0  0  0  0  0  0
    5.4729   -3.1705  -54.1896 H   0  0  0  0  0  0  0  0  0  0  0  0
    6.8216   -2.3313  -55.0284 H   0  0  0  0  0  0  0  0  0  0  0  0
    6.7419   -4.1259  -55.0284 H   0  0  0  0  0  0  0  0  0  0  0  0
    6.2750   -4.9759  -52.4124 H   0  0  0  0  0  0  0  0  0  0  0  0
    7.5854   -5.1209  -50.3031 H   0  0  0  0  0  0  0  0  0  0  0  0
    9.4264   -3.5011  -49.8609 H   0  0  0  0  0  0  0  0  0  0  0  0
    9.9556   -1.7344  -51.5354 H   0  0  0  0  0  0  0  0  0  0  0  0
    7.6030    0.5200  -51.7810 H   0  0  0  0  0  0  0  0  0  0  0  0
    5.9550    1.0330  -52.0140 H   0  0  0  0  0  0  0  0  0  0  0  0
    7.1340    0.7560  -56.7250 H   0  0  0  0  0  0  0  0  0  0  0  0
    6.3408    3.2219  -56.9576 H   0  0  0  0  0  0  0  0  0  0  0  0
    5.6536    1.5320  -58.5988 H   0  0  0  0  0  0  0  0  0  0  0  0
    6.0122    3.1507  -59.3588 H   0  0  0  0  0  0  0  0  0  0  0  0
    7.3988    0.5223  -59.6642 H   0  0  0  0  0  0  0  0  0  0  0  0
    7.0544    1.8683  -60.8574 H   0  0  0  0  0  0  0  0  0  0  0  0
    9.3847    1.4641  -59.0260 H   0  0  0  0  0  0  0  0  0  0  0  0
    9.2891    2.0753  -60.7360 H   0  0  0  0  0  0  0  0  0  0  0  0
    8.3605    4.1617  -59.9668 H   0  0  0  0  0  0  0  0  0  0  0  0
    9.8733    5.8838  -60.3085 H   0  0  0  0  0  0  0  0  0  0  0  0
   12.2097    6.7422  -60.2846 H   0  0  0  0  0  0  0  0  0  0  0  0
   14.0184    5.4313  -59.1744 H   0  0  0  0  0  0  0  0  0  0  0  0
   13.4805    3.2487  -58.0870 H   0  0  0  0  0  0  0  0  0  0  0  0
    8.9639    3.7160  -57.0798 H   0  0  0  0  0  0  0  0  0  0  0  0
    7.7142    4.7527  -57.9266 H   0  0  0  0  0  0  0  0  0  0  0  0
   12.0099   -1.6644  -54.3289 H   0  0  0  0  0  0  0  0  0  0  0  0
   10.8739   -2.8914  -53.6212 H   0  0  0  0  0  0  0  0  0  0  0  0
   12.2314   -1.5339  -56.8495 H   0  0  0  0  0  0  0  0  0  0  0  0
   12.4275   -2.9289  -58.9051 H   0  0  0  0  0  0  0  0  0  0  0  0
   11.4812   -5.2352  -58.9444 H   0  0  0  0  0  0  0  0  0  0  0  0
   10.3401   -6.1498  -56.9265 H   0  0  0  0  0  0  0  0  0  0  0  0
   10.1374   -4.7615  -54.8679 H   0  0  0  0  0  0  0  0  0  0  0  0
  1  2  1  0
  2  3  2  0
  3  4  1  0
  4  5  2  0
  5  6  1  0
  6  7  2  0
  7  8  1  0
  8  9  2  0
  9 10  1  0
 10 11  1  0
 10 12  2  0
  9 13  1  0
 13 14  1  0
 14 15  2  0
 14 16  1  0
 16 17  1  0
 17 18  1  0
 18 19  1  0
 19 20  1  0
 20 21  1  0
 21 22  1  0
 22 23  2  0
 23 24  1  0
 24 25  2  0
 25 26  1  0
 26 27  2  0
 27 28  1  0
 21 29  1  0
 13 30  2  0
 30 31  1  0
 31 32  1  0
 32 33  1  0
 33 34  2  0
 34 35  1  0
 35 36  2  0
 36 37  1  0
 37 38  2  0
  7  2  1  0
 31  8  1  0
 38 33  1  0
 29 17  1  0
 27 22  1  0
  1 39  1  0
  1 40  1  0
  1 41  1  0
  3 42  1  0
  4 43  1  0
  5 44  1  0
  6 45  1  0
 11 46  1  0
 11 47  1  0
 16 48  1  0
 17 49  1  1
 18 50  1  0
 18 51  1  0
 19 52  1  0
 19 53  1  0
 20 54  1  0
 20 55  1  0
 21 56  1  6
 23 57  1  0
 24 58  1  0
 25 59  1  0
 26 60  1  0
 29 61  1  0
 29 62  1  0
 32 63  1  0
 32 64  1  0
 34 65  1  0
 35 66  1  0
 36 67  1  0
 37 68  1  0
 38 69  1  0
M  END
>  <meeko>  (77) 
{"is_sidechain": false}

$$$$

     RDKit          3D

 61 64  0  0  0  0  0  0  0  0999 V2000
   12.3330    5.7070  -59.3230 C   0  0  0  0  0  0  0  0  0  0  0  0
   12.0130    4.3200  -58.7500 C   0  0  0  0  0  0  0  0  0  0  0  0
   12.5820    4.2130  -57.3310 C   0  0  0  0  0  0  0  0  0  0  0  0
   12.6900    3.3660  -59.5850 O   0  0  0  0  0  0  0  0  0  0  0  0
   10.5020    4.0200  -58.8570 C   0  0  1  0  0  0  0  0  0  0  0  0
   10.1440    2.6040  -59.3200 C   0  0  0  0  0  0  0  0  0  0  0  0
    8.6680    2.4960  -58.9630 C   0  0  0  0  0  0  0  0  0  0  0  0
    8.5830    3.1460  -57.5810 C   0  0  1  0  0  0  0  0  0  0  0  0
    8.8160    2.1790  -56.5280 N   0  0  0  0  0  0  0  0  0  0  0  0
    7.8200    1.3850  -56.0070 C   0  0  0  0  0  0  0  0  0  0  0  0
    6.6390    1.5860  -56.3080 O   0  0  0  0  0  0  0  0  0  0  0  0
    8.2220    0.3070  -55.0630 C   0  0  0  0  0  0  0  0  0  0  0  0
    9.4740   -0.2000  -55.1630 N   0  0  0  0  0  0  0  0  0  0  0  0
    9.5680   -1.1140  -54.1800 N   0  0  0  0  0  0  0  0  0  0  0  0
   10.7900   -1.9070  -54.0890 C   0  0  0  0  0  0  0  0  0  0  0  0
   11.0460   -2.7420  -55.3240 C   0  0  0  0  0  0  0  0  0  0  0  0
   10.5980   -4.0710  -55.3860 C   0  0  0  0  0  0  0  0  0  0  0  0
   10.8260   -4.8450  -56.5260 C   0  0  0  0  0  0  0  0  0  0  0  0
   11.4920   -4.2910  -57.6170 C   0  0  0  0  0  0  0  0  0  0  0  0
   11.7650   -5.2460  -59.0240 Cl  0  0  0  0  0  0  0  0  0  0  0  0
   11.9330   -2.9720  -57.5780 C   0  0  0  0  0  0  0  0  0  0  0  0
   11.7070   -2.1980  -56.4370 C   0  0  0  0  0  0  0  0  0  0  0  0
    8.4290   -1.2420  -53.4290 C   0  0  0  0  0  0  0  0  0  0  0  0
    8.2730   -2.1860  -52.3290 C   0  0  0  0  0  0  0  0  0  0  0  0
    9.3870   -2.5700  -51.5720 C   0  0  0  0  0  0  0  0  0  0  0  0
    9.2420   -3.4500  -50.4980 C   0  0  0  0  0  0  0  0  0  0  0  0
    7.9810   -3.9500  -50.1750 C   0  0  0  0  0  0  0  0  0  0  0  0
    6.8750   -3.5800  -50.9380 C   0  0  0  0  0  0  0  0  0  0  0  0
    5.3160   -4.1880  -50.5270 Cl  0  0  0  0  0  0  0  0  0  0  0  0
    7.0150   -2.7080  -52.0160 C   0  0  0  0  0  0  0  0  0  0  0  0
    7.5390   -0.3380  -53.9870 C   0  0  0  0  0  0  0  0  0  0  0  0
    6.0820   -0.0750  -53.4940 C   0  0  0  0  0  0  0  0  0  0  0  0
    5.9210    0.7160  -52.5200 O   0  0  0  0  0  0  0  0  0  0  0  0
    5.1610   -0.6910  -54.1150 O   0  0  0  0  0  0  0  0  0  0  0  0
    9.6720    4.2320  -57.5770 C   0  0  0  0  0  0  0  0  0  0  0  0
   12.4965    6.4158  -58.4979 H   0  0  0  0  0  0  0  0  0  0  0  0
   13.2411    5.6478  -59.9410 H   0  0  0  0  0  0  0  0  0  0  0  0
   11.4908    6.0517  -59.9410 H   0  0  0  0  0  0  0  0  0  0  0  0
   11.7744    4.3649  -56.5997 H   0  0  0  0  0  0  0  0  0  0  0  0
   13.0240    3.2160  -57.1874 H   0  0  0  0  0  0  0  0  0  0  0  0
   13.3560    4.9813  -57.1874 H   0  0  0  0  0  0  0  0  0  0  0  0
   13.2570    3.8640  -60.1980 H   0  0  0  0  0  0  0  0  0  0  0  0
   10.2406    4.7718  -59.6163 H   0  0  0  0  0  0  0  0  0  0  0  0
   10.2991    2.4901  -60.4030 H   0  0  0  0  0  0  0  0  0  0  0  0
   10.7633    1.8235  -58.8537 H   0  0  0  0  0  0  0  0  0  0  0  0
    8.0472    3.0388  -59.6910 H   0  0  0  0  0  0  0  0  0  0  0  0
    8.3015    1.4589  -58.9705 H   0  0  0  0  0  0  0  0  0  0  0  0
    7.5830    3.5639  -57.3928 H   0  0  0  0  0  0  0  0  0  0  0  0
    9.7890    1.8920  -56.3380 H   0  0  0  0  0  0  0  0  0  0  0  0
   11.6407   -1.2247  -53.9446 H   0  0  0  0  0  0  0  0  0  0  0  0
   10.6707   -2.5994  -53.2426 H   0  0  0  0  0  0  0  0  0  0  0  0
   10.0628   -4.5065  -54.5293 H   0  0  0  0  0  0  0  0  0  0  0  0
   10.4808   -5.8888  -56.5623 H   0  0  0  0  0  0  0  0  0  0  0  0
   12.4579   -2.5399  -58.4427 H   0  0  0  0  0  0  0  0  0  0  0  0
   12.0499   -1.1532  -56.4104 H   0  0  0  0  0  0  0  0  0  0  0  0
   10.3822   -2.1758  -51.8252 H   0  0  0  0  0  0  0  0  0  0  0  0
   10.1209   -3.7484  -49.9076 H   0  0  0  0  0  0  0  0  0  0  0  0
    7.8597   -4.6335  -49.3217 H   0  0  0  0  0  0  0  0  0  0  0  0
    6.1376   -2.4313  -52.6190 H   0  0  0  0  0  0  0  0  0  0  0  0
    9.2126    5.2315  -57.5826 H   0  0  0  0  0  0  0  0  0  0  0  0
   10.3013    4.1625  -56.6775 H   0  0  0  0  0  0  0  0  0  0  0  0
  1  2  1  0
  2  3  1  0
  2  4  1  0
  2  5  1  0
  5  6  1  0
  6  7  1  0
  7  8  1  0
  8  9  1  0
  9 10  1  0
 10 11  2  0
 10 12  1  0
 12 13  2  0
 13 14  1  0
 14 15  1  0
 15 16  1  0
 16 17  1  0
 17 18  2  0
 18 19  1  0
 19 20  1  0
 19 21  2  0
 21 22  1  0
 14 23  1  0
 23 24  1  0
 24 25  2  0
 25 26  1  0
 26 27  2  0
 27 28  1  0
 28 29  1  0
 28 30  2  0
 23 31  2  0
 31 32  1  0
 32 33  2  0
 32 34  1  0
  8 35  1  0
 35  5  1  0
 31 12  1  0
 22 16  2  0
 30 24  1  0
  1 36  1  0
  1 37  1  0
  1 38  1  0
  3 39  1  0
  3 40  1  0
  3 41  1  0
  4 42  1  0
  5 43  1  6
  6 44  1  0
  6 45  1  0
  7 46  1  0
  7 47  1  0
  8 48  1  1
  9 49  1  0
 15 50  1  0
 15 51  1  0
 17 52  1  0
 18 53  1  0
 21 54  1  0
 22 55  1  0
 25 56  1  0
 26 57  1  0
 27 58  1  0
 30 59  1  0
 35 60  1  0
 35 61  1  0
M  CHG  1  34  -1
M  END
>  <meeko>  (78) 
{"is_sidechain": false}

$$$$

     RDKit          3D

 32 34  0  0  0  0  0  0  0  0999 V2000
   12.8000    6.3180  -59.7060 C   0  0  0  0  0  0  0  0  0  0  0  0
   11.5340    5.9380  -60.2320 O   0  0  0  0  0  0  0  0  0  0  0  0
   10.8240    5.0070  -59.5270 C   0  0  0  0  0  0  0  0  0  0  0  0
   10.2460    3.8520  -60.0440 C   0  0  0  0  0  0  0  0  0  0  0  0
    9.5460    2.9830  -59.2010 C   0  0  0  0  0  0  0  0  0  0  0  0
    8.9900    1.8950  -59.7600 F   0  0  0  0  0  0  0  0  0  0  0  0
    9.4040    3.2400  -57.8360 C   0  0  0  0  0  0  0  0  0  0  0  0
    8.6760    2.3260  -56.9790 C   0  0  0  0  0  0  0  0  0  0  0  0
    7.3480    2.1530  -57.0160 N   0  0  0  0  0  0  0  0  0  0  0  0
    7.1590    1.2330  -56.0600 N   0  0  0  0  0  0  0  0  0  0  0  0
    8.3330    0.8530  -55.4690 C   0  0  0  0  0  0  0  0  0  0  0  0
    8.4720   -0.1390  -54.4020 C   0  0  0  0  0  0  0  0  0  0  0  0
    7.4330   -0.2830  -53.4680 C   0  0  0  0  0  0  0  0  0  0  0  0
    7.5180   -1.2130  -52.4290 C   0  0  0  0  0  0  0  0  0  0  0  0
    8.6480   -2.0180  -52.3090 C   0  0  0  0  0  0  0  0  0  0  0  0
    9.6830   -1.8860  -53.2300 C   0  0  0  0  0  0  0  0  0  0  0  0
   11.0810   -2.8810  -53.0870 Cl  0  0  0  0  0  0  0  0  0  0  0  0
    9.6030   -0.9560  -54.2710 C   0  0  0  0  0  0  0  0  0  0  0  0
    9.3050    1.5350  -56.0430 N   0  0  0  0  0  0  0  0  0  0  0  0
    9.9920    4.4020  -57.3340 C   0  0  0  0  0  0  0  0  0  0  0  0
    9.9260    4.7040  -56.0280 F   0  0  0  0  0  0  0  0  0  0  0  0
   10.6930    5.2770  -58.1660 C   0  0  0  0  0  0  0  0  0  0  0  0
   12.7590    6.3057  -58.6068 H   0  0  0  0  0  0  0  0  0  0  0  0
   13.5681    5.6108  -60.0522 H   0  0  0  0  0  0  0  0  0  0  0  0
   13.0517    7.3313  -60.0522 H   0  0  0  0  0  0  0  0  0  0  0  0
   10.3396    3.6223  -61.1157 H   0  0  0  0  0  0  0  0  0  0  0  0
    6.2180    0.9100  -55.8730 H   0  0  0  0  0  0  0  0  0  0  0  0
    6.5362    0.3478  -53.5562 H   0  0  0  0  0  0  0  0  0  0  0  0
    6.6938   -1.3092  -51.7069 H   0  0  0  0  0  0  0  0  0  0  0  0
    8.7219   -2.7521  -51.4931 H   0  0  0  0  0  0  0  0  0  0  0  0
   10.4308   -0.8653  -54.9897 H   0  0  0  0  0  0  0  0  0  0  0  0
   11.1454    6.1865  -57.7440 H   0  0  0  0  0  0  0  0  0  0  0  0
  1  2  1  0
  2  3  1  0
  3  4  1  0
  4  5  2  0
  5  6  1  0
  5  7  1  0
  7  8  1  0
  8  9  2  0
  9 10  1  0
 10 11  1  0
 11 12  1  0
 12 13  2  0
 13 14  1  0
 14 15  2  0
 15 16  1  0
 16 17  1  0
 16 18  2  0
 11 19  2  0
  7 20  2  0
 20 21  1  0
 20 22  1  0
 22  3  2  0
 19  8  1  0
 18 12  1  0
  1 23  1  0
  1 24  1  0
  1 25  1  0
  4 26  1  0
 10 27  1  0
 13 28  1  0
 14 29  1  0
 15 30  1  0
 18 31  1  0
 22 32  1  0
M  END
>  <meeko>  (79) 
{"is_sidechain": false}

$$$$

     RDKit          3D

 32 34  0  0  0  0  0  0  0  0999 V2000
   12.7800    6.3210  -59.6900 C   0  0  0  0  0  0  0  0  0  0  0  0
   11.5270    5.9160  -60.2300 O   0  0  0  0  0  0  0  0  0  0  0  0
   10.8190    4.9810  -59.5310 C   0  0  0  0  0  0  0  0  0  0  0  0
   10.7010    5.2340  -58.1650 C   0  0  0  0  0  0  0  0  0  0  0  0
   10.0010    4.3540  -57.3370 C   0  0  0  0  0  0  0  0  0  0  0  0
    9.9270    4.6600  -56.0340 F   0  0  0  0  0  0  0  0  0  0  0  0
    9.3980    3.1990  -57.8410 C   0  0  0  0  0  0  0  0  0  0  0  0
    8.6660    2.2800  -56.9710 C   0  0  0  0  0  0  0  0  0  0  0  0
    7.3680    2.0670  -56.9290 N   0  0  0  0  0  0  0  0  0  0  0  0
    7.1080    1.1230  -55.9650 N   0  0  0  0  0  0  0  0  0  0  0  0
    8.2490    0.7560  -55.4150 C   0  0  0  0  0  0  0  0  0  0  0  0
    8.4290   -0.2280  -54.3470 C   0  0  0  0  0  0  0  0  0  0  0  0
    7.4920   -0.4030  -53.3150 C   0  0  0  0  0  0  0  0  0  0  0  0
    7.7020   -1.3550  -52.3120 C   0  0  0  0  0  0  0  0  0  0  0  0
    8.8500   -2.1440  -52.3260 C   0  0  0  0  0  0  0  0  0  0  0  0
    9.7850   -1.9800  -53.3440 C   0  0  0  0  0  0  0  0  0  0  0  0
   11.2030   -2.9540  -53.3620 Cl  0  0  0  0  0  0  0  0  0  0  0  0
    9.5800   -1.0320  -54.3460 C   0  0  0  0  0  0  0  0  0  0  0  0
    9.2480    1.4670  -56.0270 N   0  0  0  0  0  0  0  0  0  0  0  0
    9.5310    2.9670  -59.2150 C   0  0  0  0  0  0  0  0  0  0  0  0
    8.9780    1.8730  -59.7690 F   0  0  0  0  0  0  0  0  0  0  0  0
   10.2290    3.8370  -60.0570 C   0  0  0  0  0  0  0  0  0  0  0  0
   12.7284    6.3043  -58.5913 H   0  0  0  0  0  0  0  0  0  0  0  0
   13.5662    5.6312  -60.0307 H   0  0  0  0  0  0  0  0  0  0  0  0
   13.0138    7.3405  -60.0307 H   0  0  0  0  0  0  0  0  0  0  0  0
   11.1635    6.1350  -57.7356 H   0  0  0  0  0  0  0  0  0  0  0  0
    6.5827    0.2158  -53.2955 H   0  0  0  0  0  0  0  0  0  0  0  0
    6.9592   -1.4809  -51.5105 H   0  0  0  0  0  0  0  0  0  0  0  0
    9.0166   -2.8923  -51.5371 H   0  0  0  0  0  0  0  0  0  0  0  0
   10.3278   -0.9129  -55.1439 H   0  0  0  0  0  0  0  0  0  0  0  0
   10.2350    1.4150  -55.8320 H   0  0  0  0  0  0  0  0  0  0  0  0
   10.3114    3.6176  -61.1318 H   0  0  0  0  0  0  0  0  0  0  0  0
  1  2  1  0
  2  3  1  0
  3  4  1  0
  4  5  2  0
  5  6  1  0
  5  7  1  0
  7  8  1  0
  8  9  2  0
  9 10  1  0
 10 11  2  0
 11 12  1  0
 12 13  2  0
 13 14  1  0
 14 15  2  0
 15 16  1  0
 16 17  1  0
 16 18  2  0
 11 19  1  0
  7 20  2  0
 20 21  1  0
 20 22  1  0
 22  3  2  0
 19  8  1  0
 18 12  1  0
  1 23  1  0
  1 24  1  0
  1 25  1  0
  4 26  1  0
 13 27  1  0
 14 28  1  0
 15 29  1  0
 18 30  1  0
 19 31  1  0
 22 32  1  0
M  END
>  <meeko>  (80) 
{"is_sidechain": false}

$$$$

     RDKit          3D

 32 34  0  0  0  0  0  0  0  0999 V2000
   12.7830    6.3860  -59.7160 C   0  0  0  0  0  0  0  0  0  0  0  0
   11.5230    5.9730  -60.2330 O   0  0  0  0  0  0  0  0  0  0  0  0
   10.8390    5.0260  -59.5250 C   0  0  0  0  0  0  0  0  0  0  0  0
   10.7330    5.2780  -58.1590 C   0  0  0  0  0  0  0  0  0  0  0  0
   10.0580    4.3870  -57.3210 C   0  0  0  0  0  0  0  0  0  0  0  0
    9.9950    4.6910  -56.0170 F   0  0  0  0  0  0  0  0  0  0  0  0
    9.4710    3.2210  -57.8180 C   0  0  0  0  0  0  0  0  0  0  0  0
    8.7650    2.2890  -56.9410 C   0  0  0  0  0  0  0  0  0  0  0  0
    9.2720    1.5300  -55.9900 N   0  0  0  0  0  0  0  0  0  0  0  0
    8.1950    0.8470  -55.4690 C   0  0  0  0  0  0  0  0  0  0  0  0
    8.3380   -0.1120  -54.3780 C   0  0  0  0  0  0  0  0  0  0  0  0
    7.3230   -0.2700  -53.4200 C   0  0  0  0  0  0  0  0  0  0  0  0
    7.4650   -1.1900  -52.3770 C   0  0  0  0  0  0  0  0  0  0  0  0
    8.6220   -1.9600  -52.2830 C   0  0  0  0  0  0  0  0  0  0  0  0
    9.6330   -1.8080  -53.2300 C   0  0  0  0  0  0  0  0  0  0  0  0
   11.0620   -2.7610  -53.1090 Cl  0  0  0  0  0  0  0  0  0  0  0  0
    9.4980   -0.8920  -54.2730 C   0  0  0  0  0  0  0  0  0  0  0  0
    7.0320    1.1530  -56.0610 N   0  0  0  0  0  0  0  0  0  0  0  0
    7.4150    2.0550  -56.9750 N   0  0  0  0  0  0  0  0  0  0  0  0
    9.5900    2.9900  -59.1940 C   0  0  0  0  0  0  0  0  0  0  0  0
    9.0490    1.8870  -59.7400 F   0  0  0  0  0  0  0  0  0  0  0  0
   10.2620    3.8710  -60.0440 C   0  0  0  0  0  0  0  0  0  0  0  0
   12.7496    6.3751  -58.6166 H   0  0  0  0  0  0  0  0  0  0  0  0
   13.5664    5.6976  -60.0659 H   0  0  0  0  0  0  0  0  0  0  0  0
   13.0069    7.4045  -60.0659 H   0  0  0  0  0  0  0  0  0  0  0  0
   11.1851    6.1873  -57.7361 H   0  0  0  0  0  0  0  0  0  0  0  0
    6.4077    0.3359  -53.4911 H   0  0  0  0  0  0  0  0  0  0  0  0
    6.6643   -1.3057  -51.6317 H   0  0  0  0  0  0  0  0  0  0  0  0
    8.7372   -2.6854  -51.4642 H   0  0  0  0  0  0  0  0  0  0  0  0
   10.3031   -0.7814  -55.0144 H   0  0  0  0  0  0  0  0  0  0  0  0
    6.7230    2.4720  -57.5880 H   0  0  0  0  0  0  0  0  0  0  0  0
   10.3349    3.6527  -61.1197 H   0  0  0  0  0  0  0  0  0  0  0  0
  1  2  1  0
  2  3  1  0
  3  4  1  0
  4  5  2  0
  5  6  1  0
  5  7  1  0
  7  8  1  0
  8  9  2  0
  9 10  1  0
 10 11  1  0
 11 12  2  0
 12 13  1  0
 13 14  2  0
 14 15  1  0
 15 16  1  0
 15 17  2  0
 10 18  2  0
 18 19  1  0
  7 20  2  0
 20 21  1  0
 20 22  1  0
 22  3  2  0
 19  8  1  0
 17 11  1  0
  1 23  1  0
  1 24  1  0
  1 25  1  0
  4 26  1  0
 12 27  1  0
 13 28  1  0
 14 29  1  0
 17 30  1  0
 19 31  1  0
 22 32  1  0
M  END
>  <meeko>  (81) 
{"is_sidechain": false}

$$$$

     RDKit          3D

 60 65  0  0  0  0  0  0  0  0999 V2000
   11.5220   -0.7970  -55.4450 C   0  0  0  0  0  0  0  0  0  0  0  0
   10.1020   -1.1000  -55.2940 N   0  0  0  0  0  0  0  0  0  0  0  0
    9.2670   -0.1350  -54.7140 C   0  0  0  0  0  0  0  0  0  0  0  0
    8.9370    1.0580  -54.9990 N   0  0  0  0  0  0  0  0  0  0  0  0
    9.2770    1.8530  -56.1650 C   0  0  2  0  0  0  0  0  0  0  0  0
   10.1760    1.1200  -57.1800 C   0  0  0  0  0  0  0  0  0  0  0  0
   10.4140    2.0010  -58.4180 C   0  0  1  0  0  0  0  0  0  0  0  0
    9.0680    2.2850  -59.1020 C   0  0  0  0  0  0  0  0  0  0  0  0
    8.1310    3.0150  -58.1280 C   0  0  2  0  0  0  0  0  0  0  0  0
    8.7750    4.3460  -57.7090 C   0  0  0  0  0  0  0  0  0  0  0  0
   10.1180    4.0800  -57.0110 C   0  0  2  0  0  0  0  0  0  0  0  0
   11.0530    3.3310  -57.9780 C   0  0  0  0  0  0  0  0  0  0  0  0
    9.8740    3.2140  -55.7620 C   0  0  0  0  0  0  0  0  0  0  0  0
    7.9230    2.1410  -56.8790 C   0  0  0  0  0  0  0  0  0  0  0  0
    8.6360   -0.6430  -53.5880 N   0  0  0  0  0  0  0  0  0  0  0  0
    8.9810   -1.9080  -53.5450 C   0  0  0  0  0  0  0  0  0  0  0  0
    8.4830   -2.8080  -52.4840 C   0  0  0  0  0  0  0  0  0  0  0  0
    7.3620   -3.6170  -52.6980 C   0  0  0  0  0  0  0  0  0  0  0  0
    6.9030   -4.4520  -51.6780 C   0  0  0  0  0  0  0  0  0  0  0  0
    7.5650   -4.4840  -50.4500 C   0  0  0  0  0  0  0  0  0  0  0  0
    8.6940   -3.6890  -50.2410 C   0  0  0  0  0  0  0  0  0  0  0  0
    9.1560   -2.8540  -51.2590 C   0  0  0  0  0  0  0  0  0  0  0  0
    9.8510   -2.2870  -54.5680 N   0  0  0  0  0  0  0  0  0  0  0  0
    9.6360   -3.5120  -55.3510 C   0  0  0  0  0  0  0  0  0  0  0  0
   10.8870   -4.0370  -56.0220 C   0  0  0  0  0  0  0  0  0  0  0  0
   11.1600   -3.7330  -57.3640 C   0  0  0  0  0  0  0  0  0  0  0  0
   12.3080   -4.2270  -57.9850 C   0  0  0  0  0  0  0  0  0  0  0  0
   13.1980   -5.0270  -57.2730 C   0  0  0  0  0  0  0  0  0  0  0  0
   12.9390   -5.3370  -55.9380 C   0  0  0  0  0  0  0  0  0  0  0  0
   11.7910   -4.8450  -55.3170 C   0  0  0  0  0  0  0  0  0  0  0  0
   11.9836   -0.6985  -54.4514 H   0  0  0  0  0  0  0  0  0  0  0  0
   12.0136   -1.6105  -55.9987 H   0  0  0  0  0  0  0  0  0  0  0  0
   11.6388    0.1463  -55.9987 H   0  0  0  0  0  0  0  0  0  0  0  0
   11.1424    0.8891  -56.7080 H   0  0  0  0  0  0  0  0  0  0  0  0
    9.6773    0.1909  -57.4932 H   0  0  0  0  0  0  0  0  0  0  0  0
   11.0840    1.4834  -59.1202 H   0  0  0  0  0  0  0  0  0  0  0  0
    9.2349    2.9144  -59.9886 H   0  0  0  0  0  0  0  0  0  0  0  0
    8.6068    1.3330  -59.4037 H   0  0  0  0  0  0  0  0  0  0  0  0
    7.1637    3.2068  -58.6154 H   0  0  0  0  0  0  0  0  0  0  0  0
    8.9443    4.9663  -58.6015 H   0  0  0  0  0  0  0  0  0  0  0  0
    8.1030    4.8706  -57.0138 H   0  0  0  0  0  0  0  0  0  0  0  0
   10.5807    5.0334  -56.7162 H   0  0  0  0  0  0  0  0  0  0  0  0
   11.2349    3.9567  -58.8642 H   0  0  0  0  0  0  0  0  0  0  0  0
   12.0024    3.1188  -57.4647 H   0  0  0  0  0  0  0  0  0  0  0  0
   10.8289    3.0515  -55.2406 H   0  0  0  0  0  0  0  0  0  0  0  0
    9.1666    3.7332  -55.0986 H   0  0  0  0  0  0  0  0  0  0  0  0
    7.2531    2.6649  -56.1813 H   0  0  0  0  0  0  0  0  0  0  0  0
    7.4822    1.1831  -57.1921 H   0  0  0  0  0  0  0  0  0  0  0  0
    6.8434   -3.5952  -53.6679 H   0  0  0  0  0  0  0  0  0  0  0  0
    6.0187   -5.0853  -51.8423 H   0  0  0  0  0  0  0  0  0  0  0  0
    7.1968   -5.1368  -49.6449 H   0  0  0  0  0  0  0  0  0  0  0  0
    9.2186   -3.7210  -49.2747 H   0  0  0  0  0  0  0  0  0  0  0  0
   10.0491   -2.2323  -51.0981 H   0  0  0  0  0  0  0  0  0  0  0  0
    9.2513   -4.2913  -54.6767 H   0  0  0  0  0  0  0  0  0  0  0  0
    8.9256   -3.2591  -56.1519 H   0  0  0  0  0  0  0  0  0  0  0  0
   10.4628   -3.0995  -57.9320 H   0  0  0  0  0  0  0  0  0  0  0  0
   12.5101   -3.9840  -59.0386 H   0  0  0  0  0  0  0  0  0  0  0  0
   14.1039   -5.4139  -57.7626 H   0  0  0  0  0  0  0  0  0  0  0  0
   13.6405   -5.9698  -55.3746 H   0  0  0  0  0  0  0  0  0  0  0  0
   11.5927   -5.0932  -54.2639 H   0  0  0  0  0  0  0  0  0  0  0  0
  1  2  1  0
  2  3  1  0
  3  4  2  0
  5  4  1  1
  5  6  1  0
  6  7  1  0
  7  8  1  0
  8  9  1  0
  9 10  1  0
 10 11  1  0
 11 12  1  0
 11 13  1  0
  9 14  1  0
  3 15  1  0
 15 16  2  0
 16 17  1  0
 17 18  2  0
 18 19  1  0
 19 20  2  0
 20 21  1  0
 21 22  2  0
 16 23  1  0
 23 24  1  0
 24 25  1  0
 25 26  2  0
 26 27  1  0
 27 28  2  0
 28 29  1  0
 29 30  2  0
 23  2  1  0
 30 25  1  0
 13  5  1  0
 22 17  1  0
 14  5  1  0
 12  7  1  0
  1 31  1  0
  1 32  1  0
  1 33  1  0
  6 34  1  0
  6 35  1  0
  7 36  1  6
  8 37  1  0
  8 38  1  0
  9 39  1  6
 10 40  1  0
 10 41  1  0
 11 42  1  1
 12 43  1  0
 12 44  1  0
 13 45  1  0
 13 46  1  0
 14 47  1  0
 14 48  1  0
 18 49  1  0
 19 50  1  0
 20 51  1  0
 21 52  1  0
 22 53  1  0
 24 54  1  0
 24 55  1  0
 26 56  1  0
 27 57  1  0
 28 58  1  0
 29 59  1  0
 30 60  1  0
M  END
>  <meeko>  (82) 
{"is_sidechain": false}

$$$$

     RDKit          3D

 60 65  0  0  0  0  0  0  0  0999 V2000
    7.7750    3.9530  -57.7740 C   0  0  0  0  0  0  0  0  0  0  0  0
    8.4240    2.6860  -57.4510 N   0  0  0  0  0  0  0  0  0  0  0  0
    9.5410    2.7000  -56.6040 C   0  0  0  0  0  0  0  0  0  0  0  0
   10.6940    3.2290  -56.6420 N   0  0  0  0  0  0  0  0  0  0  0  0
   11.3220    3.9960  -57.7020 C   0  0  2  0  0  0  0  0  0  0  0  0
   10.5320    5.2560  -58.1110 C   0  0  0  0  0  0  0  0  0  0  0  0
   11.2230    5.9590  -59.2940 C   0  0  1  0  0  0  0  0  0  0  0  0
   12.6650    6.3200  -58.8950 C   0  0  0  0  0  0  0  0  0  0  0  0
   13.4590    5.0480  -58.5470 C   0  0  2  0  0  0  0  0  0  0  0  0
   13.4660    4.1060  -59.7620 C   0  0  0  0  0  0  0  0  0  0  0  0
   12.0250    3.7320  -60.1420 C   0  0  2  0  0  0  0  0  0  0  0  0
   11.2490    5.0080  -60.5010 C   0  0  0  0  0  0  0  0  0  0  0  0
   11.3470    3.0520  -58.9400 C   0  0  0  0  0  0  0  0  0  0  0  0
   12.7860    4.3340  -57.3620 C   0  0  0  0  0  0  0  0  0  0  0  0
    9.3210    1.9040  -55.4890 N   0  0  0  0  0  0  0  0  0  0  0  0
    8.1570    1.3370  -55.6980 C   0  0  0  0  0  0  0  0  0  0  0  0
    7.5810    0.3860  -54.7240 C   0  0  0  0  0  0  0  0  0  0  0  0
    8.4420   -0.3460  -53.8960 C   0  0  0  0  0  0  0  0  0  0  0  0
    7.9170   -1.2560  -52.9760 C   0  0  0  0  0  0  0  0  0  0  0  0
    6.5380   -1.4170  -52.8860 C   0  0  0  0  0  0  0  0  0  0  0  0
    6.0330   -2.2910  -52.0050 F   0  0  0  0  0  0  0  0  0  0  0  0
    5.6730   -0.6830  -53.6910 C   0  0  0  0  0  0  0  0  0  0  0  0
    6.1940    0.2270  -54.6130 C   0  0  0  0  0  0  0  0  0  0  0  0
    7.5490    1.7280  -56.8900 N   0  0  0  0  0  0  0  0  0  0  0  0
    6.9550    0.7500  -57.8150 C   0  0  0  0  0  0  0  0  0  0  0  0
    5.8010    1.3030  -58.6240 C   0  0  0  0  0  0  0  0  0  0  0  0
    4.8640    2.1680  -58.0330 C   0  0  0  0  0  0  0  0  0  0  0  0
    3.7930    2.6670  -58.7770 C   0  0  0  0  0  0  0  0  0  0  0  0
    3.6570    2.3050  -60.1120 C   0  0  0  0  0  0  0  0  0  0  0  0
    2.6300    2.7870  -60.8230 F   0  0  0  0  0  0  0  0  0  0  0  0
    4.5700    1.4530  -60.7170 C   0  0  0  0  0  0  0  0  0  0  0  0
    5.6430    0.9530  -59.9760 C   0  0  0  0  0  0  0  0  0  0  0  0
    7.5074    4.4755  -56.8437 H   0  0  0  0  0  0  0  0  0  0  0  0
    8.4637    4.5786  -58.3608 H   0  0  0  0  0  0  0  0  0  0  0  0
    6.8649    3.7597  -58.3608 H   0  0  0  0  0  0  0  0  0  0  0  0
    9.5130    4.9655  -58.4064 H   0  0  0  0  0  0  0  0  0  0  0  0
   10.4937    5.9476  -57.2564 H   0  0  0  0  0  0  0  0  0  0  0  0
   10.6731    6.8745  -59.5576 H   0  0  0  0  0  0  0  0  0  0  0  0
   13.1552    6.8352  -59.7342 H   0  0  0  0  0  0  0  0  0  0  0  0
   12.6378    6.9766  -58.0129 H   0  0  0  0  0  0  0  0  0  0  0  0
   14.4906    5.3204  -58.2794 H   0  0  0  0  0  0  0  0  0  0  0  0
   13.9481    4.6108  -60.6122 H   0  0  0  0  0  0  0  0  0  0  0  0
   14.0225    3.1917  -59.5082 H   0  0  0  0  0  0  0  0  0  0  0  0
   12.0337    3.0473  -61.0029 H   0  0  0  0  0  0  0  0  0  0  0  0
   11.7402    5.5076  -61.3490 H   0  0  0  0  0  0  0  0  0  0  0  0
   10.2177    4.7407  -60.7748 H   0  0  0  0  0  0  0  0  0  0  0  0
   10.3141    2.7887  -59.2118 H   0  0  0  0  0  0  0  0  0  0  0  0
   11.9205    2.1501  -58.6799 H   0  0  0  0  0  0  0  0  0  0  0  0
   13.3311    3.4044  -57.1416 H   0  0  0  0  0  0  0  0  0  0  0  0
   12.8052    4.9992  -56.4861 H   0  0  0  0  0  0  0  0  0  0  0  0
    9.5303   -0.2041  -53.9705 H   0  0  0  0  0  0  0  0  0  0  0  0
    8.5875   -1.8401  -52.3285 H   0  0  0  0  0  0  0  0  0  0  0  0
    4.5851   -0.8187  -53.6018 H   0  0  0  0  0  0  0  0  0  0  0  0
    5.5178    0.8166  -55.2495 H   0  0  0  0  0  0  0  0  0  0  0  0
    7.7364    0.4107  -58.5110 H   0  0  0  0  0  0  0  0  0  0  0  0
    6.5547   -0.0711  -57.2023 H   0  0  0  0  0  0  0  0  0  0  0  0
    4.9752    2.4539  -56.9767 H   0  0  0  0  0  0  0  0  0  0  0  0
    3.0614    3.3424  -58.3095 H   0  0  0  0  0  0  0  0  0  0  0  0
    4.4493    1.1731  -61.7739 H   0  0  0  0  0  0  0  0  0  0  0  0
    6.3700    0.2801  -60.4542 H   0  0  0  0  0  0  0  0  0  0  0  0
  1  2  1  0
  2  3  1  0
  3  4  2  0
  5  4  1  1
  5  6  1  0
  6  7  1  0
  7  8  1  0
  8  9  1  0
  9 10  1  0
 10 11  1  0
 11 12  1  0
 11 13  1  0
  9 14  1  0
  3 15  1  0
 15 16  2  0
 16 17  1  0
 17 18  1  0
 18 19  2  0
 19 20  1  0
 20 21  1  0
 20 22  2  0
 22 23  1  0
 16 24  1  0
 24 25  1  0
 25 26  1  0
 26 27  1  0
 27 28  2  0
 28 29  1  0
 29 30  1  0
 29 31  2  0
 31 32  1  0
 24  2  1  0
 32 26  2  0
 13  5  1  0
 23 17  2  0
 14  5  1  0
 12  7  1  0
  1 33  1  0
  1 34  1  0
  1 35  1  0
  6 36  1  0
  6 37  1  0
  7 38  1  6
  8 39  1  0
  8 40  1  0
  9 41  1  1
 10 42  1  0
 10 43  1  0
 11 44  1  6
 12 45  1  0
 12 46  1  0
 13 47  1  0
 13 48  1  0
 14 49  1  0
 14 50  1  0
 18 51  1  0
 19 52  1  0
 22 53  1  0
 23 54  1  0
 25 55  1  0
 25 56  1  0
 27 57  1  0
 28 58  1  0
 31 59  1  0
 32 60  1  0
M  END
>  <meeko>  (83) 
{"is_sidechain": false}

$$$$

     RDKit          3D

 56 61  0  0  0  0  0  0  0  0999 V2000
    8.0200   -2.6060  -50.5720 Cl  0  0  0  0  0  0  0  0  0  0  0  0
    7.5450   -1.7050  -51.9680 C   0  0  0  0  0  0  0  0  0  0  0  0
    7.0100   -0.4300  -51.7690 C   0  0  0  0  0  0  0  0  0  0  0  0
    6.6030    0.3440  -52.8590 C   0  0  0  0  0  0  0  0  0  0  0  0
    6.7300   -0.1450  -54.1670 C   0  0  0  0  0  0  0  0  0  0  0  0
    6.3120    0.7010  -55.3540 C   0  0  0  0  0  0  0  0  0  0  0  0
    7.3970    0.9210  -56.3180 N   0  0  0  0  0  0  0  0  0  0  0  0
    8.6460    1.2430  -55.7960 N   0  0  0  0  0  0  0  0  0  0  0  0
    9.2170    2.1360  -56.6790 C   0  0  0  0  0  0  0  0  0  0  0  0
   10.4400    2.5070  -56.6280 N   0  0  0  0  0  0  0  0  0  0  0  0
   11.0390    3.4420  -57.5830 C   0  0  2  0  0  0  0  0  0  0  0  0
   12.5290    3.7190  -57.2860 C   0  0  0  0  0  0  0  0  0  0  0  0
   13.1300    4.6220  -58.3800 C   0  0  1  0  0  0  0  0  0  0  0  0
   13.0310    3.9080  -59.7380 C   0  0  0  0  0  0  0  0  0  0  0  0
   11.5600    3.6180  -60.0710 C   0  0  2  0  0  0  0  0  0  0  0  0
   10.7820    4.9410  -60.1360 C   0  0  0  0  0  0  0  0  0  0  0  0
   10.8630    5.6630  -58.7810 C   0  0  2  0  0  0  0  0  0  0  0  0
   12.3370    5.9400  -58.4400 C   0  0  0  0  0  0  0  0  0  0  0  0
   10.2500    4.7650  -57.6890 C   0  0  0  0  0  0  0  0  0  0  0  0
   10.9600    2.7340  -58.9660 C   0  0  0  0  0  0  0  0  0  0  0  0
    8.3210    2.5110  -57.6560 N   0  0  0  0  0  0  0  0  0  0  0  0
    7.2630    1.7620  -57.4290 C   0  0  0  0  0  0  0  0  0  0  0  0
    6.0780    1.8370  -58.2990 C   0  0  0  0  0  0  0  0  0  0  0  0
    4.9450    2.5660  -57.9370 C   0  0  0  0  0  0  0  0  0  0  0  0
    3.8570    2.6020  -58.8060 C   0  0  0  0  0  0  0  0  0  0  0  0
    3.9450    1.9050  -60.0020 C   0  0  0  0  0  0  0  0  0  0  0  0
    5.0240    1.1830  -60.3730 N   0  0  0  0  0  0  0  0  0  0  0  0
    6.0660    1.1510  -59.5050 C   0  0  0  0  0  0  0  0  0  0  0  0
    7.2680   -1.4280  -54.3570 C   0  0  0  0  0  0  0  0  0  0  0  0
    7.6740   -2.2060  -53.2660 C   0  0  0  0  0  0  0  0  0  0  0  0
    8.3190   -3.7750  -53.5950 Cl  0  0  0  0  0  0  0  0  0  0  0  0
    6.9085   -0.0329  -50.7482 H   0  0  0  0  0  0  0  0  0  0  0  0
    6.1796    1.3450  -52.6895 H   0  0  0  0  0  0  0  0  0  0  0  0
    5.4833    0.1941  -55.8700 H   0  0  0  0  0  0  0  0  0  0  0  0
    6.0156    1.6863  -54.9650 H   0  0  0  0  0  0  0  0  0  0  0  0
    9.2880    0.4930  -55.5580 H   0  0  0  0  0  0  0  0  0  0  0  0
   12.6181    4.2207  -56.3111 H   0  0  0  0  0  0  0  0  0  0  0  0
   13.0752    2.7644  -57.2681 H   0  0  0  0  0  0  0  0  0  0  0  0
   14.1846    4.8333  -58.1493 H   0  0  0  0  0  0  0  0  0  0  0  0
   13.4620    4.5504  -60.5200 H   0  0  0  0  0  0  0  0  0  0  0  0
   13.5848    2.9588  -59.6889 H   0  0  0  0  0  0  0  0  0  0  0  0
   11.4938    3.1026  -61.0405 H   0  0  0  0  0  0  0  0  0  0  0  0
   11.2168    5.5818  -60.9172 H   0  0  0  0  0  0  0  0  0  0  0  0
    9.7284    4.7303  -60.3716 H   0  0  0  0  0  0  0  0  0  0  0  0
   10.3102    6.6125  -58.8344 H   0  0  0  0  0  0  0  0  0  0  0  0
   12.7721    6.5900  -59.2134 H   0  0  0  0  0  0  0  0  0  0  0  0
   12.3898    6.4335  -57.4584 H   0  0  0  0  0  0  0  0  0  0  0  0
   10.2885    5.2896  -56.7229 H   0  0  0  0  0  0  0  0  0  0  0  0
    9.2059    4.5406  -57.9526 H   0  0  0  0  0  0  0  0  0  0  0  0
    9.9065    2.5256  -59.2041 H   0  0  0  0  0  0  0  0  0  0  0  0
   11.5352    1.7978  -58.9144 H   0  0  0  0  0  0  0  0  0  0  0  0
    4.9113    3.1049  -56.9786 H   0  0  0  0  0  0  0  0  0  0  0  0
    2.9501    3.1694  -58.5500 H   0  0  0  0  0  0  0  0  0  0  0  0
    3.0859    1.9426  -60.6880 H   0  0  0  0  0  0  0  0  0  0  0  0
    6.9477    0.5496  -59.7712 H   0  0  0  0  0  0  0  0  0  0  0  0
    7.3719   -1.8272  -55.3767 H   0  0  0  0  0  0  0  0  0  0  0  0
  1  2  1  0
  2  3  1  0
  3  4  2  0
  4  5  1  0
  5  6  1  0
  6  7  1  0
  7  8  1  0
  8  9  1  0
  9 10  2  0
 11 10  1  1
 11 12  1  0
 12 13  1  0
 13 14  1  0
 14 15  1  0
 15 16  1  0
 16 17  1  0
 17 18  1  0
 17 19  1  0
 15 20  1  0
  9 21  1  0
 21 22  2  0
 22 23  1  0
 23 24  1  0
 24 25  2  0
 25 26  1  0
 26 27  2  0
 27 28  1  0
  5 29  2  0
 29 30  1  0
 30 31  1  0
 30  2  2  0
 22  7  1  0
 28 23  2  0
 19 11  1  0
 20 11  1  0
 18 13  1  0
  3 32  1  0
  4 33  1  0
  6 34  1  0
  6 35  1  0
  8 36  1  0
 12 37  1  0
 12 38  1  0
 13 39  1  1
 14 40  1  0
 14 41  1  0
 15 42  1  6
 16 43  1  0
 16 44  1  0
 17 45  1  6
 18 46  1  0
 18 47  1  0
 19 48  1  0
 19 49  1  0
 20 50  1  0
 20 51  1  0
 24 52  1  0
 25 53  1  0
 26 54  1  0
 28 55  1  0
 29 56  1  0
M  END
>  <meeko>  (84) 
{"is_sidechain": false}

$$$$

     RDKit          3D

 56 61  0  0  0  0  0  0  0  0999 V2000
    4.5080    1.0040  -60.9750 Cl  0  0  0  0  0  0  0  0  0  0  0  0
    5.5780    2.0190  -60.0750 C   0  0  0  0  0  0  0  0  0  0  0  0
    5.3430    2.1610  -58.7040 C   0  0  0  0  0  0  0  0  0  0  0  0
    6.1780    2.9660  -57.9240 C   0  0  0  0  0  0  0  0  0  0  0  0
    7.2600    3.6420  -58.5040 C   0  0  0  0  0  0  0  0  0  0  0  0
    8.1500    4.5450  -57.6730 C   0  0  0  0  0  0  0  0  0  0  0  0
    9.0920    3.8010  -56.8250 N   0  0  0  0  0  0  0  0  0  0  0  0
    8.5660    2.7270  -56.1040 N   0  0  0  0  0  0  0  0  0  0  0  0
    9.5070    1.7140  -56.1670 C   0  0  0  0  0  0  0  0  0  0  0  0
    9.5570    0.5610  -55.6360 N   0  0  0  0  0  0  0  0  0  0  0  0
    8.5020   -0.0260  -54.8150 C   0  0  2  0  0  0  0  0  0  0  0  0
    7.1190    0.0010  -55.4990 C   0  0  0  0  0  0  0  0  0  0  0  0
    6.0770   -0.7160  -54.6220 C   0  0  1  0  0  0  0  0  0  0  0  0
    6.4960   -2.1810  -54.4270 C   0  0  0  0  0  0  0  0  0  0  0  0
    7.8690   -2.2450  -53.7400 C   0  0  2  0  0  0  0  0  0  0  0  0
    7.7860   -1.5530  -52.3710 C   0  0  0  0  0  0  0  0  0  0  0  0
    7.3770   -0.0820  -52.5510 C   0  0  2  0  0  0  0  0  0  0  0  0
    6.0080   -0.0200  -53.2500 C   0  0  0  0  0  0  0  0  0  0  0  0
    8.4270    0.6350  -53.4230 C   0  0  0  0  0  0  0  0  0  0  0  0
    8.9010   -1.5130  -54.6120 C   0  0  0  0  0  0  0  0  0  0  0  0
   10.5850    2.0930  -56.9450 N   0  0  0  0  0  0  0  0  0  0  0  0
   10.3140    3.3250  -57.3130 C   0  0  0  0  0  0  0  0  0  0  0  0
   11.2470    4.0920  -58.1550 C   0  0  0  0  0  0  0  0  0  0  0  0
   12.5910    3.7410  -58.2720 C   0  0  0  0  0  0  0  0  0  0  0  0
   13.4270    4.5150  -59.0750 C   0  0  0  0  0  0  0  0  0  0  0  0
   12.8820    5.6090  -59.7320 C   0  0  0  0  0  0  0  0  0  0  0  0
   11.5830    5.9660  -59.6440 N   0  0  0  0  0  0  0  0  0  0  0  0
   10.7860    5.1880  -58.8700 C   0  0  0  0  0  0  0  0  0  0  0  0
    7.4880    3.4920  -59.8820 C   0  0  0  0  0  0  0  0  0  0  0  0
    6.6530    2.6880  -60.6660 C   0  0  0  0  0  0  0  0  0  0  0  0
    7.0110    2.5660  -62.3520 Cl  0  0  0  0  0  0  0  0  0  0  0  0
    4.4965    1.6364  -58.2368 H   0  0  0  0  0  0  0  0  0  0  0  0
    5.9843    3.0698  -56.8462 H   0  0  0  0  0  0  0  0  0  0  0  0
    8.7252    5.1914  -58.3522 H   0  0  0  0  0  0  0  0  0  0  0  0
    7.4969    5.1273  -57.0064 H   0  0  0  0  0  0  0  0  0  0  0  0
    8.2810    2.9280  -55.1530 H   0  0  0  0  0  0  0  0  0  0  0  0
    6.8091    1.0455  -55.6506 H   0  0  0  0  0  0  0  0  0  0  0  0
    7.1881   -0.5151  -56.4679 H   0  0  0  0  0  0  0  0  0  0  0  0
    5.0918   -0.6769  -55.1098 H   0  0  0  0  0  0  0  0  0  0  0  0
    5.7506   -2.6933  -53.8010 H   0  0  0  0  0  0  0  0  0  0  0  0
    6.5587   -2.6736  -55.4086 H   0  0  0  0  0  0  0  0  0  0  0  0
    8.1682   -3.2950  -53.6062 H   0  0  0  0  0  0  0  0  0  0  0  0
    7.0382   -2.0657  -51.7481 H   0  0  0  0  0  0  0  0  0  0  0  0
    8.7708   -1.5975  -51.8829 H   0  0  0  0  0  0  0  0  0  0  0  0
    7.3148    0.4092  -51.5687 H   0  0  0  0  0  0  0  0  0  0  0  0
    5.2577   -0.5252  -52.6241 H   0  0  0  0  0  0  0  0  0  0  0  0
    5.7283    1.0337  -53.3967 H   0  0  0  0  0  0  0  0  0  0  0  0
    8.1445    1.6920  -53.5371 H   0  0  0  0  0  0  0  0  0  0  0  0
    9.4105    0.5605  -52.9360 H   0  0  0  0  0  0  0  0  0  0  0  0
    9.8841   -1.5580  -54.1205 H   0  0  0  0  0  0  0  0  0  0  0  0
    8.9398   -2.0033  -55.5959 H   0  0  0  0  0  0  0  0  0  0  0  0
   12.9866    2.8647  -57.7376 H   0  0  0  0  0  0  0  0  0  0  0  0
   14.4925    4.2648  -59.1852 H   0  0  0  0  0  0  0  0  0  0  0  0
   13.5464    6.2203  -60.3604 H   0  0  0  0  0  0  0  0  0  0  0  0
    9.7170    5.4394  -58.8057 H   0  0  0  0  0  0  0  0  0  0  0  0
    8.3349    4.0139  -60.3514 H   0  0  0  0  0  0  0  0  0  0  0  0
  1  2  1  0
  2  3  1  0
  3  4  2  0
  4  5  1  0
  5  6  1  0
  6  7  1  0
  7  8  1  0
  8  9  1  0
  9 10  2  0
 11 10  1  6
 11 12  1  0
 12 13  1  0
 13 14  1  0
 14 15  1  0
 15 16  1  0
 16 17  1  0
 17 18  1  0
 17 19  1  0
 15 20  1  0
  9 21  1  0
 21 22  2  0
 22 23  1  0
 23 24  1  0
 24 25  2  0
 25 26  1  0
 26 27  2  0
 27 28  1  0
  5 29  2  0
 29 30  1  0
 30 31  1  0
 30  2  2  0
 22  7  1  0
 28 23  2  0
 19 11  1  0
 20 11  1  0
 18 13  1  0
  3 32  1  0
  4 33  1  0
  6 34  1  0
  6 35  1  0
  8 36  1  0
 12 37  1  0
 12 38  1  0
 13 39  1  6
 14 40  1  0
 14 41  1  0
 15 42  1  1
 16 43  1  0
 16 44  1  0
 17 45  1  1
 18 46  1  0
 18 47  1  0
 19 48  1  0
 19 49  1  0
 20 50  1  0
 20 51  1  0
 24 52  1  0
 25 53  1  0
 26 54  1  0
 28 55  1  0
 29 56  1  0
M  END
>  <meeko>  (85) 
{"is_sidechain": false}

$$$$

     RDKit          3D

 56 61  0  0  0  0  0  0  0  0999 V2000
   12.1580   -5.9940  -56.5000 Cl  0  0  0  0  0  0  0  0  0  0  0  0
   11.7200   -4.4080  -55.9740 C   0  0  0  0  0  0  0  0  0  0  0  0
   11.4280   -4.2280  -54.6200 C   0  0  0  0  0  0  0  0  0  0  0  0
   11.0690   -2.9660  -54.1370 C   0  0  0  0  0  0  0  0  0  0  0  0
   10.9920   -1.8670  -55.0030 C   0  0  0  0  0  0  0  0  0  0  0  0
   10.5920   -0.5040  -54.4880 C   0  0  0  0  0  0  0  0  0  0  0  0
    9.2920   -0.0890  -54.9900 N   0  0  0  0  0  0  0  0  0  0  0  0
    9.2140    0.8620  -55.9410 N   0  0  0  0  0  0  0  0  0  0  0  0
    7.8990    1.0360  -56.0470 C   0  0  0  0  0  0  0  0  0  0  0  0
    7.3420    1.9270  -56.8780 N   0  0  0  0  0  0  0  0  0  0  0  0
    8.0700    2.9150  -57.6660 C   0  0  2  0  0  0  0  0  0  0  0  0
    9.2880    2.2980  -58.3940 C   0  0  0  0  0  0  0  0  0  0  0  0
    9.9860    3.3570  -59.2680 C   0  0  1  0  0  0  0  0  0  0  0  0
    8.9990    3.8730  -60.3270 C   0  0  0  0  0  0  0  0  0  0  0  0
    7.7780    4.5050  -59.6390 C   0  0  2  0  0  0  0  0  0  0  0  0
    8.2400    5.6760  -58.7570 C   0  0  0  0  0  0  0  0  0  0  0  0
    9.2230    5.1720  -57.6880 C   0  0  2  0  0  0  0  0  0  0  0  0
   10.4380    4.5290  -58.3790 C   0  0  0  0  0  0  0  0  0  0  0  0
    8.5230    4.1210  -56.8090 C   0  0  0  0  0  0  0  0  0  0  0  0
    7.0950    3.4480  -58.7560 C   0  0  0  0  0  0  0  0  0  0  0  0
    7.1560    0.2340  -55.2390 N   0  0  0  0  0  0  0  0  0  0  0  0
    8.0420   -0.4940  -54.5910 C   0  0  0  0  0  0  0  0  0  0  0  0
    7.7480   -1.4940  -53.5780 C   0  0  0  0  0  0  0  0  0  0  0  0
    7.4370   -2.8160  -53.9010 C   0  0  0  0  0  0  0  0  0  0  0  0
    7.1880   -3.7340  -52.8830 C   0  0  0  0  0  0  0  0  0  0  0  0
    7.2540   -3.2960  -51.5700 C   0  0  0  0  0  0  0  0  0  0  0  0
    7.5340   -2.0230  -51.2200 N   0  0  0  0  0  0  0  0  0  0  0  0
    7.7610   -1.1490  -52.2320 C   0  0  0  0  0  0  0  0  0  0  0  0
   11.2960   -2.0550  -56.3610 C   0  0  0  0  0  0  0  0  0  0  0  0
   11.6540   -3.3180  -56.8470 C   0  0  0  0  0  0  0  0  0  0  0  0
   12.0040   -3.4560  -58.5340 Cl  0  0  0  0  0  0  0  0  0  0  0  0
   11.4807   -5.0833  -53.9303 H   0  0  0  0  0  0  0  0  0  0  0  0
   10.8451   -2.8347  -53.0681 H   0  0  0  0  0  0  0  0  0  0  0  0
   10.5537   -0.5373  -53.3892 H   0  0  0  0  0  0  0  0  0  0  0  0
   11.3386    0.2233  -54.8397 H   0  0  0  0  0  0  0  0  0  0  0  0
    6.3900    2.1740  -56.6390 H   0  0  0  0  0  0  0  0  0  0  0  0
   10.0010    1.9169  -57.6480 H   0  0  0  0  0  0  0  0  0  0  0  0
    8.9396    1.4775  -59.0386 H   0  0  0  0  0  0  0  0  0  0  0  0
   10.8598    2.9103  -59.7650 H   0  0  0  0  0  0  0  0  0  0  0  0
    9.4970    4.6284  -60.9526 H   0  0  0  0  0  0  0  0  0  0  0  0
    8.6671    3.0320  -60.9536 H   0  0  0  0  0  0  0  0  0  0  0  0
    7.0721    4.8705  -60.3994 H   0  0  0  0  0  0  0  0  0  0  0  0
    8.7385    6.4299  -59.3840 H   0  0  0  0  0  0  0  0  0  0  0  0
    7.3652    6.1226  -58.2618 H   0  0  0  0  0  0  0  0  0  0  0  0
    9.5550    6.0144  -57.0634 H   0  0  0  0  0  0  0  0  0  0  0  0
   10.9432    5.2827  -59.0008 H   0  0  0  0  0  0  0  0  0  0  0  0
   11.1288    4.1509  -57.6110 H   0  0  0  0  0  0  0  0  0  0  0  0
    9.2222    3.7728  -56.0345 H   0  0  0  0  0  0  0  0  0  0  0  0
    7.6384    4.5788  -56.3422 H   0  0  0  0  0  0  0  0  0  0  0  0
    6.2202    3.9001  -58.2657 H   0  0  0  0  0  0  0  0  0  0  0  0
    6.7881    2.6054  -59.3930 H   0  0  0  0  0  0  0  0  0  0  0  0
    7.3888   -3.1313  -54.9538 H   0  0  0  0  0  0  0  0  0  0  0  0
    6.9449   -4.7812  -53.1159 H   0  0  0  0  0  0  0  0  0  0  0  0
    7.0679   -4.0262  -50.7687 H   0  0  0  0  0  0  0  0  0  0  0  0
    7.9685   -0.1008  -51.9707 H   0  0  0  0  0  0  0  0  0  0  0  0
   11.2523   -1.1995  -57.0511 H   0  0  0  0  0  0  0  0  0  0  0  0
  1  2  1  0
  2  3  1  0
  3  4  2  0
  4  5  1  0
  5  6  1  0
  6  7  1  0
  7  8  1  0
  8  9  2  0
  9 10  1  0
 11 10  1  1
 11 12  1  0
 12 13  1  0
 13 14  1  0
 14 15  1  0
 15 16  1  0
 16 17  1  0
 17 18  1  0
 17 19  1  0
 15 20  1  0
  9 21  1  0
 21 22  2  0
 22 23  1  0
 23 24  1  0
 24 25  2  0
 25 26  1  0
 26 27  2  0
 27 28  1  0
  5 29  2  0
 29 30  1  0
 30 31  1  0
 30  2  2  0
 22  7  1  0
 28 23  2  0
 19 11  1  0
 20 11  1  0
 18 13  1  0
  3 32  1  0
  4 33  1  0
  6 34  1  0
  6 35  1  0
 10 36  1  0
 12 37  1  0
 12 38  1  0
 13 39  1  6
 14 40  1  0
 14 41  1  0
 15 42  1  6
 16 43  1  0
 16 44  1  0
 17 45  1  1
 18 46  1  0
 18 47  1  0
 19 48  1  0
 19 49  1  0
 20 50  1  0
 20 51  1  0
 24 52  1  0
 25 53  1  0
 26 54  1  0
 28 55  1  0
 29 56  1  0
M  END
>  <meeko>  (86) 
{"is_sidechain": false}

$$$$

     RDKit          3D

 60 65  0  0  0  0  0  0  0  0999 V2000
    9.5430   -1.3080  -54.9040 C   0  0  0  0  0  0  0  0  0  0  0  0
    8.4180   -0.4070  -54.6760 N   0  0  0  0  0  0  0  0  0  0  0  0
    7.1280   -0.9490  -54.5940 C   0  0  0  0  0  0  0  0  0  0  0  0
    6.5490   -1.7810  -53.8310 N   0  0  0  0  0  0  0  0  0  0  0  0
    7.0500   -2.4350  -52.6360 C   0  0  2  0  0  0  0  0  0  0  0  0
    5.8200   -3.1560  -52.0100 C   0  0  0  0  0  0  0  0  0  0  0  0
    6.2170   -3.9250  -50.7390 C   0  0  1  0  0  0  0  0  0  0  0  0
    7.2870   -4.9700  -51.0960 C   0  0  0  0  0  0  0  0  0  0  0  0
    8.5140   -4.2720  -51.7060 C   0  0  2  0  0  0  0  0  0  0  0  0
    9.0850   -3.2670  -50.6880 C   0  0  0  0  0  0  0  0  0  0  0  0
    8.0190   -2.2250  -50.3100 C   0  0  2  0  0  0  0  0  0  0  0  0
    6.7950   -2.9380  -49.7140 C   0  0  0  0  0  0  0  0  0  0  0  0
    7.5910   -1.4580  -51.5740 C   0  0  0  0  0  0  0  0  0  0  0  0
    8.0860   -3.5220  -52.9800 C   0  0  0  0  0  0  0  0  0  0  0  0
    6.3010   -0.3930  -55.5580 N   0  0  0  0  0  0  0  0  0  0  0  0
    7.0230    0.5400  -56.1310 C   0  0  0  0  0  0  0  0  0  0  0  0
    6.4710    1.3780  -57.2160 C   0  0  0  0  0  0  0  0  0  0  0  0
    5.3120    2.1360  -57.0120 C   0  0  0  0  0  0  0  0  0  0  0  0
    4.8010    2.9170  -58.0500 C   0  0  0  0  0  0  0  0  0  0  0  0
    5.4490    2.9430  -59.2850 C   0  0  0  0  0  0  0  0  0  0  0  0
    6.6130    2.1970  -59.4770 C   0  0  0  0  0  0  0  0  0  0  0  0
    7.4060    2.2370  -61.0030 Cl  0  0  0  0  0  0  0  0  0  0  0  0
    7.1330    1.4180  -58.4470 C   0  0  0  0  0  0  0  0  0  0  0  0
    8.3200    0.6370  -55.6270 N   0  0  0  0  0  0  0  0  0  0  0  0
    8.8920    1.9340  -55.2330 C   0  0  0  0  0  0  0  0  0  0  0  0
    9.4910    2.6990  -56.3960 C   0  0  0  0  0  0  0  0  0  0  0  0
   10.7000    2.2950  -56.9780 C   0  0  0  0  0  0  0  0  0  0  0  0
   11.2280    2.9880  -58.0700 C   0  0  0  0  0  0  0  0  0  0  0  0
   10.5570    4.0960  -58.5960 C   0  0  0  0  0  0  0  0  0  0  0  0
   11.2730    4.9070  -59.9420 Cl  0  0  0  0  0  0  0  0  0  0  0  0
    9.3520    4.5110  -58.0240 C   0  0  0  0  0  0  0  0  0  0  0  0
    8.4630    5.8710  -58.6110 Cl  0  0  0  0  0  0  0  0  0  0  0  0
    8.8250    3.8150  -56.9300 C   0  0  0  0  0  0  0  0  0  0  0  0
    9.9522   -1.6357  -53.9369 H   0  0  0  0  0  0  0  0  0  0  0  0
    9.2010   -2.1848  -55.4735 H   0  0  0  0  0  0  0  0  0  0  0  0
   10.3239   -0.7827  -55.4735 H   0  0  0  0  0  0  0  0  0  0  0  0
    5.0568   -2.4067  -51.7529 H   0  0  0  0  0  0  0  0  0  0  0  0
    5.4251   -3.8740  -52.7438 H   0  0  0  0  0  0  0  0  0  0  0  0
    5.3348   -4.4269  -50.3149 H   0  0  0  0  0  0  0  0  0  0  0  0
    7.5886   -5.5094  -50.1860 H   0  0  0  0  0  0  0  0  0  0  0  0
    6.8720   -5.6794  -51.8271 H   0  0  0  0  0  0  0  0  0  0  0  0
    9.2819   -5.0188  -51.9562 H   0  0  0  0  0  0  0  0  0  0  0  0
    9.4012   -3.8071  -49.7834 H   0  0  0  0  0  0  0  0  0  0  0  0
    9.9452   -2.7509  -51.1392 H   0  0  0  0  0  0  0  0  0  0  0  0
    8.4343   -1.5246  -49.5704 H   0  0  0  0  0  0  0  0  0  0  0  0
    7.0965   -3.4861  -48.8092 H   0  0  0  0  0  0  0  0  0  0  0  0
    6.0292   -2.1912  -49.4574 H   0  0  0  0  0  0  0  0  0  0  0  0
    6.8040   -0.7359  -51.3110 H   0  0  0  0  0  0  0  0  0  0  0  0
    8.4645   -0.9309  -51.9852 H   0  0  0  0  0  0  0  0  0  0  0  0
    8.9683   -3.0509  -53.4378 H   0  0  0  0  0  0  0  0  0  0  0  0
    7.6347   -4.2378  -53.6828 H   0  0  0  0  0  0  0  0  0  0  0  0
    4.8051    2.1163  -56.0360 H   0  0  0  0  0  0  0  0  0  0  0  0
    3.8885    3.5112  -57.8943 H   0  0  0  0  0  0  0  0  0  0  0  0
    5.0430    3.5509  -60.1069 H   0  0  0  0  0  0  0  0  0  0  0  0
    8.0559    0.8394  -58.6001 H   0  0  0  0  0  0  0  0  0  0  0  0
    8.0954    2.5460  -54.7849 H   0  0  0  0  0  0  0  0  0  0  0  0
    9.7056    1.7304  -54.5213 H   0  0  0  0  0  0  0  0  0  0  0  0
   11.2375    1.4254  -56.5718 H   0  0  0  0  0  0  0  0  0  0  0  0
   12.1773    2.6600  -58.5186 H   0  0  0  0  0  0  0  0  0  0  0  0
    7.8765    4.1462  -56.4822 H   0  0  0  0  0  0  0  0  0  0  0  0
  1  2  1  0
  2  3  1  0
  3  4  2  0
  5  4  1  6
  5  6  1  0
  6  7  1  0
  7  8  1  0
  8  9  1  0
  9 10  1  0
 10 11  1  0
 11 12  1  0
 11 13  1  0
  9 14  1  0
  3 15  1  0
 15 16  2  0
 16 17  1  0
 17 18  2  0
 18 19  1  0
 19 20  2  0
 20 21  1  0
 21 22  1  0
 21 23  2  0
 16 24  1  0
 24 25  1  0
 25 26  1  0
 26 27  1  0
 27 28  2  0
 28 29  1  0
 29 30  1  0
 29 31  2  0
 31 32  1  0
 31 33  1  0
 24  2  1  0
 33 26  2  0
 13  5  1  0
 23 17  1  0
 14  5  1  0
 12  7  1  0
  1 34  1  0
  1 35  1  0
  1 36  1  0
  6 37  1  0
  6 38  1  0
  7 39  1  1
  8 40  1  0
  8 41  1  0
  9 42  1  6
 10 43  1  0
 10 44  1  0
 11 45  1  1
 12 46  1  0
 12 47  1  0
 13 48  1  0
 13 49  1  0
 14 50  1  0
 14 51  1  0
 18 52  1  0
 19 53  1  0
 20 54  1  0
 23 55  1  0
 25 56  1  0
 25 57  1  0
 27 58  1  0
 28 59  1  0
 33 60  1  0
M  END
>  <meeko>  (87) 
{"is_sidechain": false}

$$$$

     RDKit          3D

 57 62  0  0  0  0  0  0  0  0999 V2000
   12.9690    6.4890  -59.6820 C   0  0  0  0  0  0  0  0  0  0  0  0
   13.1560    4.8730  -58.9770 S   0  0  0  0  0  0  0  0  0  0  0  0
   13.4290    5.0410  -57.5610 O   0  0  0  0  0  0  0  0  0  0  0  0
   14.0430    4.1010  -59.8240 O   0  0  0  0  0  0  0  0  0  0  0  0
   11.5340    4.1630  -59.1290 C   0  0  0  0  0  0  0  0  0  0  0  0
   10.7880    4.4140  -60.2830 C   0  0  0  0  0  0  0  0  0  0  0  0
    9.5180    3.8520  -60.4110 C   0  0  0  0  0  0  0  0  0  0  0  0
    9.0060    3.0460  -59.3920 C   0  0  0  0  0  0  0  0  0  0  0  0
    9.7610    2.7920  -58.2380 C   0  0  0  0  0  0  0  0  0  0  0  0
    9.1930    1.9130  -57.1890 C   0  0  0  0  0  0  0  0  0  0  0  0
    9.9460    1.0300  -56.5620 N   0  0  0  0  0  0  0  0  0  0  0  0
    9.0860    0.4210  -55.6690 C   0  0  0  0  0  0  0  0  0  0  0  0
    9.6000   -0.4080  -54.8520 N   0  0  0  0  0  0  0  0  0  0  0  0
    8.8600   -1.1540  -53.8390 C   0  0  2  0  0  0  0  0  0  0  0  0
    8.0030   -0.2500  -52.9270 C   0  0  0  0  0  0  0  0  0  0  0  0
    7.1840   -1.1090  -51.9460 C   0  0  1  0  0  0  0  0  0  0  0  0
    6.2450   -2.0320  -52.7400 C   0  0  0  0  0  0  0  0  0  0  0  0
    7.0670   -2.9520  -53.6550 C   0  0  2  0  0  0  0  0  0  0  0  0
    8.0160   -3.8050  -52.8010 C   0  0  0  0  0  0  0  0  0  0  0  0
    8.9690   -2.8950  -52.0090 C   0  0  2  0  0  0  0  0  0  0  0  0
    8.1430   -1.9650  -51.1010 C   0  0  0  0  0  0  0  0  0  0  0  0
    9.7940   -2.0440  -52.9910 C   0  0  0  0  0  0  0  0  0  0  0  0
    7.8960   -2.0890  -54.6200 C   0  0  0  0  0  0  0  0  0  0  0  0
    7.7970    0.8840  -55.8330 N   0  0  0  0  0  0  0  0  0  0  0  0
    7.8630    1.9100  -56.7530 N   0  0  0  0  0  0  0  0  0  0  0  0
    6.7720    2.0150  -57.7440 C   0  0  0  0  0  0  0  0  0  0  0  0
    5.9260    3.2540  -57.9100 C   0  0  0  0  0  0  0  0  0  0  0  0
    5.3200    2.0090  -57.3360 C   0  0  0  0  0  0  0  0  0  0  0  0
   11.0400    3.3390  -58.1120 C   0  0  0  0  0  0  0  0  0  0  0  0
   12.8829    7.2328  -58.8762 H   0  0  0  0  0  0  0  0  0  0  0  0
   13.8462    6.7216  -60.3036 H   0  0  0  0  0  0  0  0  0  0  0  0
   12.0618    6.5151  -60.3036 H   0  0  0  0  0  0  0  0  0  0  0  0
   11.1980    5.0484  -61.0826 H   0  0  0  0  0  0  0  0  0  0  0  0
    8.9200    4.0435  -61.3141 H   0  0  0  0  0  0  0  0  0  0  0  0
    8.0027    2.6070  -59.4954 H   0  0  0  0  0  0  0  0  0  0  0  0
    8.6624    0.4222  -52.3584 H   0  0  0  0  0  0  0  0  0  0  0  0
    7.3140    0.3390  -53.5502 H   0  0  0  0  0  0  0  0  0  0  0  0
    6.5909   -0.4568  -51.2880 H   0  0  0  0  0  0  0  0  0  0  0  0
    5.6576   -2.6442  -52.0399 H   0  0  0  0  0  0  0  0  0  0  0  0
    5.5696   -1.4191  -53.3550 H   0  0  0  0  0  0  0  0  0  0  0  0
    6.3919   -3.6083  -54.2238 H   0  0  0  0  0  0  0  0  0  0  0  0
    7.4271   -4.4145  -52.0998 H   0  0  0  0  0  0  0  0  0  0  0  0
    8.6051   -4.4602  -53.4595 H   0  0  0  0  0  0  0  0  0  0  0  0
    9.6441   -3.5098  -51.3956 H   0  0  0  0  0  0  0  0  0  0  0  0
    7.5596   -2.5727  -50.3936 H   0  0  0  0  0  0  0  0  0  0  0  0
    8.8266   -1.3008  -50.5520 H   0  0  0  0  0  0  0  0  0  0  0  0
   10.4884   -1.4061  -52.4245 H   0  0  0  0  0  0  0  0  0  0  0  0
   10.3579   -2.7117  -53.6589 H   0  0  0  0  0  0  0  0  0  0  0  0
    8.4851   -2.7468  -55.2759 H   0  0  0  0  0  0  0  0  0  0  0  0
    7.2095   -1.4684  -55.2146 H   0  0  0  0  0  0  0  0  0  0  0  0
    7.3150    1.0920  -54.9690 H   0  0  0  0  0  0  0  0  0  0  0  0
    7.4045    1.4140  -58.4139 H   0  0  0  0  0  0  0  0  0  0  0  0
    6.0995    4.1283  -57.2654 H   0  0  0  0  0  0  0  0  0  0  0  0
    5.6816    3.9209  -58.7499 H   0  0  0  0  0  0  0  0  0  0  0  0
    5.0490    1.9708  -56.2706 H   0  0  0  0  0  0  0  0  0  0  0  0
    4.4472    1.3860  -57.5814 H   0  0  0  0  0  0  0  0  0  0  0  0
   11.6518    3.1244  -57.2234 H   0  0  0  0  0  0  0  0  0  0  0  0
  1  2  1  0
  2  3  2  0
  2  4  2  0
  2  5  1  0
  5  6  2  0
  6  7  1  0
  7  8  2  0
  8  9  1  0
  9 10  1  0
 10 11  2  0
 11 12  1  0
 12 13  2  0
 14 13  1  6
 14 15  1  0
 15 16  1  0
 16 17  1  0
 17 18  1  0
 18 19  1  0
 19 20  1  0
 20 21  1  0
 20 22  1  0
 18 23  1  0
 12 24  1  0
 24 25  1  0
 25 26  1  0
 26 27  1  0
 27 28  1  0
  9 29  2  0
 29  5  1  0
 25 10  1  0
 28 26  1  0
 22 14  1  0
 23 14  1  0
 21 16  1  0
  1 30  1  0
  1 31  1  0
  1 32  1  0
  6 33  1  0
  7 34  1  0
  8 35  1  0
 15 36  1  0
 15 37  1  0
 16 38  1  1
 17 39  1  0
 17 40  1  0
 18 41  1  6
 19 42  1  0
 19 43  1  0
 20 44  1  1
 21 45  1  0
 21 46  1  0
 22 47  1  0
 22 48  1  0
 23 49  1  0
 23 50  1  0
 24 51  1  0
 26 52  1  0
 27 53  1  0
 27 54  1  0
 28 55  1  0
 28 56  1  0
 29 57  1  0
M  END
>  <meeko>  (88) 
{"is_sidechain": false}

$$$$

     RDKit          3D

 57 62  0  0  0  0  0  0  0  0999 V2000
   12.2330   -6.4710  -57.2050 C   0  0  0  0  0  0  0  0  0  0  0  0
   12.5120   -4.7720  -57.6270 S   0  0  0  0  0  0  0  0  0  0  0  0
   13.9460   -4.5460  -57.6180 O   0  0  0  0  0  0  0  0  0  0  0  0
   11.7160   -4.4530  -58.7960 O   0  0  0  0  0  0  0  0  0  0  0  0
   11.8160   -3.8850  -56.2550 C   0  0  0  0  0  0  0  0  0  0  0  0
   11.7760   -4.4740  -54.9910 C   0  0  0  0  0  0  0  0  0  0  0  0
   11.2480   -3.7560  -53.9200 C   0  0  0  0  0  0  0  0  0  0  0  0
   10.7600   -2.4590  -54.1170 C   0  0  0  0  0  0  0  0  0  0  0  0
   10.7850   -1.8640  -55.3870 C   0  0  0  0  0  0  0  0  0  0  0  0
   10.2930   -0.5080  -55.6320 C   0  0  0  0  0  0  0  0  0  0  0  0
   10.9300    0.4160  -56.3310 N   0  0  0  0  0  0  0  0  0  0  0  0
   10.0980    1.4960  -56.3010 C   0  0  0  0  0  0  0  0  0  0  0  0
   10.5300    2.5910  -56.9390 N   0  0  0  0  0  0  0  0  0  0  0  0
    9.8680    3.2100  -58.0830 C   0  0  2  0  0  0  0  0  0  0  0  0
    9.7230    2.2310  -59.2720 C   0  0  0  0  0  0  0  0  0  0  0  0
    9.0820    2.9430  -60.4780 C   0  0  1  0  0  0  0  0  0  0  0  0
    7.7020    3.4870  -60.0710 C   0  0  0  0  0  0  0  0  0  0  0  0
    7.8460    4.4920  -58.9140 C   0  0  2  0  0  0  0  0  0  0  0  0
    8.7520    5.6500  -59.3610 C   0  0  0  0  0  0  0  0  0  0  0  0
   10.1350    5.1120  -59.7600 C   0  0  2  0  0  0  0  0  0  0  0  0
    9.9790    4.1110  -60.9150 C   0  0  0  0  0  0  0  0  0  0  0  0
   10.7620    4.3930  -58.5550 C   0  0  0  0  0  0  0  0  0  0  0  0
    8.4830    3.7850  -57.7040 C   0  0  0  0  0  0  0  0  0  0  0  0
    8.9660    1.3070  -55.6330 N   0  0  0  0  0  0  0  0  0  0  0  0
    9.0860    0.0300  -55.2510 N   0  0  0  0  0  0  0  0  0  0  0  0
    7.9790   -0.6630  -54.5530 C   0  0  0  0  0  0  0  0  0  0  0  0
    7.6770   -0.4060  -53.0930 C   0  0  0  0  0  0  0  0  0  0  0  0
    6.7030    0.0360  -54.1430 C   0  0  0  0  0  0  0  0  0  0  0  0
   11.3410   -2.5840  -56.4540 C   0  0  0  0  0  0  0  0  0  0  0  0
   12.2153   -6.5788  -56.1104 H   0  0  0  0  0  0  0  0  0  0  0  0
   11.2690   -6.7987  -57.6214 H   0  0  0  0  0  0  0  0  0  0  0  0
   13.0416   -7.0898  -57.6214 H   0  0  0  0  0  0  0  0  0  0  0  0
   12.1574   -5.4949  -54.8414 H   0  0  0  0  0  0  0  0  0  0  0  0
   11.2146   -4.2091  -52.9182 H   0  0  0  0  0  0  0  0  0  0  0  0
   10.3510   -1.8982  -53.2636 H   0  0  0  0  0  0  0  0  0  0  0  0
   11.0580    3.2240  -56.3480 H   0  0  0  0  0  0  0  0  0  0  0  0
   10.7176    1.8580  -59.5578 H   0  0  0  0  0  0  0  0  0  0  0  0
    9.0783    1.3931  -58.9680 H   0  0  0  0  0  0  0  0  0  0  0  0
    8.9698    2.2324  -61.3101 H   0  0  0  0  0  0  0  0  0  0  0  0
    7.2410    3.9900  -60.9338 H   0  0  0  0  0  0  0  0  0  0  0  0
    7.0693    2.6496  -59.7419 H   0  0  0  0  0  0  0  0  0  0  0  0
    6.8561    4.8822  -58.6349 H   0  0  0  0  0  0  0  0  0  0  0  0
    8.2957    6.1572  -60.2239 H   0  0  0  0  0  0  0  0  0  0  0  0
    8.8673    6.3600  -58.5287 H   0  0  0  0  0  0  0  0  0  0  0  0
   10.7786    5.9460  -60.0765 H   0  0  0  0  0  0  0  0  0  0  0  0
    9.5227    4.6181  -61.7779 H   0  0  0  0  0  0  0  0  0  0  0  0
   10.9697    3.7221  -61.1930 H   0  0  0  0  0  0  0  0  0  0  0  0
   11.7501    4.0045  -58.8424 H   0  0  0  0  0  0  0  0  0  0  0  0
   10.8558    5.1124  -57.7282 H   0  0  0  0  0  0  0  0  0  0  0  0
    8.6029    4.5079  -56.8836 H   0  0  0  0  0  0  0  0  0  0  0  0
    7.8284    2.9595  -57.3878 H   0  0  0  0  0  0  0  0  0  0  0  0
    8.2164   -1.5449  -55.1661 H   0  0  0  0  0  0  0  0  0  0  0  0
    7.4248   -1.2453  -52.4282 H   0  0  0  0  0  0  0  0  0  0  0  0
    8.2062    0.0909  -52.2665 H   0  0  0  0  0  0  0  0  0  0  0  0
    5.7368   -0.4793  -54.2474 H   0  0  0  0  0  0  0  0  0  0  0  0
    6.2234    0.9910  -54.4036 H   0  0  0  0  0  0  0  0  0  0  0  0
   11.4040   -2.1243  -57.4513 H   0  0  0  0  0  0  0  0  0  0  0  0
  1  2  1  0
  2  3  2  0
  2  4  2  0
  2  5  1  0
  5  6  2  0
  6  7  1  0
  7  8  2  0
  8  9  1  0
  9 10  1  0
 10 11  2  0
 11 12  1  0
 12 13  1  0
 14 13  1  1
 14 15  1  0
 15 16  1  0
 16 17  1  0
 17 18  1  0
 18 19  1  0
 19 20  1  0
 20 21  1  0
 20 22  1  0
 18 23  1  0
 12 24  2  0
 24 25  1  0
 25 26  1  0
 26 27  1  0
 27 28  1  0
  9 29  2  0
 29  5  1  0
 25 10  1  0
 28 26  1  0
 22 14  1  0
 23 14  1  0
 21 16  1  0
  1 30  1  0
  1 31  1  0
  1 32  1  0
  6 33  1  0
  7 34  1  0
  8 35  1  0
 13 36  1  0
 15 37  1  0
 15 38  1  0
 16 39  1  6
 17 40  1  0
 17 41  1  0
 18 42  1  1
 19 43  1  0
 19 44  1  0
 20 45  1  6
 21 46  1  0
 21 47  1  0
 22 48  1  0
 22 49  1  0
 23 50  1  0
 23 51  1  0
 26 52  1  0
 27 53  1  0
 27 54  1  0
 28 55  1  0
 28 56  1  0
 29 57  1  0
M  END
>  <meeko>  (89) 
{"is_sidechain": false}

$$$$

     RDKit          3D

 57 62  0  0  0  0  0  0  0  0999 V2000
   12.5860   -3.3730  -57.5900 C   0  0  0  0  0  0  0  0  0  0  0  0
   11.6430   -4.3300  -56.4330 S   0  0  0  0  0  0  0  0  0  0  0  0
   10.4710   -4.8450  -57.1130 O   0  0  0  0  0  0  0  0  0  0  0  0
   12.5500   -5.2230  -55.7350 O   0  0  0  0  0  0  0  0  0  0  0  0
   11.0870   -3.1210  -55.2550 C   0  0  0  0  0  0  0  0  0  0  0  0
   11.5290   -3.1950  -53.9310 C   0  0  0  0  0  0  0  0  0  0  0  0
   11.0950   -2.2420  -53.0110 C   0  0  0  0  0  0  0  0  0  0  0  0
   10.2430   -1.2130  -53.4200 C   0  0  0  0  0  0  0  0  0  0  0  0
    9.8370   -1.1230  -54.7580 C   0  0  0  0  0  0  0  0  0  0  0  0
    8.9440   -0.0170  -55.1650 C   0  0  0  0  0  0  0  0  0  0  0  0
    9.3000    0.8310  -56.1110 N   0  0  0  0  0  0  0  0  0  0  0  0
    8.2340    1.7020  -56.1880 C   0  0  0  0  0  0  0  0  0  0  0  0
    8.2300    2.7880  -56.8610 N   0  0  0  0  0  0  0  0  0  0  0  0
    9.3540    3.2290  -57.6920 C   0  0  2  0  0  0  0  0  0  0  0  0
    8.9290    4.6070  -58.2730 C   0  0  0  0  0  0  0  0  0  0  0  0
   10.0310    5.1880  -59.1720 C   0  0  1  0  0  0  0  0  0  0  0  0
   11.3140    5.3640  -58.3460 C   0  0  0  0  0  0  0  0  0  0  0  0
   11.7590    4.0090  -57.7750 C   0  0  2  0  0  0  0  0  0  0  0  0
   12.0150    3.0290  -58.9340 C   0  0  0  0  0  0  0  0  0  0  0  0
   10.7380    2.8500  -59.7740 C   0  0  2  0  0  0  0  0  0  0  0  0
   10.3020    4.2140  -60.3300 C   0  0  0  0  0  0  0  0  0  0  0  0
    9.6190    2.2820  -58.8830 C   0  0  0  0  0  0  0  0  0  0  0  0
   10.6440    3.4470  -56.8720 C   0  0  0  0  0  0  0  0  0  0  0  0
    7.1940    1.2880  -55.3880 N   0  0  0  0  0  0  0  0  0  0  0  0
    7.6810    0.2520  -54.6210 N   0  0  0  0  0  0  0  0  0  0  0  0
    6.7740   -0.8790  -54.3250 C   0  0  0  0  0  0  0  0  0  0  0  0
    5.5100   -0.6960  -53.5270 C   0  0  0  0  0  0  0  0  0  0  0  0
    6.6420   -1.5000  -52.9570 C   0  0  0  0  0  0  0  0  0  0  0  0
   10.2480   -2.0870  -55.6800 C   0  0  0  0  0  0  0  0  0  0  0  0
   13.2560   -2.6931  -57.0434 H   0  0  0  0  0  0  0  0  0  0  0  0
   13.1833   -4.0465  -58.2222 H   0  0  0  0  0  0  0  0  0  0  0  0
   11.9038   -2.7857  -58.2222 H   0  0  0  0  0  0  0  0  0  0  0  0
   12.2129   -3.9977  -53.6180 H   0  0  0  0  0  0  0  0  0  0  0  0
   11.4234   -2.3001  -51.9628 H   0  0  0  0  0  0  0  0  0  0  0  0
    9.8897   -0.4709  -52.6890 H   0  0  0  0  0  0  0  0  0  0  0  0
    8.0109    4.4801  -58.8654 H   0  0  0  0  0  0  0  0  0  0  0  0
    8.7552    5.3014  -57.4377 H   0  0  0  0  0  0  0  0  0  0  0  0
    9.7118    6.1613  -59.5730 H   0  0  0  0  0  0  0  0  0  0  0  0
   12.1096    5.7674  -58.9897 H   0  0  0  0  0  0  0  0  0  0  0  0
   11.1179    6.0594  -57.5166 H   0  0  0  0  0  0  0  0  0  0  0  0
   12.6807    4.1389  -57.1888 H   0  0  0  0  0  0  0  0  0  0  0  0
   12.8175    3.4251  -59.5736 H   0  0  0  0  0  0  0  0  0  0  0  0
   12.3102    2.0538  -58.5194 H   0  0  0  0  0  0  0  0  0  0  0  0
   10.9354    2.1575  -60.6056 H   0  0  0  0  0  0  0  0  0  0  0  0
   11.1004    4.6197  -60.9687 H   0  0  0  0  0  0  0  0  0  0  0  0
    9.3823    4.0876  -60.9200 H   0  0  0  0  0  0  0  0  0  0  0  0
    8.6988    2.1785  -59.4768 H   0  0  0  0  0  0  0  0  0  0  0  0
    9.9299    1.2994  -58.4984 H   0  0  0  0  0  0  0  0  0  0  0  0
   10.9706    2.4868  -56.4460 H   0  0  0  0  0  0  0  0  0  0  0  0
   10.4393    4.1654  -56.0645 H   0  0  0  0  0  0  0  0  0  0  0  0
    6.7190    2.0520  -54.9230 H   0  0  0  0  0  0  0  0  0  0  0  0
    7.0276   -1.2621  -55.3245 H   0  0  0  0  0  0  0  0  0  0  0  0
    5.2666    0.2887  -53.1014 H   0  0  0  0  0  0  0  0  0  0  0  0
    4.4415   -0.8813  -53.7113 H   0  0  0  0  0  0  0  0  0  0  0  0
    7.2281   -1.1040  -52.1145 H   0  0  0  0  0  0  0  0  0  0  0  0
    6.7462   -2.5173  -52.5516 H   0  0  0  0  0  0  0  0  0  0  0  0
    9.9160   -2.0337  -56.7273 H   0  0  0  0  0  0  0  0  0  0  0  0
  1  2  1  0
  2  3  2  0
  2  4  2  0
  2  5  1  0
  5  6  2  0
  6  7  1  0
  7  8  2  0
  8  9  1  0
  9 10  1  0
 10 11  2  0
 11 12  1  0
 12 13  2  0
 14 13  1  1
 14 15  1  0
 15 16  1  0
 16 17  1  0
 17 18  1  0
 18 19  1  0
 19 20  1  0
 20 21  1  0
 20 22  1  0
 18 23  1  0
 12 24  1  0
 24 25  1  0
 25 26  1  0
 26 27  1  0
 27 28  1  0
  9 29  2  0
 29  5  1  0
 25 10  1  0
 28 26  1  0
 22 14  1  0
 23 14  1  0
 21 16  1  0
  1 30  1  0
  1 31  1  0
  1 32  1  0
  6 33  1  0
  7 34  1  0
  8 35  1  0
 15 36  1  0
 15 37  1  0
 16 38  1  6
 17 39  1  0
 17 40  1  0
 18 41  1  1
 19 42  1  0
 19 43  1  0
 20 44  1  6
 21 45  1  0
 21 46  1  0
 22 47  1  0
 22 48  1  0
 23 49  1  0
 23 50  1  0
 24 51  1  0
 26 52  1  0
 27 53  1  0
 27 54  1  0
 28 55  1  0
 28 56  1  0
 29 57  1  0
M  END
>  <meeko>  (90) 
{"is_sidechain": false}

$$$$

     RDKit          3D

 44 46  0  0  0  0  0  0  0  0999 V2000
    6.0410    1.1560  -58.7270 C   0  0  0  0  0  0  0  0  0  0  0  0
    6.7080    2.0100  -57.6620 C   0  0  0  0  0  0  0  0  0  0  0  0
    6.3680    1.5420  -56.2500 C   0  0  0  0  0  0  0  0  0  0  0  0
    8.2020    2.2450  -57.8470 C   0  0  0  0  0  0  0  0  0  0  0  0
    8.9980    2.0030  -56.8690 N   0  0  0  0  0  0  0  0  0  0  0  0
   10.4280    1.8780  -57.1470 C   0  0  0  0  0  0  0  0  0  0  0  0
   11.1860    3.1780  -57.4840 C   0  0  1  0  0  0  0  0  0  0  0  0
   11.6870    3.2300  -58.9490 C   0  0  0  0  0  0  0  0  0  0  0  0
   11.1440    4.3400  -59.8570 C   0  0  2  0  0  0  0  0  0  0  0  0
   10.9870    5.6440  -59.0930 C   0  0  0  0  0  0  0  0  0  0  0  0
    9.9870    5.4310  -57.9670 C   0  0  2  0  0  0  0  0  0  0  0  0
   10.5670    4.4670  -56.9300 C   0  0  0  0  0  0  0  0  0  0  0  0
    8.6140    5.0120  -58.5240 C   0  0  0  0  0  0  0  0  0  0  0  0
    8.6000    3.8940  -59.6010 C   0  0  1  0  0  0  0  0  0  0  0  0
    7.3870    3.9210  -60.4080 N   0  0  0  0  0  0  0  0  0  0  0  0
    7.0390    3.0280  -61.3740 C   0  0  0  0  0  0  0  0  0  0  0  0
    7.7760    2.1280  -61.9130 N   0  0  0  0  0  0  0  0  0  0  0  0
    9.8190    3.9850  -60.5480 C   0  0  0  0  0  0  0  0  0  0  0  0
    8.6670    2.5430  -59.0680 O   0  0  0  0  0  0  0  0  0  0  0  0
    5.4326    0.3770  -58.2444 H   0  0  0  0  0  0  0  0  0  0  0  0
    5.3959    1.7892  -59.3538 H   0  0  0  0  0  0  0  0  0  0  0  0
    6.8116    0.6835  -59.3538 H   0  0  0  0  0  0  0  0  0  0  0  0
    6.2637    3.0060  -57.8055 H   0  0  0  0  0  0  0  0  0  0  0  0
    6.8504    2.2060  -55.5175 H   0  0  0  0  0  0  0  0  0  0  0  0
    5.2776    1.5692  -56.1073 H   0  0  0  0  0  0  0  0  0  0  0  0
    6.7309    0.5134  -56.1073 H   0  0  0  0  0  0  0  0  0  0  0  0
   10.9027    1.4366  -56.2582 H   0  0  0  0  0  0  0  0  0  0  0  0
   10.4922    1.2628  -58.0566 H   0  0  0  0  0  0  0  0  0  0  0  0
   12.1116    3.1276  -56.8918 H   0  0  0  0  0  0  0  0  0  0  0  0
   12.7810    3.3398  -58.9168 H   0  0  0  0  0  0  0  0  0  0  0  0
   11.3134    2.2989  -59.4001 H   0  0  0  0  0  0  0  0  0  0  0  0
   11.8966    4.4591  -60.6504 H   0  0  0  0  0  0  0  0  0  0  0  0
   11.9579    5.9467  -58.6737 H   0  0  0  0  0  0  0  0  0  0  0  0
   10.6281    6.4341  -59.7690 H   0  0  0  0  0  0  0  0  0  0  0  0
    9.8068    6.3791  -57.4391 H   0  0  0  0  0  0  0  0  0  0  0  0
   11.3487    5.0032  -56.3720 H   0  0  0  0  0  0  0  0  0  0  0  0
    9.7145    4.1459  -56.3135 H   0  0  0  0  0  0  0  0  0  0  0  0
    8.0047    4.6639  -57.6769 H   0  0  0  0  0  0  0  0  0  0  0  0
    8.2294    5.9062  -59.0364 H   0  0  0  0  0  0  0  0  0  0  0  0
    6.6090    4.2800  -59.8680 H   0  0  0  0  0  0  0  0  0  0  0  0
    6.0017    3.0851  -61.7355 H   0  0  0  0  0  0  0  0  0  0  0  0
    7.2360    1.6110  -62.6160 H   0  0  0  0  0  0  0  0  0  0  0  0
    9.9414    3.0105  -61.0435 H   0  0  0  0  0  0  0  0  0  0  0  0
    9.6060    4.8042  -61.2505 H   0  0  0  0  0  0  0  0  0  0  0  0
  1  2  1  0
  2  3  1  0
  2  4  1  0
  4  5  2  0
  5  6  1  0
  6  7  1  0
  7  8  1  0
  8  9  1  0
  9 10  1  0
 10 11  1  0
 11 12  1  0
 11 13  1  0
 13 14  1  0
 14 15  1  6
 15 16  1  0
 16 17  2  3
 14 18  1  0
 14 19  1  0
 19  4  1  0
 12  7  1  0
 18  9  1  0
  1 20  1  0
  1 21  1  0
  1 22  1  0
  2 23  1  0
  3 24  1  0
  3 25  1  0
  3 26  1  0
  6 27  1  0
  6 28  1  0
  7 29  1  1
  8 30  1  0
  8 31  1  0
  9 32  1  6
 10 33  1  0
 10 34  1  0
 11 35  1  1
 12 36  1  0
 12 37  1  0
 13 38  1  0
 13 39  1  0
 15 40  1  0
 16 41  1  0
 17 42  1  0
 18 43  1  0
 18 44  1  0
M  END
>  <meeko>  (91) 
{"is_sidechain": false}

$$$$

     RDKit          3D

 44 46  0  0  0  0  0  0  0  0999 V2000
    6.6680    0.9680  -56.1080 C   0  0  0  0  0  0  0  0  0  0  0  0
    6.2200    2.3310  -56.6210 C   0  0  0  0  0  0  0  0  0  0  0  0
    4.8330    2.2710  -57.2470 C   0  0  0  0  0  0  0  0  0  0  0  0
    7.2060    2.8840  -57.6020 C   0  0  0  0  0  0  0  0  0  0  0  0
    8.3730    3.2740  -57.4130 N   0  0  0  0  0  0  0  0  0  0  0  0
    9.3780    3.4150  -56.4540 C   0  0  0  0  0  0  0  0  0  0  0  0
   10.5440    3.9100  -57.3370 C   0  0  1  0  0  0  0  0  0  0  0  0
   10.9720    2.8280  -58.3660 C   0  0  0  0  0  0  0  0  0  0  0  0
   10.3920    2.9260  -59.8030 C   0  0  2  0  0  0  0  0  0  0  0  0
   10.5330    4.3490  -60.3050 C   0  0  0  0  0  0  0  0  0  0  0  0
    9.6550    5.2470  -59.4550 C   0  0  2  0  0  0  0  0  0  0  0  0
   10.2100    5.2730  -58.0060 C   0  0  0  0  0  0  0  0  0  0  0  0
    8.1490    4.8990  -59.6180 C   0  0  0  0  0  0  0  0  0  0  0  0
    7.7590    3.4030  -59.8890 C   0  0  1  0  0  0  0  0  0  0  0  0
    6.9330    3.3250  -61.0910 N   0  0  0  0  0  0  0  0  0  0  0  0
    5.9760    2.4260  -61.4210 C   0  0  0  0  0  0  0  0  0  0  0  0
    5.5140    1.4710  -60.7040 N   0  0  0  0  0  0  0  0  0  0  0  0
    8.9500    2.3880  -60.0010 C   0  0  0  0  0  0  0  0  0  0  0  0
    6.7870    2.9260  -58.8830 O   0  0  0  0  0  0  0  0  0  0  0  0
    6.6668    0.9717  -55.0080 H   0  0  0  0  0  0  0  0  0  0  0  0
    5.9771    0.1937  -56.4728 H   0  0  0  0  0  0  0  0  0  0  0  0
    7.6836    0.7546  -56.4728 H   0  0  0  0  0  0  0  0  0  0  0  0
    6.1700    3.0033  -55.7518 H   0  0  0  0  0  0  0  0  0  0  0  0
    4.0732    2.2381  -56.4523 H   0  0  0  0  0  0  0  0  0  0  0  0
    4.6732    3.1631  -57.8704 H   0  0  0  0  0  0  0  0  0  0  0  0
    4.7508    1.3685  -57.8704 H   0  0  0  0  0  0  0  0  0  0  0  0
    9.1065    4.1558  -55.6875 H   0  0  0  0  0  0  0  0  0  0  0  0
    9.5942    2.5021  -55.8796 H   0  0  0  0  0  0  0  0  0  0  0  0
   11.4126    4.0856  -56.6854 H   0  0  0  0  0  0  0  0  0  0  0  0
   12.0679    2.8712  -58.4508 H   0  0  0  0  0  0  0  0  0  0  0  0
   10.5636    1.8882  -57.9659 H   0  0  0  0  0  0  0  0  0  0  0  0
   10.9952    2.2361  -60.4114 H   0  0  0  0  0  0  0  0  0  0  0  0
   11.5820    4.6696  -60.2225 H   0  0  0  0  0  0  0  0  0  0  0  0
   10.2258    4.4094  -61.3595 H   0  0  0  0  0  0  0  0  0  0  0  0
    9.6972    6.2890  -59.8048 H   0  0  0  0  0  0  0  0  0  0  0  0
   11.1349    5.8684  -58.0188 H   0  0  0  0  0  0  0  0  0  0  0  0
    9.3899    5.6869  -57.4009 H   0  0  0  0  0  0  0  0  0  0  0  0
    7.6412    5.2059  -58.6918 H   0  0  0  0  0  0  0  0  0  0  0  0
    7.8436    5.4302  -60.5315 H   0  0  0  0  0  0  0  0  0  0  0  0
    7.2450    3.9780  -61.7980 H   0  0  0  0  0  0  0  0  0  0  0  0
    5.5429    2.5284  -62.4269 H   0  0  0  0  0  0  0  0  0  0  0  0
    4.7920    0.9630  -61.2280 H   0  0  0  0  0  0  0  0  0  0  0  0
    8.7860    1.6076  -59.2433 H   0  0  0  0  0  0  0  0  0  0  0  0
    8.9252    2.0527  -61.0484 H   0  0  0  0  0  0  0  0  0  0  0  0
  1  2  1  0
  2  3  1  0
  2  4  1  0
  4  5  2  0
  5  6  1  0
  6  7  1  0
  7  8  1  0
  8  9  1  0
  9 10  1  0
 10 11  1  0
 11 12  1  0
 11 13  1  0
 13 14  1  0
 14 15  1  6
 15 16  1  0
 16 17  2  3
 14 18  1  0
 14 19  1  0
 19  4  1  0
 12  7  1  0
 18  9  1  0
  1 20  1  0
  1 21  1  0
  1 22  1  0
  2 23  1  0
  3 24  1  0
  3 25  1  0
  3 26  1  0
  6 27  1  0
  6 28  1  0
  7 29  1  1
  8 30  1  0
  8 31  1  0
  9 32  1  6
 10 33  1  0
 10 34  1  0
 11 35  1  6
 12 36  1  0
 12 37  1  0
 13 38  1  0
 13 39  1  0
 15 40  1  0
 16 41  1  0
 17 42  1  0
 18 43  1  0
 18 44  1  0
M  END
>  <meeko>  (92) 
{"is_sidechain": false}

$$$$

     RDKit          3D

 44 46  0  0  0  0  0  0  0  0999 V2000
    5.3010    2.8630  -58.1560 C   0  0  0  0  0  0  0  0  0  0  0  0
    6.6800    2.3000  -57.8240 C   0  0  0  0  0  0  0  0  0  0  0  0
    6.6420    1.5130  -56.5140 C   0  0  0  0  0  0  0  0  0  0  0  0
    7.6730    3.4430  -57.7570 C   0  0  0  0  0  0  0  0  0  0  0  0
    8.0120    3.9820  -56.6410 N   0  0  0  0  0  0  0  0  0  0  0  0
    8.9080    5.1410  -56.6870 C   0  0  0  0  0  0  0  0  0  0  0  0
   10.3110    4.8940  -57.3110 C   0  0  1  0  0  0  0  0  0  0  0  0
   10.8360    3.4490  -57.1890 C   0  0  0  0  0  0  0  0  0  0  0  0
   11.0780    2.6970  -58.5020 C   0  0  2  0  0  0  0  0  0  0  0  0
   11.8280    3.5970  -59.4730 C   0  0  0  0  0  0  0  0  0  0  0  0
   10.9040    4.7280  -59.8940 C   0  0  2  0  0  0  0  0  0  0  0  0
   10.5070    5.5930  -58.6850 C   0  0  0  0  0  0  0  0  0  0  0  0
    9.7030    4.1490  -60.6650 C   0  0  0  0  0  0  0  0  0  0  0  0
    8.8550    3.1400  -59.8530 C   0  0  1  0  0  0  0  0  0  0  0  0
    8.0380    2.3670  -60.8130 N   0  0  0  0  0  0  0  0  0  0  0  0
    7.0920    3.0200  -61.3790 C   0  0  0  0  0  0  0  0  0  0  0  0
    6.2460    2.4500  -62.2730 N   0  0  0  0  0  0  0  0  0  0  0  0
    9.8120    2.1210  -59.1660 C   0  0  0  0  0  0  0  0  0  0  0  0
    8.1170    3.9510  -58.9150 O   0  0  0  0  0  0  0  0  0  0  0  0
    4.7608    3.0836  -57.2235 H   0  0  0  0  0  0  0  0  0  0  0  0
    5.4136    3.7871  -58.7419 H   0  0  0  0  0  0  0  0  0  0  0  0
    4.7346    2.1241  -58.7419 H   0  0  0  0  0  0  0  0  0  0  0  0
    6.9948    1.5994  -58.6114 H   0  0  0  0  0  0  0  0  0  0  0  0
    6.6757    2.2119  -55.6653 H   0  0  0  0  0  0  0  0  0  0  0  0
    5.7144    0.9237  -56.4671 H   0  0  0  0  0  0  0  0  0  0  0  0
    7.5086    0.8371  -56.4671 H   0  0  0  0  0  0  0  0  0  0  0  0
    8.4117    5.9269  -57.2753 H   0  0  0  0  0  0  0  0  0  0  0  0
    9.0941    5.4137  -55.6377 H   0  0  0  0  0  0  0  0  0  0  0  0
   11.0170    5.4261  -56.6564 H   0  0  0  0  0  0  0  0  0  0  0  0
   11.7906    3.4851  -56.6435 H   0  0  0  0  0  0  0  0  0  0  0  0
   10.0382    2.8914  -56.6766 H   0  0  0  0  0  0  0  0  0  0  0  0
   11.6825    1.8166  -58.2384 H   0  0  0  0  0  0  0  0  0  0  0  0
   12.7208    4.0107  -58.9814 H   0  0  0  0  0  0  0  0  0  0  0  0
   12.1435    3.0200  -60.3548 H   0  0  0  0  0  0  0  0  0  0  0  0
   11.4288    5.4090  -60.5802 H   0  0  0  0  0  0  0  0  0  0  0  0
   11.2930    6.3515  -58.5552 H   0  0  0  0  0  0  0  0  0  0  0  0
    9.5072    5.9739  -58.9406 H   0  0  0  0  0  0  0  0  0  0  0  0
    9.0520    4.9829  -60.9665 H   0  0  0  0  0  0  0  0  0  0  0  0
   10.1142    3.5978  -61.5235 H   0  0  0  0  0  0  0  0  0  0  0  0
    6.9609    4.0835  -61.1304 H   0  0  0  0  0  0  0  0  0  0  0  0
    6.5590    1.5430  -62.6030 H   0  0  0  0  0  0  0  0  0  0  0  0
    5.8730    3.0480  -63.0000 H   0  0  0  0  0  0  0  0  0  0  0  0
    9.2373    1.5966  -58.3883 H   0  0  0  0  0  0  0  0  0  0  0  0
   10.1800    1.4778  -59.9790 H   0  0  0  0  0  0  0  0  0  0  0  0
  1  2  1  0
  2  3  1  0
  2  4  1  0
  4  5  2  0
  5  6  1  0
  6  7  1  0
  7  8  1  0
  8  9  1  0
  9 10  1  0
 10 11  1  0
 11 12  1  0
 11 13  1  0
 13 14  1  0
 14 15  1  6
 15 16  2  0
 16 17  1  0
 14 18  1  0
 14 19  1  0
 19  4  1  0
 12  7  1  0
 18  9  1  0
  1 20  1  0
  1 21  1  0
  1 22  1  0
  2 23  1  0
  3 24  1  0
  3 25  1  0
  3 26  1  0
  6 27  1  0
  6 28  1  0
  7 29  1  1
  8 30  1  0
  8 31  1  0
  9 32  1  1
 10 33  1  0
 10 34  1  0
 11 35  1  6
 12 36  1  0
 12 37  1  0
 13 38  1  0
 13 39  1  0
 16 40  1  0
 17 41  1  0
 17 42  1  0
 18 43  1  0
 18 44  1  0
M  END
>  <meeko>  (93) 
{"is_sidechain": false}

$$$$

     RDKit          3D

 44 46  0  0  0  0  0  0  0  0999 V2000
    6.6270    0.9470  -56.2290 C   0  0  0  0  0  0  0  0  0  0  0  0
    6.2360    2.2910  -56.8320 C   0  0  0  0  0  0  0  0  0  0  0  0
    4.9020    2.2170  -57.5630 C   0  0  0  0  0  0  0  0  0  0  0  0
    7.3050    2.7900  -57.7540 C   0  0  0  0  0  0  0  0  0  0  0  0
    8.4690    3.1460  -57.4900 N   0  0  0  0  0  0  0  0  0  0  0  0
    9.4090    3.2900  -56.4690 C   0  0  0  0  0  0  0  0  0  0  0  0
   10.6040    3.8760  -57.2730 C   0  0  1  0  0  0  0  0  0  0  0  0
   11.1270    2.8640  -58.3290 C   0  0  0  0  0  0  0  0  0  0  0  0
   10.6110    3.0090  -59.7850 C   0  0  2  0  0  0  0  0  0  0  0  0
   10.7220    4.4600  -60.2120 C   0  0  0  0  0  0  0  0  0  0  0  0
    9.7670    5.2810  -59.3690 C   0  0  2  0  0  0  0  0  0  0  0  0
   10.2480    5.2570  -57.8930 C   0  0  0  0  0  0  0  0  0  0  0  0
    8.2830    4.8870  -59.6150 C   0  0  0  0  0  0  0  0  0  0  0  0
    7.9590    3.3960  -60.0130 C   0  0  1  0  0  0  0  0  0  0  0  0
    7.2900    3.3830  -61.3450 N   0  0  0  0  0  0  0  0  0  0  0  0
    6.2890    2.6330  -61.5800 C   0  0  0  0  0  0  0  0  0  0  0  0
    5.6600    2.6190  -62.7840 N   0  0  0  0  0  0  0  0  0  0  0  0
    9.2020    2.4280  -60.0800 C   0  0  0  0  0  0  0  0  0  0  0  0
    6.9680    2.8380  -59.0560 O   0  0  0  0  0  0  0  0  0  0  0  0
    6.6064    1.0177  -55.1315 H   0  0  0  0  0  0  0  0  0  0  0  0
    5.9160    0.1758  -56.5602 H   0  0  0  0  0  0  0  0  0  0  0  0
    7.6408    0.6776  -56.5602 H   0  0  0  0  0  0  0  0  0  0  0  0
    6.1235    3.0011  -55.9995 H   0  0  0  0  0  0  0  0  0  0  0  0
    4.0838    2.1716  -56.8292 H   0  0  0  0  0  0  0  0  0  0  0  0
    4.7796    3.1097  -58.1939 H   0  0  0  0  0  0  0  0  0  0  0  0
    4.8791    1.3162  -58.1939 H   0  0  0  0  0  0  0  0  0  0  0  0
    9.0616    3.9857  -55.6910 H   0  0  0  0  0  0  0  0  0  0  0  0
    9.6344    2.3658  -55.9167 H   0  0  0  0  0  0  0  0  0  0  0  0
   11.4315    4.0517  -56.5699 H   0  0  0  0  0  0  0  0  0  0  0  0
   12.2227    2.9565  -58.3581 H   0  0  0  0  0  0  0  0  0  0  0  0
   10.7428    1.8893  -57.9939 H   0  0  0  0  0  0  0  0  0  0  0  0
   11.2667    2.3701  -60.3949 H   0  0  0  0  0  0  0  0  0  0  0  0
   11.7519    4.8147  -60.0586 H   0  0  0  0  0  0  0  0  0  0  0  0
   10.4681    4.5609  -61.2775 H   0  0  0  0  0  0  0  0  0  0  0  0
    9.7857    6.3369  -59.6767 H   0  0  0  0  0  0  0  0  0  0  0  0
   11.1472    5.8875  -57.8298 H   0  0  0  0  0  0  0  0  0  0  0  0
    9.3827    5.6088  -57.3120 H   0  0  0  0  0  0  0  0  0  0  0  0
    7.7312    5.1035  -58.6884 H   0  0  0  0  0  0  0  0  0  0  0  0
    7.9908    5.4725  -60.4992 H   0  0  0  0  0  0  0  0  0  0  0  0
    5.9204    1.9733  -60.7806 H   0  0  0  0  0  0  0  0  0  0  0  0
    6.1900    3.1020  -63.5030 H   0  0  0  0  0  0  0  0  0  0  0  0
    5.2750    1.7330  -63.0880 H   0  0  0  0  0  0  0  0  0  0  0  0
    9.0248    1.6215  -59.3533 H   0  0  0  0  0  0  0  0  0  0  0  0
    9.2513    2.1264  -61.1367 H   0  0  0  0  0  0  0  0  0  0  0  0
  1  2  1  0
  2  3  1  0
  2  4  1  0
  4  5  2  0
  5  6  1  0
  6  7  1  0
  7  8  1  0
  8  9  1  0
  9 10  1  0
 10 11  1  0
 11 12  1  0
 11 13  1  0
 13 14  1  0
 14 15  1  6
 15 16  2  0
 16 17  1  0
 14 18  1  0
 14 19  1  0
 19  4  1  0
 12  7  1  0
 18  9  1  0
  1 20  1  0
  1 21  1  0
  1 22  1  0
  2 23  1  0
  3 24  1  0
  3 25  1  0
  3 26  1  0
  6 27  1  0
  6 28  1  0
  7 29  1  1
  8 30  1  0
  8 31  1  0
  9 32  1  6
 10 33  1  0
 10 34  1  0
 11 35  1  6
 12 36  1  0
 12 37  1  0
 13 38  1  0
 13 39  1  0
 16 40  1  0
 17 41  1  0
 17 42  1  0
 18 43  1  0
 18 44  1  0
M  END
>  <meeko>  (94) 
{"is_sidechain": false}

$$$$

     RDKit          3D

 44 46  0  0  0  0  0  0  0  0999 V2000
    7.5550    1.3240  -56.3290 C   0  0  0  0  0  0  0  0  0  0  0  0
    7.1590    2.0610  -57.6090 C   0  0  0  0  0  0  0  0  0  0  0  0
    5.6750    2.4140  -57.5810 C   0  0  0  0  0  0  0  0  0  0  0  0
    7.9660    3.3320  -57.7870 C   0  0  0  0  0  0  0  0  0  0  0  0
    8.1840    4.1310  -56.8050 N   0  0  0  0  0  0  0  0  0  0  0  0
    8.9020    5.3780  -57.0800 C   0  0  0  0  0  0  0  0  0  0  0  0
   10.3440    5.2200  -57.6270 C   0  0  1  0  0  0  0  0  0  0  0  0
   11.0630    3.9190  -57.2170 C   0  0  0  0  0  0  0  0  0  0  0  0
   11.4600    2.9680  -58.3510 C   0  0  2  0  0  0  0  0  0  0  0  0
   12.1090    3.7630  -59.4760 C   0  0  0  0  0  0  0  0  0  0  0  0
   11.0480    4.6400  -60.1190 C   0  0  2  0  0  0  0  0  0  0  0  0
   10.4890    5.6580  -59.1110 C   0  0  0  0  0  0  0  0  0  0  0  0
    9.9700    3.7510  -60.7670 C   0  0  0  0  0  0  0  0  0  0  0  0
    9.2460    2.8010  -59.7810 C   0  0  1  0  0  0  0  0  0  0  0  0
    8.6060    1.7510  -60.5900 N   0  0  0  0  0  0  0  0  0  0  0  0
    7.5100    1.9740  -61.2050 C   0  0  0  0  0  0  0  0  0  0  0  0
    6.7170    3.0760  -61.2320 N   0  0  0  0  0  0  0  0  0  0  0  0
   10.3170    2.0920  -58.9010 C   0  0  0  0  0  0  0  0  0  0  0  0
    8.3630    3.6600  -59.0240 O   0  0  0  0  0  0  0  0  0  0  0  0
    7.2391    1.9120  -55.4547 H   0  0  0  0  0  0  0  0  0  0  0  0
    7.0642    0.3398  -56.3058 H   0  0  0  0  0  0  0  0  0  0  0  0
    8.6466    1.1900  -56.3058 H   0  0  0  0  0  0  0  0  0  0  0  0
    7.3667    1.3880  -58.4540 H   0  0  0  0  0  0  0  0  0  0  0  0
    5.3369    2.4944  -56.5374 H   0  0  0  0  0  0  0  0  0  0  0  0
    5.5169    3.3748  -58.0927 H   0  0  0  0  0  0  0  0  0  0  0  0
    5.1012    1.6273  -58.0927 H   0  0  0  0  0  0  0  0  0  0  0  0
    8.3203    5.9459  -57.8210 H   0  0  0  0  0  0  0  0  0  0  0  0
    9.0048    5.8839  -56.1086 H   0  0  0  0  0  0  0  0  0  0  0  0
   10.9437    5.9645  -57.0829 H   0  0  0  0  0  0  0  0  0  0  0  0
   11.9811    4.2000  -56.6803 H   0  0  0  0  0  0  0  0  0  0  0  0
   10.3318    3.3613  -56.6134 H   0  0  0  0  0  0  0  0  0  0  0  0
   12.1725    2.2554  -57.9100 H   0  0  0  0  0  0  0  0  0  0  0  0
   12.9144    4.3923  -59.0693 H   0  0  0  0  0  0  0  0  0  0  0  0
   12.5370    3.0788  -60.2235 H   0  0  0  0  0  0  0  0  0  0  0  0
   11.4945    5.2424  -60.9238 H   0  0  0  0  0  0  0  0  0  0  0  0
   11.1547    6.5335  -59.1289 H   0  0  0  0  0  0  0  0  0  0  0  0
    9.4557    5.8326  -59.4453 H   0  0  0  0  0  0  0  0  0  0  0  0
    9.2168    4.4057  -61.2296 H   0  0  0  0  0  0  0  0  0  0  0  0
   10.4880    3.1108  -61.4963 H   0  0  0  0  0  0  0  0  0  0  0  0
    7.1474    1.1334  -61.8148 H   0  0  0  0  0  0  0  0  0  0  0  0
    7.0780    3.9140  -60.7860 H   0  0  0  0  0  0  0  0  0  0  0  0
    6.1360    3.2360  -62.0460 H   0  0  0  0  0  0  0  0  0  0  0  0
    9.7972    1.6454  -58.0405 H   0  0  0  0  0  0  0  0  0  0  0  0
   10.8065    1.3703  -59.5715 H   0  0  0  0  0  0  0  0  0  0  0  0
  1  2  1  0
  2  3  1  0
  2  4  1  0
  4  5  2  0
  5  6  1  0
  6  7  1  0
  7  8  1  0
  8  9  1  0
  9 10  1  0
 10 11  1  0
 11 12  1  0
 11 13  1  0
 13 14  1  0
 14 15  1  6
 15 16  2  0
 16 17  1  0
 14 18  1  0
 14 19  1  0
 19  4  1  0
 12  7  1  0
 18  9  1  0
  1 20  1  0
  1 21  1  0
  1 22  1  0
  2 23  1  0
  3 24  1  0
  3 25  1  0
  3 26  1  0
  6 27  1  0
  6 28  1  0
  7 29  1  1
  8 30  1  0
  8 31  1  0
  9 32  1  1
 10 33  1  0
 10 34  1  0
 11 35  1  6
 12 36  1  0
 12 37  1  0
 13 38  1  0
 13 39  1  0
 16 40  1  0
 17 41  1  0
 17 42  1  0
 18 43  1  0
 18 44  1  0
M  END
>  <meeko>  (95) 
{"is_sidechain": false}

$$$$

     RDKit          3D

 44 46  0  0  0  0  0  0  0  0999 V2000
    5.1470    2.2850  -57.5770 C   0  0  0  0  0  0  0  0  0  0  0  0
    6.4920    2.1480  -56.8780 C   0  0  0  0  0  0  0  0  0  0  0  0
    6.5760    0.8470  -56.0840 C   0  0  0  0  0  0  0  0  0  0  0  0
    7.6170    2.2400  -57.8660 C   0  0  0  0  0  0  0  0  0  0  0  0
    8.8320    2.4620  -57.6400 N   0  0  0  0  0  0  0  0  0  0  0  0
    9.5320    3.0170  -56.5500 C   0  0  0  0  0  0  0  0  0  0  0  0
   10.4940    4.0150  -57.2780 C   0  0  1  0  0  0  0  0  0  0  0  0
   11.3290    3.3120  -58.3840 C   0  0  0  0  0  0  0  0  0  0  0  0
   10.7870    3.3690  -59.8380 C   0  0  2  0  0  0  0  0  0  0  0  0
   10.4510    4.8030  -60.2020 C   0  0  0  0  0  0  0  0  0  0  0  0
    9.3230    5.2700  -59.3030 C   0  0  2  0  0  0  0  0  0  0  0  0
    9.7570    5.2650  -57.8160 C   0  0  0  0  0  0  0  0  0  0  0  0
    8.0260    4.4990  -59.6090 C   0  0  0  0  0  0  0  0  0  0  0  0
    8.1310    2.9950  -60.0770 C   0  0  1  0  0  0  0  0  0  0  0  0
    7.6020    3.0210  -61.4680 N   0  0  0  0  0  0  0  0  0  0  0  0
    6.3920    2.6770  -61.6910 C   0  0  0  0  0  0  0  0  0  0  0  0
    5.4220    2.2620  -60.8300 N   0  0  0  0  0  0  0  0  0  0  0  0
    9.6050    2.4270  -60.1880 C   0  0  0  0  0  0  0  0  0  0  0  0
    7.2780    2.1840  -59.1720 O   0  0  0  0  0  0  0  0  0  0  0  0
    4.3491    2.3663  -56.8242 H   0  0  0  0  0  0  0  0  0  0  0  0
    5.1509    3.1874  -58.2060 H   0  0  0  0  0  0  0  0  0  0  0  0
    4.9689    1.4004  -58.2060 H   0  0  0  0  0  0  0  0  0  0  0  0
    6.5857    2.9819  -56.1668 H   0  0  0  0  0  0  0  0  0  0  0  0
    6.5614    1.0728  -55.0075 H   0  0  0  0  0  0  0  0  0  0  0  0
    5.7173    0.2075  -56.3361 H   0  0  0  0  0  0  0  0  0  0  0  0
    7.5098    0.3232  -56.3361 H   0  0  0  0  0  0  0  0  0  0  0  0
    8.8537    3.5418  -55.8612 H   0  0  0  0  0  0  0  0  0  0  0  0
   10.0453    2.2755  -55.9201 H   0  0  0  0  0  0  0  0  0  0  0  0
   11.2020    4.3760  -56.5174 H   0  0  0  0  0  0  0  0  0  0  0  0
   12.3274    3.7737  -58.3864 H   0  0  0  0  0  0  0  0  0  0  0  0
   11.3041    2.2450  -58.1177 H   0  0  0  0  0  0  0  0  0  0  0  0
   11.6122    2.9770  -60.4506 H   0  0  0  0  0  0  0  0  0  0  0  0
   11.3343    5.4414  -60.0528 H   0  0  0  0  0  0  0  0  0  0  0  0
   10.1455    4.8648  -61.2569 H   0  0  0  0  0  0  0  0  0  0  0  0
    9.0875    6.3222  -59.5210 H   0  0  0  0  0  0  0  0  0  0  0  0
   10.4238    6.1271  -57.6671 H   0  0  0  0  0  0  0  0  0  0  0  0
    8.8117    5.2894  -57.2540 H   0  0  0  0  0  0  0  0  0  0  0  0
    7.4181    4.5112  -58.6923 H   0  0  0  0  0  0  0  0  0  0  0  0
    7.6040    5.0212  -60.4803 H   0  0  0  0  0  0  0  0  0  0  0  0
    6.0849    2.7234  -62.7462 H   0  0  0  0  0  0  0  0  0  0  0  0
    4.4690    2.4780  -61.0950 H   0  0  0  0  0  0  0  0  0  0  0  0
    5.6250    2.4950  -59.8600 H   0  0  0  0  0  0  0  0  0  0  0  0
    9.6706    1.5591  -59.5153 H   0  0  0  0  0  0  0  0  0  0  0  0
    9.7342    2.2179  -61.2602 H   0  0  0  0  0  0  0  0  0  0  0  0
  1  2  1  0
  2  3  1  0
  2  4  1  0
  4  5  2  0
  5  6  1  0
  6  7  1  0
  7  8  1  0
  8  9  1  0
  9 10  1  0
 10 11  1  0
 11 12  1  0
 11 13  1  0
 13 14  1  0
 14 15  1  6
 15 16  2  0
 16 17  1  0
 14 18  1  0
 14 19  1  0
 19  4  1  0
 12  7  1  0
 18  9  1  0
  1 20  1  0
  1 21  1  0
  1 22  1  0
  2 23  1  0
  3 24  1  0
  3 25  1  0
  3 26  1  0
  6 27  1  0
  6 28  1  0
  7 29  1  1
  8 30  1  0
  8 31  1  0
  9 32  1  6
 10 33  1  0
 10 34  1  0
 11 35  1  6
 12 36  1  0
 12 37  1  0
 13 38  1  0
 13 39  1  0
 16 40  1  0
 17 41  1  0
 17 42  1  0
 18 43  1  0
 18 44  1  0
M  END
>  <meeko>  (96) 
{"is_sidechain": false}

$$$$

     RDKit          3D

 59 64  0  0  0  0  0  0  0  0999 V2000
    3.9460    1.8380  -63.2230 N   0  0  0  0  0  0  0  0  0  0  0  0
    4.2870    1.8610  -62.1150 C   0  0  0  0  0  0  0  0  0  0  0  0
    4.7060    1.8880  -60.7500 C   0  0  0  0  0  0  0  0  0  0  0  0
    5.9920    1.5000  -60.4010 C   0  0  0  0  0  0  0  0  0  0  0  0
    6.4620    1.4990  -59.1270 N   0  0  0  0  0  0  0  0  0  0  0  0
    5.6060    1.9020  -58.1440 C   0  0  0  0  0  0  0  0  0  0  0  0
    6.1200    1.9200  -56.7230 C   0  0  0  0  0  0  0  0  0  0  0  0
    7.5110    1.4470  -56.6690 N   0  0  0  0  0  0  0  0  0  0  0  0
    8.4660    2.3210  -57.1870 N   0  0  0  0  0  0  0  0  0  0  0  0
    9.5690    2.2420  -56.3610 C   0  0  0  0  0  0  0  0  0  0  0  0
   10.7450    2.7190  -56.4520 N   0  0  0  0  0  0  0  0  0  0  0  0
   11.2210    3.5690  -57.5390 C   0  0  2  0  0  0  0  0  0  0  0  0
   11.1440    2.6990  -58.8240 C   0  0  0  0  0  0  0  0  0  0  0  0
   11.6040    3.4960  -60.0550 C   0  0  1  0  0  0  0  0  0  0  0  0
   10.7010    4.7290  -60.2220 C   0  0  0  0  0  0  0  0  0  0  0  0
   10.7770    5.6090  -58.9640 C   0  0  2  0  0  0  0  0  0  0  0  0
   12.2340    6.0560  -58.7460 C   0  0  0  0  0  0  0  0  0  0  0  0
   13.1500    4.8290  -58.5820 C   0  0  2  0  0  0  0  0  0  0  0  0
   13.0560    3.9550  -59.8420 C   0  0  0  0  0  0  0  0  0  0  0  0
   12.6880    4.0140  -57.3600 C   0  0  0  0  0  0  0  0  0  0  0  0
   10.3070    4.7940  -57.7450 C   0  0  0  0  0  0  0  0  0  0  0  0
    9.2950    1.4520  -55.2630 N   0  0  0  0  0  0  0  0  0  0  0  0
    8.0830    0.9890  -55.4780 C   0  0  0  0  0  0  0  0  0  0  0  0
    7.4460    0.0570  -54.5200 C   0  0  0  0  0  0  0  0  0  0  0  0
    6.0640   -0.1670  -54.5520 C   0  0  0  0  0  0  0  0  0  0  0  0
    5.4760   -1.0600  -53.6540 C   0  0  0  0  0  0  0  0  0  0  0  0
    6.2670   -1.7440  -52.7290 C   0  0  0  0  0  0  0  0  0  0  0  0
    7.6530   -1.5290  -52.7110 C   0  0  0  0  0  0  0  0  0  0  0  0
    8.4820   -2.2490  -51.7390 N   0  0  0  0  0  0  0  0  0  0  0  0
    8.1020   -2.2630  -50.5590 O   0  0  0  0  0  0  0  0  0  0  0  0
    9.5190   -2.7880  -52.1510 O   0  0  0  0  0  0  0  0  0  0  0  0
    8.2500   -0.6350  -53.6070 C   0  0  0  0  0  0  0  0  0  0  0  0
    4.3040    2.3090  -58.4240 C   0  0  0  0  0  0  0  0  0  0  0  0
    3.4820    2.7120  -57.4450 F   0  0  0  0  0  0  0  0  0  0  0  0
    3.8450    2.3020  -59.7360 C   0  0  0  0  0  0  0  0  0  0  0  0
    6.6703    1.1742  -61.2034 H   0  0  0  0  0  0  0  0  0  0  0  0
    6.0726    2.9480  -56.3346 H   0  0  0  0  0  0  0  0  0  0  0  0
    5.4949    1.2526  -56.1117 H   0  0  0  0  0  0  0  0  0  0  0  0
    8.6780    2.2470  -58.1750 H   0  0  0  0  0  0  0  0  0  0  0  0
   11.7923    1.8187  -58.7022 H   0  0  0  0  0  0  0  0  0  0  0  0
   10.0996    2.3892  -58.9763 H   0  0  0  0  0  0  0  0  0  0  0  0
   11.5416    2.8659  -60.9545 H   0  0  0  0  0  0  0  0  0  0  0  0
   11.0352    5.3102  -61.0941 H   0  0  0  0  0  0  0  0  0  0  0  0
    9.6622    4.3990  -60.3702 H   0  0  0  0  0  0  0  0  0  0  0  0
   10.1331    6.4920  -59.0890 H   0  0  0  0  0  0  0  0  0  0  0  0
   12.5670    6.6441  -59.6139 H   0  0  0  0  0  0  0  0  0  0  0  0
   12.2881    6.6678  -57.8334 H   0  0  0  0  0  0  0  0  0  0  0  0
   14.1900    5.1569  -58.4373 H   0  0  0  0  0  0  0  0  0  0  0  0
   13.3860    4.5373  -60.7150 H   0  0  0  0  0  0  0  0  0  0  0  0
   13.7000    3.0718  -59.7183 H   0  0  0  0  0  0  0  0  0  0  0  0
   13.3269    3.1249  -57.2537 H   0  0  0  0  0  0  0  0  0  0  0  0
   12.7651    4.6419  -56.4601 H   0  0  0  0  0  0  0  0  0  0  0  0
   10.3428    5.4291  -56.8476 H   0  0  0  0  0  0  0  0  0  0  0  0
    9.2774    4.4484  -57.9196 H   0  0  0  0  0  0  0  0  0  0  0  0
    5.4397    0.3623  -55.2869 H   0  0  0  0  0  0  0  0  0  0  0  0
    4.3886   -1.2247  -53.6754 H   0  0  0  0  0  0  0  0  0  0  0  0
    5.8064   -2.4468  -52.0191 H   0  0  0  0  0  0  0  0  0  0  0  0
    9.3387   -0.4780  -53.5939 H   0  0  0  0  0  0  0  0  0  0  0  0
    2.8178    2.6184  -59.9700 H   0  0  0  0  0  0  0  0  0  0  0  0
  1  2  3  0
  2  3  1  0
  3  4  1  0
  4  5  2  0
  5  6  1  0
  6  7  1  0
  7  8  1  0
  8  9  1  0
  9 10  1  0
 10 11  2  0
 12 11  1  1
 12 13  1  0
 13 14  1  0
 14 15  1  0
 15 16  1  0
 16 17  1  0
 17 18  1  0
 18 19  1  0
 18 20  1  0
 16 21  1  0
 10 22  1  0
 22 23  2  0
 23 24  1  0
 24 25  1  0
 25 26  2  0
 26 27  1  0
 27 28  2  0
 28 29  1  0
 29 30  2  0
 29 31  1  0
 28 32  1  0
  6 33  2  0
 33 34  1  0
 33 35  1  0
 35  3  2  0
 23  8  1  0
 32 24  2  0
 20 12  1  0
 21 12  1  0
 19 14  1  0
  4 36  1  0
  7 37  1  0
  7 38  1  0
  9 39  1  0
 13 40  1  0
 13 41  1  0
 14 42  1  6
 15 43  1  0
 15 44  1  0
 16 45  1  6
 17 46  1  0
 17 47  1  0
 18 48  1  1
 19 49  1  0
 19 50  1  0
 20 51  1  0
 20 52  1  0
 21 53  1  0
 21 54  1  0
 25 55  1  0
 26 56  1  0
 27 57  1  0
 32 58  1  0
 35 59  1  0
M  CHG  2  29   1  31  -1
M  END
>  <meeko>  (97) 
{"is_sidechain": false}

$$$$

     RDKit          3D

 59 64  0  0  0  0  0  0  0  0999 V2000
    4.5450    1.8770  -63.2040 N   0  0  0  0  0  0  0  0  0  0  0  0
    4.7520    1.8970  -62.0630 C   0  0  0  0  0  0  0  0  0  0  0  0
    5.0130    1.9160  -60.6600 C   0  0  0  0  0  0  0  0  0  0  0  0
    6.2600    1.5520  -60.1700 C   0  0  0  0  0  0  0  0  0  0  0  0
    6.5820    1.5420  -58.8510 N   0  0  0  0  0  0  0  0  0  0  0  0
    5.6150    1.9220  -57.9690 C   0  0  0  0  0  0  0  0  0  0  0  0
    5.9670    1.9480  -56.5070 C   0  0  0  0  0  0  0  0  0  0  0  0
    7.4030    2.0320  -56.3210 N   0  0  0  0  0  0  0  0  0  0  0  0
    8.0570    3.1440  -56.7170 N   0  0  0  0  0  0  0  0  0  0  0  0
    9.2800    2.9350  -56.2380 C   0  0  0  0  0  0  0  0  0  0  0  0
   10.2860    3.8050  -56.3870 N   0  0  0  0  0  0  0  0  0  0  0  0
   10.9090    4.1670  -57.6550 C   0  0  2  0  0  0  0  0  0  0  0  0
   10.1700    5.3330  -58.3550 C   0  0  0  0  0  0  0  0  0  0  0  0
   10.8160    5.6370  -59.7190 C   0  0  1  0  0  0  0  0  0  0  0  0
   12.2960    6.0010  -59.5080 C   0  0  0  0  0  0  0  0  0  0  0  0
   13.0430    4.8270  -58.8520 C   0  0  2  0  0  0  0  0  0  0  0  0
   12.9340    3.5880  -59.7530 C   0  0  0  0  0  0  0  0  0  0  0  0
   11.4570    3.2160  -59.9560 C   0  0  2  0  0  0  0  0  0  0  0  0
   10.7210    4.3920  -60.6160 C   0  0  0  0  0  0  0  0  0  0  0  0
   10.8170    2.9260  -58.5890 C   0  0  0  0  0  0  0  0  0  0  0  0
   12.4060    4.5200  -57.4850 C   0  0  0  0  0  0  0  0  0  0  0  0
    9.4270    1.7610  -55.5700 N   0  0  0  0  0  0  0  0  0  0  0  0
    8.2430    1.1850  -55.6400 C   0  0  0  0  0  0  0  0  0  0  0  0
    7.9060   -0.0940  -55.0240 C   0  0  0  0  0  0  0  0  0  0  0  0
    6.5840   -0.5540  -54.9470 C   0  0  0  0  0  0  0  0  0  0  0  0
    6.2890   -1.7930  -54.3700 C   0  0  0  0  0  0  0  0  0  0  0  0
    7.3160   -2.5960  -53.8750 C   0  0  0  0  0  0  0  0  0  0  0  0
    8.6400   -2.1530  -53.9690 C   0  0  0  0  0  0  0  0  0  0  0  0
    9.7260   -2.9990  -53.4590 N   0  0  0  0  0  0  0  0  0  0  0  0
    9.9850   -2.9380  -52.2490 O   0  0  0  0  0  0  0  0  0  0  0  0
   10.3120   -3.7320  -54.2680 O   0  0  0  0  0  0  0  0  0  0  0  0
    8.9400   -0.9110  -54.5440 C   0  0  0  0  0  0  0  0  0  0  0  0
    4.3390    2.2890  -58.3890 C   0  0  0  0  0  0  0  0  0  0  0  0
    3.3910    2.6230  -57.5050 F   0  0  0  0  0  0  0  0  0  0  0  0
    4.0310    2.2880  -59.7450 C   0  0  0  0  0  0  0  0  0  0  0  0
    7.0332    1.2540  -60.8935 H   0  0  0  0  0  0  0  0  0  0  0  0
    5.4915    2.8219  -56.0377 H   0  0  0  0  0  0  0  0  0  0  0  0
    5.6066    1.0183  -56.0425 H   0  0  0  0  0  0  0  0  0  0  0  0
   10.3340    4.5080  -55.6580 H   0  0  0  0  0  0  0  0  0  0  0  0
    9.1166    5.0551  -58.5069 H   0  0  0  0  0  0  0  0  0  0  0  0
   10.2372    6.2294  -57.7210 H   0  0  0  0  0  0  0  0  0  0  0  0
   10.2922    6.4772  -60.1983 H   0  0  0  0  0  0  0  0  0  0  0  0
   12.7570    6.2270  -60.4809 H   0  0  0  0  0  0  0  0  0  0  0  0
   12.3593    6.8799  -58.8495 H   0  0  0  0  0  0  0  0  0  0  0  0
   14.1018    5.0922  -58.7158 H   0  0  0  0  0  0  0  0  0  0  0  0
   13.3926    3.8054  -60.7289 H   0  0  0  0  0  0  0  0  0  0  0  0
   13.4567    2.7462  -59.2752 H   0  0  0  0  0  0  0  0  0  0  0  0
   11.3856    2.3264  -60.5990 H   0  0  0  0  0  0  0  0  0  0  0  0
   11.1808    4.6091  -61.5914 H   0  0  0  0  0  0  0  0  0  0  0  0
    9.6629    4.1253  -60.7553 H   0  0  0  0  0  0  0  0  0  0  0  0
    9.7588    2.6640  -58.7357 H   0  0  0  0  0  0  0  0  0  0  0  0
   11.3590    2.0925  -58.1183 H   0  0  0  0  0  0  0  0  0  0  0  0
   12.9291    3.6691  -57.0242 H   0  0  0  0  0  0  0  0  0  0  0  0
   12.4925    5.4091  -56.8431 H   0  0  0  0  0  0  0  0  0  0  0  0
    5.7686    0.0675  -55.3455 H   0  0  0  0  0  0  0  0  0  0  0  0
    5.2454   -2.1348  -54.3065 H   0  0  0  0  0  0  0  0  0  0  0  0
    7.0874   -3.5687  -53.4149 H   0  0  0  0  0  0  0  0  0  0  0  0
    9.9854   -0.5771  -54.6189 H   0  0  0  0  0  0  0  0  0  0  0  0
    3.0271    2.5766  -60.0898 H   0  0  0  0  0  0  0  0  0  0  0  0
  1  2  3  0
  2  3  1  0
  3  4  1  0
  4  5  2  0
  5  6  1  0
  6  7  1  0
  7  8  1  0
  8  9  1  0
  9 10  2  0
 10 11  1  0
 12 11  1  1
 12 13  1  0
 13 14  1  0
 14 15  1  0
 15 16  1  0
 16 17  1  0
 17 18  1  0
 18 19  1  0
 18 20  1  0
 16 21  1  0
 10 22  1  0
 22 23  2  0
 23 24  1  0
 24 25  1  0
 25 26  2  0
 26 27  1  0
 27 28  2  0
 28 29  1  0
 29 30  2  0
 29 31  1  0
 28 32  1  0
  6 33  2  0
 33 34  1  0
 33 35  1  0
 35  3  2  0
 23  8  1  0
 32 24  2  0
 20 12  1  0
 21 12  1  0
 19 14  1  0
  4 36  1  0
  7 37  1  0
  7 38  1  0
 11 39  1  0
 13 40  1  0
 13 41  1  0
 14 42  1  6
 15 43  1  0
 15 44  1  0
 16 45  1  1
 17 46  1  0
 17 47  1  0
 18 48  1  6
 19 49  1  0
 19 50  1  0
 20 51  1  0
 20 52  1  0
 21 53  1  0
 21 54  1  0
 25 55  1  0
 26 56  1  0
 27 57  1  0
 32 58  1  0
 35 59  1  0
M  CHG  2  29   1  31  -1
M  END
>  <meeko>  (98) 
{"is_sidechain": false}

$$$$

     RDKit          3D

 59 64  0  0  0  0  0  0  0  0999 V2000
    9.2240   -3.3540  -50.2570 N   0  0  0  0  0  0  0  0  0  0  0  0
    8.7590   -2.7920  -51.1590 C   0  0  0  0  0  0  0  0  0  0  0  0
    8.1860   -2.1070  -52.2730 C   0  0  0  0  0  0  0  0  0  0  0  0
    8.5140   -2.4770  -53.5700 C   0  0  0  0  0  0  0  0  0  0  0  0
    8.0110   -1.8760  -54.6780 N   0  0  0  0  0  0  0  0  0  0  0  0
    7.1390   -0.8440  -54.4850 C   0  0  0  0  0  0  0  0  0  0  0  0
    6.6160   -0.1250  -55.7100 C   0  0  0  0  0  0  0  0  0  0  0  0
    7.2880    1.1620  -55.9540 N   0  0  0  0  0  0  0  0  0  0  0  0
    8.6380    1.2280  -55.6210 N   0  0  0  0  0  0  0  0  0  0  0  0
    9.2330    2.0420  -56.5610 C   0  0  0  0  0  0  0  0  0  0  0  0
   10.4250    2.4910  -56.4670 N   0  0  0  0  0  0  0  0  0  0  0  0
   11.0350    3.3740  -57.4640 C   0  0  2  0  0  0  0  0  0  0  0  0
   10.2880    4.7190  -57.5990 C   0  0  0  0  0  0  0  0  0  0  0  0
   10.9080    5.5600  -58.7310 C   0  0  1  0  0  0  0  0  0  0  0  0
   12.3990    5.7990  -58.4280 C   0  0  0  0  0  0  0  0  0  0  0  0
   13.1470    4.4560  -58.3380 C   0  0  2  0  0  0  0  0  0  0  0  0
   12.9990    3.7040  -59.6700 C   0  0  0  0  0  0  0  0  0  0  0  0
   11.5120    3.4530  -59.9660 C   0  0  2  0  0  0  0  0  0  0  0  0
   10.7780    4.7980  -60.0600 C   0  0  0  0  0  0  0  0  0  0  0  0
   10.9050    2.6260  -58.8210 C   0  0  0  0  0  0  0  0  0  0  0  0
   12.5390    3.6100  -57.2050 C   0  0  0  0  0  0  0  0  0  0  0  0
    8.3510    2.3560  -57.5720 N   0  0  0  0  0  0  0  0  0  0  0  0
    7.2050    1.8380  -57.1800 C   0  0  0  0  0  0  0  0  0  0  0  0
    5.9820    2.0030  -57.9980 C   0  0  0  0  0  0  0  0  0  0  0  0
    4.7910    2.3890  -57.3680 C   0  0  0  0  0  0  0  0  0  0  0  0
    3.6200    2.5530  -58.1110 C   0  0  0  0  0  0  0  0  0  0  0  0
    3.6330    2.3260  -59.4880 C   0  0  0  0  0  0  0  0  0  0  0  0
    4.8220    1.9220  -60.1100 C   0  0  0  0  0  0  0  0  0  0  0  0
    4.8370    1.6790  -61.5570 N   0  0  0  0  0  0  0  0  0  0  0  0
    5.5860    2.3840  -62.2490 O   0  0  0  0  0  0  0  0  0  0  0  0
    4.1000    0.7880  -62.0010 O   0  0  0  0  0  0  0  0  0  0  0  0
    5.9990    1.7480  -59.3700 C   0  0  0  0  0  0  0  0  0  0  0  0
    6.7580   -0.4270  -53.2140 C   0  0  0  0  0  0  0  0  0  0  0  0
    5.8790    0.5700  -53.0510 F   0  0  0  0  0  0  0  0  0  0  0  0
    7.2830   -1.0610  -52.0940 C   0  0  0  0  0  0  0  0  0  0  0  0
    9.2235   -3.3062  -53.7079 H   0  0  0  0  0  0  0  0  0  0  0  0
    6.7680   -0.7713  -56.5870 H   0  0  0  0  0  0  0  0  0  0  0  0
    5.5510    0.0884  -55.5359 H   0  0  0  0  0  0  0  0  0  0  0  0
    8.9030    1.4820  -54.6740 H   0  0  0  0  0  0  0  0  0  0  0  0
    9.2296    4.5255  -57.8278 H   0  0  0  0  0  0  0  0  0  0  0  0
   10.3721    5.2731  -56.6525 H   0  0  0  0  0  0  0  0  0  0  0  0
   10.3844    6.5246  -58.8041 H   0  0  0  0  0  0  0  0  0  0  0  0
   12.8399    6.4070  -59.2317 H   0  0  0  0  0  0  0  0  0  0  0  0
   12.4893    6.3245  -57.4659 H   0  0  0  0  0  0  0  0  0  0  0  0
   14.2121    4.6379  -58.1319 H   0  0  0  0  0  0  0  0  0  0  0  0
   13.4355    4.3070  -60.4798 H   0  0  0  0  0  0  0  0  0  0  0  0
   13.5227    2.7391  -59.6015 H   0  0  0  0  0  0  0  0  0  0  0  0
   11.4094    2.9089  -60.9165 H   0  0  0  0  0  0  0  0  0  0  0  0
   11.2193    5.3984  -60.8692 H   0  0  0  0  0  0  0  0  0  0  0  0
    9.7137    4.6155  -60.2698 H   0  0  0  0  0  0  0  0  0  0  0  0
    9.8405    2.4462  -59.0321 H   0  0  0  0  0  0  0  0  0  0  0  0
   11.4499    1.6731  -58.7497 H   0  0  0  0  0  0  0  0  0  0  0  0
   13.0562    2.6403  -57.1579 H   0  0  0  0  0  0  0  0  0  0  0  0
   12.6594    4.1464  -56.2522 H   0  0  0  0  0  0  0  0  0  0  0  0
    4.7786    2.5638  -56.2820 H   0  0  0  0  0  0  0  0  0  0  0  0
    2.6892    2.8605  -57.6119 H   0  0  0  0  0  0  0  0  0  0  0  0
    2.7166    2.4632  -60.0808 H   0  0  0  0  0  0  0  0  0  0  0  0
    6.9238    1.4149  -59.8637 H   0  0  0  0  0  0  0  0  0  0  0  0
    6.9904   -0.7422  -51.0827 H   0  0  0  0  0  0  0  0  0  0  0  0
  1  2  3  0
  2  3  1  0
  3  4  1  0
  4  5  2  0
  5  6  1  0
  6  7  1  0
  7  8  1  0
  8  9  1  0
  9 10  1  0
 10 11  2  0
 12 11  1  1
 12 13  1  0
 13 14  1  0
 14 15  1  0
 15 16  1  0
 16 17  1  0
 17 18  1  0
 18 19  1  0
 18 20  1  0
 16 21  1  0
 10 22  1  0
 22 23  2  0
 23 24  1  0
 24 25  1  0
 25 26  2  0
 26 27  1  0
 27 28  2  0
 28 29  1  0
 29 30  2  0
 29 31  1  0
 28 32  1  0
  6 33  2  0
 33 34  1  0
 33 35  1  0
 35  3  2  0
 23  8  1  0
 32 24  2  0
 20 12  1  0
 21 12  1  0
 19 14  1  0
  4 36  1  0
  7 37  1  0
  7 38  1  0
  9 39  1  0
 13 40  1  0
 13 41  1  0
 14 42  1  6
 15 43  1  0
 15 44  1  0
 16 45  1  1
 17 46  1  0
 17 47  1  0
 18 48  1  6
 19 49  1  0
 19 50  1  0
 20 51  1  0
 20 52  1  0
 21 53  1  0
 21 54  1  0
 25 55  1  0
 26 56  1  0
 27 57  1  0
 32 58  1  0
 35 59  1  0
M  CHG  2  29   1  31  -1
M  END
>  <meeko>  (99) 
{"is_sidechain": false}

$$$$

     RDKit          3D

 65 69  0  0  0  0  0  0  0  0999 V2000
    2.5310    2.8220  -62.8660 C   0  0  0  0  0  0  0  0  0  0  0  0
    3.2730    1.6950  -62.1140 C   0  0  0  0  0  0  0  0  0  0  0  0
    3.1460    0.4150  -62.9680 C   0  0  0  0  0  0  0  0  0  0  0  0
    2.5420    1.4850  -60.7700 C   0  0  0  0  0  0  0  0  0  0  0  0
    4.7610    1.9950  -61.8520 C   0  0  0  0  0  0  0  0  0  0  0  0
    5.3000    1.8120  -60.5620 C   0  0  0  0  0  0  0  0  0  0  0  0
    6.6460    2.0730  -60.2870 C   0  0  0  0  0  0  0  0  0  0  0  0
    7.4770    2.5320  -61.3070 C   0  0  0  0  0  0  0  0  0  0  0  0
    9.1840    2.8600  -60.9520 S   0  0  0  0  0  0  0  0  0  0  0  0
    9.7830    3.4500  -62.1300 O   0  0  0  0  0  0  0  0  0  0  0  0
    9.7300    1.6750  -60.3260 O   0  0  0  0  0  0  0  0  0  0  0  0
    9.0220    4.1010  -59.8030 N   0  0  0  0  0  0  0  0  0  0  0  0
   10.3060    4.6070  -59.2810 C   0  0  0  0  0  0  0  0  0  0  0  0
   11.1360    5.6480  -59.5430 C   0  0  0  0  0  0  0  0  0  0  0  0
   12.1110    5.3010  -58.4200 C   0  0  0  0  0  0  0  0  0  0  0  0
   11.2080    4.1130  -58.2300 C   0  0  0  0  0  0  0  0  0  0  0  0
   11.2790    3.1040  -57.4360 N   0  0  0  0  0  0  0  0  0  0  0  0
   10.3070    2.1620  -57.6270 N   0  0  0  0  0  0  0  0  0  0  0  0
    9.8900    1.2770  -56.6860 C   0  0  0  0  0  0  0  0  0  0  0  0
   10.7430    0.4440  -56.0830 N   0  0  0  0  0  0  0  0  0  0  0  0
    9.9700   -0.2540  -55.2250 N   0  0  0  0  0  0  0  0  0  0  0  0
   10.5880   -1.2720  -54.3850 C   0  0  0  0  0  0  0  0  0  0  0  0
   10.9290   -2.5180  -55.1680 C   0  0  0  0  0  0  0  0  0  0  0  0
   10.7870   -3.7880  -54.5920 C   0  0  0  0  0  0  0  0  0  0  0  0
   11.1020   -4.9370  -55.3210 C   0  0  0  0  0  0  0  0  0  0  0  0
   11.5580   -4.8350  -56.6390 C   0  0  0  0  0  0  0  0  0  0  0  0
   11.9240   -6.3000  -57.4790 Cl  0  0  0  0  0  0  0  0  0  0  0  0
   11.6980   -3.5760  -57.2290 C   0  0  0  0  0  0  0  0  0  0  0  0
   12.2490   -3.3690  -58.8530 Cl  0  0  0  0  0  0  0  0  0  0  0  0
   11.3830   -2.4250  -56.4960 C   0  0  0  0  0  0  0  0  0  0  0  0
    8.6360    0.0690  -55.2800 C   0  0  0  0  0  0  0  0  0  0  0  0
    7.5140   -0.4160  -54.5920 C   0  0  0  0  0  0  0  0  0  0  0  0
    6.2720    0.1510  -54.8930 C   0  0  0  0  0  0  0  0  0  0  0  0
    6.1570    1.1630  -55.8440 C   0  0  0  0  0  0  0  0  0  0  0  0
    7.2870    1.6370  -56.5200 C   0  0  0  0  0  0  0  0  0  0  0  0
    8.5510    1.0830  -56.2340 C   0  0  0  0  0  0  0  0  0  0  0  0
    6.9800    2.7140  -62.5970 C   0  0  0  0  0  0  0  0  0  0  0  0
    5.6310    2.4480  -62.8610 C   0  0  0  0  0  0  0  0  0  0  0  0
    2.0772    3.5112  -62.1386 H   0  0  0  0  0  0  0  0  0  0  0  0
    3.2438    3.3726  -63.4975 H   0  0  0  0  0  0  0  0  0  0  0  0
    1.7435    2.3848  -63.4975 H   0  0  0  0  0  0  0  0  0  0  0  0
    3.0592   -0.4598  -62.3068 H   0  0  0  0  0  0  0  0  0  0  0  0
    2.2504    0.4851  -63.6028 H   0  0  0  0  0  0  0  0  0  0  0  0
    4.0379    0.3078  -63.6028 H   0  0  0  0  0  0  0  0  0  0  0  0
    3.2359    1.6844  -59.9401 H   0  0  0  0  0  0  0  0  0  0  0  0
    1.6867    2.1738  -60.7063 H   0  0  0  0  0  0  0  0  0  0  0  0
    2.1827    0.4473  -60.7063 H   0  0  0  0  0  0  0  0  0  0  0  0
    4.6460    1.4554  -59.7526 H   0  0  0  0  0  0  0  0  0  0  0  0
    7.0454    1.9173  -59.2740 H   0  0  0  0  0  0  0  0  0  0  0  0
    8.4740    4.8670  -60.2070 H   0  0  0  0  0  0  0  0  0  0  0  0
   11.1144    6.4519  -60.2936 H   0  0  0  0  0  0  0  0  0  0  0  0
   13.1377    5.0689  -58.7394 H   0  0  0  0  0  0  0  0  0  0  0  0
   12.3852    5.9956  -57.6123 H   0  0  0  0  0  0  0  0  0  0  0  0
   10.1770    1.8190  -58.5790 H   0  0  0  0  0  0  0  0  0  0  0  0
   11.5112   -0.8616  -53.9500 H   0  0  0  0  0  0  0  0  0  0  0  0
    9.8687   -1.5489  -53.6002 H   0  0  0  0  0  0  0  0  0  0  0  0
   10.4246   -3.8805  -53.5575 H   0  0  0  0  0  0  0  0  0  0  0  0
   10.9908   -5.9276  -54.8558 H   0  0  0  0  0  0  0  0  0  0  0  0
   11.4920   -1.4358  -56.9647 H   0  0  0  0  0  0  0  0  0  0  0  0
    7.6080   -1.2148  -53.8416 H   0  0  0  0  0  0  0  0  0  0  0  0
    5.3722   -0.2071  -54.3713 H   0  0  0  0  0  0  0  0  0  0  0  0
    5.1691    1.5932  -56.0654 H   0  0  0  0  0  0  0  0  0  0  0  0
    7.1893    2.4364  -57.2693 H   0  0  0  0  0  0  0  0  0  0  0  0
    7.6432    3.0641  -63.4017 H   0  0  0  0  0  0  0  0  0  0  0  0
    5.2427    2.5964  -63.8794 H   0  0  0  0  0  0  0  0  0  0  0  0
  1  2  1  0
  2  3  1  0
  2  4  1  0
  2  5  1  0
  5  6  1  0
  6  7  2  0
  7  8  1  0
  8  9  1  0
  9 10  2  0
  9 11  2  0
  9 12  1  0
 12 13  1  0
 13 14  2  0
 14 15  1  0
 15 16  1  0
 16 17  2  0
 17 18  1  0
 18 19  1  0
 19 20  2  0
 20 21  1  0
 21 22  1  0
 22 23  1  0
 23 24  1  0
 24 25  2  0
 25 26  1  0
 26 27  1  0
 26 28  2  0
 28 29  1  0
 28 30  1  0
 21 31  1  0
 31 32  2  0
 32 33  1  0
 33 34  2  0
 34 35  1  0
 35 36  2  0
  8 37  2  0
 37 38  1  0
 38  5  2  0
 16 13  1  0
 36 19  1  0
 30 23  2  0
 36 31  1  0
  1 39  1  0
  1 40  1  0
  1 41  1  0
  3 42  1  0
  3 43  1  0
  3 44  1  0
  4 45  1  0
  4 46  1  0
  4 47  1  0
  6 48  1  0
  7 49  1  0
 12 50  1  0
 14 51  1  0
 15 52  1  0
 15 53  1  0
 18 54  1  0
 22 55  1  0
 22 56  1  0
 24 57  1  0
 25 58  1  0
 30 59  1  0
 32 60  1  0
 33 61  1  0
 34 62  1  0
 35 63  1  0
 37 64  1  0
 38 65  1  0
M  END
>  <meeko>  (100) 
{"is_sidechain": false}

$$$$

     RDKit          3D

 65 69  0  0  0  0  0  0  0  0999 V2000
   11.6850   -4.7970  -59.3160 C   0  0  0  0  0  0  0  0  0  0  0  0
   12.3340   -5.0770  -57.9430 C   0  0  0  0  0  0  0  0  0  0  0  0
   13.8280   -4.6890  -57.9980 C   0  0  0  0  0  0  0  0  0  0  0  0
   12.2640   -6.6030  -57.7090 C   0  0  0  0  0  0  0  0  0  0  0  0
   11.6310   -4.2470  -56.8520 C   0  0  0  0  0  0  0  0  0  0  0  0
   11.7780   -2.8450  -56.8330 C   0  0  0  0  0  0  0  0  0  0  0  0
   11.1640   -2.0590  -55.8550 C   0  0  0  0  0  0  0  0  0  0  0  0
   10.3870   -2.6700  -54.8720 C   0  0  0  0  0  0  0  0  0  0  0  0
    9.6480   -1.6670  -53.6060 S   0  0  0  0  0  0  0  0  0  0  0  0
    8.9890   -2.5730  -52.6860 O   0  0  0  0  0  0  0  0  0  0  0  0
   10.6540   -0.7370  -53.1300 O   0  0  0  0  0  0  0  0  0  0  0  0
    8.5230   -0.8190  -54.4050 N   0  0  0  0  0  0  0  0  0  0  0  0
    7.4280   -0.6030  -53.7790 C   0  0  0  0  0  0  0  0  0  0  0  0
    6.8050   -0.8990  -52.4300 C   0  0  0  0  0  0  0  0  0  0  0  0
    5.5280   -0.1410  -52.9200 C   0  0  0  0  0  0  0  0  0  0  0  0
    6.2410    0.0950  -54.2350 C   0  0  0  0  0  0  0  0  0  0  0  0
    5.9110    0.6740  -55.3330 N   0  0  0  0  0  0  0  0  0  0  0  0
    6.8760    0.6720  -56.2970 N   0  0  0  0  0  0  0  0  0  0  0  0
    7.3090    1.7430  -57.0050 C   0  0  0  0  0  0  0  0  0  0  0  0
    8.0540    2.6970  -56.4410 N   0  0  0  0  0  0  0  0  0  0  0  0
    8.3060    3.5590  -57.4470 N   0  0  0  0  0  0  0  0  0  0  0  0
    9.1010    4.7460  -57.1690 C   0  0  0  0  0  0  0  0  0  0  0  0
   10.4450    4.6890  -57.8580 C   0  0  0  0  0  0  0  0  0  0  0  0
   11.3620    3.6720  -57.5630 C   0  0  0  0  0  0  0  0  0  0  0  0
   12.6080    3.6390  -58.1960 C   0  0  0  0  0  0  0  0  0  0  0  0
   12.9530    4.6220  -59.1280 C   0  0  0  0  0  0  0  0  0  0  0  0
   14.5090    4.5110  -59.8720 Cl  0  0  0  0  0  0  0  0  0  0  0  0
   12.0490    5.6450  -59.4270 C   0  0  0  0  0  0  0  0  0  0  0  0
   12.4070    6.8950  -60.5650 Cl  0  0  0  0  0  0  0  0  0  0  0  0
   10.8020    5.6760  -58.7940 C   0  0  0  0  0  0  0  0  0  0  0  0
    7.7310    3.2080  -58.6440 C   0  0  0  0  0  0  0  0  0  0  0  0
    7.7330    3.8120  -59.9110 C   0  0  0  0  0  0  0  0  0  0  0  0
    7.0340    3.1690  -60.9370 C   0  0  0  0  0  0  0  0  0  0  0  0
    6.3610    1.9710  -60.7060 C   0  0  0  0  0  0  0  0  0  0  0  0
    6.3690    1.3820  -59.4380 C   0  0  0  0  0  0  0  0  0  0  0  0
    7.0650    2.0100  -58.3840 C   0  0  0  0  0  0  0  0  0  0  0  0
   10.2210   -4.0520  -54.8610 C   0  0  0  0  0  0  0  0  0  0  0  0
   10.8400   -4.8310  -55.8450 C   0  0  0  0  0  0  0  0  0  0  0  0
   10.6843   -4.3652  -59.1673 H   0  0  0  0  0  0  0  0  0  0  0  0
   12.3100   -4.0885  -59.8794 H   0  0  0  0  0  0  0  0  0  0  0  0
   11.5984   -5.7378  -59.8794 H   0  0  0  0  0  0  0  0  0  0  0  0
   14.2184   -4.5876  -56.9746 H   0  0  0  0  0  0  0  0  0  0  0  0
   14.3906   -5.4708  -58.5293 H   0  0  0  0  0  0  0  0  0  0  0  0
   13.9390   -3.7322  -58.5293 H   0  0  0  0  0  0  0  0  0  0  0  0
   12.2546   -6.8082  -56.6283 H   0  0  0  0  0  0  0  0  0  0  0  0
   11.3466   -7.0023  -58.1660 H   0  0  0  0  0  0  0  0  0  0  0  0
   13.1410   -7.0846  -58.1660 H   0  0  0  0  0  0  0  0  0  0  0  0
   12.3906   -2.3586  -57.6065 H   0  0  0  0  0  0  0  0  0  0  0  0
   11.2926   -0.9666  -55.8605 H   0  0  0  0  0  0  0  0  0  0  0  0
    6.6508   -1.9681  -52.2219 H   0  0  0  0  0  0  0  0  0  0  0  0
    7.3100   -0.6289  -51.4909 H   0  0  0  0  0  0  0  0  0  0  0  0
    4.6258   -0.7659  -52.9947 H   0  0  0  0  0  0  0  0  0  0  0  0
    5.0953    0.6896  -52.3431 H   0  0  0  0  0  0  0  0  0  0  0  0
    7.3490   -0.2030  -56.5350 H   0  0  0  0  0  0  0  0  0  0  0  0
    8.5551    5.6325  -57.5240 H   0  0  0  0  0  0  0  0  0  0  0  0
    9.2725    4.7990  -56.0837 H   0  0  0  0  0  0  0  0  0  0  0  0
   11.1003    2.8953  -56.8294 H   0  0  0  0  0  0  0  0  0  0  0  0
   13.3207    2.8352  -57.9594 H   0  0  0  0  0  0  0  0  0  0  0  0
   10.0921    6.4821  -59.0312 H   0  0  0  0  0  0  0  0  0  0  0  0
    8.2656    4.7576  -60.0903 H   0  0  0  0  0  0  0  0  0  0  0  0
    7.0151    3.6157  -61.9420 H   0  0  0  0  0  0  0  0  0  0  0  0
    5.8181    1.4838  -61.5293 H   0  0  0  0  0  0  0  0  0  0  0  0
    5.8363    0.4355  -59.2636 H   0  0  0  0  0  0  0  0  0  0  0  0
    9.6067   -4.5291  -54.0832 H   0  0  0  0  0  0  0  0  0  0  0  0
   10.7055   -5.9227  -55.8311 H   0  0  0  0  0  0  0  0  0  0  0  0
  1  2  1  0
  2  3  1  0
  2  4  1  0
  2  5  1  0
  5  6  1  0
  6  7  2  0
  7  8  1  0
  8  9  1  0
  9 10  2  0
  9 11  2  0
  9 12  1  0
 12 13  2  0
 13 14  1  0
 14 15  1  0
 15 16  1  0
 16 17  2  0
 17 18  1  0
 18 19  1  0
 19 20  2  0
 20 21  1  0
 21 22  1  0
 22 23  1  0
 23 24  1  0
 24 25  2  0
 25 26  1  0
 26 27  1  0
 26 28  2  0
 28 29  1  0
 28 30  1  0
 21 31  1  0
 31 32  2  0
 32 33  1  0
 33 34  2  0
 34 35  1  0
 35 36  2  0
  8 37  2  0
 37 38  1  0
 38  5  2  0
 16 13  1  0
 36 19  1  0
 30 23  2  0
 36 31  1  0
  1 39  1  0
  1 40  1  0
  1 41  1  0
  3 42  1  0
  3 43  1  0
  3 44  1  0
  4 45  1  0
  4 46  1  0
  4 47  1  0
  6 48  1  0
  7 49  1  0
 14 50  1  0
 14 51  1  0
 15 52  1  0
 15 53  1  0
 18 54  1  0
 22 55  1  0
 22 56  1  0
 24 57  1  0
 25 58  1  0
 30 59  1  0
 32 60  1  0
 33 61  1  0
 34 62  1  0
 35 63  1  0
 37 64  1  0
 38 65  1  0
M  END
>  <meeko>  (101) 
{"is_sidechain": false}

$$$$

     RDKit          3D

 65 69  0  0  0  0  0  0  0  0999 V2000
    4.0300    0.4680  -63.2230 C   0  0  0  0  0  0  0  0  0  0  0  0
    3.5290    1.4340  -62.1250 C   0  0  0  0  0  0  0  0  0  0  0  0
    2.5630    0.6370  -61.2230 C   0  0  0  0  0  0  0  0  0  0  0  0
    2.7480    2.5630  -62.8340 C   0  0  0  0  0  0  0  0  0  0  0  0
    4.6540    2.0430  -61.2690 C   0  0  0  0  0  0  0  0  0  0  0  0
    5.8530    2.5250  -61.8260 C   0  0  0  0  0  0  0  0  0  0  0  0
    6.8600    3.0760  -61.0260 C   0  0  0  0  0  0  0  0  0  0  0  0
    6.6800    3.1480  -59.6460 C   0  0  0  0  0  0  0  0  0  0  0  0
    7.9470    3.8520  -58.5980 S   0  0  0  0  0  0  0  0  0  0  0  0
    7.9720    3.0090  -57.4210 O   0  0  0  0  0  0  0  0  0  0  0  0
    7.6520    5.2680  -58.5040 O   0  0  0  0  0  0  0  0  0  0  0  0
    9.2760    3.6310  -59.4940 N   0  0  0  0  0  0  0  0  0  0  0  0
   10.4020    3.4360  -58.9170 C   0  0  0  0  0  0  0  0  0  0  0  0
   11.8200    3.5050  -59.4910 C   0  0  0  0  0  0  0  0  0  0  0  0
   12.2670    3.9400  -58.0500 C   0  0  0  0  0  0  0  0  0  0  0  0
   10.9540    3.3240  -57.5730 C   0  0  0  0  0  0  0  0  0  0  0  0
   10.6420    2.7920  -56.4480 N   0  0  0  0  0  0  0  0  0  0  0  0
    9.5260    2.0060  -56.4530 N   0  0  0  0  0  0  0  0  0  0  0  0
    9.4690    0.8000  -55.8050 C   0  0  0  0  0  0  0  0  0  0  0  0
   10.5120   -0.0100  -55.5770 N   0  0  0  0  0  0  0  0  0  0  0  0
    9.9770   -1.0510  -54.9060 N   0  0  0  0  0  0  0  0  0  0  0  0
   10.8460   -2.1460  -54.4960 C   0  0  0  0  0  0  0  0  0  0  0  0
   11.2230   -3.0380  -55.6570 C   0  0  0  0  0  0  0  0  0  0  0  0
   11.8530   -2.5090  -56.7940 C   0  0  0  0  0  0  0  0  0  0  0  0
   12.1920   -3.3360  -57.8690 C   0  0  0  0  0  0  0  0  0  0  0  0
   11.9020   -4.7020  -57.8260 C   0  0  0  0  0  0  0  0  0  0  0  0
   12.3500   -5.6630  -59.1890 Cl  0  0  0  0  0  0  0  0  0  0  0  0
   11.2670   -5.2390  -56.7030 C   0  0  0  0  0  0  0  0  0  0  0  0
   10.8710   -6.9160  -56.5760 Cl  0  0  0  0  0  0  0  0  0  0  0  0
   10.9280   -4.4100  -55.6260 C   0  0  0  0  0  0  0  0  0  0  0  0
    8.6210   -0.9580  -54.7090 C   0  0  0  0  0  0  0  0  0  0  0  0
    7.6950   -1.8020  -54.0800 C   0  0  0  0  0  0  0  0  0  0  0  0
    6.3580   -1.3940  -54.0600 C   0  0  0  0  0  0  0  0  0  0  0  0
    5.9630   -0.1950  -54.6490 C   0  0  0  0  0  0  0  0  0  0  0  0
    6.9000    0.6370  -55.2720 C   0  0  0  0  0  0  0  0  0  0  0  0
    8.2560    0.2510  -55.2970 C   0  0  0  0  0  0  0  0  0  0  0  0
    5.5020    2.6850  -59.0620 C   0  0  0  0  0  0  0  0  0  0  0  0
    4.5030    2.1380  -59.8700 C   0  0  0  0  0  0  0  0  0  0  0  0
    4.4880   -0.4150  -62.7534 H   0  0  0  0  0  0  0  0  0  0  0  0
    3.1820    0.1523  -63.8485 H   0  0  0  0  0  0  0  0  0  0  0  0
    4.7766    0.9793  -63.8485 H   0  0  0  0  0  0  0  0  0  0  0  0
    2.8010    0.8334  -60.1672 H   0  0  0  0  0  0  0  0  0  0  0  0
    1.5281    0.9476  -61.4295 H   0  0  0  0  0  0  0  0  0  0  0  0
    2.6713   -0.4380  -61.4295 H   0  0  0  0  0  0  0  0  0  0  0  0
    2.2919    3.2223  -62.0808 H   0  0  0  0  0  0  0  0  0  0  0  0
    3.4367    3.1462  -63.4630 H   0  0  0  0  0  0  0  0  0  0  0  0
    1.9594    2.1243  -63.4630 H   0  0  0  0  0  0  0  0  0  0  0  0
    6.0019    2.4673  -62.9144 H   0  0  0  0  0  0  0  0  0  0  0  0
    7.7878    3.4500  -61.4834 H   0  0  0  0  0  0  0  0  0  0  0  0
   12.2294    2.5431  -59.8333 H   0  0  0  0  0  0  0  0  0  0  0  0
   12.0660    4.0922  -60.3880 H   0  0  0  0  0  0  0  0  0  0  0  0
   13.1753    3.4448  -57.6761 H   0  0  0  0  0  0  0  0  0  0  0  0
   12.5583    4.9727  -57.8076 H   0  0  0  0  0  0  0  0  0  0  0  0
    8.6540    2.5360  -56.4620 H   0  0  0  0  0  0  0  0  0  0  0  0
   11.7638   -1.7259  -54.0589 H   0  0  0  0  0  0  0  0  0  0  0  0
   10.2984   -2.7569  -53.7633 H   0  0  0  0  0  0  0  0  0  0  0  0
   12.0821   -1.4341  -56.8398 H   0  0  0  0  0  0  0  0  0  0  0  0
   12.6892   -2.9093  -58.7526 H   0  0  0  0  0  0  0  0  0  0  0  0
   10.4252   -4.8387  -54.7466 H   0  0  0  0  0  0  0  0  0  0  0  0
    8.0088   -2.7503  -53.6192 H   0  0  0  0  0  0  0  0  0  0  0  0
    5.6055   -2.0302  -53.5711 H   0  0  0  0  0  0  0  0  0  0  0  0
    4.9038    0.1008  -54.6241 H   0  0  0  0  0  0  0  0  0  0  0  0
    6.5822    1.5818  -55.7371 H   0  0  0  0  0  0  0  0  0  0  0  0
    5.3604    2.7500  -57.9731 H   0  0  0  0  0  0  0  0  0  0  0  0
    3.5760    1.7724  -59.4041 H   0  0  0  0  0  0  0  0  0  0  0  0
  1  2  1  0
  2  3  1  0
  2  4  1  0
  2  5  1  0
  5  6  1  0
  6  7  2  0
  7  8  1  0
  8  9  1  0
  9 10  2  0
  9 11  2  0
  9 12  1  0
 12 13  2  0
 13 14  1  0
 14 15  1  0
 15 16  1  0
 16 17  2  0
 17 18  1  0
 18 19  1  0
 19 20  2  0
 20 21  1  0
 21 22  1  0
 22 23  1  0
 23 24  1  0
 24 25  2  0
 25 26  1  0
 26 27  1  0
 26 28  2  0
 28 29  1  0
 28 30  1  0
 21 31  1  0
 31 32  2  0
 32 33  1  0
 33 34  2  0
 34 35  1  0
 35 36  2  0
  8 37  2  0
 37 38  1  0
 38  5  2  0
 16 13  1  0
 36 19  1  0
 30 23  2  0
 36 31  1  0
  1 39  1  0
  1 40  1  0
  1 41  1  0
  3 42  1  0
  3 43  1  0
  3 44  1  0
  4 45  1  0
  4 46  1  0
  4 47  1  0
  6 48  1  0
  7 49  1  0
 14 50  1  0
 14 51  1  0
 15 52  1  0
 15 53  1  0
 18 54  1  0
 22 55  1  0
 22 56  1  0
 24 57  1  0
 25 58  1  0
 30 59  1  0
 32 60  1  0
 33 61  1  0
 34 62  1  0
 35 63  1  0
 37 64  1  0
 38 65  1  0
M  END
>  <meeko>  (102) 
{"is_sidechain": false}

$$$$

     RDKit          3D

 65 69  0  0  0  0  0  0  0  0999 V2000
    3.4460    0.1920  -63.0640 C   0  0  0  0  0  0  0  0  0  0  0  0
    3.3430    1.4330  -62.1510 C   0  0  0  0  0  0  0  0  0  0  0  0
    2.5310    2.5290  -62.8740 C   0  0  0  0  0  0  0  0  0  0  0  0
    2.5340    1.0150  -60.9020 C   0  0  0  0  0  0  0  0  0  0  0  0
    4.7540    1.9600  -61.8310 C   0  0  0  0  0  0  0  0  0  0  0  0
    5.2380    1.9190  -60.5060 C   0  0  0  0  0  0  0  0  0  0  0  0
    6.5120    2.3900  -60.1780 C   0  0  0  0  0  0  0  0  0  0  0  0
    7.3220    2.9240  -61.1770 C   0  0  0  0  0  0  0  0  0  0  0  0
    8.9350    3.5440  -60.7530 S   0  0  0  0  0  0  0  0  0  0  0  0
    8.7740    4.8320  -60.1130 O   0  0  0  0  0  0  0  0  0  0  0  0
    9.7730    3.3780  -61.9220 O   0  0  0  0  0  0  0  0  0  0  0  0
    9.4880    2.4260  -59.6060 N   0  0  0  0  0  0  0  0  0  0  0  0
   10.5300    2.8960  -58.6860 C   0  0  0  0  0  0  0  0  0  0  0  0
   11.7690    3.3890  -58.8670 C   0  0  0  0  0  0  0  0  0  0  0  0
   12.0710    3.4570  -57.3860 C   0  0  0  0  0  0  0  0  0  0  0  0
   10.6040    3.0340  -57.1640 C   0  0  2  0  0  0  0  0  0  0  0  0
   10.5130    1.7370  -56.5030 N   0  0  0  0  0  0  0  0  0  0  0  0
    9.4030    1.5790  -55.9490 N   0  0  0  0  0  0  0  0  0  0  0  0
    9.2710    0.3240  -55.3390 C   0  0  0  0  0  0  0  0  0  0  0  0
   10.3330   -0.4760  -55.2280 N   0  0  0  0  0  0  0  0  0  0  0  0
    9.8360   -1.5590  -54.5870 N   0  0  0  0  0  0  0  0  0  0  0  0
   10.7230   -2.6790  -54.2970 C   0  0  0  0  0  0  0  0  0  0  0  0
   11.1040   -3.4310  -55.5510 C   0  0  0  0  0  0  0  0  0  0  0  0
   11.5550   -2.7440  -56.6870 C   0  0  0  0  0  0  0  0  0  0  0  0
   11.9070   -3.4400  -57.8470 C   0  0  0  0  0  0  0  0  0  0  0  0
   11.8180   -4.8320  -57.8870 C   0  0  0  0  0  0  0  0  0  0  0  0
   12.2700   -5.6270  -59.3530 Cl  0  0  0  0  0  0  0  0  0  0  0  0
   11.3760   -5.5310  -56.7590 C   0  0  0  0  0  0  0  0  0  0  0  0
   11.2410   -7.2540  -56.7290 Cl  0  0  0  0  0  0  0  0  0  0  0  0
   11.0240   -4.8320  -55.5970 C   0  0  0  0  0  0  0  0  0  0  0  0
    8.5080   -1.4440  -54.2370 C   0  0  0  0  0  0  0  0  0  0  0  0
    7.6320   -2.2990  -53.5520 C   0  0  0  0  0  0  0  0  0  0  0  0
    6.3170   -1.8590  -53.3610 C   0  0  0  0  0  0  0  0  0  0  0  0
    5.8960   -0.6180  -53.8340 C   0  0  0  0  0  0  0  0  0  0  0  0
    6.7810    0.2250  -54.5170 C   0  0  0  0  0  0  0  0  0  0  0  0
    8.1080   -0.2000  -54.7250 C   0  0  0  0  0  0  0  0  0  0  0  0
    6.8830    2.9620  -62.5000 C   0  0  0  0  0  0  0  0  0  0  0  0
    5.6060    2.4870  -62.8180 C   0  0  0  0  0  0  0  0  0  0  0  0
    3.5212   -0.7138  -62.4444 H   0  0  0  0  0  0  0  0  0  0  0  0
    2.5500    0.1286  -63.6990 H   0  0  0  0  0  0  0  0  0  0  0  0
    4.3402    0.2772  -63.6990 H   0  0  0  0  0  0  0  0  0  0  0  0
    2.0490    3.1796  -62.1294 H   0  0  0  0  0  0  0  0  0  0  0  0
    3.2044    3.1288  -63.5039 H   0  0  0  0  0  0  0  0  0  0  0  0
    1.7610    2.0595  -63.5039 H   0  0  0  0  0  0  0  0  0  0  0  0
    3.0866    1.3005  -59.9947 H   0  0  0  0  0  0  0  0  0  0  0  0
    1.5576    1.5214  -60.9112 H   0  0  0  0  0  0  0  0  0  0  0  0
    2.3821   -0.0744  -60.9112 H   0  0  0  0  0  0  0  0  0  0  0  0
    4.5972    1.5065  -59.7127 H   0  0  0  0  0  0  0  0  0  0  0  0
    6.8719    2.3394  -59.1398 H   0  0  0  0  0  0  0  0  0  0  0  0
    8.7110    1.9150  -59.1840 H   0  0  0  0  0  0  0  0  0  0  0  0
   12.3502    3.6480  -59.7643 H   0  0  0  0  0  0  0  0  0  0  0  0
   12.8198    2.7328  -57.0328 H   0  0  0  0  0  0  0  0  0  0  0  0
   12.5015    4.3530  -56.9150 H   0  0  0  0  0  0  0  0  0  0  0  0
    9.8895    3.6338  -56.5811 H   0  0  0  0  0  0  0  0  0  0  0  0
   11.6370   -2.2954  -53.8201 H   0  0  0  0  0  0  0  0  0  0  0  0
   10.1910   -3.3732  -53.6298 H   0  0  0  0  0  0  0  0  0  0  0  0
   11.6326   -1.6470  -56.6652 H   0  0  0  0  0  0  0  0  0  0  0  0
   12.2557   -2.8880  -58.7322 H   0  0  0  0  0  0  0  0  0  0  0  0
   10.6813   -5.3868  -54.7111 H   0  0  0  0  0  0  0  0  0  0  0  0
    7.9659   -3.2785  -53.1789 H   0  0  0  0  0  0  0  0  0  0  0  0
    5.6034   -2.5045  -52.8280 H   0  0  0  0  0  0  0  0  0  0  0  0
    4.8569   -0.2970  -53.6690 H   0  0  0  0  0  0  0  0  0  0  0  0
    6.4449    1.2053  -54.8860 H   0  0  0  0  0  0  0  0  0  0  0  0
    7.5366    3.3629  -63.2887 H   0  0  0  0  0  0  0  0  0  0  0  0
    5.2612    2.5266  -63.8618 H   0  0  0  0  0  0  0  0  0  0  0  0
  1  2  1  0
  2  3  1  0
  2  4  1  0
  2  5  1  0
  5  6  1  0
  6  7  2  0
  7  8  1  0
  8  9  1  0
  9 10  2  0
  9 11  2  0
  9 12  1  0
 12 13  1  0
 13 14  2  0
 14 15  1  0
 15 16  1  0
 16 17  1  0
 17 18  2  0
 18 19  1  0
 19 20  2  0
 20 21  1  0
 21 22  1  0
 22 23  1  0
 23 24  1  0
 24 25  2  0
 25 26  1  0
 26 27  1  0
 26 28  2  0
 28 29  1  0
 28 30  1  0
 21 31  1  0
 31 32  2  0
 32 33  1  0
 33 34  2  0
 34 35  1  0
 35 36  2  0
  8 37  2  0
 37 38  1  0
 38  5  2  0
 16 13  1  0
 36 19  1  0
 30 23  2  0
 36 31  1  0
  1 39  1  0
  1 40  1  0
  1 41  1  0
  3 42  1  0
  3 43  1  0
  3 44  1  0
  4 45  1  0
  4 46  1  0
  4 47  1  0
  6 48  1  0
  7 49  1  0
 12 50  1  0
 14 51  1  0
 15 52  1  0
 15 53  1  0
 16 54  1  1
 22 55  1  0
 22 56  1  0
 24 57  1  0
 25 58  1  0
 30 59  1  0
 32 60  1  0
 33 61  1  0
 34 62  1  0
 35 63  1  0
 37 64  1  0
 38 65  1  0
M  END
>  <meeko>  (103) 
{"is_sidechain": false}

$$$$

     RDKit          3D

 65 69  0  0  0  0  0  0  0  0999 V2000
   11.8760   -4.8190  -59.2780 C   0  0  0  0  0  0  0  0  0  0  0  0
   12.4300   -5.1140  -57.8680 C   0  0  0  0  0  0  0  0  0  0  0  0
   13.9400   -4.7900  -57.8370 C   0  0  0  0  0  0  0  0  0  0  0  0
   12.2850   -6.6340  -57.6290 C   0  0  0  0  0  0  0  0  0  0  0  0
   11.6940   -4.2470  -56.8310 C   0  0  0  0  0  0  0  0  0  0  0  0
   11.7290   -2.8410  -56.8550 C   0  0  0  0  0  0  0  0  0  0  0  0
   11.0480   -2.0800  -55.9000 C   0  0  0  0  0  0  0  0  0  0  0  0
   10.3200   -2.7190  -54.8970 C   0  0  0  0  0  0  0  0  0  0  0  0
    9.4550   -1.7370  -53.6990 S   0  0  0  0  0  0  0  0  0  0  0  0
    9.5940   -0.3450  -54.0710 O   0  0  0  0  0  0  0  0  0  0  0  0
    9.8410   -2.2210  -52.3920 O   0  0  0  0  0  0  0  0  0  0  0  0
    7.8410   -2.1590  -54.0630 N   0  0  0  0  0  0  0  0  0  0  0  0
    6.8580   -1.1280  -53.6670 C   0  0  0  0  0  0  0  0  0  0  0  0
    6.3570   -0.7340  -52.4800 C   0  0  0  0  0  0  0  0  0  0  0  0
    5.5340    0.3820  -53.0840 C   0  0  0  0  0  0  0  0  0  0  0  0
    5.9160   -0.2160  -54.4540 C   0  0  1  0  0  0  0  0  0  0  0  0
    6.6720    0.7280  -55.2680 N   0  0  0  0  0  0  0  0  0  0  0  0
    6.0020    1.1480  -56.2320 N   0  0  0  0  0  0  0  0  0  0  0  0
    6.6590    2.0930  -57.0370 C   0  0  0  0  0  0  0  0  0  0  0  0
    7.3830    3.0430  -56.4400 N   0  0  0  0  0  0  0  0  0  0  0  0
    7.8490    3.7780  -57.4720 N   0  0  0  0  0  0  0  0  0  0  0  0
    8.7220    4.9120  -57.1970 C   0  0  0  0  0  0  0  0  0  0  0  0
   10.0820    4.7460  -57.8370 C   0  0  0  0  0  0  0  0  0  0  0  0
   10.8830    3.6350  -57.5330 C   0  0  0  0  0  0  0  0  0  0  0  0
   12.1400    3.4810  -58.1240 C   0  0  0  0  0  0  0  0  0  0  0  0
   12.6140    4.4330  -59.0290 C   0  0  0  0  0  0  0  0  0  0  0  0
   14.1750    4.1800  -59.7210 Cl  0  0  0  0  0  0  0  0  0  0  0  0
   11.8230    5.5420  -59.3440 C   0  0  0  0  0  0  0  0  0  0  0  0
   12.3360    6.7610  -60.4570 Cl  0  0  0  0  0  0  0  0  0  0  0  0
   10.5620    5.6940  -58.7520 C   0  0  0  0  0  0  0  0  0  0  0  0
    7.4400    3.3320  -58.7090 C   0  0  0  0  0  0  0  0  0  0  0  0
    7.6870    3.7980  -60.0100 C   0  0  0  0  0  0  0  0  0  0  0  0
    7.0970    3.1060  -61.0710 C   0  0  0  0  0  0  0  0  0  0  0  0
    6.2930    1.9920  -60.8420 C   0  0  0  0  0  0  0  0  0  0  0  0
    6.0560    1.5380  -59.5390 C   0  0  0  0  0  0  0  0  0  0  0  0
    6.6410    2.2170  -58.4520 C   0  0  0  0  0  0  0  0  0  0  0  0
   10.2560   -4.1100  -54.8480 C   0  0  0  0  0  0  0  0  0  0  0  0
   10.9410   -4.8620  -55.8070 C   0  0  0  0  0  0  0  0  0  0  0  0
   10.9081   -4.3036  -59.1912 H   0  0  0  0  0  0  0  0  0  0  0  0
   12.5847   -4.1788  -59.8239 H   0  0  0  0  0  0  0  0  0  0  0  0
   11.7404   -5.7643  -59.8239 H   0  0  0  0  0  0  0  0  0  0  0  0
   14.2781   -4.7175  -56.7928 H   0  0  0  0  0  0  0  0  0  0  0  0
   14.4970   -5.5891  -58.3481 H   0  0  0  0  0  0  0  0  0  0  0  0
   14.1202   -3.8328  -58.3481 H   0  0  0  0  0  0  0  0  0  0  0  0
   12.2658   -6.8350  -56.5477 H   0  0  0  0  0  0  0  0  0  0  0  0
   11.3489   -6.9892  -58.0846 H   0  0  0  0  0  0  0  0  0  0  0  0
   13.1371   -7.1597  -58.0846 H   0  0  0  0  0  0  0  0  0  0  0  0
   12.3039   -2.3297  -57.6412 H   0  0  0  0  0  0  0  0  0  0  0  0
   11.0864   -0.9814  -55.9398 H   0  0  0  0  0  0  0  0  0  0  0  0
    7.8030   -2.3190  -55.0740 H   0  0  0  0  0  0  0  0  0  0  0  0
    6.4957   -1.0925  -51.4494 H   0  0  0  0  0  0  0  0  0  0  0  0
    4.4606    0.3476  -52.8461 H   0  0  0  0  0  0  0  0  0  0  0  0
    5.7024    1.4401  -52.8349 H   0  0  0  0  0  0  0  0  0  0  0  0
    5.1659   -0.5870  -55.1679 H   0  0  0  0  0  0  0  0  0  0  0  0
    8.2528    5.8256  -57.5911 H   0  0  0  0  0  0  0  0  0  0  0  0
    8.8637    4.9765  -56.1081 H   0  0  0  0  0  0  0  0  0  0  0  0
   10.5183    2.8782  -56.8229 H   0  0  0  0  0  0  0  0  0  0  0  0
   12.7587    2.6061  -57.8752 H   0  0  0  0  0  0  0  0  0  0  0  0
    9.9422    6.5661  -59.0077 H   0  0  0  0  0  0  0  0  0  0  0  0
    8.3231    4.6776  -60.1881 H   0  0  0  0  0  0  0  0  0  0  0  0
    7.2702    3.4462  -62.1026 H   0  0  0  0  0  0  0  0  0  0  0  0
    5.8396    1.4635  -61.6936 H   0  0  0  0  0  0  0  0  0  0  0  0
    5.4184    0.6586  -59.3654 H   0  0  0  0  0  0  0  0  0  0  0  0
    9.6721   -4.6117  -54.0623 H   0  0  0  0  0  0  0  0  0  0  0  0
   10.8922   -5.9600  -55.7628 H   0  0  0  0  0  0  0  0  0  0  0  0
  1  2  1  0
  2  3  1  0
  2  4  1  0
  2  5  1  0
  5  6  1  0
  6  7  2  0
  7  8  1  0
  8  9  1  0
  9 10  2  0
  9 11  2  0
  9 12  1  0
 12 13  1  0
 13 14  2  0
 14 15  1  0
 15 16  1  0
 16 17  1  0
 17 18  2  0
 18 19  1  0
 19 20  2  0
 20 21  1  0
 21 22  1  0
 22 23  1  0
 23 24  1  0
 24 25  2  0
 25 26  1  0
 26 27  1  0
 26 28  2  0
 28 29  1  0
 28 30  1  0
 21 31  1  0
 31 32  2  0
 32 33  1  0
 33 34  2  0
 34 35  1  0
 35 36  2  0
  8 37  2  0
 37 38  1  0
 38  5  2  0
 16 13  1  0
 36 19  1  0
 30 23  2  0
 36 31  1  0
  1 39  1  0
  1 40  1  0
  1 41  1  0
  3 42  1  0
  3 43  1  0
  3 44  1  0
  4 45  1  0
  4 46  1  0
  4 47  1  0
  6 48  1  0
  7 49  1  0
 12 50  1  0
 14 51  1  0
 15 52  1  0
 15 53  1  0
 16 54  1  6
 22 55  1  0
 22 56  1  0
 24 57  1  0
 25 58  1  0
 30 59  1  0
 32 60  1  0
 33 61  1  0
 34 62  1  0
 35 63  1  0
 37 64  1  0
 38 65  1  0
M  END
>  <meeko>  (104) 
{"is_sidechain": false}

$$$$

     RDKit          3D

 65 69  0  0  0  0  0  0  0  0999 V2000
   11.6330   -4.8030  -58.3900 C   0  0  0  0  0  0  0  0  0  0  0  0
   12.2780   -4.3460  -57.0630 C   0  0  0  0  0  0  0  0  0  0  0  0
   13.5670   -3.5770  -57.4260 C   0  0  0  0  0  0  0  0  0  0  0  0
   12.6980   -5.5900  -56.2500 C   0  0  0  0  0  0  0  0  0  0  0  0
   11.2670   -3.5190  -56.2480 C   0  0  0  0  0  0  0  0  0  0  0  0
   11.3530   -2.1190  -56.1350 C   0  0  0  0  0  0  0  0  0  0  0  0
   10.4290   -1.3930  -55.3790 C   0  0  0  0  0  0  0  0  0  0  0  0
    9.3930   -2.0600  -54.7260 C   0  0  0  0  0  0  0  0  0  0  0  0
    8.2030   -1.1190  -53.7960 S   0  0  0  0  0  0  0  0  0  0  0  0
    7.4060   -2.0520  -53.0280 O   0  0  0  0  0  0  0  0  0  0  0  0
    8.9130   -0.0230  -53.1740 O   0  0  0  0  0  0  0  0  0  0  0  0
    7.2610   -0.5400  -55.0730 N   0  0  0  0  0  0  0  0  0  0  0  0
    7.6950    0.7360  -55.6650 C   0  0  0  0  0  0  0  0  0  0  0  0
    8.7440    1.5590  -55.4880 C   0  0  0  0  0  0  0  0  0  0  0  0
    8.2460    2.5750  -56.4900 C   0  0  0  0  0  0  0  0  0  0  0  0
    7.1570    1.5360  -56.8550 C   0  0  2  0  0  0  0  0  0  0  0  0
    5.8260    2.0930  -56.6210 N   0  0  0  0  0  0  0  0  0  0  0  0
    5.1630    2.6380  -57.5380 N   0  0  0  0  0  0  0  0  0  0  0  0
    5.6170    2.6350  -58.8630 C   0  0  0  0  0  0  0  0  0  0  0  0
    6.8890    2.9070  -59.1740 N   0  0  0  0  0  0  0  0  0  0  0  0
    6.9250    2.7080  -60.5150 N   0  0  0  0  0  0  0  0  0  0  0  0
    8.2000    2.8180  -61.2170 C   0  0  0  0  0  0  0  0  0  0  0  0
    9.3680    3.1900  -60.3300 C   0  0  0  0  0  0  0  0  0  0  0  0
    9.9000    2.3190  -59.3690 C   0  0  0  0  0  0  0  0  0  0  0  0
   11.0270    2.6780  -58.6220 C   0  0  0  0  0  0  0  0  0  0  0  0
   11.6490    3.9100  -58.8320 C   0  0  0  0  0  0  0  0  0  0  0  0
   13.0450    4.2800  -57.8870 Cl  0  0  0  0  0  0  0  0  0  0  0  0
   11.1380    4.7860  -59.7910 C   0  0  0  0  0  0  0  0  0  0  0  0
   11.8540    6.3220  -60.1220 Cl  0  0  0  0  0  0  0  0  0  0  0  0
   10.0070    4.4250  -60.5350 C   0  0  0  0  0  0  0  0  0  0  0  0
    5.7110    2.3410  -61.0560 C   0  0  0  0  0  0  0  0  0  0  0  0
    5.3120    2.0550  -62.3690 C   0  0  0  0  0  0  0  0  0  0  0  0
    3.9760    1.6900  -62.5700 C   0  0  0  0  0  0  0  0  0  0  0  0
    3.0810    1.6070  -61.5050 C   0  0  0  0  0  0  0  0  0  0  0  0
    3.4940    1.8930  -60.1990 C   0  0  0  0  0  0  0  0  0  0  0  0
    4.8310    2.2710  -59.9780 C   0  0  0  0  0  0  0  0  0  0  0  0
    9.2860   -3.4460  -54.8040 C   0  0  0  0  0  0  0  0  0  0  0  0
   10.2180   -4.1630  -55.5600 C   0  0  0  0  0  0  0  0  0  0  0  0
   10.7529   -5.4266  -58.1742 H   0  0  0  0  0  0  0  0  0  0  0  0
   11.3241   -3.9211  -58.9704 H   0  0  0  0  0  0  0  0  0  0  0  0
   12.3626   -5.3868  -58.9704 H   0  0  0  0  0  0  0  0  0  0  0  0
   14.0824   -3.2695  -56.5042 H   0  0  0  0  0  0  0  0  0  0  0  0
   14.2285   -4.2282  -58.0162 H   0  0  0  0  0  0  0  0  0  0  0  0
   13.3082   -2.6855  -58.0162 H   0  0  0  0  0  0  0  0  0  0  0  0
   12.6231   -5.3681  -55.1752 H   0  0  0  0  0  0  0  0  0  0  0  0
   12.0341   -6.4313  -56.4978 H   0  0  0  0  0  0  0  0  0  0  0  0
   13.7360   -5.8567  -56.4978 H   0  0  0  0  0  0  0  0  0  0  0  0
   12.1640   -1.5854  -56.6523 H   0  0  0  0  0  0  0  0  0  0  0  0
   10.5185   -0.2995  -55.2993 H   0  0  0  0  0  0  0  0  0  0  0  0
    6.2680   -0.4670  -54.7890 H   0  0  0  0  0  0  0  0  0  0  0  0
    9.6374    1.5104  -54.8481 H   0  0  0  0  0  0  0  0  0  0  0  0
    7.8659    3.5096  -56.0518 H   0  0  0  0  0  0  0  0  0  0  0  0
    8.9047    3.0269  -57.2462 H   0  0  0  0  0  0  0  0  0  0  0  0
    7.0348    1.0861  -57.8513 H   0  0  0  0  0  0  0  0  0  0  0  0
    8.4194    1.8480  -61.6871 H   0  0  0  0  0  0  0  0  0  0  0  0
    8.0880    3.6316  -61.9488 H   0  0  0  0  0  0  0  0  0  0  0  0
    9.4254    1.3411  -59.2002 H   0  0  0  0  0  0  0  0  0  0  0  0
   11.4251    1.9860  -57.8653 H   0  0  0  0  0  0  0  0  0  0  0  0
    9.6128    5.1193  -61.2917 H   0  0  0  0  0  0  0  0  0  0  0  0
    6.0208    2.1151  -63.2080 H   0  0  0  0  0  0  0  0  0  0  0  0
    3.6257    1.4643  -63.5880 H   0  0  0  0  0  0  0  0  0  0  0  0
    2.0378    1.3132  -61.6932 H   0  0  0  0  0  0  0  0  0  0  0  0
    2.7859    1.8235  -59.3601 H   0  0  0  0  0  0  0  0  0  0  0  0
    8.4765   -3.9714  -54.2762 H   0  0  0  0  0  0  0  0  0  0  0  0
   10.1308   -5.2579  -55.6197 H   0  0  0  0  0  0  0  0  0  0  0  0
  1  2  1  0
  2  3  1  0
  2  4  1  0
  2  5  1  0
  5  6  1  0
  6  7  2  0
  7  8  1  0
  8  9  1  0
  9 10  2  0
  9 11  2  0
  9 12  1  0
 12 13  1  0
 13 14  2  0
 14 15  1  0
 15 16  1  0
 16 17  1  0
 17 18  2  0
 18 19  1  0
 19 20  2  0
 20 21  1  0
 21 22  1  0
 22 23  1  0
 23 24  1  0
 24 25  2  0
 25 26  1  0
 26 27  1  0
 26 28  2  0
 28 29  1  0
 28 30  1  0
 21 31  1  0
 31 32  2  0
 32 33  1  0
 33 34  2  0
 34 35  1  0
 35 36  2  0
  8 37  2  0
 37 38  1  0
 38  5  2  0
 16 13  1  0
 36 19  1  0
 30 23  2  0
 36 31  1  0
  1 39  1  0
  1 40  1  0
  1 41  1  0
  3 42  1  0
  3 43  1  0
  3 44  1  0
  4 45  1  0
  4 46  1  0
  4 47  1  0
  6 48  1  0
  7 49  1  0
 12 50  1  0
 14 51  1  0
 15 52  1  0
 15 53  1  0
 16 54  1  6
 22 55  1  0
 22 56  1  0
 24 57  1  0
 25 58  1  0
 30 59  1  0
 32 60  1  0
 33 61  1  0
 34 62  1  0
 35 63  1  0
 37 64  1  0
 38 65  1  0
M  END
>  <meeko>  (105) 
{"is_sidechain": false}

$$$$

     RDKit          3D

 65 69  0  0  0  0  0  0  0  0999 V2000
    3.3540    0.2680  -63.2230 C   0  0  0  0  0  0  0  0  0  0  0  0
    3.3300    1.4660  -62.2480 C   0  0  0  0  0  0  0  0  0  0  0  0
    2.5310    2.5950  -62.9350 C   0  0  0  0  0  0  0  0  0  0  0  0
    2.5730    1.0120  -60.9820 C   0  0  0  0  0  0  0  0  0  0  0  0
    4.7300    1.9720  -61.8470 C   0  0  0  0  0  0  0  0  0  0  0  0
    5.6840    2.3910  -62.7930 C   0  0  0  0  0  0  0  0  0  0  0  0
    6.9590    2.8170  -62.4030 C   0  0  0  0  0  0  0  0  0  0  0  0
    7.2960    2.8340  -61.0510 C   0  0  0  0  0  0  0  0  0  0  0  0
    8.8950    3.4150  -60.5350 S   0  0  0  0  0  0  0  0  0  0  0  0
    8.6810    4.6610  -59.8330 O   0  0  0  0  0  0  0  0  0  0  0  0
    9.7710    3.3220  -61.6880 O   0  0  0  0  0  0  0  0  0  0  0  0
    9.3770    2.2020  -59.4500 N   0  0  0  0  0  0  0  0  0  0  0  0
    9.5140    2.6990  -58.0640 C   0  0  0  0  0  0  0  0  0  0  0  0
    9.9120    3.8590  -57.5140 C   0  0  0  0  0  0  0  0  0  0  0  0
    9.6340    3.4040  -56.1000 C   0  0  0  0  0  0  0  0  0  0  0  0
    9.2550    2.0320  -56.7110 C   0  0  1  0  0  0  0  0  0  0  0  0
    7.8350    1.7540  -56.5000 N   0  0  0  0  0  0  0  0  0  0  0  0
    7.4430    0.8490  -55.7240 N   0  0  0  0  0  0  0  0  0  0  0  0
    8.3460    0.0350  -55.0250 C   0  0  0  0  0  0  0  0  0  0  0  0
    9.6220   -0.1190  -55.3920 N   0  0  0  0  0  0  0  0  0  0  0  0
   10.0780   -1.0500  -54.5120 N   0  0  0  0  0  0  0  0  0  0  0  0
   11.4590   -1.5110  -54.6080 C   0  0  0  0  0  0  0  0  0  0  0  0
   11.5610   -2.8170  -55.3620 C   0  0  0  0  0  0  0  0  0  0  0  0
   11.5430   -4.0410  -54.6800 C   0  0  0  0  0  0  0  0  0  0  0  0
   11.6410   -5.2440  -55.3840 C   0  0  0  0  0  0  0  0  0  0  0  0
   11.7550   -5.2410  -56.7780 C   0  0  0  0  0  0  0  0  0  0  0  0
   11.8780   -6.7670  -57.5780 Cl  0  0  0  0  0  0  0  0  0  0  0  0
   11.7690   -4.0280  -57.4690 C   0  0  0  0  0  0  0  0  0  0  0  0
   11.8990   -3.9400  -59.1900 Cl  0  0  0  0  0  0  0  0  0  0  0  0
   11.6780   -2.8250  -56.7620 C   0  0  0  0  0  0  0  0  0  0  0  0
    9.1350   -1.4650  -53.5980 C   0  0  0  0  0  0  0  0  0  0  0  0
    9.1800   -2.3840  -52.5390 C   0  0  0  0  0  0  0  0  0  0  0  0
    8.0060   -2.5860  -51.8080 C   0  0  0  0  0  0  0  0  0  0  0  0
    6.8320   -1.9050  -52.1220 C   0  0  0  0  0  0  0  0  0  0  0  0
    6.7990   -0.9930  -53.1830 C   0  0  0  0  0  0  0  0  0  0  0  0
    7.9730   -0.7690  -53.9270 C   0  0  0  0  0  0  0  0  0  0  0  0
    6.3720    2.4300  -60.0890 C   0  0  0  0  0  0  0  0  0  0  0  0
    5.1050    2.0010  -60.4880 C   0  0  0  0  0  0  0  0  0  0  0  0
    3.3728   -0.6708  -62.6500 H   0  0  0  0  0  0  0  0  0  0  0  0
    2.4552    0.2929  -63.8566 H   0  0  0  0  0  0  0  0  0  0  0  0
    4.2511    0.3288  -63.8566 H   0  0  0  0  0  0  0  0  0  0  0  0
    2.0748    3.2396  -62.1693 H   0  0  0  0  0  0  0  0  0  0  0  0
    3.2077    3.1936  -63.5625 H   0  0  0  0  0  0  0  0  0  0  0  0
    1.7414    2.1559  -63.5625 H   0  0  0  0  0  0  0  0  0  0  0  0
    3.1227    1.3417  -60.0881 H   0  0  0  0  0  0  0  0  0  0  0  0
    1.5664    1.4556  -60.9778 H   0  0  0  0  0  0  0  0  0  0  0  0
    2.4903   -0.0849  -60.9778 H   0  0  0  0  0  0  0  0  0  0  0  0
    5.4222    2.3836  -63.8614 H   0  0  0  0  0  0  0  0  0  0  0  0
    7.6908    3.1366  -63.1595 H   0  0  0  0  0  0  0  0  0  0  0  0
   10.2950    1.8220  -59.7380 H   0  0  0  0  0  0  0  0  0  0  0  0
   10.2989    4.7972  -57.9383 H   0  0  0  0  0  0  0  0  0  0  0  0
   10.5129    3.3881  -55.4388 H   0  0  0  0  0  0  0  0  0  0  0  0
    8.9562    3.9540  -55.4307 H   0  0  0  0  0  0  0  0  0  0  0  0
    9.7237    1.0802  -56.4206 H   0  0  0  0  0  0  0  0  0  0  0  0
   12.0536   -0.7489  -55.1330 H   0  0  0  0  0  0  0  0  0  0  0  0
   11.8382   -1.6732  -53.5882 H   0  0  0  0  0  0  0  0  0  0  0  0
   11.4512   -4.0549  -53.5839 H   0  0  0  0  0  0  0  0  0  0  0  0
   11.6284   -6.1992  -54.8386 H   0  0  0  0  0  0  0  0  0  0  0  0
   11.6983   -1.8713  -57.3098 H   0  0  0  0  0  0  0  0  0  0  0  0
   10.1052   -2.9257  -52.2930 H   0  0  0  0  0  0  0  0  0  0  0  0
    8.0091   -3.2966  -50.9683 H   0  0  0  0  0  0  0  0  0  0  0  0
    5.9224   -2.0858  -51.5305 H   0  0  0  0  0  0  0  0  0  0  0  0
    5.8699   -0.4593  -53.4318 H   0  0  0  0  0  0  0  0  0  0  0  0
    6.6394    2.4491  -59.0222 H   0  0  0  0  0  0  0  0  0  0  0  0
    4.3822    1.6780  -59.7244 H   0  0  0  0  0  0  0  0  0  0  0  0
  1  2  1  0
  2  3  1  0
  2  4  1  0
  2  5  1  0
  5  6  1  0
  6  7  2  0
  7  8  1  0
  8  9  1  0
  9 10  2  0
  9 11  2  0
  9 12  1  0
 12 13  1  0
 13 14  2  0
 14 15  1  0
 15 16  1  0
 16 17  1  0
 17 18  2  0
 18 19  1  0
 19 20  2  0
 20 21  1  0
 21 22  1  0
 22 23  1  0
 23 24  1  0
 24 25  2  0
 25 26  1  0
 26 27  1  0
 26 28  2  0
 28 29  1  0
 28 30  1  0
 21 31  1  0
 31 32  2  0
 32 33  1  0
 33 34  2  0
 34 35  1  0
 35 36  2  0
  8 37  2  0
 37 38  1  0
 38  5  2  0
 16 13  1  0
 36 19  1  0
 30 23  2  0
 36 31  1  0
  1 39  1  0
  1 40  1  0
  1 41  1  0
  3 42  1  0
  3 43  1  0
  3 44  1  0
  4 45  1  0
  4 46  1  0
  4 47  1  0
  6 48  1  0
  7 49  1  0
 12 50  1  0
 14 51  1  0
 15 52  1  0
 15 53  1  0
 16 54  1  1
 22 55  1  0
 22 56  1  0
 24 57  1  0
 25 58  1  0
 30 59  1  0
 32 60  1  0
 33 61  1  0
 34 62  1  0
 35 63  1  0
 37 64  1  0
 38 65  1  0
M  END
>  <meeko>  (106) 
{"is_sidechain": false}

$$$$

     RDKit          3D

 65 69  0  0  0  0  0  0  0  0999 V2000
    2.5450    2.7890  -62.8810 C   0  0  0  0  0  0  0  0  0  0  0  0
    3.2800    1.6470  -62.1440 C   0  0  0  0  0  0  0  0  0  0  0  0
    3.1670    0.3860  -63.0280 C   0  0  0  0  0  0  0  0  0  0  0  0
    2.5310    1.4060  -60.8160 C   0  0  0  0  0  0  0  0  0  0  0  0
    4.7640    1.9450  -61.8540 C   0  0  0  0  0  0  0  0  0  0  0  0
    5.6350    2.4670  -62.8270 C   0  0  0  0  0  0  0  0  0  0  0  0
    6.9790    2.7280  -62.5370 C   0  0  0  0  0  0  0  0  0  0  0  0
    7.4730    2.4620  -61.2620 C   0  0  0  0  0  0  0  0  0  0  0  0
    9.1710    2.8050  -60.8660 S   0  0  0  0  0  0  0  0  0  0  0  0
    9.5470    1.9500  -59.7590 O   0  0  0  0  0  0  0  0  0  0  0  0
    9.9110    2.8140  -62.1100 O   0  0  0  0  0  0  0  0  0  0  0  0
    9.0260    4.3790  -60.2290 N   0  0  0  0  0  0  0  0  0  0  0  0
   10.2960    4.8880  -59.6940 C   0  0  0  0  0  0  0  0  0  0  0  0
   11.4890    5.2580  -60.2210 C   0  0  0  0  0  0  0  0  0  0  0  0
   12.0840    5.6470  -58.8640 C   0  0  0  0  0  0  0  0  0  0  0  0
   10.7290    5.2520  -58.3410 C   0  0  0  0  0  0  0  0  0  0  0  0
   10.2180    5.2640  -57.1610 N   0  0  0  0  0  0  0  0  0  0  0  0
    8.9070    4.7720  -57.1740 N   0  0  0  0  0  0  0  0  0  0  0  0
    8.8590    3.5270  -56.8280 C   0  0  0  0  0  0  0  0  0  0  0  0
    9.8770    2.6720  -56.4220 N   0  0  0  0  0  0  0  0  0  0  0  0
    9.3370    1.5090  -55.8500 N   0  0  0  0  0  0  0  0  0  0  0  0
   10.0130    0.2370  -56.1280 C   0  0  0  0  0  0  0  0  0  0  0  0
    9.9710   -0.6650  -54.9100 C   0  0  0  0  0  0  0  0  0  0  0  0
   11.0550   -1.4970  -54.5970 C   0  0  0  0  0  0  0  0  0  0  0  0
   11.0150   -2.3130  -53.4640 C   0  0  0  0  0  0  0  0  0  0  0  0
    9.8950   -2.3060  -52.6280 C   0  0  0  0  0  0  0  0  0  0  0  0
    9.9170   -3.3420  -51.2460 Cl  0  0  0  0  0  0  0  0  0  0  0  0
    8.8110   -1.4740  -52.9270 C   0  0  0  0  0  0  0  0  0  0  0  0
    7.3960   -1.4050  -51.9380 Cl  0  0  0  0  0  0  0  0  0  0  0  0
    8.8530   -0.6570  -54.0610 C   0  0  0  0  0  0  0  0  0  0  0  0
    7.9530    1.5420  -56.1540 C   0  0  0  0  0  0  0  0  0  0  0  0
    6.9740    0.5910  -55.9380 C   0  0  0  0  0  0  0  0  0  0  0  0
    5.6600    0.8890  -56.3310 C   0  0  0  0  0  0  0  0  0  0  0  0
    5.3380    2.1230  -56.9300 C   0  0  0  0  0  0  0  0  0  0  0  0
    6.3200    3.0890  -57.1430 C   0  0  0  0  0  0  0  0  0  0  0  0
    7.6030    2.7700  -56.7450 C   0  0  0  0  0  0  0  0  0  0  0  0
    6.6340    1.9550  -60.2710 C   0  0  0  0  0  0  0  0  0  0  0  0
    5.2940    1.6980  -60.5700 C   0  0  0  0  0  0  0  0  0  0  0  0
    2.1029    3.4759  -62.1444 H   0  0  0  0  0  0  0  0  0  0  0  0
    3.2597    3.3381  -63.5117 H   0  0  0  0  0  0  0  0  0  0  0  0
    1.7492    2.3659  -63.5117 H   0  0  0  0  0  0  0  0  0  0  0  0
    3.0872   -0.5048  -62.3876 H   0  0  0  0  0  0  0  0  0  0  0  0
    2.2721    0.4624  -63.6631 H   0  0  0  0  0  0  0  0  0  0  0  0
    4.0612    0.3021  -63.6631 H   0  0  0  0  0  0  0  0  0  0  0  0
    3.2024    1.6220  -59.9719 H   0  0  0  0  0  0  0  0  0  0  0  0
    1.6533    2.0671  -60.7649 H   0  0  0  0  0  0  0  0  0  0  0  0
    2.2035    0.3571  -60.7649 H   0  0  0  0  0  0  0  0  0  0  0  0
    5.2519    2.6745  -63.8370 H   0  0  0  0  0  0  0  0  0  0  0  0
    7.6417    3.1410  -63.3117 H   0  0  0  0  0  0  0  0  0  0  0  0
    8.3650    4.2920  -59.4460 H   0  0  0  0  0  0  0  0  0  0  0  0
   11.8848    5.2733  -61.2472 H   0  0  0  0  0  0  0  0  0  0  0  0
   12.9234    5.0249  -58.5199 H   0  0  0  0  0  0  0  0  0  0  0  0
   12.5564    6.6195  -58.6613 H   0  0  0  0  0  0  0  0  0  0  0  0
   10.6590    3.1390  -55.9700 H   0  0  0  0  0  0  0  0  0  0  0  0
    9.5091   -0.2647  -56.9673 H   0  0  0  0  0  0  0  0  0  0  0  0
   11.0634    0.4411  -56.3830 H   0  0  0  0  0  0  0  0  0  0  0  0
   11.9421   -1.5073  -55.2473 H   0  0  0  0  0  0  0  0  0  0  0  0
   11.8695   -2.9645  -53.2285 H   0  0  0  0  0  0  0  0  0  0  0  0
    8.0005   -0.0007  -54.2904 H   0  0  0  0  0  0  0  0  0  0  0  0
    7.2181   -0.3742  -55.4703 H   0  0  0  0  0  0  0  0  0  0  0  0
    4.8664    0.1449  -56.1683 H   0  0  0  0  0  0  0  0  0  0  0  0
    4.3002    2.3263  -57.2329 H   0  0  0  0  0  0  0  0  0  0  0  0
    6.0842    4.0586  -57.6058 H   0  0  0  0  0  0  0  0  0  0  0  0
    7.0241    1.7588  -59.2614 H   0  0  0  0  0  0  0  0  0  0  0  0
    4.6367    1.2936  -59.7862 H   0  0  0  0  0  0  0  0  0  0  0  0
  1  2  1  0
  2  3  1  0
  2  4  1  0
  2  5  1  0
  5  6  1  0
  6  7  2  0
  7  8  1  0
  8  9  1  0
  9 10  2  0
  9 11  2  0
  9 12  1  0
 12 13  1  0
 13 14  2  0
 14 15  1  0
 15 16  1  0
 16 17  2  0
 17 18  1  0
 18 19  2  0
 19 20  1  0
 20 21  1  0
 21 22  1  0
 22 23  1  0
 23 24  1  0
 24 25  2  0
 25 26  1  0
 26 27  1  0
 26 28  2  0
 28 29  1  0
 28 30  1  0
 21 31  1  0
 31 32  2  0
 32 33  1  0
 33 34  2  0
 34 35  1  0
 35 36  2  0
  8 37  2  0
 37 38  1  0
 38  5  2  0
 16 13  1  0
 36 19  1  0
 30 23  2  0
 36 31  1  0
  1 39  1  0
  1 40  1  0
  1 41  1  0
  3 42  1  0
  3 43  1  0
  3 44  1  0
  4 45  1  0
  4 46  1  0
  4 47  1  0
  6 48  1  0
  7 49  1  0
 12 50  1  0
 14 51  1  0
 15 52  1  0
 15 53  1  0
 20 54  1  0
 22 55  1  0
 22 56  1  0
 24 57  1  0
 25 58  1  0
 30 59  1  0
 32 60  1  0
 33 61  1  0
 34 62  1  0
 35 63  1  0
 37 64  1  0
 38 65  1  0
M  END
>  <meeko>  (107) 
{"is_sidechain": false}

$$$$

     RDKit          3D

 65 69  0  0  0  0  0  0  0  0999 V2000
   13.8840   -4.8690  -57.8500 C   0  0  0  0  0  0  0  0  0  0  0  0
   12.3720   -5.1790  -57.8200 C   0  0  0  0  0  0  0  0  0  0  0  0
   12.2210   -6.6760  -57.4640 C   0  0  0  0  0  0  0  0  0  0  0  0
   11.7840   -4.9850  -59.2340 C   0  0  0  0  0  0  0  0  0  0  0  0
   11.6680   -4.2300  -56.8320 C   0  0  0  0  0  0  0  0  0  0  0  0
   10.8870   -4.7580  -55.7830 C   0  0  0  0  0  0  0  0  0  0  0  0
   10.2320   -3.9300  -54.8670 C   0  0  0  0  0  0  0  0  0  0  0  0
   10.3450   -2.5480  -54.9930 C   0  0  0  0  0  0  0  0  0  0  0  0
    9.5440   -1.4720  -53.8270 S   0  0  0  0  0  0  0  0  0  0  0  0
    8.5590   -2.2600  -53.1100 O   0  0  0  0  0  0  0  0  0  0  0  0
   10.5800   -0.7370  -53.1340 O   0  0  0  0  0  0  0  0  0  0  0  0
    8.6830   -0.4520  -54.8970 N   0  0  0  0  0  0  0  0  0  0  0  0
    7.2390   -0.4370  -54.6020 C   0  0  0  0  0  0  0  0  0  0  0  0
    6.4130   -1.1640  -53.8110 C   0  0  0  0  0  0  0  0  0  0  0  0
    5.1690   -0.3510  -54.1880 C   0  0  0  0  0  0  0  0  0  0  0  0
    6.1360    0.4310  -55.0350 C   0  0  0  0  0  0  0  0  0  0  0  0
    5.9960    1.4480  -55.8090 N   0  0  0  0  0  0  0  0  0  0  0  0
    7.2150    1.7730  -56.3890 N   0  0  0  0  0  0  0  0  0  0  0  0
    7.2050    1.9860  -57.6700 C   0  0  0  0  0  0  0  0  0  0  0  0
    8.3790    2.1190  -58.4160 N   0  0  0  0  0  0  0  0  0  0  0  0
    8.0800    2.0260  -59.7790 N   0  0  0  0  0  0  0  0  0  0  0  0
    8.8960    2.8030  -60.7170 C   0  0  0  0  0  0  0  0  0  0  0  0
   10.1060    3.4180  -60.0410 C   0  0  0  0  0  0  0  0  0  0  0  0
   10.7560    2.7670  -58.9810 C   0  0  0  0  0  0  0  0  0  0  0  0
   11.8530    3.3550  -58.3470 C   0  0  0  0  0  0  0  0  0  0  0  0
   12.3120    4.6100  -58.7550 C   0  0  0  0  0  0  0  0  0  0  0  0
   13.6730    5.2780  -57.9300 Cl  0  0  0  0  0  0  0  0  0  0  0  0
   11.6640    5.2780  -59.8000 C   0  0  0  0  0  0  0  0  0  0  0  0
   12.1670    6.8340  -60.3580 Cl  0  0  0  0  0  0  0  0  0  0  0  0
   10.5650    4.6870  -60.4330 C   0  0  0  0  0  0  0  0  0  0  0  0
    6.6770    2.0890  -59.8930 C   0  0  0  0  0  0  0  0  0  0  0  0
    5.8860    2.1660  -61.0260 C   0  0  0  0  0  0  0  0  0  0  0  0
    4.4950    2.2080  -60.8690 C   0  0  0  0  0  0  0  0  0  0  0  0
    3.9090    2.1740  -59.5930 C   0  0  0  0  0  0  0  0  0  0  0  0
    4.7020    2.0940  -58.4470 C   0  0  0  0  0  0  0  0  0  0  0  0
    6.0730    2.0450  -58.6210 C   0  0  0  0  0  0  0  0  0  0  0  0
   11.1180   -1.9930  -56.0120 C   0  0  0  0  0  0  0  0  0  0  0  0
   11.7690   -2.8300  -56.9240 C   0  0  0  0  0  0  0  0  0  0  0  0
   14.2629   -4.7913  -56.8202 H   0  0  0  0  0  0  0  0  0  0  0  0
   14.4136   -5.6772  -58.3756 H   0  0  0  0  0  0  0  0  0  0  0  0
   14.0529   -3.9175  -58.3756 H   0  0  0  0  0  0  0  0  0  0  0  0
   12.2092   -6.7934  -56.3704 H   0  0  0  0  0  0  0  0  0  0  0  0
   11.2796   -7.0597  -57.8842 H   0  0  0  0  0  0  0  0  0  0  0  0
   13.0668   -7.2399  -57.8842 H   0  0  0  0  0  0  0  0  0  0  0  0
   10.7422   -4.6413  -59.1539 H   0  0  0  0  0  0  0  0  0  0  0  0
   12.3768   -4.2348  -59.7779 H   0  0  0  0  0  0  0  0  0  0  0  0
   11.8140   -5.9407  -59.7779 H   0  0  0  0  0  0  0  0  0  0  0  0
   10.7909   -5.8492  -55.6832 H   0  0  0  0  0  0  0  0  0  0  0  0
    9.6328   -4.3662  -54.0541 H   0  0  0  0  0  0  0  0  0  0  0  0
    8.8160   -0.8880  -55.8180 H   0  0  0  0  0  0  0  0  0  0  0  0
    6.5755   -2.0228  -53.1431 H   0  0  0  0  0  0  0  0  0  0  0  0
    4.3943   -0.9019  -54.7415 H   0  0  0  0  0  0  0  0  0  0  0  0
    4.4948    0.1088  -53.4504 H   0  0  0  0  0  0  0  0  0  0  0  0
    9.1130    1.4920  -58.0630 H   0  0  0  0  0  0  0  0  0  0  0  0
    9.2391    2.1389  -61.5240 H   0  0  0  0  0  0  0  0  0  0  0  0
    8.2749    3.6204  -61.1121 H   0  0  0  0  0  0  0  0  0  0  0  0
   10.3975    1.7826  -58.6457 H   0  0  0  0  0  0  0  0  0  0  0  0
   12.3573    2.8281  -57.5236 H   0  0  0  0  0  0  0  0  0  0  0  0
   10.0542    5.2221  -61.2471 H   0  0  0  0  0  0  0  0  0  0  0  0
    6.3398    2.1936  -62.0277 H   0  0  0  0  0  0  0  0  0  0  0  0
    3.8513    2.2686  -61.7589 H   0  0  0  0  0  0  0  0  0  0  0  0
    2.8139    2.2108  -59.4957 H   0  0  0  0  0  0  0  0  0  0  0  0
    4.2531    2.0708  -57.4430 H   0  0  0  0  0  0  0  0  0  0  0  0
   11.2155   -0.9007  -56.0984 H   0  0  0  0  0  0  0  0  0  0  0  0
   12.3719   -2.3847  -57.7291 H   0  0  0  0  0  0  0  0  0  0  0  0
  1  2  1  0
  2  3  1  0
  2  4  1  0
  2  5  1  0
  5  6  1  0
  6  7  2  0
  7  8  1  0
  8  9  1  0
  9 10  2  0
  9 11  2  0
  9 12  1  0
 12 13  1  0
 13 14  2  0
 14 15  1  0
 15 16  1  0
 16 17  2  0
 17 18  1  0
 18 19  2  0
 19 20  1  0
 20 21  1  0
 21 22  1  0
 22 23  1  0
 23 24  1  0
 24 25  2  0
 25 26  1  0
 26 27  1  0
 26 28  2  0
 28 29  1  0
 28 30  1  0
 21 31  1  0
 31 32  2  0
 32 33  1  0
 33 34  2  0
 34 35  1  0
 35 36  2  0
  8 37  2  0
 37 38  1  0
 38  5  2  0
 16 13  1  0
 36 19  1  0
 30 23  2  0
 36 31  1  0
  1 39  1  0
  1 40  1  0
  1 41  1  0
  3 42  1  0
  3 43  1  0
  3 44  1  0
  4 45  1  0
  4 46  1  0
  4 47  1  0
  6 48  1  0
  7 49  1  0
 12 50  1  0
 14 51  1  0
 15 52  1  0
 15 53  1  0
 20 54  1  0
 22 55  1  0
 22 56  1  0
 24 57  1  0
 25 58  1  0
 30 59  1  0
 32 60  1  0
 33 61  1  0
 34 62  1  0
 35 63  1  0
 37 64  1  0
 38 65  1  0
M  END
>  <meeko>  (108) 
{"is_sidechain": false}

$$$$

     RDKit          3D

 65 69  0  0  0  0  0  0  0  0999 V2000
   14.1320   -4.3700  -57.5440 C   0  0  0  0  0  0  0  0  0  0  0  0
   12.6130   -4.5050  -57.7940 C   0  0  0  0  0  0  0  0  0  0  0  0
   12.3250   -6.0090  -57.9990 C   0  0  0  0  0  0  0  0  0  0  0  0
   12.2840   -3.7460  -59.0960 C   0  0  0  0  0  0  0  0  0  0  0  0
   11.7440   -3.9480  -56.6530 C   0  0  0  0  0  0  0  0  0  0  0  0
   11.0700   -4.8340  -55.7870 C   0  0  0  0  0  0  0  0  0  0  0  0
   10.2820   -4.3680  -54.7330 C   0  0  0  0  0  0  0  0  0  0  0  0
   10.1480   -2.9980  -54.5300 C   0  0  0  0  0  0  0  0  0  0  0  0
    9.2170   -2.4100  -53.1440 S   0  0  0  0  0  0  0  0  0  0  0  0
    9.9960   -2.6080  -51.9400 O   0  0  0  0  0  0  0  0  0  0  0  0
    7.8810   -2.9560  -53.2700 O   0  0  0  0  0  0  0  0  0  0  0  0
    9.0740   -0.7550  -53.4640 N   0  0  0  0  0  0  0  0  0  0  0  0
    7.7270   -0.2140  -53.3550 C   0  0  0  0  0  0  0  0  0  0  0  0
    6.8970    0.0730  -52.3390 C   0  0  0  0  0  0  0  0  0  0  0  0
    5.8940    0.4660  -53.2740 C   0  0  0  0  0  0  0  0  0  0  0  0
    6.6940    0.1300  -54.3100 C   0  0  0  0  0  0  0  0  0  0  0  0
    6.7130    0.0690  -55.6150 N   0  0  0  0  0  0  0  0  0  0  0  0
    6.0270    1.0040  -56.3540 N   0  0  0  0  0  0  0  0  0  0  0  0
    6.6660    1.9840  -57.0450 C   0  0  0  0  0  0  0  0  0  0  0  0
    7.4250    2.8990  -56.4380 N   0  0  0  0  0  0  0  0  0  0  0  0
    7.8490    3.6940  -57.4430 N   0  0  0  0  0  0  0  0  0  0  0  0
    8.7290    4.8140  -57.1310 C   0  0  0  0  0  0  0  0  0  0  0  0
   10.0880    4.6550  -57.7740 C   0  0  0  0  0  0  0  0  0  0  0  0
   10.8860    3.5380  -57.4950 C   0  0  0  0  0  0  0  0  0  0  0  0
   12.1370    3.3940  -58.1000 C   0  0  0  0  0  0  0  0  0  0  0  0
   12.6070    4.3610  -58.9930 C   0  0  0  0  0  0  0  0  0  0  0  0
   14.1540    4.1030  -59.7160 Cl  0  0  0  0  0  0  0  0  0  0  0  0
   11.8230    5.4820  -59.2760 C   0  0  0  0  0  0  0  0  0  0  0  0
   12.3290    6.7140  -60.3760 Cl  0  0  0  0  0  0  0  0  0  0  0  0
   10.5720    5.6280  -58.6650 C   0  0  0  0  0  0  0  0  0  0  0  0
    7.4150    3.3060  -58.6870 C   0  0  0  0  0  0  0  0  0  0  0  0
    7.6230    3.8300  -59.9710 C   0  0  0  0  0  0  0  0  0  0  0  0
    7.0320    3.1600  -61.0480 C   0  0  0  0  0  0  0  0  0  0  0  0
    6.2730    2.0100  -60.8500 C   0  0  0  0  0  0  0  0  0  0  0  0
    6.0720    1.5010  -59.5620 C   0  0  0  0  0  0  0  0  0  0  0  0
    6.6420    2.1680  -58.4590 C   0  0  0  0  0  0  0  0  0  0  0  0
   10.7810   -2.0940  -55.3810 C   0  0  0  0  0  0  0  0  0  0  0  0
   11.5720   -2.5690  -56.4320 C   0  0  0  0  0  0  0  0  0  0  0  0
   14.3253   -4.3528  -56.4613 H   0  0  0  0  0  0  0  0  0  0  0  0
   14.6555   -5.2252  -57.9964 H   0  0  0  0  0  0  0  0  0  0  0  0
   14.4965   -3.4359  -57.9964 H   0  0  0  0  0  0  0  0  0  0  0  0
   12.2308   -6.5011  -57.0197 H   0  0  0  0  0  0  0  0  0  0  0  0
   11.3875   -6.1294  -58.5616 H   0  0  0  0  0  0  0  0  0  0  0  0
   13.1517   -6.4673  -58.5616 H   0  0  0  0  0  0  0  0  0  0  0  0
   11.8577   -2.7624  -58.8493 H   0  0  0  0  0  0  0  0  0  0  0  0
   13.2039   -3.6100  -59.6836 H   0  0  0  0  0  0  0  0  0  0  0  0
   11.5558   -4.3244  -59.6836 H   0  0  0  0  0  0  0  0  0  0  0  0
   11.1676   -5.9181  -55.9459 H   0  0  0  0  0  0  0  0  0  0  0  0
    9.7705   -5.0790  -54.0676 H   0  0  0  0  0  0  0  0  0  0  0  0
    9.5810   -0.5270  -54.3190 H   0  0  0  0  0  0  0  0  0  0  0  0
    6.9631    0.0250  -51.2420 H   0  0  0  0  0  0  0  0  0  0  0  0
    4.8775    0.8774  -53.1868 H   0  0  0  0  0  0  0  0  0  0  0  0
    6.9030   -0.8100  -56.1050 H   0  0  0  0  0  0  0  0  0  0  0  0
    5.2200    0.6310  -56.8550 H   0  0  0  0  0  0  0  0  0  0  0  0
    8.2676    5.7426  -57.4982 H   0  0  0  0  0  0  0  0  0  0  0  0
    8.8680    4.8466  -56.0403 H   0  0  0  0  0  0  0  0  0  0  0  0
   10.5254    2.7696  -56.7953 H   0  0  0  0  0  0  0  0  0  0  0  0
   12.7561    2.5138  -57.8721 H   0  0  0  0  0  0  0  0  0  0  0  0
    9.9603    6.5153  -58.8850 H   0  0  0  0  0  0  0  0  0  0  0  0
    8.2288    4.7350  -60.1260 H   0  0  0  0  0  0  0  0  0  0  0  0
    7.1695    3.5485  -62.0679 H   0  0  0  0  0  0  0  0  0  0  0  0
    5.8269    1.4963  -61.7144 H   0  0  0  0  0  0  0  0  0  0  0  0
    5.4750    0.5893  -59.4119 H   0  0  0  0  0  0  0  0  0  0  0  0
   10.6590   -1.0117  -55.2268 H   0  0  0  0  0  0  0  0  0  0  0  0
   12.0698   -1.8501  -57.0994 H   0  0  0  0  0  0  0  0  0  0  0  0
  1  2  1  0
  2  3  1  0
  2  4  1  0
  2  5  1  0
  5  6  1  0
  6  7  2  0
  7  8  1  0
  8  9  1  0
  9 10  2  0
  9 11  2  0
  9 12  1  0
 12 13  1  0
 13 14  2  0
 14 15  1  0
 15 16  2  0
 16 17  1  0
 17 18  1  0
 18 19  1  0
 19 20  2  0
 20 21  1  0
 21 22  1  0
 22 23  1  0
 23 24  1  0
 24 25  2  0
 25 26  1  0
 26 27  1  0
 26 28  2  0
 28 29  1  0
 28 30  1  0
 21 31  1  0
 31 32  2  0
 32 33  1  0
 33 34  2  0
 34 35  1  0
 35 36  2  0
  8 37  2  0
 37 38  1  0
 38  5  2  0
 16 13  1  0
 36 19  1  0
 30 23  2  0
 36 31  1  0
  1 39  1  0
  1 40  1  0
  1 41  1  0
  3 42  1  0
  3 43  1  0
  3 44  1  0
  4 45  1  0
  4 46  1  0
  4 47  1  0
  6 48  1  0
  7 49  1  0
 12 50  1  0
 14 51  1  0
 15 52  1  0
 17 53  1  0
 18 54  1  0
 22 55  1  0
 22 56  1  0
 24 57  1  0
 25 58  1  0
 30 59  1  0
 32 60  1  0
 33 61  1  0
 34 62  1  0
 35 63  1  0
 37 64  1  0
 38 65  1  0
M  END
>  <meeko>  (109) 
{"is_sidechain": false}

$$$$

     RDKit          3D

 65 69  0  0  0  0  0  0  0  0999 V2000
    2.5360    2.7450  -62.8320 C   0  0  0  0  0  0  0  0  0  0  0  0
    3.2960    1.5610  -62.1940 C   0  0  0  0  0  0  0  0  0  0  0  0
    3.2330    0.3860  -63.1950 C   0  0  0  0  0  0  0  0  0  0  0  0
    2.5370    1.1720  -60.9070 C   0  0  0  0  0  0  0  0  0  0  0  0
    4.7650    1.8730  -61.8540 C   0  0  0  0  0  0  0  0  0  0  0  0
    5.6670    2.3940  -62.8000 C   0  0  0  0  0  0  0  0  0  0  0  0
    6.9970    2.6750  -62.4630 C   0  0  0  0  0  0  0  0  0  0  0  0
    7.4400    2.4370  -61.1640 C   0  0  0  0  0  0  0  0  0  0  0  0
    9.1170    2.8020  -60.6990 S   0  0  0  0  0  0  0  0  0  0  0  0
    9.3650    4.2020  -60.9800 O   0  0  0  0  0  0  0  0  0  0  0  0
    9.9450    1.7760  -61.3020 O   0  0  0  0  0  0  0  0  0  0  0  0
    9.0870    2.6010  -59.0930 N   0  0  0  0  0  0  0  0  0  0  0  0
   10.0990    3.0140  -58.4230 C   0  0  0  0  0  0  0  0  0  0  0  0
   11.4160    3.6870  -58.7470 C   0  0  0  0  0  0  0  0  0  0  0  0
   11.8130    3.4390  -57.2620 C   0  0  0  0  0  0  0  0  0  0  0  0
   10.3750    2.9390  -56.9340 C   0  0  2  0  0  0  0  0  0  0  0  0
   10.3200    1.5960  -56.3620 N   0  0  0  0  0  0  0  0  0  0  0  0
    9.2160    1.3020  -55.8530 N   0  0  0  0  0  0  0  0  0  0  0  0
    9.2730    0.1070  -55.1290 C   0  0  0  0  0  0  0  0  0  0  0  0
   10.3310   -0.7020  -55.1950 N   0  0  0  0  0  0  0  0  0  0  0  0
    9.9710   -1.7350  -54.3990 N   0  0  0  0  0  0  0  0  0  0  0  0
   10.9040   -2.8390  -54.2080 C   0  0  0  0  0  0  0  0  0  0  0  0
   11.2130   -3.5450  -55.5080 C   0  0  0  0  0  0  0  0  0  0  0  0
   11.5840   -2.8140  -56.6460 C   0  0  0  0  0  0  0  0  0  0  0  0
   11.8690   -3.4670  -57.8480 C   0  0  0  0  0  0  0  0  0  0  0  0
   11.7840   -4.8580  -57.9320 C   0  0  0  0  0  0  0  0  0  0  0  0
   12.1510   -5.5990  -59.4490 Cl  0  0  0  0  0  0  0  0  0  0  0  0
   11.4080   -5.5970  -56.8070 C   0  0  0  0  0  0  0  0  0  0  0  0
   11.2770   -7.3210  -56.8290 Cl  0  0  0  0  0  0  0  0  0  0  0  0
   11.1220   -4.9420  -55.6020 C   0  0  0  0  0  0  0  0  0  0  0  0
    8.6990   -1.6290  -53.8780 C   0  0  0  0  0  0  0  0  0  0  0  0
    7.9370   -2.4660  -53.0520 C   0  0  0  0  0  0  0  0  0  0  0  0
    6.6490   -2.0360  -52.7070 C   0  0  0  0  0  0  0  0  0  0  0  0
    6.1460   -0.8200  -53.1660 C   0  0  0  0  0  0  0  0  0  0  0  0
    6.9180    0.0070  -53.9870 C   0  0  0  0  0  0  0  0  0  0  0  0
    8.2160   -0.4080  -54.3460 C   0  0  0  0  0  0  0  0  0  0  0  0
    6.5750    1.9100  -60.2060 C   0  0  0  0  0  0  0  0  0  0  0  0
    5.2510    1.6350  -60.5520 C   0  0  0  0  0  0  0  0  0  0  0  0
    2.1243    3.3865  -62.0389 H   0  0  0  0  0  0  0  0  0  0  0  0
    3.2271    3.3310  -63.4557 H   0  0  0  0  0  0  0  0  0  0  0  0
    1.7155    2.3606  -63.4557 H   0  0  0  0  0  0  0  0  0  0  0  0
    3.1821   -0.5639  -62.6426 H   0  0  0  0  0  0  0  0  0  0  0  0
    2.3392    0.4907  -63.8275 H   0  0  0  0  0  0  0  0  0  0  0  0
    4.1329    0.3945  -63.8275 H   0  0  0  0  0  0  0  0  0  0  0  0
    3.1261    1.4739  -60.0285 H   0  0  0  0  0  0  0  0  0  0  0  0
    1.5624    1.6818  -60.8878 H   0  0  0  0  0  0  0  0  0  0  0  0
    2.3817    0.0832  -60.8878 H   0  0  0  0  0  0  0  0  0  0  0  0
    5.3201    2.5847  -63.8263 H   0  0  0  0  0  0  0  0  0  0  0  0
    7.6864    3.0805  -63.2182 H   0  0  0  0  0  0  0  0  0  0  0  0
   12.0357    3.1560  -59.4846 H   0  0  0  0  0  0  0  0  0  0  0  0
   11.4634    4.6863  -59.2043 H   0  0  0  0  0  0  0  0  0  0  0  0
   12.5915    2.6730  -57.1311 H   0  0  0  0  0  0  0  0  0  0  0  0
   12.2589    4.2522  -56.6705 H   0  0  0  0  0  0  0  0  0  0  0  0
    9.7296    3.4424  -56.1992 H   0  0  0  0  0  0  0  0  0  0  0  0
   11.8402   -2.4448  -53.7858 H   0  0  0  0  0  0  0  0  0  0  0  0
   10.4379   -3.5661  -53.5268 H   0  0  0  0  0  0  0  0  0  0  0  0
   11.6512   -1.7174  -56.5918 H   0  0  0  0  0  0  0  0  0  0  0  0
   12.1618   -2.8822  -58.7325 H   0  0  0  0  0  0  0  0  0  0  0  0
   10.8231   -5.5288  -54.7209 H   0  0  0  0  0  0  0  0  0  0  0  0
    8.3351   -3.4247  -52.6881 H   0  0  0  0  0  0  0  0  0  0  0  0
    6.0231   -2.6700  -52.0618 H   0  0  0  0  0  0  0  0  0  0  0  0
    5.1310   -0.5078  -52.8792 H   0  0  0  0  0  0  0  0  0  0  0  0
    6.5186    0.9666  -54.3472 H   0  0  0  0  0  0  0  0  0  0  0  0
    6.9333    1.7124  -59.1849 H   0  0  0  0  0  0  0  0  0  0  0  0
    4.5712    1.2232  -59.7915 H   0  0  0  0  0  0  0  0  0  0  0  0
  1  2  1  0
  2  3  1  0
  2  4  1  0
  2  5  1  0
  5  6  1  0
  6  7  2  0
  7  8  1  0
  8  9  1  0
  9 10  2  0
  9 11  2  0
  9 12  1  0
 12 13  2  0
 13 14  1  0
 14 15  1  0
 15 16  1  0
 16 17  1  0
 17 18  2  0
 18 19  1  0
 19 20  2  0
 20 21  1  0
 21 22  1  0
 22 23  1  0
 23 24  1  0
 24 25  2  0
 25 26  1  0
 26 27  1  0
 26 28  2  0
 28 29  1  0
 28 30  1  0
 21 31  1  0
 31 32  2  0
 32 33  1  0
 33 34  2  0
 34 35  1  0
 35 36  2  0
  8 37  2  0
 37 38  1  0
 38  5  2  0
 16 13  1  0
 36 19  1  0
 30 23  2  0
 36 31  1  0
  1 39  1  0
  1 40  1  0
  1 41  1  0
  3 42  1  0
  3 43  1  0
  3 44  1  0
  4 45  1  0
  4 46  1  0
  4 47  1  0
  6 48  1  0
  7 49  1  0
 14 50  1  0
 14 51  1  0
 15 52  1  0
 15 53  1  0
 16 54  1  1
 22 55  1  0
 22 56  1  0
 24 57  1  0
 25 58  1  0
 30 59  1  0
 32 60  1  0
 33 61  1  0
 34 62  1  0
 35 63  1  0
 37 64  1  0
 38 65  1  0
M  END
>  <meeko>  (110) 
{"is_sidechain": false}

$$$$

     RDKit          3D

 65 69  0  0  0  0  0  0  0  0999 V2000
   12.4030   -6.5920  -57.5790 C   0  0  0  0  0  0  0  0  0  0  0  0
   12.4830   -5.0710  -57.8260 C   0  0  0  0  0  0  0  0  0  0  0  0
   11.9540   -4.7560  -59.2420 C   0  0  0  0  0  0  0  0  0  0  0  0
   13.9790   -4.6830  -57.8010 C   0  0  0  0  0  0  0  0  0  0  0  0
   11.6290   -4.3310  -56.7790 C   0  0  0  0  0  0  0  0  0  0  0  0
   11.6160   -2.9270  -56.6680 C   0  0  0  0  0  0  0  0  0  0  0  0
   10.8280   -2.2810  -55.7100 C   0  0  0  0  0  0  0  0  0  0  0  0
   10.0390   -3.0350  -54.8450 C   0  0  0  0  0  0  0  0  0  0  0  0
    9.0570   -2.2340  -53.5920 S   0  0  0  0  0  0  0  0  0  0  0  0
    8.5600   -3.2690  -52.7070 O   0  0  0  0  0  0  0  0  0  0  0  0
    9.8790   -1.1610  -53.0710 O   0  0  0  0  0  0  0  0  0  0  0  0
    7.8180   -1.5920  -54.4210 N   0  0  0  0  0  0  0  0  0  0  0  0
    7.0980   -0.6770  -53.8840 C   0  0  0  0  0  0  0  0  0  0  0  0
    7.0430    0.0230  -52.5420 C   0  0  0  0  0  0  0  0  0  0  0  0
    5.6770    0.6040  -52.9990 C   0  0  0  0  0  0  0  0  0  0  0  0
    5.8980    0.0670  -54.4440 C   0  0  1  0  0  0  0  0  0  0  0  0
    6.2920    1.1510  -55.3320 N   0  0  0  0  0  0  0  0  0  0  0  0
    6.2950    0.7920  -56.5290 N   0  0  0  0  0  0  0  0  0  0  0  0
    6.7430    1.8080  -57.3820 C   0  0  0  0  0  0  0  0  0  0  0  0
    7.4160    2.8560  -56.9030 N   0  0  0  0  0  0  0  0  0  0  0  0
    7.6530    3.5970  -58.0100 N   0  0  0  0  0  0  0  0  0  0  0  0
    8.3910    4.8470  -57.8800 C   0  0  0  0  0  0  0  0  0  0  0  0
    9.8200    4.7060  -58.3480 C   0  0  0  0  0  0  0  0  0  0  0  0
   10.5790    3.5790  -57.9970 C   0  0  0  0  0  0  0  0  0  0  0  0
   11.9020    3.4480  -58.4290 C   0  0  0  0  0  0  0  0  0  0  0  0
   12.4880    4.4440  -59.2140 C   0  0  0  0  0  0  0  0  0  0  0  0
   14.1260    4.2180  -59.7120 Cl  0  0  0  0  0  0  0  0  0  0  0  0
   11.7450    5.5750  -59.5650 C   0  0  0  0  0  0  0  0  0  0  0  0
   12.3990    6.8520  -60.5300 Cl  0  0  0  0  0  0  0  0  0  0  0  0
   10.4200    5.7060  -59.1310 C   0  0  0  0  0  0  0  0  0  0  0  0
    7.1100    3.0740  -59.1640 C   0  0  0  0  0  0  0  0  0  0  0  0
    7.0990    3.5180  -60.4940 C   0  0  0  0  0  0  0  0  0  0  0  0
    6.4380    2.7230  -61.4350 C   0  0  0  0  0  0  0  0  0  0  0  0
    5.8130    1.5340  -61.0650 C   0  0  0  0  0  0  0  0  0  0  0  0
    5.8330    1.1000  -59.7350 C   0  0  0  0  0  0  0  0  0  0  0  0
    6.4970    1.8840  -58.7720 C   0  0  0  0  0  0  0  0  0  0  0  0
   10.0240   -4.4260  -54.9300 C   0  0  0  0  0  0  0  0  0  0  0  0
   10.8150   -5.0620  -55.8900 C   0  0  0  0  0  0  0  0  0  0  0  0
   12.3927   -6.7876  -56.4966 H   0  0  0  0  0  0  0  0  0  0  0  0
   11.4827   -6.9892  -58.0322 H   0  0  0  0  0  0  0  0  0  0  0  0
   13.2765   -7.0835  -58.0322 H   0  0  0  0  0  0  0  0  0  0  0  0
   11.0112   -4.1946  -59.1647 H   0  0  0  0  0  0  0  0  0  0  0  0
   12.6965   -4.1528  -59.7850 H   0  0  0  0  0  0  0  0  0  0  0  0
   11.7775   -5.6962  -59.7850 H   0  0  0  0  0  0  0  0  0  0  0  0
   14.3176   -4.5952  -56.7581 H   0  0  0  0  0  0  0  0  0  0  0  0
   14.5675   -5.4582  -58.3135 H   0  0  0  0  0  0  0  0  0  0  0  0
   14.1165   -3.7195  -58.3135 H   0  0  0  0  0  0  0  0  0  0  0  0
   12.2379   -2.3267  -57.3483 H   0  0  0  0  0  0  0  0  0  0  0  0
   10.8314   -1.1832  -55.6402 H   0  0  0  0  0  0  0  0  0  0  0  0
    6.9910   -0.6491  -51.6728 H   0  0  0  0  0  0  0  0  0  0  0  0
    7.8610    0.6652  -52.1837 H   0  0  0  0  0  0  0  0  0  0  0  0
    4.8109    0.1594  -52.4869 H   0  0  0  0  0  0  0  0  0  0  0  0
    5.4550    1.6695  -52.8395 H   0  0  0  0  0  0  0  0  0  0  0  0
    5.1171   -0.4427  -55.0275 H   0  0  0  0  0  0  0  0  0  0  0  0
    7.8928    5.6191  -58.4847 H   0  0  0  0  0  0  0  0  0  0  0  0
    8.4056    5.1263  -56.8162 H   0  0  0  0  0  0  0  0  0  0  0  0
   10.1284    2.7909  -57.3758 H   0  0  0  0  0  0  0  0  0  0  0  0
   12.4839    2.5573  -58.1498 H   0  0  0  0  0  0  0  0  0  0  0  0
    9.8431    6.6013  -59.4061 H   0  0  0  0  0  0  0  0  0  0  0  0
    7.5921    4.4569  -60.7861 H   0  0  0  0  0  0  0  0  0  0  0  0
    6.4108    3.0422  -62.4873 H   0  0  0  0  0  0  0  0  0  0  0  0
    5.2983    0.9300  -61.8267 H   0  0  0  0  0  0  0  0  0  0  0  0
    5.3378    0.1612  -59.4462 H   0  0  0  0  0  0  0  0  0  0  0  0
    9.3955   -5.0173  -54.2479 H   0  0  0  0  0  0  0  0  0  0  0  0
   10.8023   -6.1601  -55.9537 H   0  0  0  0  0  0  0  0  0  0  0  0
  1  2  1  0
  2  3  1  0
  2  4  1  0
  2  5  1  0
  5  6  1  0
  6  7  2  0
  7  8  1  0
  8  9  1  0
  9 10  2  0
  9 11  2  0
  9 12  1  0
 12 13  2  0
 13 14  1  0
 14 15  1  0
 15 16  1  0
 16 17  1  0
 17 18  2  0
 18 19  1  0
 19 20  2  0
 20 21  1  0
 21 22  1  0
 22 23  1  0
 23 24  1  0
 24 25  2  0
 25 26  1  0
 26 27  1  0
 26 28  2  0
 28 29  1  0
 28 30  1  0
 21 31  1  0
 31 32  2  0
 32 33  1  0
 33 34  2  0
 34 35  1  0
 35 36  2  0
  8 37  2  0
 37 38  1  0
 38  5  2  0
 16 13  1  0
 36 19  1  0
 30 23  2  0
 36 31  1  0
  1 39  1  0
  1 40  1  0
  1 41  1  0
  3 42  1  0
  3 43  1  0
  3 44  1  0
  4 45  1  0
  4 46  1  0
  4 47  1  0
  6 48  1  0
  7 49  1  0
 14 50  1  0
 14 51  1  0
 15 52  1  0
 15 53  1  0
 16 54  1  6
 22 55  1  0
 22 56  1  0
 24 57  1  0
 25 58  1  0
 30 59  1  0
 32 60  1  0
 33 61  1  0
 34 62  1  0
 35 63  1  0
 37 64  1  0
 38 65  1  0
M  END
>  <meeko>  (111) 
{"is_sidechain": false}

$$$$

     RDKit          3D

 65 69  0  0  0  0  0  0  0  0999 V2000
   11.8380   -4.6900  -59.2630 C   0  0  0  0  0  0  0  0  0  0  0  0
   12.4940   -5.0690  -57.9160 C   0  0  0  0  0  0  0  0  0  0  0  0
   12.2610   -6.5800  -57.7030 C   0  0  0  0  0  0  0  0  0  0  0  0
   14.0090   -4.8040  -58.0550 C   0  0  0  0  0  0  0  0  0  0  0  0
   11.9400   -4.2850  -56.7110 C   0  0  0  0  0  0  0  0  0  0  0  0
   11.8360   -4.8460  -55.4250 C   0  0  0  0  0  0  0  0  0  0  0  0
   11.3280   -4.1110  -54.3500 C   0  0  0  0  0  0  0  0  0  0  0  0
   10.9150   -2.7930  -54.5480 C   0  0  0  0  0  0  0  0  0  0  0  0
   10.2660   -1.8770  -53.1660 S   0  0  0  0  0  0  0  0  0  0  0  0
   10.9990   -2.2960  -51.9880 O   0  0  0  0  0  0  0  0  0  0  0  0
   10.2560   -0.4860  -53.5720 O   0  0  0  0  0  0  0  0  0  0  0  0
    8.7430   -2.4210  -53.0470 N   0  0  0  0  0  0  0  0  0  0  0  0
    7.8000   -1.5770  -53.2560 C   0  0  0  0  0  0  0  0  0  0  0  0
    6.3000   -1.7730  -53.1560 C   0  0  0  0  0  0  0  0  0  0  0  0
    6.1980   -0.2230  -53.1200 C   0  0  0  0  0  0  0  0  0  0  0  0
    7.6870   -0.0920  -53.5840 C   0  0  2  0  0  0  0  0  0  0  0  0
    7.7240    0.1750  -55.0130 N   0  0  0  0  0  0  0  0  0  0  0  0
    8.0250    1.3620  -55.2590 N   0  0  0  0  0  0  0  0  0  0  0  0
    8.0390    1.6560  -56.6310 C   0  0  0  0  0  0  0  0  0  0  0  0
    9.1440    1.6150  -57.3820 N   0  0  0  0  0  0  0  0  0  0  0  0
    8.6880    1.9190  -58.6170 N   0  0  0  0  0  0  0  0  0  0  0  0
    9.6350    2.0000  -59.7220 C   0  0  0  0  0  0  0  0  0  0  0  0
   10.4700    3.2580  -59.6570 C   0  0  0  0  0  0  0  0  0  0  0  0
   10.3120    4.2730  -60.6120 C   0  0  0  0  0  0  0  0  0  0  0  0
   11.0860    5.4340  -60.5530 C   0  0  0  0  0  0  0  0  0  0  0  0
   12.0350    5.5970  -59.5410 C   0  0  0  0  0  0  0  0  0  0  0  0
   12.9580    7.0570  -59.5290 Cl  0  0  0  0  0  0  0  0  0  0  0  0
   12.2090    4.5890  -58.5870 C   0  0  0  0  0  0  0  0  0  0  0  0
   13.3640    4.7130  -57.3090 Cl  0  0  0  0  0  0  0  0  0  0  0  0
   11.4320    3.4260  -58.6490 C   0  0  0  0  0  0  0  0  0  0  0  0
    7.3300    2.1410  -58.6760 C   0  0  0  0  0  0  0  0  0  0  0  0
    6.4650    2.4670  -59.7320 C   0  0  0  0  0  0  0  0  0  0  0  0
    5.1060    2.6170  -59.4310 C   0  0  0  0  0  0  0  0  0  0  0  0
    4.6320    2.4500  -58.1310 C   0  0  0  0  0  0  0  0  0  0  0  0
    5.5050    2.1250  -57.0880 C   0  0  0  0  0  0  0  0  0  0  0  0
    6.8760    1.9670  -57.3690 C   0  0  0  0  0  0  0  0  0  0  0  0
   10.9990   -2.2080  -55.8070 C   0  0  0  0  0  0  0  0  0  0  0  0
   11.5090   -2.9510  -56.8760 C   0  0  0  0  0  0  0  0  0  0  0  0
   10.8997   -4.1479  -59.0742 H   0  0  0  0  0  0  0  0  0  0  0  0
   12.5230   -4.0485  -59.8368 H   0  0  0  0  0  0  0  0  0  0  0  0
   11.6244   -5.6039  -59.8368 H   0  0  0  0  0  0  0  0  0  0  0  0
   12.2275   -6.7975  -56.6252 H   0  0  0  0  0  0  0  0  0  0  0  0
   11.3071   -6.8728  -58.1660 H   0  0  0  0  0  0  0  0  0  0  0  0
   13.0824   -7.1465  -58.1660 H   0  0  0  0  0  0  0  0  0  0  0  0
   14.4607   -4.7250  -57.0551 H   0  0  0  0  0  0  0  0  0  0  0  0
   14.4775   -5.6338  -58.6044 H   0  0  0  0  0  0  0  0  0  0  0  0
   14.1680   -3.8644  -58.6044 H   0  0  0  0  0  0  0  0  0  0  0  0
   12.1611   -5.8842  -55.2622 H   0  0  0  0  0  0  0  0  0  0  0  0
   11.2542   -4.5694  -53.3528 H   0  0  0  0  0  0  0  0  0  0  0  0
    5.8356   -2.2472  -54.0332 H   0  0  0  0  0  0  0  0  0  0  0  0
    5.8405   -2.4104  -52.3862 H   0  0  0  0  0  0  0  0  0  0  0  0
    5.4706    0.1927  -53.8328 H   0  0  0  0  0  0  0  0  0  0  0  0
    5.8612    0.2844  -52.2040 H   0  0  0  0  0  0  0  0  0  0  0  0
    8.4033    0.6428  -53.1878 H   0  0  0  0  0  0  0  0  0  0  0  0
   10.3032    1.1271  -59.6825 H   0  0  0  0  0  0  0  0  0  0  0  0
    9.0625    2.0187  -60.6611 H   0  0  0  0  0  0  0  0  0  0  0  0
    9.5707    4.1533  -61.4158 H   0  0  0  0  0  0  0  0  0  0  0  0
   10.9478    6.2233  -61.3066 H   0  0  0  0  0  0  0  0  0  0  0  0
   11.5772    2.6347  -57.8989 H   0  0  0  0  0  0  0  0  0  0  0  0
    6.8406    2.5996  -60.7573 H   0  0  0  0  0  0  0  0  0  0  0  0
    4.3996    2.8712  -60.2350 H   0  0  0  0  0  0  0  0  0  0  0  0
    3.5591    2.5753  -57.9231 H   0  0  0  0  0  0  0  0  0  0  0  0
    5.1266    1.9947  -56.0634 H   0  0  0  0  0  0  0  0  0  0  0  0
   10.6673   -1.1705  -55.9603 H   0  0  0  0  0  0  0  0  0  0  0  0
   11.5760   -2.4846  -57.8700 H   0  0  0  0  0  0  0  0  0  0  0  0
  1  2  1  0
  2  3  1  0
  2  4  1  0
  2  5  1  0
  5  6  1  0
  6  7  2  0
  7  8  1  0
  8  9  1  0
  9 10  2  0
  9 11  2  0
  9 12  1  0
 12 13  2  0
 13 14  1  0
 14 15  1  0
 15 16  1  0
 16 17  1  0
 17 18  2  0
 18 19  1  0
 19 20  2  0
 20 21  1  0
 21 22  1  0
 22 23  1  0
 23 24  1  0
 24 25  2  0
 25 26  1  0
 26 27  1  0
 26 28  2  0
 28 29  1  0
 28 30  1  0
 21 31  1  0
 31 32  2  0
 32 33  1  0
 33 34  2  0
 34 35  1  0
 35 36  2  0
  8 37  2  0
 37 38  1  0
 38  5  2  0
 16 13  1  0
 36 19  1  0
 30 23  2  0
 36 31  1  0
  1 39  1  0
  1 40  1  0
  1 41  1  0
  3 42  1  0
  3 43  1  0
  3 44  1  0
  4 45  1  0
  4 46  1  0
  4 47  1  0
  6 48  1  0
  7 49  1  0
 14 50  1  0
 14 51  1  0
 15 52  1  0
 15 53  1  0
 16 54  1  1
 22 55  1  0
 22 56  1  0
 24 57  1  0
 25 58  1  0
 30 59  1  0
 32 60  1  0
 33 61  1  0
 34 62  1  0
 35 63  1  0
 37 64  1  0
 38 65  1  0
M  END
>  <meeko>  (112) 
{"is_sidechain": false}

$$$$

     RDKit          3D

 65 69  0  0  0  0  0  0  0  0999 V2000
    2.6360    2.7000  -62.7310 C   0  0  0  0  0  0  0  0  0  0  0  0
    3.4160    1.5170  -62.1160 C   0  0  0  0  0  0  0  0  0  0  0  0
    3.5780    0.4520  -63.2230 C   0  0  0  0  0  0  0  0  0  0  0  0
    2.5450    0.9390  -60.9790 C   0  0  0  0  0  0  0  0  0  0  0  0
    4.8010    1.9030  -61.5630 C   0  0  0  0  0  0  0  0  0  0  0  0
    5.8250    2.4180  -62.3770 C   0  0  0  0  0  0  0  0  0  0  0  0
    7.0750    2.7590  -61.8490 C   0  0  0  0  0  0  0  0  0  0  0  0
    7.3160    2.5900  -60.4870 C   0  0  0  0  0  0  0  0  0  0  0  0
    8.8960    3.0140  -59.7910 S   0  0  0  0  0  0  0  0  0  0  0  0
    9.7240    3.5260  -60.8670 O   0  0  0  0  0  0  0  0  0  0  0  0
    9.3250    1.8670  -59.0170 O   0  0  0  0  0  0  0  0  0  0  0  0
    8.5490    4.2410  -58.7880 N   0  0  0  0  0  0  0  0  0  0  0  0
    9.1310    4.2370  -57.6450 C   0  0  0  0  0  0  0  0  0  0  0  0
    9.0600    5.2560  -56.5290 C   0  0  0  0  0  0  0  0  0  0  0  0
   10.3230    4.5650  -55.9450 C   0  0  0  0  0  0  0  0  0  0  0  0
   10.1430    3.3570  -56.9220 C   0  0  1  0  0  0  0  0  0  0  0  0
    9.5090    2.2360  -56.2420 N   0  0  0  0  0  0  0  0  0  0  0  0
   10.2500    1.2300  -56.2340 N   0  0  0  0  0  0  0  0  0  0  0  0
    9.7000    0.1510  -55.5270 C   0  0  0  0  0  0  0  0  0  0  0  0
   10.4790   -0.8700  -55.1610 N   0  0  0  0  0  0  0  0  0  0  0  0
    9.6160   -1.7110  -54.5480 N   0  0  0  0  0  0  0  0  0  0  0  0
   10.1230   -2.9540  -53.9790 C   0  0  0  0  0  0  0  0  0  0  0  0
   10.7020   -3.8640  -55.0380 C   0  0  0  0  0  0  0  0  0  0  0  0
    9.9560   -4.2040  -56.1770 C   0  0  0  0  0  0  0  0  0  0  0  0
   10.4930   -5.0430  -57.1550 C   0  0  0  0  0  0  0  0  0  0  0  0
   11.7870   -5.5530  -57.0150 C   0  0  0  0  0  0  0  0  0  0  0  0
   12.3890   -6.5820  -58.2630 Cl  0  0  0  0  0  0  0  0  0  0  0  0
   12.5430   -5.2160  -55.8880 C   0  0  0  0  0  0  0  0  0  0  0  0
   14.1510   -5.8000  -55.6430 Cl  0  0  0  0  0  0  0  0  0  0  0  0
   12.0030   -4.3740  -54.9080 C   0  0  0  0  0  0  0  0  0  0  0  0
    8.3150   -1.2590  -54.5200 C   0  0  0  0  0  0  0  0  0  0  0  0
    7.1320   -1.8090  -54.0000 C   0  0  0  0  0  0  0  0  0  0  0  0
    5.9530   -1.0750  -54.1620 C   0  0  0  0  0  0  0  0  0  0  0  0
    5.9540    0.1550  -54.8170 C   0  0  0  0  0  0  0  0  0  0  0  0
    7.1400    0.6900  -55.3300 C   0  0  0  0  0  0  0  0  0  0  0  0
    8.3400   -0.0280  -55.1750 C   0  0  0  0  0  0  0  0  0  0  0  0
    6.3250    2.0780  -59.6510 C   0  0  0  0  0  0  0  0  0  0  0  0
    5.0800    1.7400  -60.1880 C   0  0  0  0  0  0  0  0  0  0  0  0
    2.2236    3.3255  -61.9256 H   0  0  0  0  0  0  0  0  0  0  0  0
    3.3143    3.3028  -63.3527 H   0  0  0  0  0  0  0  0  0  0  0  0
    1.8147    2.3141  -63.3527 H   0  0  0  0  0  0  0  0  0  0  0  0
    3.7282   -0.5356  -62.7625 H   0  0  0  0  0  0  0  0  0  0  0  0
    2.6726    0.4315  -63.8474 H   0  0  0  0  0  0  0  0  0  0  0  0
    4.4485    0.7017  -63.8474 H   0  0  0  0  0  0  0  0  0  0  0  0
    2.9744    1.2239  -60.0072 H   0  0  0  0  0  0  0  0  0  0  0  0
    1.5235    1.3391  -61.0600 H   0  0  0  0  0  0  0  0  0  0  0  0
    2.5168   -0.1576  -61.0600 H   0  0  0  0  0  0  0  0  0  0  0  0
    5.6394    2.5559  -63.4524 H   0  0  0  0  0  0  0  0  0  0  0  0
    7.8627    3.1580  -62.5050 H   0  0  0  0  0  0  0  0  0  0  0  0
    9.2080    6.2991  -56.8451 H   0  0  0  0  0  0  0  0  0  0  0  0
    8.1482    5.4119  -55.9338 H   0  0  0  0  0  0  0  0  0  0  0  0
   11.2533    5.1305  -56.1022 H   0  0  0  0  0  0  0  0  0  0  0  0
   10.4009    4.3884  -54.8621 H   0  0  0  0  0  0  0  0  0  0  0  0
   10.9769    2.8655  -57.4446 H   0  0  0  0  0  0  0  0  0  0  0  0
   10.9086   -2.7155  -53.2469 H   0  0  0  0  0  0  0  0  0  0  0  0
    9.2820   -3.4784  -53.5018 H   0  0  0  0  0  0  0  0  0  0  0  0
    8.9382   -3.8055  -56.3003 H   0  0  0  0  0  0  0  0  0  0  0  0
    9.8948   -5.3042  -58.0404 H   0  0  0  0  0  0  0  0  0  0  0  0
   12.6053   -4.1094  -54.0264 H   0  0  0  0  0  0  0  0  0  0  0  0
    7.1329   -2.7808  -53.4846 H   0  0  0  0  0  0  0  0  0  0  0  0
    5.0083   -1.4754  -53.7655 H   0  0  0  0  0  0  0  0  0  0  0  0
    5.0119    0.7111  -54.9318 H   0  0  0  0  0  0  0  0  0  0  0  0
    7.1347    1.6602  -55.8483 H   0  0  0  0  0  0  0  0  0  0  0  0
    6.5214    1.9412  -58.5774 H   0  0  0  0  0  0  0  0  0  0  0  0
    4.2997    1.3380  -59.5250 H   0  0  0  0  0  0  0  0  0  0  0  0
  1  2  1  0
  2  3  1  0
  2  4  1  0
  2  5  1  0
  5  6  1  0
  6  7  2  0
  7  8  1  0
  8  9  1  0
  9 10  2  0
  9 11  2  0
  9 12  1  0
 12 13  2  0
 13 14  1  0
 14 15  1  0
 15 16  1  0
 16 17  1  0
 17 18  2  0
 18 19  1  0
 19 20  2  0
 20 21  1  0
 21 22  1  0
 22 23  1  0
 23 24  1  0
 24 25  2  0
 25 26  1  0
 26 27  1  0
 26 28  2  0
 28 29  1  0
 28 30  1  0
 21 31  1  0
 31 32  2  0
 32 33  1  0
 33 34  2  0
 34 35  1  0
 35 36  2  0
  8 37  2  0
 37 38  1  0
 38  5  2  0
 16 13  1  0
 36 19  1  0
 30 23  2  0
 36 31  1  0
  1 39  1  0
  1 40  1  0
  1 41  1  0
  3 42  1  0
  3 43  1  0
  3 44  1  0
  4 45  1  0
  4 46  1  0
  4 47  1  0
  6 48  1  0
  7 49  1  0
 14 50  1  0
 14 51  1  0
 15 52  1  0
 15 53  1  0
 16 54  1  6
 22 55  1  0
 22 56  1  0
 24 57  1  0
 25 58  1  0
 30 59  1  0
 32 60  1  0
 33 61  1  0
 34 62  1  0
 35 63  1  0
 37 64  1  0
 38 65  1  0
M  END
>  <meeko>  (113) 
{"is_sidechain": false}

$$$$

     RDKit          3D

 65 69  0  0  0  0  0  0  0  0999 V2000
   13.0930   -5.8590  -56.1110 C   0  0  0  0  0  0  0  0  0  0  0  0
   12.6490   -4.6750  -56.9970 C   0  0  0  0  0  0  0  0  0  0  0  0
   12.1080   -5.2180  -58.3380 C   0  0  0  0  0  0  0  0  0  0  0  0
   13.9140   -3.8470  -57.3190 C   0  0  0  0  0  0  0  0  0  0  0  0
   11.5470   -3.8750  -56.2790 C   0  0  0  0  0  0  0  0  0  0  0  0
   10.5320   -4.4900  -55.5260 C   0  0  0  0  0  0  0  0  0  0  0  0
    9.5410   -3.7390  -54.8830 C   0  0  0  0  0  0  0  0  0  0  0  0
    9.5570   -2.3490  -54.9870 C   0  0  0  0  0  0  0  0  0  0  0  0
    8.3110   -1.3710  -54.1790 S   0  0  0  0  0  0  0  0  0  0  0  0
    8.9920   -0.3690  -53.3800 O   0  0  0  0  0  0  0  0  0  0  0  0
    7.3940   -2.3040  -53.5570 O   0  0  0  0  0  0  0  0  0  0  0  0
    7.5650   -0.6170  -55.4060 N   0  0  0  0  0  0  0  0  0  0  0  0
    7.9610    0.5730  -55.6810 C   0  0  0  0  0  0  0  0  0  0  0  0
    9.0230    1.5030  -55.1360 C   0  0  0  0  0  0  0  0  0  0  0  0
    8.7350    2.4080  -56.3620 C   0  0  0  0  0  0  0  0  0  0  0  0
    7.5090    1.5310  -56.7670 C   0  0  2  0  0  0  0  0  0  0  0  0
    6.2510    2.1780  -56.4090 N   0  0  0  0  0  0  0  0  0  0  0  0
    5.4570    2.5980  -57.2850 N   0  0  0  0  0  0  0  0  0  0  0  0
    5.7670    2.5380  -58.6520 C   0  0  0  0  0  0  0  0  0  0  0  0
    6.9790    2.8100  -59.1400 N   0  0  0  0  0  0  0  0  0  0  0  0
    6.8030    2.7040  -60.4780 N   0  0  0  0  0  0  0  0  0  0  0  0
    7.9360    2.9440  -61.3640 C   0  0  0  0  0  0  0  0  0  0  0  0
    9.2070    3.2100  -60.5930 C   0  0  0  0  0  0  0  0  0  0  0  0
    9.7690    2.2190  -59.7770 C   0  0  0  0  0  0  0  0  0  0  0  0
   10.9430    2.4710  -59.0620 C   0  0  0  0  0  0  0  0  0  0  0  0
   11.5720    3.7170  -59.1500 C   0  0  0  0  0  0  0  0  0  0  0  0
   13.0180    3.9540  -58.2370 Cl  0  0  0  0  0  0  0  0  0  0  0  0
   11.0180    4.7170  -59.9570 C   0  0  0  0  0  0  0  0  0  0  0  0
   11.7320    6.2820  -60.1120 Cl  0  0  0  0  0  0  0  0  0  0  0  0
    9.8420    4.4620  -60.6710 C   0  0  0  0  0  0  0  0  0  0  0  0
    5.5250    2.3460  -60.8470 C   0  0  0  0  0  0  0  0  0  0  0  0
    4.9270    2.1180  -62.0950 C   0  0  0  0  0  0  0  0  0  0  0  0
    3.5680    1.7830  -62.1070 C   0  0  0  0  0  0  0  0  0  0  0  0
    2.8380    1.6820  -60.9250 C   0  0  0  0  0  0  0  0  0  0  0  0
    3.4460    1.9130  -59.6870 C   0  0  0  0  0  0  0  0  0  0  0  0
    4.8140    2.2470  -59.6520 C   0  0  0  0  0  0  0  0  0  0  0  0
   10.5470   -1.7060  -55.7270 C   0  0  0  0  0  0  0  0  0  0  0  0
   11.5310   -2.4660  -56.3650 C   0  0  0  0  0  0  0  0  0  0  0  0
   12.9895   -5.5829  -55.0512 H   0  0  0  0  0  0  0  0  0  0  0  0
   12.4620   -6.7341  -56.3253 H   0  0  0  0  0  0  0  0  0  0  0  0
   14.1439   -6.1034  -56.3253 H   0  0  0  0  0  0  0  0  0  0  0  0
   11.3441   -5.9847  -58.1417 H   0  0  0  0  0  0  0  0  0  0  0  0
   11.6611   -4.3941  -58.9137 H   0  0  0  0  0  0  0  0  0  0  0  0
   12.9336   -5.6619  -58.9137 H   0  0  0  0  0  0  0  0  0  0  0  0
   14.3948   -3.5323  -56.3810 H   0  0  0  0  0  0  0  0  0  0  0  0
   14.6156   -4.4612  -57.9026 H   0  0  0  0  0  0  0  0  0  0  0  0
   13.6318   -2.9583  -57.9026 H   0  0  0  0  0  0  0  0  0  0  0  0
   10.5160   -5.5865  -55.4400 H   0  0  0  0  0  0  0  0  0  0  0  0
    8.7555   -4.2420  -54.3000 H   0  0  0  0  0  0  0  0  0  0  0  0
    8.7846    1.9555  -54.1621 H   0  0  0  0  0  0  0  0  0  0  0  0
   10.0372    1.1537  -54.8923 H   0  0  0  0  0  0  0  0  0  0  0  0
    8.4724    3.4430  -56.0978 H   0  0  0  0  0  0  0  0  0  0  0  0
    9.5318    2.6024  -57.0950 H   0  0  0  0  0  0  0  0  0  0  0  0
    7.3211    1.2137  -57.8033 H   0  0  0  0  0  0  0  0  0  0  0  0
    8.0843    2.0586  -61.9996 H   0  0  0  0  0  0  0  0  0  0  0  0
    7.7123    3.8342  -61.9702 H   0  0  0  0  0  0  0  0  0  0  0  0
    9.2825    1.2355  -59.6987 H   0  0  0  0  0  0  0  0  0  0  0  0
   11.3751    1.6844  -58.4260 H   0  0  0  0  0  0  0  0  0  0  0  0
    9.4084    5.2518  -61.3020 H   0  0  0  0  0  0  0  0  0  0  0  0
    5.5036    2.1993  -63.0282 H   0  0  0  0  0  0  0  0  0  0  0  0
    3.0669    1.5959  -63.0682 H   0  0  0  0  0  0  0  0  0  0  0  0
    1.7711    1.4175  -60.9658 H   0  0  0  0  0  0  0  0  0  0  0  0
    2.8655    1.8352  -58.7559 H   0  0  0  0  0  0  0  0  0  0  0  0
   10.5540   -0.6090  -55.8084 H   0  0  0  0  0  0  0  0  0  0  0  0
   12.3112   -1.9545  -56.9478 H   0  0  0  0  0  0  0  0  0  0  0  0
  1  2  1  0
  2  3  1  0
  2  4  1  0
  2  5  1  0
  5  6  1  0
  6  7  2  0
  7  8  1  0
  8  9  1  0
  9 10  2  0
  9 11  2  0
  9 12  1  0
 12 13  2  0
 13 14  1  0
 14 15  1  0
 15 16  1  0
 16 17  1  0
 17 18  2  0
 18 19  1  0
 19 20  2  0
 20 21  1  0
 21 22  1  0
 22 23  1  0
 23 24  1  0
 24 25  2  0
 25 26  1  0
 26 27  1  0
 26 28  2  0
 28 29  1  0
 28 30  1  0
 21 31  1  0
 31 32  2  0
 32 33  1  0
 33 34  2  0
 34 35  1  0
 35 36  2  0
  8 37  2  0
 37 38  1  0
 38  5  2  0
 16 13  1  0
 36 19  1  0
 30 23  2  0
 36 31  1  0
  1 39  1  0
  1 40  1  0
  1 41  1  0
  3 42  1  0
  3 43  1  0
  3 44  1  0
  4 45  1  0
  4 46  1  0
  4 47  1  0
  6 48  1  0
  7 49  1  0
 14 50  1  0
 14 51  1  0
 15 52  1  0
 15 53  1  0
 16 54  1  6
 22 55  1  0
 22 56  1  0
 24 57  1  0
 25 58  1  0
 30 59  1  0
 32 60  1  0
 33 61  1  0
 34 62  1  0
 35 63  1  0
 37 64  1  0
 38 65  1  0
M  END
>  <meeko>  (114) 
{"is_sidechain": false}

$$$$

     RDKit          3D

 65 69  0  0  0  0  0  0  0  0999 V2000
   12.1130   -6.5010  -57.1710 C   0  0  0  0  0  0  0  0  0  0  0  0
   12.2590   -5.0430  -57.6550 C   0  0  0  0  0  0  0  0  0  0  0  0
   11.7050   -4.9830  -59.0970 C   0  0  0  0  0  0  0  0  0  0  0  0
   13.7570   -4.6780  -57.7260 C   0  0  0  0  0  0  0  0  0  0  0  0
   11.5420   -4.0970  -56.6720 C   0  0  0  0  0  0  0  0  0  0  0  0
   10.6790   -4.5650  -55.6650 C   0  0  0  0  0  0  0  0  0  0  0  0
   10.0400   -3.6840  -54.7860 C   0  0  0  0  0  0  0  0  0  0  0  0
   10.2570   -2.3130  -54.9070 C   0  0  0  0  0  0  0  0  0  0  0  0
    9.4890   -1.1810  -53.7650 S   0  0  0  0  0  0  0  0  0  0  0  0
    8.6160   -1.9900  -52.9390 O   0  0  0  0  0  0  0  0  0  0  0  0
   10.5510   -0.4000  -53.1590 O   0  0  0  0  0  0  0  0  0  0  0  0
    8.5860   -0.2180  -54.7060 N   0  0  0  0  0  0  0  0  0  0  0  0
    7.3440   -0.4840  -54.8840 C   0  0  0  0  0  0  0  0  0  0  0  0
    6.3840   -1.5550  -54.4130 C   0  0  0  0  0  0  0  0  0  0  0  0
    5.2490   -0.6640  -54.9770 C   0  0  0  0  0  0  0  0  0  0  0  0
    6.2870    0.2660  -55.6810 C   0  0  1  0  0  0  0  0  0  0  0  0
    6.1730    1.6550  -55.2480 N   0  0  0  0  0  0  0  0  0  0  0  0
    6.3780    2.6120  -56.0330 N   0  0  0  0  0  0  0  0  0  0  0  0
    6.6920    2.4040  -57.3830 C   0  0  0  0  0  0  0  0  0  0  0  0
    7.9410    2.3130  -57.8430 N   0  0  0  0  0  0  0  0  0  0  0  0
    7.7700    2.1150  -59.1690 N   0  0  0  0  0  0  0  0  0  0  0  0
    8.9410    1.8880  -60.0070 C   0  0  0  0  0  0  0  0  0  0  0  0
    9.9400    3.0140  -59.8540 C   0  0  0  0  0  0  0  0  0  0  0  0
    9.9740    4.0750  -60.7680 C   0  0  0  0  0  0  0  0  0  0  0  0
   10.9280    5.0890  -60.6360 C   0  0  0  0  0  0  0  0  0  0  0  0
   11.8620    5.0530  -59.5960 C   0  0  0  0  0  0  0  0  0  0  0  0
   13.0170    6.3330  -59.5080 Cl  0  0  0  0  0  0  0  0  0  0  0  0
   11.8360    4.0000  -58.6780 C   0  0  0  0  0  0  0  0  0  0  0  0
   12.9670    3.8680  -57.3810 Cl  0  0  0  0  0  0  0  0  0  0  0  0
   10.8740    2.9920  -58.8040 C   0  0  0  0  0  0  0  0  0  0  0  0
    6.4520    2.1280  -59.5710 C   0  0  0  0  0  0  0  0  0  0  0  0
    5.8400    1.9820  -60.8240 C   0  0  0  0  0  0  0  0  0  0  0  0
    4.4430    2.0410  -60.8700 C   0  0  0  0  0  0  0  0  0  0  0  0
    3.6890    2.2370  -59.7150 C   0  0  0  0  0  0  0  0  0  0  0  0
    4.3120    2.3780  -58.4700 C   0  0  0  0  0  0  0  0  0  0  0  0
    5.7170    2.3220  -58.4030 C   0  0  0  0  0  0  0  0  0  0  0  0
   11.1070   -1.8150  -55.8950 C   0  0  0  0  0  0  0  0  0  0  0  0
   11.7400   -2.7030  -56.7660 C   0  0  0  0  0  0  0  0  0  0  0  0
   12.1107   -6.5238  -56.0712 H   0  0  0  0  0  0  0  0  0  0  0  0
   11.1684   -6.9198  -57.5484 H   0  0  0  0  0  0  0  0  0  0  0  0
   12.9558   -7.0988  -57.5484 H   0  0  0  0  0  0  0  0  0  0  0  0
   10.6119   -4.8646  -59.0652 H   0  0  0  0  0  0  0  0  0  0  0  0
   12.1512   -4.1279  -59.6259 H   0  0  0  0  0  0  0  0  0  0  0  0
   11.9578   -5.9138  -59.6259 H   0  0  0  0  0  0  0  0  0  0  0  0
   14.1592   -4.5800  -56.7069 H   0  0  0  0  0  0  0  0  0  0  0  0
   14.3023   -5.4696  -58.2609 H   0  0  0  0  0  0  0  0  0  0  0  0
   13.8771   -3.7243  -58.2609 H   0  0  0  0  0  0  0  0  0  0  0  0
   10.5028   -5.6463  -55.5665 H   0  0  0  0  0  0  0  0  0  0  0  0
    9.3703   -4.0713  -54.0040 H   0  0  0  0  0  0  0  0  0  0  0  0
    6.4977   -2.5285  -54.9124 H   0  0  0  0  0  0  0  0  0  0  0  0
    6.3793   -1.9205  -53.3755 H   0  0  0  0  0  0  0  0  0  0  0  0
    4.5771   -1.1874  -55.6731 H   0  0  0  0  0  0  0  0  0  0  0  0
    4.5027   -0.2319  -54.2942 H   0  0  0  0  0  0  0  0  0  0  0  0
    6.3284    0.3836  -56.7739 H   0  0  0  0  0  0  0  0  0  0  0  0
    9.4172    0.9413  -59.7119 H   0  0  0  0  0  0  0  0  0  0  0  0
    8.6185    1.8443  -61.0577 H   0  0  0  0  0  0  0  0  0  0  0  0
    9.2473    4.1107  -61.5930 H   0  0  0  0  0  0  0  0  0  0  0  0
   10.9438    5.9209  -61.3555 H   0  0  0  0  0  0  0  0  0  0  0  0
   10.8483    2.1716  -58.0717 H   0  0  0  0  0  0  0  0  0  0  0  0
    6.4354    1.8270  -61.7358 H   0  0  0  0  0  0  0  0  0  0  0  0
    3.9300    1.9305  -61.8368 H   0  0  0  0  0  0  0  0  0  0  0  0
    2.5920    2.2814  -59.7825 H   0  0  0  0  0  0  0  0  0  0  0  0
    3.7141    2.5300  -57.5593 H   0  0  0  0  0  0  0  0  0  0  0  0
   11.2767   -0.7320  -55.9867 H   0  0  0  0  0  0  0  0  0  0  0  0
   12.4090   -2.3069  -57.5441 H   0  0  0  0  0  0  0  0  0  0  0  0
  1  2  1  0
  2  3  1  0
  2  4  1  0
  2  5  1  0
  5  6  1  0
  6  7  2  0
  7  8  1  0
  8  9  1  0
  9 10  2  0
  9 11  2  0
  9 12  1  0
 12 13  2  0
 13 14  1  0
 14 15  1  0
 15 16  1  0
 16 17  1  0
 17 18  2  0
 18 19  1  0
 19 20  2  0
 20 21  1  0
 21 22  1  0
 22 23  1  0
 23 24  1  0
 24 25  2  0
 25 26  1  0
 26 27  1  0
 26 28  2  0
 28 29  1  0
 28 30  1  0
 21 31  1  0
 31 32  2  0
 32 33  1  0
 33 34  2  0
 34 35  1  0
 35 36  2  0
  8 37  2  0
 37 38  1  0
 38  5  2  0
 16 13  1  0
 36 19  1  0
 30 23  2  0
 36 31  1  0
  1 39  1  0
  1 40  1  0
  1 41  1  0
  3 42  1  0
  3 43  1  0
  3 44  1  0
  4 45  1  0
  4 46  1  0
  4 47  1  0
  6 48  1  0
  7 49  1  0
 14 50  1  0
 14 51  1  0
 15 52  1  0
 15 53  1  0
 16 54  1  6
 22 55  1  0
 22 56  1  0
 24 57  1  0
 25 58  1  0
 30 59  1  0
 32 60  1  0
 33 61  1  0
 34 62  1  0
 35 63  1  0
 37 64  1  0
 38 65  1  0
M  END
>  <meeko>  (115) 
{"is_sidechain": false}

$$$$

     RDKit          3D

 65 69  0  0  0  0  0  0  0  0999 V2000
    2.5960    2.8120  -62.7480 C   0  0  0  0  0  0  0  0  0  0  0  0
    3.2900    1.5580  -62.1750 C   0  0  0  0  0  0  0  0  0  0  0  0
    2.5510    1.1040  -60.8980 C   0  0  0  0  0  0  0  0  0  0  0  0
    3.1290    0.4310  -63.2210 C   0  0  0  0  0  0  0  0  0  0  0  0
    4.7550    1.8880  -61.8360 C   0  0  0  0  0  0  0  0  0  0  0  0
    5.6540    2.4080  -62.7860 C   0  0  0  0  0  0  0  0  0  0  0  0
    6.9760    2.7100  -62.4480 C   0  0  0  0  0  0  0  0  0  0  0  0
    7.4220    2.4890  -61.1460 C   0  0  0  0  0  0  0  0  0  0  0  0
    9.0920    2.9090  -60.6990 S   0  0  0  0  0  0  0  0  0  0  0  0
    9.8310    3.1090  -61.9320 O   0  0  0  0  0  0  0  0  0  0  0  0
    9.5130    1.8880  -59.7610 O   0  0  0  0  0  0  0  0  0  0  0  0
    8.9820    4.3260  -59.9120 N   0  0  0  0  0  0  0  0  0  0  0  0
    9.1200    4.3560  -58.6380 C   0  0  0  0  0  0  0  0  0  0  0  0
    9.0140    5.5400  -57.7030 C   0  0  0  0  0  0  0  0  0  0  0  0
    9.0210    4.5140  -56.5400 C   0  0  0  0  0  0  0  0  0  0  0  0
    9.3940    3.3560  -57.5210 C   0  0  2  0  0  0  0  0  0  0  0  0
   10.8190    3.0540  -57.4380 N   0  0  0  0  0  0  0  0  0  0  0  0
   11.2470    2.0470  -56.8260 N   0  0  0  0  0  0  0  0  0  0  0  0
   10.3770    1.1700  -56.1650 C   0  0  0  0  0  0  0  0  0  0  0  0
    9.2340    1.5660  -55.5980 N   0  0  0  0  0  0  0  0  0  0  0  0
    8.7310    0.4170  -55.0920 N   0  0  0  0  0  0  0  0  0  0  0  0
    7.4380    0.4470  -54.4190 C   0  0  0  0  0  0  0  0  0  0  0  0
    7.1860   -0.8380  -53.6660 C   0  0  0  0  0  0  0  0  0  0  0  0
    6.4740   -1.8900  -54.2540 C   0  0  0  0  0  0  0  0  0  0  0  0
    6.2190   -3.0610  -53.5340 C   0  0  0  0  0  0  0  0  0  0  0  0
    6.6650   -3.1920  -52.2160 C   0  0  0  0  0  0  0  0  0  0  0  0
    6.3120   -4.6670  -51.3890 Cl  0  0  0  0  0  0  0  0  0  0  0  0
    7.3700   -2.1460  -51.6160 C   0  0  0  0  0  0  0  0  0  0  0  0
    7.9420   -2.2230  -49.9880 Cl  0  0  0  0  0  0  0  0  0  0  0  0
    7.6290   -0.9760  -52.3400 C   0  0  0  0  0  0  0  0  0  0  0  0
    9.5490   -0.6790  -55.2680 C   0  0  0  0  0  0  0  0  0  0  0  0
    9.4330   -2.0240  -54.8860 C   0  0  0  0  0  0  0  0  0  0  0  0
   10.4750   -2.8880  -55.2390 C   0  0  0  0  0  0  0  0  0  0  0  0
   11.5880   -2.4290  -55.9430 C   0  0  0  0  0  0  0  0  0  0  0  0
   11.6900   -1.0850  -56.3170 C   0  0  0  0  0  0  0  0  0  0  0  0
   10.6510   -0.2010  -55.9740 C   0  0  0  0  0  0  0  0  0  0  0  0
    6.5630    1.9680  -60.1810 C   0  0  0  0  0  0  0  0  0  0  0  0
    5.2420    1.6730  -60.5300 C   0  0  0  0  0  0  0  0  0  0  0  0
    2.2447    3.4467  -61.9211 H   0  0  0  0  0  0  0  0  0  0  0  0
    3.3102    3.3764  -63.3656 H   0  0  0  0  0  0  0  0  0  0  0  0
    1.7385    2.5066  -63.3656 H   0  0  0  0  0  0  0  0  0  0  0  0
    3.1065    1.4452  -60.0120 H   0  0  0  0  0  0  0  0  0  0  0  0
    1.5398    1.5369  -60.8860 H   0  0  0  0  0  0  0  0  0  0  0  0
    2.4801    0.0064  -60.8860 H   0  0  0  0  0  0  0  0  0  0  0  0
    2.9916   -0.5309  -62.7054 H   0  0  0  0  0  0  0  0  0  0  0  0
    2.2513    0.6380  -63.8509 H   0  0  0  0  0  0  0  0  0  0  0  0
    4.0295    0.3840  -63.8509 H   0  0  0  0  0  0  0  0  0  0  0  0
    5.3088    2.5803  -63.8161 H   0  0  0  0  0  0  0  0  0  0  0  0
    7.6607    3.1198  -63.2051 H   0  0  0  0  0  0  0  0  0  0  0  0
    9.8773    6.2214  -57.7220 H   0  0  0  0  0  0  0  0  0  0  0  0
    8.2241    6.2983  -57.8081 H   0  0  0  0  0  0  0  0  0  0  0  0
    9.7869    4.7134  -55.7761 H   0  0  0  0  0  0  0  0  0  0  0  0
    8.1377    4.4173  -55.8915 H   0  0  0  0  0  0  0  0  0  0  0  0
    8.9272    2.3608  -57.4806 H   0  0  0  0  0  0  0  0  0  0  0  0
    7.4216    1.2878  -53.7100 H   0  0  0  0  0  0  0  0  0  0  0  0
    6.6517    0.5662  -55.1789 H   0  0  0  0  0  0  0  0  0  0  0  0
    6.1130   -1.7948  -55.2887 H   0  0  0  0  0  0  0  0  0  0  0  0
    5.6640   -3.8841  -54.0077 H   0  0  0  0  0  0  0  0  0  0  0  0
    8.1860   -0.1550  -51.8649 H   0  0  0  0  0  0  0  0  0  0  0  0
    8.5556   -2.3856  -54.3298 H   0  0  0  0  0  0  0  0  0  0  0  0
   10.4154   -3.9493  -54.9560 H   0  0  0  0  0  0  0  0  0  0  0  0
   12.3932   -3.1305  -56.2066 H   0  0  0  0  0  0  0  0  0  0  0  0
   12.5694   -0.7248  -56.8710 H   0  0  0  0  0  0  0  0  0  0  0  0
    6.9202    1.7907  -59.1558 H   0  0  0  0  0  0  0  0  0  0  0  0
    4.5649    1.2626  -59.7664 H   0  0  0  0  0  0  0  0  0  0  0  0
  1  2  1  0
  2  3  1  0
  2  4  1  0
  2  5  1  0
  5  6  1  0
  6  7  2  0
  7  8  1  0
  8  9  1  0
  9 10  2  0
  9 11  2  0
  9 12  1  0
 12 13  2  0
 13 14  1  0
 14 15  1  0
 15 16  1  0
 16 17  1  0
 17 18  2  0
 18 19  1  0
 19 20  2  0
 20 21  1  0
 21 22  1  0
 22 23  1  0
 23 24  1  0
 24 25  2  0
 25 26  1  0
 26 27  1  0
 26 28  2  0
 28 29  1  0
 28 30  1  0
 21 31  1  0
 31 32  2  0
 32 33  1  0
 33 34  2  0
 34 35  1  0
 35 36  2  0
  8 37  2  0
 37 38  1  0
 38  5  2  0
 16 13  1  0
 36 19  1  0
 30 23  2  0
 36 31  1  0
  1 39  1  0
  1 40  1  0
  1 41  1  0
  3 42  1  0
  3 43  1  0
  3 44  1  0
  4 45  1  0
  4 46  1  0
  4 47  1  0
  6 48  1  0
  7 49  1  0
 14 50  1  0
 14 51  1  0
 15 52  1  0
 15 53  1  0
 16 54  1  6
 22 55  1  0
 22 56  1  0
 24 57  1  0
 25 58  1  0
 30 59  1  0
 32 60  1  0
 33 61  1  0
 34 62  1  0
 35 63  1  0
 37 64  1  0
 38 65  1  0
M  END
>  <meeko>  (116) 
{"is_sidechain": false}

$$$$

     RDKit          3D

 65 69  0  0  0  0  0  0  0  0999 V2000
    2.6630    2.6770  -62.7850 C   0  0  0  0  0  0  0  0  0  0  0  0
    3.3750    1.4610  -62.1540 C   0  0  0  0  0  0  0  0  0  0  0  0
    3.4070    0.3450  -63.2230 C   0  0  0  0  0  0  0  0  0  0  0  0
    2.5310    0.9350  -60.9710 C   0  0  0  0  0  0  0  0  0  0  0  0
    4.7680    1.8810  -61.6490 C   0  0  0  0  0  0  0  0  0  0  0  0
    5.7860    2.3200  -62.5150 C   0  0  0  0  0  0  0  0  0  0  0  0
    7.0440    2.6960  -62.0300 C   0  0  0  0  0  0  0  0  0  0  0  0
    7.3000    2.6370  -60.6610 C   0  0  0  0  0  0  0  0  0  0  0  0
    8.8890    3.1060  -60.0180 S   0  0  0  0  0  0  0  0  0  0  0  0
    9.6440    3.6960  -61.1080 O   0  0  0  0  0  0  0  0  0  0  0  0
    9.4030    1.9510  -59.3110 O   0  0  0  0  0  0  0  0  0  0  0  0
    8.5350    4.2770  -58.9530 N   0  0  0  0  0  0  0  0  0  0  0  0
    9.1280    4.2240  -57.8160 C   0  0  0  0  0  0  0  0  0  0  0  0
    9.0530    5.1860  -56.6500 C   0  0  0  0  0  0  0  0  0  0  0  0
   10.3310    4.4840  -56.1110 C   0  0  0  0  0  0  0  0  0  0  0  0
   10.1580    3.3240  -57.1460 C   0  0  1  0  0  0  0  0  0  0  0  0
    9.5450    2.1610  -56.5180 N   0  0  0  0  0  0  0  0  0  0  0  0
   10.4060    1.3290  -56.1610 N   0  0  0  0  0  0  0  0  0  0  0  0
    9.8570    0.2280  -55.4890 C   0  0  0  0  0  0  0  0  0  0  0  0
   10.6410   -0.7930  -55.1350 N   0  0  0  0  0  0  0  0  0  0  0  0
    9.7790   -1.6580  -54.5560 N   0  0  0  0  0  0  0  0  0  0  0  0
   10.2900   -2.9080  -54.0090 C   0  0  0  0  0  0  0  0  0  0  0  0
   10.8060   -3.8290  -55.0900 C   0  0  0  0  0  0  0  0  0  0  0  0
   10.0230   -4.1170  -56.2190 C   0  0  0  0  0  0  0  0  0  0  0  0
   10.5020   -4.9660  -57.2190 C   0  0  0  0  0  0  0  0  0  0  0  0
   11.7720   -5.5360  -57.1110 C   0  0  0  0  0  0  0  0  0  0  0  0
   12.3010   -6.5760  -58.3850 Cl  0  0  0  0  0  0  0  0  0  0  0  0
   12.5660   -5.2520  -55.9960 C   0  0  0  0  0  0  0  0  0  0  0  0
   14.1490   -5.9140  -55.7900 Cl  0  0  0  0  0  0  0  0  0  0  0  0
   12.0850   -4.4000  -54.9920 C   0  0  0  0  0  0  0  0  0  0  0  0
    8.4720   -1.2210  -54.5390 C   0  0  0  0  0  0  0  0  0  0  0  0
    7.2880   -1.7960  -54.0520 C   0  0  0  0  0  0  0  0  0  0  0  0
    6.1020   -1.0710  -54.2160 C   0  0  0  0  0  0  0  0  0  0  0  0
    6.1000    0.1740  -54.8420 C   0  0  0  0  0  0  0  0  0  0  0  0
    7.2880    0.7340  -55.3220 C   0  0  0  0  0  0  0  0  0  0  0  0
    8.4950    0.0260  -55.1640 C   0  0  0  0  0  0  0  0  0  0  0  0
    6.3150    2.2030  -59.7760 C   0  0  0  0  0  0  0  0  0  0  0  0
    5.0620    1.8300  -60.2700 C   0  0  0  0  0  0  0  0  0  0  0  0
    2.2797    3.3315  -61.9883 H   0  0  0  0  0  0  0  0  0  0  0  0
    3.3760    3.2367  -63.4081 H   0  0  0  0  0  0  0  0  0  0  0  0
    1.8259    2.3291  -63.4081 H   0  0  0  0  0  0  0  0  0  0  0  0
    3.4351   -0.6367  -62.7275 H   0  0  0  0  0  0  0  0  0  0  0  0
    2.5065    0.4130  -63.8511 H   0  0  0  0  0  0  0  0  0  0  0  0
    4.3021    0.4645  -63.8511 H   0  0  0  0  0  0  0  0  0  0  0  0
    3.0045    1.2301  -60.0230 H   0  0  0  0  0  0  0  0  0  0  0  0
    1.5189    1.3625  -61.0240 H   0  0  0  0  0  0  0  0  0  0  0  0
    2.4689   -0.1620  -61.0240 H   0  0  0  0  0  0  0  0  0  0  0  0
    5.5892    2.3688  -63.5962 H   0  0  0  0  0  0  0  0  0  0  0  0
    7.8259    3.0360  -62.7250 H   0  0  0  0  0  0  0  0  0  0  0  0
    9.1843    6.2454  -56.9153 H   0  0  0  0  0  0  0  0  0  0  0  0
    8.1444    5.2998  -56.0404 H   0  0  0  0  0  0  0  0  0  0  0  0
   11.2523    5.0694  -56.2473 H   0  0  0  0  0  0  0  0  0  0  0  0
   10.4211    4.2547  -55.0389 H   0  0  0  0  0  0  0  0  0  0  0  0
   10.9940    2.8712  -57.6993 H   0  0  0  0  0  0  0  0  0  0  0  0
   11.1113   -2.6818  -53.3131 H   0  0  0  0  0  0  0  0  0  0  0  0
    9.4621   -3.4177  -53.4945 H   0  0  0  0  0  0  0  0  0  0  0  0
    9.0228   -3.6698  -56.3169 H   0  0  0  0  0  0  0  0  0  0  0  0
    9.8757   -5.1867  -58.0960 H   0  0  0  0  0  0  0  0  0  0  0  0
   12.7157   -4.1766  -54.1189 H   0  0  0  0  0  0  0  0  0  0  0  0
    7.2919   -2.7797  -53.5598 H   0  0  0  0  0  0  0  0  0  0  0  0
    5.1557   -1.4910  -53.8445 H   0  0  0  0  0  0  0  0  0  0  0  0
    5.1536    0.7222  -54.9598 H   0  0  0  0  0  0  0  0  0  0  0  0
    7.2798    1.7162  -55.8173 H   0  0  0  0  0  0  0  0  0  0  0  0
    6.5221    2.1544  -58.6968 H   0  0  0  0  0  0  0  0  0  0  0  0
    4.2872    1.4888  -59.5676 H   0  0  0  0  0  0  0  0  0  0  0  0
  1  2  1  0
  2  3  1  0
  2  4  1  0
  2  5  1  0
  5  6  1  0
  6  7  2  0
  7  8  1  0
  8  9  1  0
  9 10  2  0
  9 11  2  0
  9 12  1  0
 12 13  2  0
 13 14  1  0
 14 15  1  0
 15 16  1  0
 16 17  1  0
 17 18  2  0
 18 19  1  0
 19 20  2  0
 20 21  1  0
 21 22  1  0
 22 23  1  0
 23 24  1  0
 24 25  2  0
 25 26  1  0
 26 27  1  0
 26 28  2  0
 28 29  1  0
 28 30  1  0
 21 31  1  0
 31 32  2  0
 32 33  1  0
 33 34  2  0
 34 35  1  0
 35 36  2  0
  8 37  2  0
 37 38  1  0
 38  5  2  0
 16 13  1  0
 36 19  1  0
 30 23  2  0
 36 31  1  0
  1 39  1  0
  1 40  1  0
  1 41  1  0
  3 42  1  0
  3 43  1  0
  3 44  1  0
  4 45  1  0
  4 46  1  0
  4 47  1  0
  6 48  1  0
  7 49  1  0
 14 50  1  0
 14 51  1  0
 15 52  1  0
 15 53  1  0
 16 54  1  6
 22 55  1  0
 22 56  1  0
 24 57  1  0
 25 58  1  0
 30 59  1  0
 32 60  1  0
 33 61  1  0
 34 62  1  0
 35 63  1  0
 37 64  1  0
 38 65  1  0
M  END
>  <meeko>  (117) 
{"is_sidechain": false}

$$$$

     RDKit          3D

 65 69  0  0  0  0  0  0  0  0999 V2000
   12.2320   -6.6540  -57.3750 C   0  0  0  0  0  0  0  0  0  0  0  0
   12.3760   -5.1630  -57.7540 C   0  0  0  0  0  0  0  0  0  0  0  0
   11.7880   -4.9950  -59.1730 C   0  0  0  0  0  0  0  0  0  0  0  0
   13.8850   -4.8430  -57.7880 C   0  0  0  0  0  0  0  0  0  0  0  0
   11.6640   -4.2020  -56.7820 C   0  0  0  0  0  0  0  0  0  0  0  0
   11.7820   -2.8020  -56.8800 C   0  0  0  0  0  0  0  0  0  0  0  0
   11.1220   -1.9540  -55.9850 C   0  0  0  0  0  0  0  0  0  0  0  0
   10.3300   -2.4980  -54.9760 C   0  0  0  0  0  0  0  0  0  0  0  0
    9.5340   -1.4080  -53.8100 S   0  0  0  0  0  0  0  0  0  0  0  0
   10.5780   -0.8530  -52.9690 O   0  0  0  0  0  0  0  0  0  0  0  0
    8.4550   -2.1780  -53.2260 O   0  0  0  0  0  0  0  0  0  0  0  0
    8.9140   -0.2380  -54.7360 N   0  0  0  0  0  0  0  0  0  0  0  0
    7.6450   -0.1630  -54.8890 C   0  0  0  0  0  0  0  0  0  0  0  0
    6.4090   -0.9210  -54.4260 C   0  0  0  0  0  0  0  0  0  0  0  0
    5.5460    0.0970  -55.2300 C   0  0  0  0  0  0  0  0  0  0  0  0
    6.8310    0.7970  -55.6220 C   0  0  0  0  0  0  0  0  0  0  0  0
    7.0550    1.8510  -56.3190 N   0  0  0  0  0  0  0  0  0  0  0  0
    8.4120    2.1400  -56.3990 N   0  0  0  0  0  0  0  0  0  0  0  0
    8.7700    2.4980  -57.5880 C   0  0  0  0  0  0  0  0  0  0  0  0
    8.0160    2.6450  -58.7470 N   0  0  0  0  0  0  0  0  0  0  0  0
    8.7570    3.3280  -59.7250 N   0  0  0  0  0  0  0  0  0  0  0  0
    8.6130    2.8920  -61.1190 C   0  0  0  0  0  0  0  0  0  0  0  0
    7.1580    2.6000  -61.4350 C   0  0  0  0  0  0  0  0  0  0  0  0
    6.7280    2.4980  -62.7660 C   0  0  0  0  0  0  0  0  0  0  0  0
    5.3860    2.2460  -63.0580 C   0  0  0  0  0  0  0  0  0  0  0  0
    4.4560    2.0980  -62.0270 C   0  0  0  0  0  0  0  0  0  0  0  0
    2.8130    1.7890  -62.4630 Cl  0  0  0  0  0  0  0  0  0  0  0  0
    4.8720    2.2070  -60.6950 C   0  0  0  0  0  0  0  0  0  0  0  0
    3.7780    2.0460  -59.3670 Cl  0  0  0  0  0  0  0  0  0  0  0  0
    6.2170    2.4590  -60.4030 C   0  0  0  0  0  0  0  0  0  0  0  0
   10.0860    3.3730  -59.2350 C   0  0  0  0  0  0  0  0  0  0  0  0
   11.2430    3.8250  -59.8420 C   0  0  0  0  0  0  0  0  0  0  0  0
   12.4400    3.7770  -59.1100 C   0  0  0  0  0  0  0  0  0  0  0  0
   12.4700    3.2890  -57.7880 C   0  0  0  0  0  0  0  0  0  0  0  0
   11.3060    2.8380  -57.1690 C   0  0  0  0  0  0  0  0  0  0  0  0
   10.1450    2.8920  -57.9150 C   0  0  0  0  0  0  0  0  0  0  0  0
   10.1910   -3.8780  -54.8490 C   0  0  0  0  0  0  0  0  0  0  0  0
   10.8550   -4.7170  -55.7480 C   0  0  0  0  0  0  0  0  0  0  0  0
   12.2223   -6.7546  -56.2797 H   0  0  0  0  0  0  0  0  0  0  0  0
   11.2916   -7.0481  -57.7878 H   0  0  0  0  0  0  0  0  0  0  0  0
   13.0796   -7.2208  -57.7878 H   0  0  0  0  0  0  0  0  0  0  0  0
   10.7327   -4.6935  -59.0993 H   0  0  0  0  0  0  0  0  0  0  0  0
   12.3531   -4.2224  -59.7150 H   0  0  0  0  0  0  0  0  0  0  0  0
   11.8596   -5.9495  -59.7150 H   0  0  0  0  0  0  0  0  0  0  0  0
   14.2660   -4.7622  -56.7592 H   0  0  0  0  0  0  0  0  0  0  0  0
   14.4187   -5.6479  -58.3145 H   0  0  0  0  0  0  0  0  0  0  0  0
   14.0461   -3.8907  -58.3145 H   0  0  0  0  0  0  0  0  0  0  0  0
   12.4051   -2.3674  -57.6755 H   0  0  0  0  0  0  0  0  0  0  0  0
   11.2276   -0.8630  -56.0772 H   0  0  0  0  0  0  0  0  0  0  0  0
    6.3472   -1.9578  -54.7882 H   0  0  0  0  0  0  0  0  0  0  0  0
    6.2216   -1.1147  -53.3595 H   0  0  0  0  0  0  0  0  0  0  0  0
    4.9892   -0.3407  -56.0717 H   0  0  0  0  0  0  0  0  0  0  0  0
    4.7154    0.6432  -54.7592 H   0  0  0  0  0  0  0  0  0  0  0  0
    7.0460    2.9000  -58.5810 H   0  0  0  0  0  0  0  0  0  0  0  0
    8.9763    3.6871  -61.7867 H   0  0  0  0  0  0  0  0  0  0  0  0
    9.2013    1.9746  -61.2682 H   0  0  0  0  0  0  0  0  0  0  0  0
    7.4525    2.6173  -63.5851 H   0  0  0  0  0  0  0  0  0  0  0  0
    5.0598    2.1637  -64.1053 H   0  0  0  0  0  0  0  0  0  0  0  0
    6.5399    2.5474  -59.3552 H   0  0  0  0  0  0  0  0  0  0  0  0
   11.2261    4.2121  -60.8715 H   0  0  0  0  0  0  0  0  0  0  0  0
   13.3724    4.1269  -59.5771 H   0  0  0  0  0  0  0  0  0  0  0  0
   13.4228    3.2639  -57.2389 H   0  0  0  0  0  0  0  0  0  0  0  0
   11.3115    2.4576  -56.1369 H   0  0  0  0  0  0  0  0  0  0  0  0
    9.5656   -4.3028  -54.0500 H   0  0  0  0  0  0  0  0  0  0  0  0
   10.7438   -5.8067  -55.6465 H   0  0  0  0  0  0  0  0  0  0  0  0
  1  2  1  0
  2  3  1  0
  2  4  1  0
  2  5  1  0
  5  6  1  0
  6  7  2  0
  7  8  1  0
  8  9  1  0
  9 10  2  0
  9 11  2  0
  9 12  1  0
 12 13  2  0
 13 14  1  0
 14 15  1  0
 15 16  1  0
 16 17  2  0
 17 18  1  0
 18 19  2  0
 19 20  1  0
 20 21  1  0
 21 22  1  0
 22 23  1  0
 23 24  1  0
 24 25  2  0
 25 26  1  0
 26 27  1  0
 26 28  2  0
 28 29  1  0
 28 30  1  0
 21 31  1  0
 31 32  2  0
 32 33  1  0
 33 34  2  0
 34 35  1  0
 35 36  2  0
  8 37  2  0
 37 38  1  0
 38  5  2  0
 16 13  1  0
 36 19  1  0
 30 23  2  0
 36 31  1  0
  1 39  1  0
  1 40  1  0
  1 41  1  0
  3 42  1  0
  3 43  1  0
  3 44  1  0
  4 45  1  0
  4 46  1  0
  4 47  1  0
  6 48  1  0
  7 49  1  0
 14 50  1  0
 14 51  1  0
 15 52  1  0
 15 53  1  0
 20 54  1  0
 22 55  1  0
 22 56  1  0
 24 57  1  0
 25 58  1  0
 30 59  1  0
 32 60  1  0
 33 61  1  0
 34 62  1  0
 35 63  1  0
 37 64  1  0
 38 65  1  0
M  END
>  <meeko>  (118) 
{"is_sidechain": false}

$$$$

     RDKit          3D

 65 69  0  0  0  0  0  0  0  0999 V2000
    4.6060    1.5010  -63.2230 C   0  0  0  0  0  0  0  0  0  0  0  0
    3.5500    1.5450  -62.0970 C   0  0  0  0  0  0  0  0  0  0  0  0
    2.5310    2.6640  -62.3980 C   0  0  0  0  0  0  0  0  0  0  0  0
    2.7840    0.2030  -62.1380 C   0  0  0  0  0  0  0  0  0  0  0  0
    4.2430    1.8250  -60.7510 C   0  0  0  0  0  0  0  0  0  0  0  0
    5.6330    1.6200  -60.6140 C   0  0  0  0  0  0  0  0  0  0  0  0
    6.2900    1.8530  -59.4040 C   0  0  0  0  0  0  0  0  0  0  0  0
    5.5600    2.2900  -58.2990 C   0  0  0  0  0  0  0  0  0  0  0  0
    6.3920    2.5490  -56.7460 S   0  0  0  0  0  0  0  0  0  0  0  0
    5.3330    2.9770  -55.8480 O   0  0  0  0  0  0  0  0  0  0  0  0
    7.1530    1.3630  -56.4140 O   0  0  0  0  0  0  0  0  0  0  0  0
    7.3920    3.8010  -56.9330 N   0  0  0  0  0  0  0  0  0  0  0  0
    8.6660    3.7300  -56.9540 C   0  0  0  0  0  0  0  0  0  0  0  0
    9.6560    4.8300  -57.3630 C   0  0  0  0  0  0  0  0  0  0  0  0
   10.6100    3.6720  -57.7990 C   0  0  0  0  0  0  0  0  0  0  0  0
    9.7610    2.7730  -56.9020 C   0  0  0  0  0  0  0  0  0  0  0  0
   10.0870    1.6940  -56.2960 N   0  0  0  0  0  0  0  0  0  0  0  0
    9.1710    1.3060  -55.3350 N   0  0  0  0  0  0  0  0  0  0  0  0
    9.3610    0.0790  -54.9670 C   0  0  0  0  0  0  0  0  0  0  0  0
   10.2830   -0.8530  -55.4400 N   0  0  0  0  0  0  0  0  0  0  0  0
    9.9490   -2.1290  -54.9750 N   0  0  0  0  0  0  0  0  0  0  0  0
   11.0200   -3.0920  -54.6950 C   0  0  0  0  0  0  0  0  0  0  0  0
   11.4180   -3.9290  -55.8970 C   0  0  0  0  0  0  0  0  0  0  0  0
   11.8990   -3.3210  -57.0660 C   0  0  0  0  0  0  0  0  0  0  0  0
   12.2530   -4.0960  -58.1750 C   0  0  0  0  0  0  0  0  0  0  0  0
   12.1310   -5.4870  -58.1310 C   0  0  0  0  0  0  0  0  0  0  0  0
   12.5910   -6.3780  -59.5380 Cl  0  0  0  0  0  0  0  0  0  0  0  0
   11.6530   -6.1060  -56.9730 C   0  0  0  0  0  0  0  0  0  0  0  0
   11.4790   -7.8200  -56.8420 Cl  0  0  0  0  0  0  0  0  0  0  0  0
   11.3000   -5.3280  -55.8650 C   0  0  0  0  0  0  0  0  0  0  0  0
    8.9260   -1.9540  -54.0210 C   0  0  0  0  0  0  0  0  0  0  0  0
    8.3000   -2.8790  -53.2080 C   0  0  0  0  0  0  0  0  0  0  0  0
    7.2840   -2.4310  -52.3490 C   0  0  0  0  0  0  0  0  0  0  0  0
    6.9030   -1.0760  -52.3160 C   0  0  0  0  0  0  0  0  0  0  0  0
    7.5250   -0.1400  -53.1420 C   0  0  0  0  0  0  0  0  0  0  0  0
    8.5210   -0.6070  -53.9740 C   0  0  0  0  0  0  0  0  0  0  0  0
    4.1940    2.5360  -58.4100 C   0  0  0  0  0  0  0  0  0  0  0  0
    3.5420    2.2940  -59.6250 C   0  0  0  0  0  0  0  0  0  0  0  0
    5.6122    1.4591  -62.7806 H   0  0  0  0  0  0  0  0  0  0  0  0
    4.4416    0.6089  -63.8452 H   0  0  0  0  0  0  0  0  0  0  0  0
    4.5164    2.4037  -63.8452 H   0  0  0  0  0  0  0  0  0  0  0  0
    2.1527    3.0795  -61.4524 H   0  0  0  0  0  0  0  0  0  0  0  0
    3.0210    3.4598  -62.9781 H   0  0  0  0  0  0  0  0  0  0  0  0
    1.6929    2.2504  -62.9781 H   0  0  0  0  0  0  0  0  0  0  0  0
    2.5887   -0.1392  -61.1110 H   0  0  0  0  0  0  0  0  0  0  0  0
    1.8291    0.3418  -62.6661 H   0  0  0  0  0  0  0  0  0  0  0  0
    3.3891   -0.5486  -62.6661 H   0  0  0  0  0  0  0  0  0  0  0  0
    6.2121    1.2685  -61.4807 H   0  0  0  0  0  0  0  0  0  0  0  0
    7.3753    1.6930  -59.3230 H   0  0  0  0  0  0  0  0  0  0  0  0
    9.3133    5.4804  -58.1812 H   0  0  0  0  0  0  0  0  0  0  0  0
    9.9727    5.6235  -56.6701 H   0  0  0  0  0  0  0  0  0  0  0  0
   10.5775    3.4225  -58.8698 H   0  0  0  0  0  0  0  0  0  0  0  0
   11.7035    3.7398  -57.7009 H   0  0  0  0  0  0  0  0  0  0  0  0
   10.5110   -0.7170  -56.4220 H   0  0  0  0  0  0  0  0  0  0  0  0
   11.9048   -2.5368  -54.3502 H   0  0  0  0  0  0  0  0  0  0  0  0
   10.6366   -3.7863  -53.9328 H   0  0  0  0  0  0  0  0  0  0  0  0
   11.9985   -2.2264  -57.1108 H   0  0  0  0  0  0  0  0  0  0  0  0
   12.6293   -3.6080  -59.0862 H   0  0  0  0  0  0  0  0  0  0  0  0
   10.9245   -5.8194  -54.9553 H   0  0  0  0  0  0  0  0  0  0  0  0
    8.5903   -3.9397  -53.2331 H   0  0  0  0  0  0  0  0  0  0  0  0
    6.7767   -3.1512  -51.6902 H   0  0  0  0  0  0  0  0  0  0  0  0
    6.1057   -0.7519  -51.6310 H   0  0  0  0  0  0  0  0  0  0  0  0
    7.2348    0.9210  -53.1304 H   0  0  0  0  0  0  0  0  0  0  0  0
    3.6297    2.9188  -57.5469 H   0  0  0  0  0  0  0  0  0  0  0  0
    2.4595    2.4742  -59.7008 H   0  0  0  0  0  0  0  0  0  0  0  0
  1  2  1  0
  2  3  1  0
  2  4  1  0
  2  5  1  0
  5  6  1  0
  6  7  2  0
  7  8  1  0
  8  9  1  0
  9 10  2  0
  9 11  2  0
  9 12  1  0
 12 13  2  0
 13 14  1  0
 14 15  1  0
 15 16  1  0
 16 17  2  0
 17 18  1  0
 18 19  2  0
 19 20  1  0
 20 21  1  0
 21 22  1  0
 22 23  1  0
 23 24  1  0
 24 25  2  0
 25 26  1  0
 26 27  1  0
 26 28  2  0
 28 29  1  0
 28 30  1  0
 21 31  1  0
 31 32  2  0
 32 33  1  0
 33 34  2  0
 34 35  1  0
 35 36  2  0
  8 37  2  0
 37 38  1  0
 38  5  2  0
 16 13  1  0
 36 19  1  0
 30 23  2  0
 36 31  1  0
  1 39  1  0
  1 40  1  0
  1 41  1  0
  3 42  1  0
  3 43  1  0
  3 44  1  0
  4 45  1  0
  4 46  1  0
  4 47  1  0
  6 48  1  0
  7 49  1  0
 14 50  1  0
 14 51  1  0
 15 52  1  0
 15 53  1  0
 20 54  1  0
 22 55  1  0
 22 56  1  0
 24 57  1  0
 25 58  1  0
 30 59  1  0
 32 60  1  0
 33 61  1  0
 34 62  1  0
 35 63  1  0
 37 64  1  0
 38 65  1  0
M  END
>  <meeko>  (119) 
{"is_sidechain": false}

$$$$

     RDKit          3D

 65 69  0  0  0  0  0  0  0  0999 V2000
   14.0190   -4.7630  -58.0650 C   0  0  0  0  0  0  0  0  0  0  0  0
   12.4980   -5.0170  -57.9680 C   0  0  0  0  0  0  0  0  0  0  0  0
   12.2900   -6.5470  -57.9460 C   0  0  0  0  0  0  0  0  0  0  0  0
   11.8120   -4.4820  -59.2430 C   0  0  0  0  0  0  0  0  0  0  0  0
   11.9340   -4.2940  -56.7310 C   0  0  0  0  0  0  0  0  0  0  0  0
   12.0590   -4.8840  -55.4570 C   0  0  0  0  0  0  0  0  0  0  0  0
   11.5500   -4.2680  -54.3120 C   0  0  0  0  0  0  0  0  0  0  0  0
   10.9020   -3.0390  -54.4270 C   0  0  0  0  0  0  0  0  0  0  0  0
   10.3030   -2.2280  -52.9570 S   0  0  0  0  0  0  0  0  0  0  0  0
   11.4470   -1.5470  -52.3850 O   0  0  0  0  0  0  0  0  0  0  0  0
    9.5860   -3.2240  -52.1850 O   0  0  0  0  0  0  0  0  0  0  0  0
    9.2620   -1.1330  -53.5290 N   0  0  0  0  0  0  0  0  0  0  0  0
    8.0110   -1.2570  -53.2860 C   0  0  0  0  0  0  0  0  0  0  0  0
    7.0980   -2.1890  -52.5050 C   0  0  0  0  0  0  0  0  0  0  0  0
    5.9030   -1.2750  -52.9150 C   0  0  0  0  0  0  0  0  0  0  0  0
    6.8760   -0.4770  -53.7550 C   0  0  0  0  0  0  0  0  0  0  0  0
    6.7030    0.4720  -54.6040 N   0  0  0  0  0  0  0  0  0  0  0  0
    7.8940    0.8710  -55.1780 N   0  0  0  0  0  0  0  0  0  0  0  0
    7.8120    1.4970  -56.3120 C   0  0  0  0  0  0  0  0  0  0  0  0
    8.9320    1.9550  -57.0030 N   0  0  0  0  0  0  0  0  0  0  0  0
    8.5490    2.7370  -58.0910 N   0  0  0  0  0  0  0  0  0  0  0  0
    9.3350    2.6500  -59.3300 C   0  0  0  0  0  0  0  0  0  0  0  0
   10.3810    3.7450  -59.4520 C   0  0  0  0  0  0  0  0  0  0  0  0
   10.3920    4.6140  -60.5510 C   0  0  0  0  0  0  0  0  0  0  0  0
   11.3820    5.5930  -60.6730 C   0  0  0  0  0  0  0  0  0  0  0  0
   12.3730    5.7200  -59.6960 C   0  0  0  0  0  0  0  0  0  0  0  0
   13.5690    6.9460  -59.9170 Cl  0  0  0  0  0  0  0  0  0  0  0  0
   12.3690    4.8630  -58.5910 C   0  0  0  0  0  0  0  0  0  0  0  0
   13.5540    4.9660  -57.3360 Cl  0  0  0  0  0  0  0  0  0  0  0  0
   11.3810    3.8800  -58.4740 C   0  0  0  0  0  0  0  0  0  0  0  0
    7.1450    2.6380  -58.1820 C   0  0  0  0  0  0  0  0  0  0  0  0
    6.2890    3.1800  -59.1270 C   0  0  0  0  0  0  0  0  0  0  0  0
    4.9150    2.9510  -58.9920 C   0  0  0  0  0  0  0  0  0  0  0  0
    4.4090    2.1950  -57.9190 C   0  0  0  0  0  0  0  0  0  0  0  0
    5.2690    1.6570  -56.9580 C   0  0  0  0  0  0  0  0  0  0  0  0
    6.6230    1.8900  -57.1050 C   0  0  0  0  0  0  0  0  0  0  0  0
   10.7660   -2.4240  -55.6700 C   0  0  0  0  0  0  0  0  0  0  0  0
   11.2760   -3.0520  -56.8100 C   0  0  0  0  0  0  0  0  0  0  0  0
   14.4442   -4.6920  -57.0530 H   0  0  0  0  0  0  0  0  0  0  0  0
   14.4958   -5.5940  -58.6055 H   0  0  0  0  0  0  0  0  0  0  0  0
   14.1999   -3.8222  -58.6055 H   0  0  0  0  0  0  0  0  0  0  0  0
   12.2426   -6.8956  -56.9038 H   0  0  0  0  0  0  0  0  0  0  0  0
   11.3497   -6.7966  -58.4593 H   0  0  0  0  0  0  0  0  0  0  0  0
   13.1296   -7.0386  -58.4593 H   0  0  0  0  0  0  0  0  0  0  0  0
   10.9735   -3.8281  -58.9614 H   0  0  0  0  0  0  0  0  0  0  0  0
   12.5391   -3.9101  -59.8381 H   0  0  0  0  0  0  0  0  0  0  0  0
   11.4345   -5.3266  -59.8381 H   0  0  0  0  0  0  0  0  0  0  0  0
   12.5701   -5.8535  -55.3625 H   0  0  0  0  0  0  0  0  0  0  0  0
   11.6593   -4.7480  -53.3283 H   0  0  0  0  0  0  0  0  0  0  0  0
    7.0455   -3.2141  -52.9005 H   0  0  0  0  0  0  0  0  0  0  0  0
    7.2960   -2.4367  -51.4517 H   0  0  0  0  0  0  0  0  0  0  0  0
    5.1138   -1.7835  -53.4882 H   0  0  0  0  0  0  0  0  0  0  0  0
    5.2624   -0.7927  -52.1620 H   0  0  0  0  0  0  0  0  0  0  0  0
    9.6920    2.2700  -56.4060 H   0  0  0  0  0  0  0  0  0  0  0  0
    9.8445    1.6754  -59.3534 H   0  0  0  0  0  0  0  0  0  0  0  0
    8.6356    2.7702  -60.1705 H   0  0  0  0  0  0  0  0  0  0  0  0
    9.6149    4.5250  -61.3244 H   0  0  0  0  0  0  0  0  0  0  0  0
   11.3811    6.2669  -61.5424 H   0  0  0  0  0  0  0  0  0  0  0  0
   11.3868    3.2044  -57.6059 H   0  0  0  0  0  0  0  0  0  0  0  0
    6.6804    3.7766  -59.9642 H   0  0  0  0  0  0  0  0  0  0  0  0
    4.2204    3.3683  -59.7359 H   0  0  0  0  0  0  0  0  0  0  0  0
    3.3253    2.0256  -57.8356 H   0  0  0  0  0  0  0  0  0  0  0  0
    4.8814    1.0682  -56.1135 H   0  0  0  0  0  0  0  0  0  0  0  0
   10.2606   -1.4506  -55.7536 H   0  0  0  0  0  0  0  0  0  0  0  0
   11.1607   -2.5653  -57.7897 H   0  0  0  0  0  0  0  0  0  0  0  0
  1  2  1  0
  2  3  1  0
  2  4  1  0
  2  5  1  0
  5  6  1  0
  6  7  2  0
  7  8  1  0
  8  9  1  0
  9 10  2  0
  9 11  2  0
  9 12  1  0
 12 13  2  0
 13 14  1  0
 14 15  1  0
 15 16  1  0
 16 17  2  0
 17 18  1  0
 18 19  2  0
 19 20  1  0
 20 21  1  0
 21 22  1  0
 22 23  1  0
 23 24  1  0
 24 25  2  0
 25 26  1  0
 26 27  1  0
 26 28  2  0
 28 29  1  0
 28 30  1  0
 21 31  1  0
 31 32  2  0
 32 33  1  0
 33 34  2  0
 34 35  1  0
 35 36  2  0
  8 37  2  0
 37 38  1  0
 38  5  2  0
 16 13  1  0
 36 19  1  0
 30 23  2  0
 36 31  1  0
  1 39  1  0
  1 40  1  0
  1 41  1  0
  3 42  1  0
  3 43  1  0
  3 44  1  0
  4 45  1  0
  4 46  1  0
  4 47  1  0
  6 48  1  0
  7 49  1  0
 14 50  1  0
 14 51  1  0
 15 52  1  0
 15 53  1  0
 20 54  1  0
 22 55  1  0
 22 56  1  0
 24 57  1  0
 25 58  1  0
 30 59  1  0
 32 60  1  0
 33 61  1  0
 34 62  1  0
 35 63  1  0
 37 64  1  0
 38 65  1  0
M  END
>  <meeko>  (120) 
{"is_sidechain": false}

$$$$

     RDKit          3D

 65 69  0  0  0  0  0  0  0  0999 V2000
   12.6370    7.5000  -61.3770 C   0  0  0  0  0  0  0  0  0  0  0  0
   13.3200    6.7950  -60.1830 C   0  0  0  0  0  0  0  0  0  0  0  0
   13.7280    7.8940  -59.1780 C   0  0  0  0  0  0  0  0  0  0  0  0
   14.5900    6.1050  -60.7260 C   0  0  0  0  0  0  0  0  0  0  0  0
   12.4270    5.7570  -59.4780 C   0  0  0  0  0  0  0  0  0  0  0  0
   11.0760    5.5680  -59.8180 C   0  0  0  0  0  0  0  0  0  0  0  0
   10.2850    4.6220  -59.1570 C   0  0  0  0  0  0  0  0  0  0  0  0
   10.8390    3.8510  -58.1370 C   0  0  0  0  0  0  0  0  0  0  0  0
    9.8290    2.6510  -57.2810 S   0  0  0  0  0  0  0  0  0  0  0  0
    9.6010    3.2060  -55.9610 O   0  0  0  0  0  0  0  0  0  0  0  0
   10.5260    1.3920  -57.4760 O   0  0  0  0  0  0  0  0  0  0  0  0
    8.4370    2.6800  -58.1080 N   0  0  0  0  0  0  0  0  0  0  0  0
    7.3430    2.3390  -57.5360 C   0  0  0  0  0  0  0  0  0  0  0  0
    5.9000    2.5690  -57.9950 C   0  0  0  0  0  0  0  0  0  0  0  0
    5.5200    2.5490  -56.4740 C   0  0  0  0  0  0  0  0  0  0  0  0
    6.8520    1.8410  -56.2570 C   0  0  0  0  0  0  0  0  0  0  0  0
    7.2230    1.0060  -55.3570 N   0  0  0  0  0  0  0  0  0  0  0  0
    8.3890    0.3710  -55.7080 N   0  0  0  0  0  0  0  0  0  0  0  0
    8.7770   -0.6070  -54.9460 C   0  0  0  0  0  0  0  0  0  0  0  0
   10.0240   -1.2180  -55.1000 N   0  0  0  0  0  0  0  0  0  0  0  0
   10.3320   -1.8990  -53.9280 N   0  0  0  0  0  0  0  0  0  0  0  0
   11.3460   -2.9440  -53.9220 C   0  0  0  0  0  0  0  0  0  0  0  0
   11.5020   -3.5580  -55.3000 C   0  0  0  0  0  0  0  0  0  0  0  0
   11.7060   -2.7420  -56.4220 C   0  0  0  0  0  0  0  0  0  0  0  0
   11.8660   -3.3100  -57.6900 C   0  0  0  0  0  0  0  0  0  0  0  0
   11.8340   -4.6990  -57.8510 C   0  0  0  0  0  0  0  0  0  0  0  0
   12.0370   -5.3260  -59.4490 Cl  0  0  0  0  0  0  0  0  0  0  0  0
   11.6460   -5.5230  -56.7390 C   0  0  0  0  0  0  0  0  0  0  0  0
   11.5990   -7.2480  -56.8600 Cl  0  0  0  0  0  0  0  0  0  0  0  0
   11.4880   -4.9540  -55.4710 C   0  0  0  0  0  0  0  0  0  0  0  0
    9.1590   -1.9900  -53.1690 C   0  0  0  0  0  0  0  0  0  0  0  0
    8.9030   -2.6970  -52.0100 C   0  0  0  0  0  0  0  0  0  0  0  0
    7.6260   -2.6040  -51.4410 C   0  0  0  0  0  0  0  0  0  0  0  0
    6.6250   -1.8110  -52.0300 C   0  0  0  0  0  0  0  0  0  0  0  0
    6.8800   -1.0920  -53.1990 C   0  0  0  0  0  0  0  0  0  0  0  0
    8.1450   -1.1950  -53.7430 C   0  0  0  0  0  0  0  0  0  0  0  0
   12.1760    4.0100  -57.7760 C   0  0  0  0  0  0  0  0  0  0  0  0
   12.9580    4.9550  -58.4440 C   0  0  0  0  0  0  0  0  0  0  0  0
   11.9176    8.2426  -61.0016 H   0  0  0  0  0  0  0  0  0  0  0  0
   13.3988    8.0045  -61.9895 H   0  0  0  0  0  0  0  0  0  0  0  0
   12.1086    6.7546  -61.9895 H   0  0  0  0  0  0  0  0  0  0  0  0
   13.5900    7.5222  -58.1520 H   0  0  0  0  0  0  0  0  0  0  0  0
   14.7843    8.1588  -59.3330 H   0  0  0  0  0  0  0  0  0  0  0  0
   13.1004    8.7840  -59.3330 H   0  0  0  0  0  0  0  0  0  0  0  0
   15.2121    5.7670  -59.8841 H   0  0  0  0  0  0  0  0  0  0  0  0
   14.3026    5.2390  -61.3404 H   0  0  0  0  0  0  0  0  0  0  0  0
   15.1601    6.8174  -61.3404 H   0  0  0  0  0  0  0  0  0  0  0  0
   10.6319    6.1761  -60.6199 H   0  0  0  0  0  0  0  0  0  0  0  0
    9.2309    4.4875  -59.4411 H   0  0  0  0  0  0  0  0  0  0  0  0
    5.7231    3.5279  -58.5042 H   0  0  0  0  0  0  0  0  0  0  0  0
    5.4067    1.9202  -58.7337 H   0  0  0  0  0  0  0  0  0  0  0  0
    5.4389    3.5397  -56.0029 H   0  0  0  0  0  0  0  0  0  0  0  0
    4.5669    2.1387  -56.1089 H   0  0  0  0  0  0  0  0  0  0  0  0
   10.7130   -0.5440  -55.4540 H   0  0  0  0  0  0  0  0  0  0  0  0
   12.3077   -2.5103  -53.6105 H   0  0  0  0  0  0  0  0  0  0  0  0
   11.0333   -3.7317  -53.2208 H   0  0  0  0  0  0  0  0  0  0  0  0
   11.7404   -1.6489  -56.3042 H   0  0  0  0  0  0  0  0  0  0  0  0
   12.0178   -2.6610  -58.5651 H   0  0  0  0  0  0  0  0  0  0  0  0
   11.3510   -5.6068  -54.5963 H   0  0  0  0  0  0  0  0  0  0  0  0
    9.6829   -3.3180  -51.5451 H   0  0  0  0  0  0  0  0  0  0  0  0
    7.4028   -3.1603  -50.5186 H   0  0  0  0  0  0  0  0  0  0  0  0
    5.6299   -1.7567  -51.5643 H   0  0  0  0  0  0  0  0  0  0  0  0
    6.1045   -0.4685  -53.6679 H   0  0  0  0  0  0  0  0  0  0  0  0
   12.6110    3.3971  -56.9728 H   0  0  0  0  0  0  0  0  0  0  0  0
   14.0130    5.0775  -58.1578 H   0  0  0  0  0  0  0  0  0  0  0  0
  1  2  1  0
  2  3  1  0
  2  4  1  0
  2  5  1  0
  5  6  1  0
  6  7  2  0
  7  8  1  0
  8  9  1  0
  9 10  2  0
  9 11  2  0
  9 12  1  0
 12 13  2  0
 13 14  1  0
 14 15  1  0
 15 16  1  0
 16 17  2  0
 17 18  1  0
 18 19  2  0
 19 20  1  0
 20 21  1  0
 21 22  1  0
 22 23  1  0
 23 24  1  0
 24 25  2  0
 25 26  1  0
 26 27  1  0
 26 28  2  0
 28 29  1  0
 28 30  1  0
 21 31  1  0
 31 32  2  0
 32 33  1  0
 33 34  2  0
 34 35  1  0
 35 36  2  0
  8 37  2  0
 37 38  1  0
 38  5  2  0
 16 13  1  0
 36 19  1  0
 30 23  2  0
 36 31  1  0
  1 39  1  0
  1 40  1  0
  1 41  1  0
  3 42  1  0
  3 43  1  0
  3 44  1  0
  4 45  1  0
  4 46  1  0
  4 47  1  0
  6 48  1  0
  7 49  1  0
 14 50  1  0
 14 51  1  0
 15 52  1  0
 15 53  1  0
 20 54  1  0
 22 55  1  0
 22 56  1  0
 24 57  1  0
 25 58  1  0
 30 59  1  0
 32 60  1  0
 33 61  1  0
 34 62  1  0
 35 63  1  0
 37 64  1  0
 38 65  1  0
M  END
>  <meeko>  (121) 
{"is_sidechain": false}

$$$$

     RDKit          3D

 65 69  0  0  0  0  0  0  0  0999 V2000
   11.7930   -4.6720  -58.8250 C   0  0  0  0  0  0  0  0  0  0  0  0
   12.2690   -4.7680  -57.3580 C   0  0  0  0  0  0  0  0  0  0  0  0
   13.7550   -4.3440  -57.3330 C   0  0  0  0  0  0  0  0  0  0  0  0
   12.2060   -6.2400  -56.8980 C   0  0  0  0  0  0  0  0  0  0  0  0
   11.3590   -3.9070  -56.4620 C   0  0  0  0  0  0  0  0  0  0  0  0
   11.4970   -2.5100  -56.3640 C   0  0  0  0  0  0  0  0  0  0  0  0
   10.6570   -1.7510  -55.5420 C   0  0  0  0  0  0  0  0  0  0  0  0
    9.6620   -2.3870  -54.8010 C   0  0  0  0  0  0  0  0  0  0  0  0
    8.5530   -1.4270  -53.7880 S   0  0  0  0  0  0  0  0  0  0  0  0
    9.3500   -0.4080  -53.1320 O   0  0  0  0  0  0  0  0  0  0  0  0
    7.8030   -2.3880  -53.0060 O   0  0  0  0  0  0  0  0  0  0  0  0
    7.5520   -0.7260  -54.8490 N   0  0  0  0  0  0  0  0  0  0  0  0
    7.8990    0.3930  -55.3730 C   0  0  0  0  0  0  0  0  0  0  0  0
    9.0640    1.3430  -55.2990 C   0  0  0  0  0  0  0  0  0  0  0  0
    8.2940    2.1010  -56.3720 C   0  0  0  0  0  0  0  0  0  0  0  0
    7.2350    1.2490  -56.3840 C   0  0  0  0  0  0  0  0  0  0  0  0
    6.0860    1.1020  -56.9890 N   0  0  0  0  0  0  0  0  0  0  0  0
    5.5670    2.0860  -57.7870 N   0  0  0  0  0  0  0  0  0  0  0  0
    5.9960    2.2400  -59.0660 C   0  0  0  0  0  0  0  0  0  0  0  0
    7.2470    2.5500  -59.4220 N   0  0  0  0  0  0  0  0  0  0  0  0
    7.2040    2.5780  -60.7720 N   0  0  0  0  0  0  0  0  0  0  0  0
    8.4200    2.8920  -61.5100 C   0  0  0  0  0  0  0  0  0  0  0  0
    9.5660    3.2420  -60.5880 C   0  0  0  0  0  0  0  0  0  0  0  0
   10.0010    2.3330  -59.6120 C   0  0  0  0  0  0  0  0  0  0  0  0
   11.0640    2.6580  -58.7660 C   0  0  0  0  0  0  0  0  0  0  0  0
   11.7120    3.8910  -58.8850 C   0  0  0  0  0  0  0  0  0  0  0  0
   13.0190    4.2200  -57.8030 Cl  0  0  0  0  0  0  0  0  0  0  0  0
   11.2940    4.8020  -59.8590 C   0  0  0  0  0  0  0  0  0  0  0  0
   12.0480    6.3430  -60.0700 Cl  0  0  0  0  0  0  0  0  0  0  0  0
   10.2290    4.4760  -60.7060 C   0  0  0  0  0  0  0  0  0  0  0  0
    5.9620    2.3200  -61.2990 C   0  0  0  0  0  0  0  0  0  0  0  0
    5.4850    2.2610  -62.6170 C   0  0  0  0  0  0  0  0  0  0  0  0
    4.1310    1.9600  -62.8020 C   0  0  0  0  0  0  0  0  0  0  0  0
    3.2900    1.7280  -61.7150 C   0  0  0  0  0  0  0  0  0  0  0  0
    3.7810    1.7900  -60.4060 C   0  0  0  0  0  0  0  0  0  0  0  0
    5.1420    2.0910  -60.1970 C   0  0  0  0  0  0  0  0  0  0  0  0
    9.4990   -3.7680  -54.8730 C   0  0  0  0  0  0  0  0  0  0  0  0
   10.3430   -4.5160  -55.6980 C   0  0  0  0  0  0  0  0  0  0  0  0
   10.7149   -4.4546  -58.8472 H   0  0  0  0  0  0  0  0  0  0  0  0
   12.3402   -3.8661  -59.3360 H   0  0  0  0  0  0  0  0  0  0  0  0
   11.9851   -5.6270  -59.3360 H   0  0  0  0  0  0  0  0  0  0  0  0
   14.0914   -4.2480  -56.2901 H   0  0  0  0  0  0  0  0  0  0  0  0
   14.3620   -5.1048  -57.8455 H   0  0  0  0  0  0  0  0  0  0  0  0
   13.8692   -3.3774  -57.8455 H   0  0  0  0  0  0  0  0  0  0  0  0
   12.2043   -6.2809  -55.7988 H   0  0  0  0  0  0  0  0  0  0  0  0
   11.2871   -6.7057  -57.2837 H   0  0  0  0  0  0  0  0  0  0  0  0
   13.0817   -6.7825  -57.2837 H   0  0  0  0  0  0  0  0  0  0  0  0
   12.2817   -2.0042  -56.9458 H   0  0  0  0  0  0  0  0  0  0  0  0
   10.7808   -0.6597  -55.4808 H   0  0  0  0  0  0  0  0  0  0  0  0
    9.1849    1.8703  -54.3412 H   0  0  0  0  0  0  0  0  0  0  0  0
   10.1140    1.0325  -55.4039 H   0  0  0  0  0  0  0  0  0  0  0  0
    8.5167    3.0170  -56.9388 H   0  0  0  0  0  0  0  0  0  0  0  0
    5.6600    0.1830  -57.1510 H   0  0  0  0  0  0  0  0  0  0  0  0
    4.6780    2.4980  -57.5000 H   0  0  0  0  0  0  0  0  0  0  0  0
    8.7044    2.0182  -62.1146 H   0  0  0  0  0  0  0  0  0  0  0  0
    8.2160    3.7658  -62.1462 H   0  0  0  0  0  0  0  0  0  0  0  0
    9.5017    1.3579  -59.5123 H   0  0  0  0  0  0  0  0  0  0  0  0
   11.3933    1.9391  -58.0013 H   0  0  0  0  0  0  0  0  0  0  0  0
    9.9064    5.1945  -61.4740 H   0  0  0  0  0  0  0  0  0  0  0  0
    6.1507    2.4445  -63.4733 H   0  0  0  0  0  0  0  0  0  0  0  0
    3.7236    1.9056  -63.8223 H   0  0  0  0  0  0  0  0  0  0  0  0
    2.2292    1.4937  -61.8879 H   0  0  0  0  0  0  0  0  0  0  0  0
    3.1134    1.6062  -59.5513 H   0  0  0  0  0  0  0  0  0  0  0  0
    8.7131   -4.2655  -54.2858 H   0  0  0  0  0  0  0  0  0  0  0  0
   10.2113   -5.6067  -55.7526 H   0  0  0  0  0  0  0  0  0  0  0  0
  1  2  1  0
  2  3  1  0
  2  4  1  0
  2  5  1  0
  5  6  1  0
  6  7  2  0
  7  8  1  0
  8  9  1  0
  9 10  2  0
  9 11  2  0
  9 12  1  0
 12 13  2  0
 13 14  1  0
 14 15  1  0
 15 16  2  0
 16 17  1  0
 17 18  1  0
 18 19  1  0
 19 20  2  0
 20 21  1  0
 21 22  1  0
 22 23  1  0
 23 24  1  0
 24 25  2  0
 25 26  1  0
 26 27  1  0
 26 28  2  0
 28 29  1  0
 28 30  1  0
 21 31  1  0
 31 32  2  0
 32 33  1  0
 33 34  2  0
 34 35  1  0
 35 36  2  0
  8 37  2  0
 37 38  1  0
 38  5  2  0
 16 13  1  0
 36 19  1  0
 30 23  2  0
 36 31  1  0
  1 39  1  0
  1 40  1  0
  1 41  1  0
  3 42  1  0
  3 43  1  0
  3 44  1  0
  4 45  1  0
  4 46  1  0
  4 47  1  0
  6 48  1  0
  7 49  1  0
 14 50  1  0
 14 51  1  0
 15 52  1  0
 17 53  1  0
 18 54  1  0
 22 55  1  0
 22 56  1  0
 24 57  1  0
 25 58  1  0
 30 59  1  0
 32 60  1  0
 33 61  1  0
 34 62  1  0
 35 63  1  0
 37 64  1  0
 38 65  1  0
M  END
>  <meeko>  (122) 
{"is_sidechain": false}

$$$$

     RDKit          3D

 65 69  0  0  0  0  0  0  0  0999 V2000
   11.6230   -4.7350  -58.8830 C   0  0  0  0  0  0  0  0  0  0  0  0
   12.1560   -4.7460  -57.4330 C   0  0  0  0  0  0  0  0  0  0  0  0
   13.6390   -4.3230  -57.4890 C   0  0  0  0  0  0  0  0  0  0  0  0
   12.0610   -6.2000  -56.9230 C   0  0  0  0  0  0  0  0  0  0  0  0
   11.3880   -3.8110  -56.4800 C   0  0  0  0  0  0  0  0  0  0  0  0
   10.4180   -4.3420  -55.6030 C   0  0  0  0  0  0  0  0  0  0  0  0
    9.7030   -3.5280  -54.7210 C   0  0  0  0  0  0  0  0  0  0  0  0
    9.9530   -2.1580  -54.7010 C   0  0  0  0  0  0  0  0  0  0  0  0
    9.0610   -1.0980  -53.5860 S   0  0  0  0  0  0  0  0  0  0  0  0
    9.6860    0.2080  -53.6910 O   0  0  0  0  0  0  0  0  0  0  0  0
    8.9890   -1.7810  -52.3090 O   0  0  0  0  0  0  0  0  0  0  0  0
    7.5720   -1.0470  -54.2180 N   0  0  0  0  0  0  0  0  0  0  0  0
    7.3190   -0.1110  -55.0560 C   0  0  0  0  0  0  0  0  0  0  0  0
    6.0100    0.2390  -55.7170 C   0  0  0  0  0  0  0  0  0  0  0  0
    6.7940    1.4150  -56.2720 C   0  0  0  0  0  0  0  0  0  0  0  0
    7.9850    1.0200  -55.7460 C   0  0  0  0  0  0  0  0  0  0  0  0
    9.2430    1.3680  -55.7340 N   0  0  0  0  0  0  0  0  0  0  0  0
   10.0660    1.1350  -56.8140 N   0  0  0  0  0  0  0  0  0  0  0  0
   10.1020    2.0830  -57.7920 C   0  0  0  0  0  0  0  0  0  0  0  0
    9.1900    2.1850  -58.7610 N   0  0  0  0  0  0  0  0  0  0  0  0
    9.6600    3.1590  -59.5610 N   0  0  0  0  0  0  0  0  0  0  0  0
    8.9180    3.4750  -60.7740 C   0  0  0  0  0  0  0  0  0  0  0  0
    7.4670    3.0640  -60.6580 C   0  0  0  0  0  0  0  0  0  0  0  0
    6.8050    3.1050  -59.4250 C   0  0  0  0  0  0  0  0  0  0  0  0
    5.4580    2.7450  -59.3340 C   0  0  0  0  0  0  0  0  0  0  0  0
    4.7540    2.3450  -60.4750 C   0  0  0  0  0  0  0  0  0  0  0  0
    3.0930    1.9110  -60.2810 Cl  0  0  0  0  0  0  0  0  0  0  0  0
    5.4000    2.3080  -61.7140 C   0  0  0  0  0  0  0  0  0  0  0  0
    4.5960    1.8300  -63.1660 Cl  0  0  0  0  0  0  0  0  0  0  0  0
    6.7500    2.6660  -61.8000 C   0  0  0  0  0  0  0  0  0  0  0  0
   10.8110    3.7510  -59.1010 C   0  0  0  0  0  0  0  0  0  0  0  0
   11.6040    4.7970  -59.5940 C   0  0  0  0  0  0  0  0  0  0  0  0
   12.7470    5.1430  -58.8640 C   0  0  0  0  0  0  0  0  0  0  0  0
   13.0850    4.4670  -57.6930 C   0  0  0  0  0  0  0  0  0  0  0  0
   12.2870    3.4220  -57.2150 C   0  0  0  0  0  0  0  0  0  0  0  0
   11.1280    3.0600  -57.9300 C   0  0  0  0  0  0  0  0  0  0  0  0
   10.9050   -1.6000  -55.5530 C   0  0  0  0  0  0  0  0  0  0  0  0
   11.6150   -2.4240  -56.4340 C   0  0  0  0  0  0  0  0  0  0  0  0
   10.5233   -4.7123  -58.8693 H   0  0  0  0  0  0  0  0  0  0  0  0
   12.0016   -3.8445  -59.4061 H   0  0  0  0  0  0  0  0  0  0  0  0
   11.9646   -5.6404  -59.4061 H   0  0  0  0  0  0  0  0  0  0  0  0
   14.0276   -4.2122  -56.4659 H   0  0  0  0  0  0  0  0  0  0  0  0
   14.2196   -5.0914  -58.0205 H   0  0  0  0  0  0  0  0  0  0  0  0
   13.7269   -3.3640  -58.0205 H   0  0  0  0  0  0  0  0  0  0  0  0
   12.0608   -6.2035  -55.8230 H   0  0  0  0  0  0  0  0  0  0  0  0
   11.1310   -6.6577  -57.2913 H   0  0  0  0  0  0  0  0  0  0  0  0
   12.9235   -6.7748  -57.2913 H   0  0  0  0  0  0  0  0  0  0  0  0
   10.2200   -5.4240  -55.6142 H   0  0  0  0  0  0  0  0  0  0  0  0
    8.9498   -3.9649  -54.0488 H   0  0  0  0  0  0  0  0  0  0  0  0
    5.6495   -0.4836  -56.4639 H   0  0  0  0  0  0  0  0  0  0  0  0
    5.0600    0.3420  -55.1722 H   0  0  0  0  0  0  0  0  0  0  0  0
    6.5019    2.2812  -56.8838 H   0  0  0  0  0  0  0  0  0  0  0  0
    9.7710    1.4120  -54.8420 H   0  0  0  0  0  0  0  0  0  0  0  0
   10.1260    0.1610  -57.1020 H   0  0  0  0  0  0  0  0  0  0  0  0
    8.9694    4.5592  -60.9524 H   0  0  0  0  0  0  0  0  0  0  0  0
    9.3688    2.9193  -61.6095 H   0  0  0  0  0  0  0  0  0  0  0  0
    7.3484    3.4224  -58.5228 H   0  0  0  0  0  0  0  0  0  0  0  0
    4.9482    2.7762  -58.3598 H   0  0  0  0  0  0  0  0  0  0  0  0
    7.2577    2.6356  -62.7754 H   0  0  0  0  0  0  0  0  0  0  0  0
   11.3375    5.3264  -60.5207 H   0  0  0  0  0  0  0  0  0  0  0  0
   13.3891    5.9620  -59.2204 H   0  0  0  0  0  0  0  0  0  0  0  0
   13.9892    4.7583  -57.1385 H   0  0  0  0  0  0  0  0  0  0  0  0
   12.5610    2.8895  -56.2923 H   0  0  0  0  0  0  0  0  0  0  0  0
   11.0973   -0.5171  -55.5330 H   0  0  0  0  0  0  0  0  0  0  0  0
   12.3652   -1.9779  -57.1034 H   0  0  0  0  0  0  0  0  0  0  0  0
  1  2  1  0
  2  3  1  0
  2  4  1  0
  2  5  1  0
  5  6  1  0
  6  7  2  0
  7  8  1  0
  8  9  1  0
  9 10  2  0
  9 11  2  0
  9 12  1  0
 12 13  2  0
 13 14  1  0
 14 15  1  0
 15 16  2  0
 16 17  1  0
 17 18  1  0
 18 19  1  0
 19 20  2  0
 20 21  1  0
 21 22  1  0
 22 23  1  0
 23 24  1  0
 24 25  2  0
 25 26  1  0
 26 27  1  0
 26 28  2  0
 28 29  1  0
 28 30  1  0
 21 31  1  0
 31 32  2  0
 32 33  1  0
 33 34  2  0
 34 35  1  0
 35 36  2  0
  8 37  2  0
 37 38  1  0
 38  5  2  0
 16 13  1  0
 36 19  1  0
 30 23  2  0
 36 31  1  0
  1 39  1  0
  1 40  1  0
  1 41  1  0
  3 42  1  0
  3 43  1  0
  3 44  1  0
  4 45  1  0
  4 46  1  0
  4 47  1  0
  6 48  1  0
  7 49  1  0
 14 50  1  0
 14 51  1  0
 15 52  1  0
 17 53  1  0
 18 54  1  0
 22 55  1  0
 22 56  1  0
 24 57  1  0
 25 58  1  0
 30 59  1  0
 32 60  1  0
 33 61  1  0
 34 62  1  0
 35 63  1  0
 37 64  1  0
 38 65  1  0
M  END
>  <meeko>  (123) 
{"is_sidechain": false}

$$$$

     RDKit          3D

 65 69  0  0  0  0  0  0  0  0999 V2000
    2.6500    2.7960  -62.8400 C   0  0  0  0  0  0  0  0  0  0  0  0
    3.3230    1.5580  -62.2080 C   0  0  0  0  0  0  0  0  0  0  0  0
    2.5570    1.1600  -60.9280 C   0  0  0  0  0  0  0  0  0  0  0  0
    3.1700    0.3930  -63.2130 C   0  0  0  0  0  0  0  0  0  0  0  0
    4.7850    1.8880  -61.8540 C   0  0  0  0  0  0  0  0  0  0  0  0
    5.7050    2.3670  -62.8050 C   0  0  0  0  0  0  0  0  0  0  0  0
    7.0280    2.6570  -62.4550 C   0  0  0  0  0  0  0  0  0  0  0  0
    7.4490    2.4790  -61.1390 C   0  0  0  0  0  0  0  0  0  0  0  0
    9.1330    2.8410  -60.7110 S   0  0  0  0  0  0  0  0  0  0  0  0
    9.7820    1.6010  -60.3400 O   0  0  0  0  0  0  0  0  0  0  0  0
    9.6690    3.7010  -61.7440 O   0  0  0  0  0  0  0  0  0  0  0  0
    8.9080    3.7350  -59.2880 N   0  0  0  0  0  0  0  0  0  0  0  0
   10.1720    4.0770  -58.6060 C   0  0  0  0  0  0  0  0  0  0  0  0
   10.8800    3.4450  -57.6460 C   0  0  0  0  0  0  0  0  0  0  0  0
   10.7030    2.1900  -56.9040 N   0  0  0  0  0  0  0  0  0  0  0  0
    9.5140    1.9100  -56.6510 N   0  0  0  0  0  0  0  0  0  0  0  0
    9.3600    0.7270  -55.9150 C   0  0  0  0  0  0  0  0  0  0  0  0
   10.4270   -0.0390  -55.6810 N   0  0  0  0  0  0  0  0  0  0  0  0
    9.9220   -1.0630  -54.9590 N   0  0  0  0  0  0  0  0  0  0  0  0
   10.8130   -2.1340  -54.5270 C   0  0  0  0  0  0  0  0  0  0  0  0
   11.2010   -3.0380  -55.6730 C   0  0  0  0  0  0  0  0  0  0  0  0
   11.8460   -2.5200  -56.8060 C   0  0  0  0  0  0  0  0  0  0  0  0
   12.2050   -3.3560  -57.8660 C   0  0  0  0  0  0  0  0  0  0  0  0
   11.9280   -4.7240  -57.8090 C   0  0  0  0  0  0  0  0  0  0  0  0
   12.3990   -5.7000  -59.1540 Cl  0  0  0  0  0  0  0  0  0  0  0  0
   11.2910   -5.2550  -56.6830 C   0  0  0  0  0  0  0  0  0  0  0  0
   10.9160   -6.9350  -56.5350 Cl  0  0  0  0  0  0  0  0  0  0  0  0
   10.9320   -4.4140  -55.6210 C   0  0  0  0  0  0  0  0  0  0  0  0
    8.5790   -0.9410  -54.6770 C   0  0  0  0  0  0  0  0  0  0  0  0
    7.6890   -1.7450  -53.9500 C   0  0  0  0  0  0  0  0  0  0  0  0
    6.3610   -1.3170  -53.8540 C   0  0  0  0  0  0  0  0  0  0  0  0
    5.9390   -0.1350  -54.4580 C   0  0  0  0  0  0  0  0  0  0  0  0
    6.8370    0.6560  -55.1830 C   0  0  0  0  0  0  0  0  0  0  0  0
    8.1790    0.2420  -55.2980 C   0  0  0  0  0  0  0  0  0  0  0  0
   11.9250    4.5300  -57.5570 C   0  0  0  0  0  0  0  0  0  0  0  0
   11.1680    5.2200  -58.7050 C   0  0  0  0  0  0  0  0  0  0  0  0
    6.5680    1.9980  -60.1740 C   0  0  0  0  0  0  0  0  0  0  0  0
    5.2490    1.7100  -60.5340 C   0  0  0  0  0  0  0  0  0  0  0  0
    2.2875    3.4628  -62.0438 H   0  0  0  0  0  0  0  0  0  0  0  0
    3.3806    3.3325  -63.4632 H   0  0  0  0  0  0  0  0  0  0  0  0
    1.8025    2.4745  -63.4632 H   0  0  0  0  0  0  0  0  0  0  0  0
    3.1381    1.4619  -60.0441 H   0  0  0  0  0  0  0  0  0  0  0  0
    1.5795    1.6642  -60.9139 H   0  0  0  0  0  0  0  0  0  0  0  0
    2.4077    0.0703  -60.9139 H   0  0  0  0  0  0  0  0  0  0  0  0
    3.0459   -0.5516  -62.6632 H   0  0  0  0  0  0  0  0  0  0  0  0
    2.2871    0.5679  -63.8454 H   0  0  0  0  0  0  0  0  0  0  0  0
    4.0681    0.3340  -63.8454 H   0  0  0  0  0  0  0  0  0  0  0  0
    5.3773    2.5164  -63.8444 H   0  0  0  0  0  0  0  0  0  0  0  0
    7.7328    3.0240  -63.2156 H   0  0  0  0  0  0  0  0  0  0  0  0
    8.2610    3.2630  -58.6470 H   0  0  0  0  0  0  0  0  0  0  0  0
   11.7240   -1.6889  -54.1006 H   0  0  0  0  0  0  0  0  0  0  0  0
   10.2812   -2.7400  -53.7787 H   0  0  0  0  0  0  0  0  0  0  0  0
   12.0713   -1.4447  -56.8602 H   0  0  0  0  0  0  0  0  0  0  0  0
   12.7079   -2.9353  -58.7493 H   0  0  0  0  0  0  0  0  0  0  0  0
   10.4336   -4.8375  -54.7366 H   0  0  0  0  0  0  0  0  0  0  0  0
    8.0232   -2.6780  -53.4728 H   0  0  0  0  0  0  0  0  0  0  0  0
    5.6369   -1.9247  -53.2915 H   0  0  0  0  0  0  0  0  0  0  0  0
    4.8892    0.1798  -54.3641 H   0  0  0  0  0  0  0  0  0  0  0  0
    6.4996    1.5894  -55.6573 H   0  0  0  0  0  0  0  0  0  0  0  0
   11.9345    5.0868  -56.6083 H   0  0  0  0  0  0  0  0  0  0  0  0
   13.0023    4.3141  -57.6095 H   0  0  0  0  0  0  0  0  0  0  0  0
   10.7603    6.2120  -58.4606 H   0  0  0  0  0  0  0  0  0  0  0  0
   11.6572    5.4938  -59.6515 H   0  0  0  0  0  0  0  0  0  0  0  0
    6.9070    1.8463  -59.1386 H   0  0  0  0  0  0  0  0  0  0  0  0
    4.5544    1.3347  -59.7680 H   0  0  0  0  0  0  0  0  0  0  0  0
  1  2  1  0
  2  3  1  0
  2  4  1  0
  2  5  1  0
  5  6  1  0
  6  7  2  0
  7  8  1  0
  8  9  1  0
  9 10  2  0
  9 11  2  0
  9 12  1  0
 12 13  1  0
 13 14  2  0
 14 15  1  0
 15 16  2  0
 16 17  1  0
 17 18  2  0
 18 19  1  0
 19 20  1  0
 20 21  1  0
 21 22  1  0
 22 23  2  0
 23 24  1  0
 24 25  1  0
 24 26  2  0
 26 27  1  0
 26 28  1  0
 19 29  1  0
 29 30  2  0
 30 31  1  0
 31 32  2  0
 32 33  1  0
 33 34  2  0
 14 35  1  0
 35 36  1  0
  8 37  2  0
 37 38  1  0
 38  5  2  0
 36 13  1  0
 34 17  1  0
 28 21  2  0
 34 29  1  0
  1 39  1  0
  1 40  1  0
  1 41  1  0
  3 42  1  0
  3 43  1  0
  3 44  1  0
  4 45  1  0
  4 46  1  0
  4 47  1  0
  6 48  1  0
  7 49  1  0
 12 50  1  0
 20 51  1  0
 20 52  1  0
 22 53  1  0
 23 54  1  0
 28 55  1  0
 30 56  1  0
 31 57  1  0
 32 58  1  0
 33 59  1  0
 35 60  1  0
 35 61  1  0
 36 62  1  0
 36 63  1  0
 37 64  1  0
 38 65  1  0
M  END
>  <meeko>  (124) 
{"is_sidechain": false}

$$$$

     RDKit          3D

 65 69  0  0  0  0  0  0  0  0999 V2000
   13.4270    3.8530  -59.6780 C   0  0  0  0  0  0  0  0  0  0  0  0
   12.5620    4.8030  -58.8200 C   0  0  0  0  0  0  0  0  0  0  0  0
   13.2930    4.9850  -57.4720 C   0  0  0  0  0  0  0  0  0  0  0  0
   12.5070    6.1620  -59.5510 C   0  0  0  0  0  0  0  0  0  0  0  0
   11.1270    4.2980  -58.5840 C   0  0  0  0  0  0  0  0  0  0  0  0
   10.2030    4.9910  -57.7810 C   0  0  0  0  0  0  0  0  0  0  0  0
    8.9150    4.4920  -57.5560 C   0  0  0  0  0  0  0  0  0  0  0  0
    8.5270    3.2860  -58.1360 C   0  0  0  0  0  0  0  0  0  0  0  0
    6.9160    2.6240  -57.7790 S   0  0  0  0  0  0  0  0  0  0  0  0
    6.2170    2.4980  -59.0410 O   0  0  0  0  0  0  0  0  0  0  0  0
    6.3490    3.3810  -56.6820 O   0  0  0  0  0  0  0  0  0  0  0  0
    7.2790    1.0800  -57.2670 N   0  0  0  0  0  0  0  0  0  0  0  0
    7.7160    0.8390  -55.9000 C   0  0  0  0  0  0  0  0  0  0  0  0
    7.3130   -0.0610  -54.9800 C   0  0  0  0  0  0  0  0  0  0  0  0
    6.2820   -1.1060  -55.0060 N   0  0  0  0  0  0  0  0  0  0  0  0
    6.4110   -2.1800  -54.3720 N   0  0  0  0  0  0  0  0  0  0  0  0
    7.6240   -2.4830  -53.7340 C   0  0  0  0  0  0  0  0  0  0  0  0
    8.7840   -2.5790  -54.3870 N   0  0  0  0  0  0  0  0  0  0  0  0
    9.6660   -2.8850  -53.4110 N   0  0  0  0  0  0  0  0  0  0  0  0
   11.0820   -2.9660  -53.7430 C   0  0  0  0  0  0  0  0  0  0  0  0
   11.3040   -3.4720  -55.1470 C   0  0  0  0  0  0  0  0  0  0  0  0
   11.4160   -2.5830  -56.2230 C   0  0  0  0  0  0  0  0  0  0  0  0
   11.6000   -3.0650  -57.5220 C   0  0  0  0  0  0  0  0  0  0  0  0
   11.6740   -4.4400  -57.7620 C   0  0  0  0  0  0  0  0  0  0  0  0
   11.8870   -4.9610  -59.3950 Cl  0  0  0  0  0  0  0  0  0  0  0  0
   11.5700   -5.3380  -56.6950 C   0  0  0  0  0  0  0  0  0  0  0  0
   11.6340   -7.0500  -56.9110 Cl  0  0  0  0  0  0  0  0  0  0  0  0
   11.3910   -4.8530  -55.3960 C   0  0  0  0  0  0  0  0  0  0  0  0
    9.0950   -3.0240  -52.1650 C   0  0  0  0  0  0  0  0  0  0  0  0
    9.6260   -3.3430  -50.9080 C   0  0  0  0  0  0  0  0  0  0  0  0
    8.7380   -3.4010  -49.8270 C   0  0  0  0  0  0  0  0  0  0  0  0
    7.3780   -3.1510  -49.9960 C   0  0  0  0  0  0  0  0  0  0  0  0
    6.8600   -2.8330  -51.2560 C   0  0  0  0  0  0  0  0  0  0  0  0
    7.7360   -2.7700  -52.3560 C   0  0  0  0  0  0  0  0  0  0  0  0
    8.2770    0.4170  -53.9240 C   0  0  0  0  0  0  0  0  0  0  0  0
    8.7880    1.4080  -54.9850 C   0  0  0  0  0  0  0  0  0  0  0  0
    9.4200    2.5690  -58.9300 C   0  0  0  0  0  0  0  0  0  0  0  0
   10.7050    3.0760  -59.1510 C   0  0  0  0  0  0  0  0  0  0  0  0
   14.0201    3.2017  -59.0192 H   0  0  0  0  0  0  0  0  0  0  0  0
   12.7743    3.2358  -60.3129 H   0  0  0  0  0  0  0  0  0  0  0  0
   14.1025    4.4451  -60.3129 H   0  0  0  0  0  0  0  0  0  0  0  0
   12.5881    4.8095  -56.6460 H   0  0  0  0  0  0  0  0  0  0  0  0
   14.1228    4.2660  -57.4049 H   0  0  0  0  0  0  0  0  0  0  0  0
   13.6888    6.0091  -57.4049 H   0  0  0  0  0  0  0  0  0  0  0  0
   12.4741    6.9753  -58.8111 H   0  0  0  0  0  0  0  0  0  0  0  0
   13.4013    6.2757  -60.1813 H   0  0  0  0  0  0  0  0  0  0  0  0
   11.6065    6.2031  -60.1813 H   0  0  0  0  0  0  0  0  0  0  0  0
   10.4990    5.9450  -57.3203 H   0  0  0  0  0  0  0  0  0  0  0  0
    8.2104    5.0508  -56.9225 H   0  0  0  0  0  0  0  0  0  0  0  0
    7.0010    0.2970  -57.8570 H   0  0  0  0  0  0  0  0  0  0  0  0
   11.5262   -1.9638  -53.6520 H   0  0  0  0  0  0  0  0  0  0  0  0
   11.5547   -3.6747  -53.0471 H   0  0  0  0  0  0  0  0  0  0  0  0
   11.3588   -1.4990  -56.0449 H   0  0  0  0  0  0  0  0  0  0  0  0
   11.6871   -2.3581  -58.3603 H   0  0  0  0  0  0  0  0  0  0  0  0
   11.3173   -5.5613  -54.5576 H   0  0  0  0  0  0  0  0  0  0  0  0
   10.7000   -3.5404  -50.7755 H   0  0  0  0  0  0  0  0  0  0  0  0
    9.1212   -3.6485  -48.8261 H   0  0  0  0  0  0  0  0  0  0  0  0
    6.7036   -3.2043  -49.1286 H   0  0  0  0  0  0  0  0  0  0  0  0
    5.7856   -2.6354  -51.3850 H   0  0  0  0  0  0  0  0  0  0  0  0
    7.8080    0.8810  -53.0438 H   0  0  0  0  0  0  0  0  0  0  0  0
    8.9481   -0.2677  -53.3847 H   0  0  0  0  0  0  0  0  0  0  0  0
    8.6594    2.4694  -54.7263 H   0  0  0  0  0  0  0  0  0  0  0  0
    9.8464    1.4569  -55.2807 H   0  0  0  0  0  0  0  0  0  0  0  0
    9.1169    1.6119  -59.3795 H   0  0  0  0  0  0  0  0  0  0  0  0
   11.4042    2.5082  -59.7825 H   0  0  0  0  0  0  0  0  0  0  0  0
  1  2  1  0
  2  3  1  0
  2  4  1  0
  2  5  1  0
  5  6  1  0
  6  7  2  0
  7  8  1  0
  8  9  1  0
  9 10  2  0
  9 11  2  0
  9 12  1  0
 12 13  1  0
 13 14  2  0
 14 15  1  0
 15 16  2  0
 16 17  1  0
 17 18  2  0
 18 19  1  0
 19 20  1  0
 20 21  1  0
 21 22  1  0
 22 23  2  0
 23 24  1  0
 24 25  1  0
 24 26  2  0
 26 27  1  0
 26 28  1  0
 19 29  1  0
 29 30  2  0
 30 31  1  0
 31 32  2  0
 32 33  1  0
 33 34  2  0
 14 35  1  0
 35 36  1  0
  8 37  2  0
 37 38  1  0
 38  5  2  0
 36 13  1  0
 34 17  1  0
 28 21  2  0
 34 29  1  0
  1 39  1  0
  1 40  1  0
  1 41  1  0
  3 42  1  0
  3 43  1  0
  3 44  1  0
  4 45  1  0
  4 46  1  0
  4 47  1  0
  6 48  1  0
  7 49  1  0
 12 50  1  0
 20 51  1  0
 20 52  1  0
 22 53  1  0
 23 54  1  0
 28 55  1  0
 30 56  1  0
 31 57  1  0
 32 58  1  0
 33 59  1  0
 35 60  1  0
 35 61  1  0
 36 62  1  0
 36 63  1  0
 37 64  1  0
 38 65  1  0
M  END
>  <meeko>  (125) 
{"is_sidechain": false}

$$$$

     RDKit          3D

 65 69  0  0  0  0  0  0  0  0999 V2000
   13.7300   -4.3020  -57.2980 C   0  0  0  0  0  0  0  0  0  0  0  0
   12.2570   -4.7730  -57.2800 C   0  0  0  0  0  0  0  0  0  0  0  0
   11.7420   -4.7140  -58.7340 C   0  0  0  0  0  0  0  0  0  0  0  0
   12.2530   -6.2390  -56.7980 C   0  0  0  0  0  0  0  0  0  0  0  0
   11.3440   -3.9270  -56.3720 C   0  0  0  0  0  0  0  0  0  0  0  0
   10.3440   -4.5540  -55.5980 C   0  0  0  0  0  0  0  0  0  0  0  0
    9.4970   -3.8210  -54.7610 C   0  0  0  0  0  0  0  0  0  0  0  0
    9.6360   -2.4380  -54.6920 C   0  0  0  0  0  0  0  0  0  0  0  0
    8.5810   -1.4840  -53.6310 S   0  0  0  0  0  0  0  0  0  0  0  0
    7.8950   -2.3960  -52.7390 O   0  0  0  0  0  0  0  0  0  0  0  0
    9.3620   -0.3730  -53.1320 O   0  0  0  0  0  0  0  0  0  0  0  0
    7.4310   -0.9320  -54.7550 N   0  0  0  0  0  0  0  0  0  0  0  0
    7.8070    0.3530  -55.3680 C   0  0  0  0  0  0  0  0  0  0  0  0
    8.9040    1.1500  -55.3750 C   0  0  0  0  0  0  0  0  0  0  0  0
    8.2710    2.2000  -56.2860 C   0  0  0  0  0  0  0  0  0  0  0  0
    7.0950    1.2620  -56.2730 C   0  0  0  0  0  0  0  0  0  0  0  0
    5.9320    1.2120  -56.8130 N   0  0  0  0  0  0  0  0  0  0  0  0
    5.5850    2.2590  -57.6190 N   0  0  0  0  0  0  0  0  0  0  0  0
    6.0080    2.3630  -58.9080 C   0  0  0  0  0  0  0  0  0  0  0  0
    7.2550    2.6270  -59.3110 N   0  0  0  0  0  0  0  0  0  0  0  0
    7.1810    2.6390  -60.6540 N   0  0  0  0  0  0  0  0  0  0  0  0
    8.3920    2.8930  -61.4240 C   0  0  0  0  0  0  0  0  0  0  0  0
    9.5570    3.2650  -60.5370 C   0  0  0  0  0  0  0  0  0  0  0  0
   10.0130    2.3790  -59.5480 C   0  0  0  0  0  0  0  0  0  0  0  0
   11.0910    2.7220  -58.7280 C   0  0  0  0  0  0  0  0  0  0  0  0
   11.7320    3.9530  -58.8850 C   0  0  0  0  0  0  0  0  0  0  0  0
   13.0560    4.3110  -57.8360 Cl  0  0  0  0  0  0  0  0  0  0  0  0
   11.2910    4.8420  -59.8700 C   0  0  0  0  0  0  0  0  0  0  0  0
   12.0330    6.3810  -60.1270 Cl  0  0  0  0  0  0  0  0  0  0  0  0
   10.2110    4.4970  -60.6920 C   0  0  0  0  0  0  0  0  0  0  0  0
    5.9260    2.3790  -61.1490 C   0  0  0  0  0  0  0  0  0  0  0  0
    5.4210    2.2930  -62.4550 C   0  0  0  0  0  0  0  0  0  0  0  0
    4.0600    2.0120  -62.6050 C   0  0  0  0  0  0  0  0  0  0  0  0
    3.2390    1.8240  -61.4950 C   0  0  0  0  0  0  0  0  0  0  0  0
    3.7570    1.9130  -60.1990 C   0  0  0  0  0  0  0  0  0  0  0  0
    5.1280    2.1960  -60.0210 C   0  0  0  0  0  0  0  0  0  0  0  0
   10.6200   -1.7870  -55.4360 C   0  0  0  0  0  0  0  0  0  0  0  0
   11.4630   -2.5290  -56.2700 C   0  0  0  0  0  0  0  0  0  0  0  0
   14.0907   -4.1867  -56.2652 H   0  0  0  0  0  0  0  0  0  0  0  0
   14.3470   -5.0476  -57.8208 H   0  0  0  0  0  0  0  0  0  0  0  0
   13.7999   -3.3367  -57.8208 H   0  0  0  0  0  0  0  0  0  0  0  0
   10.6492   -4.5888  -58.7311 H   0  0  0  0  0  0  0  0  0  0  0  0
   12.2072   -3.8633  -59.2535 H   0  0  0  0  0  0  0  0  0  0  0  0
   12.0027   -5.6479  -59.2535 H   0  0  0  0  0  0  0  0  0  0  0  0
   12.2529   -6.2634  -55.6983 H   0  0  0  0  0  0  0  0  0  0  0  0
   11.3535   -6.7468  -57.1761 H   0  0  0  0  0  0  0  0  0  0  0  0
   13.1497   -6.7517  -57.1761 H   0  0  0  0  0  0  0  0  0  0  0  0
   10.2281   -5.6464  -55.6546 H   0  0  0  0  0  0  0  0  0  0  0  0
    8.7284   -4.3325  -54.1630 H   0  0  0  0  0  0  0  0  0  0  0  0
    6.5270   -0.8260  -54.2800 H   0  0  0  0  0  0  0  0  0  0  0  0
    9.8918    1.0695  -54.8976 H   0  0  0  0  0  0  0  0  0  0  0  0
    8.0969    3.1834  -55.8248 H   0  0  0  0  0  0  0  0  0  0  0  0
    8.7432    2.5746  -57.2062 H   0  0  0  0  0  0  0  0  0  0  0  0
    4.9230    2.9520  -57.2820 H   0  0  0  0  0  0  0  0  0  0  0  0
    8.6510    1.9853  -61.9889 H   0  0  0  0  0  0  0  0  0  0  0  0
    8.1949    3.7384  -62.0996 H   0  0  0  0  0  0  0  0  0  0  0  0
    9.5170    1.4059  -59.4175 H   0  0  0  0  0  0  0  0  0  0  0  0
   11.4364    2.0194  -57.9553 H   0  0  0  0  0  0  0  0  0  0  0  0
    9.8716    5.1993  -61.4676 H   0  0  0  0  0  0  0  0  0  0  0  0
    6.0722    2.4413  -63.3290 H   0  0  0  0  0  0  0  0  0  0  0  0
    3.6304    1.9381  -63.6150 H   0  0  0  0  0  0  0  0  0  0  0  0
    2.1712    1.6030  -61.6397 H   0  0  0  0  0  0  0  0  0  0  0  0
    3.1026    1.7640  -59.3275 H   0  0  0  0  0  0  0  0  0  0  0  0
   10.7326   -0.6949  -55.3672 H   0  0  0  0  0  0  0  0  0  0  0  0
   12.2341   -2.0092  -56.8576 H   0  0  0  0  0  0  0  0  0  0  0  0
  1  2  1  0
  2  3  1  0
  2  4  1  0
  2  5  1  0
  5  6  1  0
  6  7  2  0
  7  8  1  0
  8  9  1  0
  9 10  2  0
  9 11  2  0
  9 12  1  0
 12 13  1  0
 13 14  2  0
 14 15  1  0
 15 16  1  0
 16 17  2  0
 17 18  1  0
 18 19  1  0
 19 20  2  0
 20 21  1  0
 21 22  1  0
 22 23  1  0
 23 24  1  0
 24 25  2  0
 25 26  1  0
 26 27  1  0
 26 28  2  0
 28 29  1  0
 28 30  1  0
 21 31  1  0
 31 32  2  0
 32 33  1  0
 33 34  2  0
 34 35  1  0
 35 36  2  0
  8 37  2  0
 37 38  1  0
 38  5  2  0
 16 13  1  0
 36 19  1  0
 30 23  2  0
 36 31  1  0
  1 39  1  0
  1 40  1  0
  1 41  1  0
  3 42  1  0
  3 43  1  0
  3 44  1  0
  4 45  1  0
  4 46  1  0
  4 47  1  0
  6 48  1  0
  7 49  1  0
 12 50  1  0
 14 51  1  0
 15 52  1  0
 15 53  1  0
 18 54  1  0
 22 55  1  0
 22 56  1  0
 24 57  1  0
 25 58  1  0
 30 59  1  0
 32 60  1  0
 33 61  1  0
 34 62  1  0
 35 63  1  0
 37 64  1  0
 38 65  1  0
M  END
>  <meeko>  (126) 
{"is_sidechain": false}

$$$$

     RDKit          3D

 65 69  0  0  0  0  0  0  0  0999 V2000
   13.8460   -4.7020  -57.5940 C   0  0  0  0  0  0  0  0  0  0  0  0
   12.3470   -5.0730  -57.6270 C   0  0  0  0  0  0  0  0  0  0  0  0
   12.2380   -6.5670  -57.2440 C   0  0  0  0  0  0  0  0  0  0  0  0
   11.8200   -4.9330  -59.0720 C   0  0  0  0  0  0  0  0  0  0  0  0
   11.5590   -4.1320  -56.6970 C   0  0  0  0  0  0  0  0  0  0  0  0
   10.6220   -4.6640  -55.7870 C   0  0  0  0  0  0  0  0  0  0  0  0
    9.8900   -3.8410  -54.9270 C   0  0  0  0  0  0  0  0  0  0  0  0
   10.0800   -2.4620  -54.9700 C   0  0  0  0  0  0  0  0  0  0  0  0
    9.1520   -1.4230  -53.8630 S   0  0  0  0  0  0  0  0  0  0  0  0
   10.0980   -0.7710  -52.9800 O   0  0  0  0  0  0  0  0  0  0  0  0
    8.0600   -2.2280  -53.3570 O   0  0  0  0  0  0  0  0  0  0  0  0
    8.5920   -0.2550  -54.9510 N   0  0  0  0  0  0  0  0  0  0  0  0
    7.1540    0.0030  -54.8360 C   0  0  0  0  0  0  0  0  0  0  0  0
    6.1210   -0.3280  -54.0480 C   0  0  0  0  0  0  0  0  0  0  0  0
    5.2490    0.4410  -54.8790 C   0  0  0  0  0  0  0  0  0  0  0  0
    6.2800    0.7830  -55.6810 C   0  0  0  0  0  0  0  0  0  0  0  0
    6.5800    1.4760  -56.7520 N   0  0  0  0  0  0  0  0  0  0  0  0
    5.7740    1.4300  -57.8600 N   0  0  0  0  0  0  0  0  0  0  0  0
    6.3160    1.8760  -58.9460 C   0  0  0  0  0  0  0  0  0  0  0  0
    7.5390    2.5220  -59.1450 N   0  0  0  0  0  0  0  0  0  0  0  0
    7.5930    3.0010  -60.4670 N   0  0  0  0  0  0  0  0  0  0  0  0
    8.8790    3.0190  -61.1750 C   0  0  0  0  0  0  0  0  0  0  0  0
   10.0300    3.5000  -60.3120 C   0  0  0  0  0  0  0  0  0  0  0  0
   10.5050    2.7250  -59.2460 C   0  0  0  0  0  0  0  0  0  0  0  0
   11.5530    3.1870  -58.4440 C   0  0  0  0  0  0  0  0  0  0  0  0
   12.1380    4.4310  -58.6950 C   0  0  0  0  0  0  0  0  0  0  0  0
   13.4290    4.9350  -57.6640 Cl  0  0  0  0  0  0  0  0  0  0  0  0
   11.6720    5.2160  -59.7530 C   0  0  0  0  0  0  0  0  0  0  0  0
   12.3410    6.7640  -60.1280 Cl  0  0  0  0  0  0  0  0  0  0  0  0
   10.6240    4.7500  -60.5550 C   0  0  0  0  0  0  0  0  0  0  0  0
    6.4550    2.5100  -61.1350 C   0  0  0  0  0  0  0  0  0  0  0  0
    6.0690    2.6360  -62.4550 C   0  0  0  0  0  0  0  0  0  0  0  0
    4.8600    2.0460  -62.8560 C   0  0  0  0  0  0  0  0  0  0  0  0
    4.0510    1.3430  -61.9410 C   0  0  0  0  0  0  0  0  0  0  0  0
    4.4310    1.2220  -60.6040 C   0  0  0  0  0  0  0  0  0  0  0  0
    5.6240    1.8160  -60.2410 C   0  0  0  0  0  0  0  0  0  0  0  0
   11.0030   -1.9030  -55.8520 C   0  0  0  0  0  0  0  0  0  0  0  0
   11.7330   -2.7350  -56.7080 C   0  0  0  0  0  0  0  0  0  0  0  0
   14.1803   -4.6193  -56.5493 H   0  0  0  0  0  0  0  0  0  0  0  0
   14.4284   -5.4831  -58.1046 H   0  0  0  0  0  0  0  0  0  0  0  0
   13.9968   -3.7394  -58.1046 H   0  0  0  0  0  0  0  0  0  0  0  0
   12.2308   -6.6651  -56.1484 H   0  0  0  0  0  0  0  0  0  0  0  0
   11.3070   -6.9841  -57.6556 H   0  0  0  0  0  0  0  0  0  0  0  0
   13.0986   -7.1148  -57.6556 H   0  0  0  0  0  0  0  0  0  0  0  0
   10.7571   -4.6506  -59.0489 H   0  0  0  0  0  0  0  0  0  0  0  0
   12.3944   -4.1563  -59.5981 H   0  0  0  0  0  0  0  0  0  0  0  0
   11.9332   -5.8924  -59.5981 H   0  0  0  0  0  0  0  0  0  0  0  0
   10.4637   -5.7520  -55.7534 H   0  0  0  0  0  0  0  0  0  0  0  0
    9.1690   -4.2792  -54.2212 H   0  0  0  0  0  0  0  0  0  0  0  0
    9.0470    0.6400  -54.7220 H   0  0  0  0  0  0  0  0  0  0  0  0
    5.9966   -0.9372  -53.1406 H   0  0  0  0  0  0  0  0  0  0  0  0
    4.1719    0.6643  -54.8692 H   0  0  0  0  0  0  0  0  0  0  0  0
    7.5520    1.7360  -56.9210 H   0  0  0  0  0  0  0  0  0  0  0  0
    7.7300    3.2080  -58.4160 H   0  0  0  0  0  0  0  0  0  0  0  0
    9.1029    1.9985  -61.5191 H   0  0  0  0  0  0  0  0  0  0  0  0
    8.7811    3.7255  -62.0124 H   0  0  0  0  0  0  0  0  0  0  0  0
   10.0499    1.7453  -59.0383 H   0  0  0  0  0  0  0  0  0  0  0  0
   11.9188    2.5682  -57.6114 H   0  0  0  0  0  0  0  0  0  0  0  0
   10.2603    5.3708  -61.3870 H   0  0  0  0  0  0  0  0  0  0  0  0
    6.6937    3.1853  -63.1747 H   0  0  0  0  0  0  0  0  0  0  0  0
    4.5381    2.1341  -63.9041 H   0  0  0  0  0  0  0  0  0  0  0  0
    3.1113    0.8855  -62.2840 H   0  0  0  0  0  0  0  0  0  0  0  0
    3.8109    0.6801  -59.8747 H   0  0  0  0  0  0  0  0  0  0  0  0
   11.1567   -0.8140  -55.8751 H   0  0  0  0  0  0  0  0  0  0  0  0
   12.4581   -2.2882  -57.4041 H   0  0  0  0  0  0  0  0  0  0  0  0
  1  2  1  0
  2  3  1  0
  2  4  1  0
  2  5  1  0
  5  6  1  0
  6  7  2  0
  7  8  1  0
  8  9  1  0
  9 10  2  0
  9 11  2  0
  9 12  1  0
 12 13  1  0
 13 14  2  0
 14 15  1  0
 15 16  2  0
 16 17  1  0
 17 18  1  0
 18 19  2  0
 19 20  1  0
 20 21  1  0
 21 22  1  0
 22 23  1  0
 23 24  1  0
 24 25  2  0
 25 26  1  0
 26 27  1  0
 26 28  2  0
 28 29  1  0
 28 30  1  0
 21 31  1  0
 31 32  2  0
 32 33  1  0
 33 34  2  0
 34 35  1  0
 35 36  2  0
  8 37  2  0
 37 38  1  0
 38  5  2  0
 16 13  1  0
 36 19  1  0
 30 23  2  0
 36 31  1  0
  1 39  1  0
  1 40  1  0
  1 41  1  0
  3 42  1  0
  3 43  1  0
  3 44  1  0
  4 45  1  0
  4 46  1  0
  4 47  1  0
  6 48  1  0
  7 49  1  0
 12 50  1  0
 14 51  1  0
 15 52  1  0
 17 53  1  0
 20 54  1  0
 22 55  1  0
 22 56  1  0
 24 57  1  0
 25 58  1  0
 30 59  1  0
 32 60  1  0
 33 61  1  0
 34 62  1  0
 35 63  1  0
 37 64  1  0
 38 65  1  0
M  END
>  <meeko>  (127) 
{"is_sidechain": false}

$$$$

     RDKit          3D

 65 69  0  0  0  0  0  0  0  0999 V2000
    2.5520    2.7290  -62.8120 C   0  0  0  0  0  0  0  0  0  0  0  0
    3.3040    1.5650  -62.1290 C   0  0  0  0  0  0  0  0  0  0  0  0
    2.5330    1.2190  -60.8370 C   0  0  0  0  0  0  0  0  0  0  0  0
    3.2460    0.3580  -63.0910 C   0  0  0  0  0  0  0  0  0  0  0  0
    4.7700    1.8850  -61.7860 C   0  0  0  0  0  0  0  0  0  0  0  0
    5.5920    2.5260  -62.7370 C   0  0  0  0  0  0  0  0  0  0  0  0
    6.9280    2.8340  -62.4600 C   0  0  0  0  0  0  0  0  0  0  0  0
    7.4630    2.5070  -61.2160 C   0  0  0  0  0  0  0  0  0  0  0  0
    9.1710    2.8780  -60.8810 S   0  0  0  0  0  0  0  0  0  0  0  0
    9.8420    2.9790  -62.1590 O   0  0  0  0  0  0  0  0  0  0  0  0
    9.6160    1.9530  -59.8540 O   0  0  0  0  0  0  0  0  0  0  0  0
    9.0010    4.4000  -60.1410 N   0  0  0  0  0  0  0  0  0  0  0  0
   10.2730    4.9430  -59.6540 C   0  0  0  0  0  0  0  0  0  0  0  0
   11.3080    5.6420  -60.1420 C   0  0  0  0  0  0  0  0  0  0  0  0
   11.8670    5.7160  -58.8260 C   0  0  0  0  0  0  0  0  0  0  0  0
   10.8450    4.9880  -58.3270 C   0  0  0  0  0  0  0  0  0  0  0  0
   10.3830    4.4570  -57.2250 N   0  0  0  0  0  0  0  0  0  0  0  0
   10.8770    3.2800  -56.7720 N   0  0  0  0  0  0  0  0  0  0  0  0
   10.0510    2.3290  -56.4460 C   0  0  0  0  0  0  0  0  0  0  0  0
   10.5070    1.1330  -55.8830 N   0  0  0  0  0  0  0  0  0  0  0  0
    9.4160    0.3680  -55.4720 N   0  0  0  0  0  0  0  0  0  0  0  0
    9.4990   -1.0940  -55.4980 C   0  0  0  0  0  0  0  0  0  0  0  0
    9.3410   -1.7310  -54.1300 C   0  0  0  0  0  0  0  0  0  0  0  0
   10.4610   -1.9860  -53.3260 C   0  0  0  0  0  0  0  0  0  0  0  0
   10.3120   -2.5650  -52.0630 C   0  0  0  0  0  0  0  0  0  0  0  0
    9.0420   -2.8990  -51.5860 C   0  0  0  0  0  0  0  0  0  0  0  0
    8.9360   -3.6110  -50.0150 Cl  0  0  0  0  0  0  0  0  0  0  0  0
    7.9170   -2.6540  -52.3770 C   0  0  0  0  0  0  0  0  0  0  0  0
    6.3160   -3.0430  -51.8570 Cl  0  0  0  0  0  0  0  0  0  0  0  0
    8.0680   -2.0760  -53.6420 C   0  0  0  0  0  0  0  0  0  0  0  0
    8.2520    1.0270  -55.8900 C   0  0  0  0  0  0  0  0  0  0  0  0
    6.9300    0.6350  -55.7600 C   0  0  0  0  0  0  0  0  0  0  0  0
    5.9280    1.4950  -56.2220 C   0  0  0  0  0  0  0  0  0  0  0  0
    6.2530    2.7350  -56.7940 C   0  0  0  0  0  0  0  0  0  0  0  0
    7.5850    3.1380  -56.9220 C   0  0  0  0  0  0  0  0  0  0  0  0
    8.5670    2.2690  -56.4800 C   0  0  0  0  0  0  0  0  0  0  0  0
    6.6820    1.8630  -60.2580 C   0  0  0  0  0  0  0  0  0  0  0  0
    5.3460    1.5600  -60.5450 C   0  0  0  0  0  0  0  0  0  0  0  0
    2.1247    3.3904  -62.0439 H   0  0  0  0  0  0  0  0  0  0  0  0
    3.2523    3.3001  -63.4392 H   0  0  0  0  0  0  0  0  0  0  0  0
    1.7435    2.3253  -63.4392 H   0  0  0  0  0  0  0  0  0  0  0  0
    3.1417    1.4922  -59.9625 H   0  0  0  0  0  0  0  0  0  0  0  0
    1.5862    1.7786  -60.8140 H   0  0  0  0  0  0  0  0  0  0  0  0
    2.3217    0.1397  -60.8140 H   0  0  0  0  0  0  0  0  0  0  0  0
    3.2012   -0.5737  -62.5080 H   0  0  0  0  0  0  0  0  0  0  0  0
    2.3506    0.4372  -63.7251 H   0  0  0  0  0  0  0  0  0  0  0  0
    4.1448    0.3510  -63.7251 H   0  0  0  0  0  0  0  0  0  0  0  0
    5.1724    2.7896  -63.7191 H   0  0  0  0  0  0  0  0  0  0  0  0
    7.5512    3.3304  -63.2184 H   0  0  0  0  0  0  0  0  0  0  0  0
    8.4320    4.2130  -59.3050 H   0  0  0  0  0  0  0  0  0  0  0  0
   11.6038    6.0061  -61.1369 H   0  0  0  0  0  0  0  0  0  0  0  0
   12.7667    6.1793  -58.3949 H   0  0  0  0  0  0  0  0  0  0  0  0
    9.5380    4.8080  -56.7790 H   0  0  0  0  0  0  0  0  0  0  0  0
   11.2110    1.3310  -55.1630 H   0  0  0  0  0  0  0  0  0  0  0  0
    8.7039   -1.4767  -56.1548 H   0  0  0  0  0  0  0  0  0  0  0  0
   10.5027   -1.3558  -55.8641 H   0  0  0  0  0  0  0  0  0  0  0  0
   11.4655   -1.7281  -53.6926 H   0  0  0  0  0  0  0  0  0  0  0  0
   11.1987   -2.7587  -51.4415 H   0  0  0  0  0  0  0  0  0  0  0  0
    7.1795   -1.8890  -54.2630 H   0  0  0  0  0  0  0  0  0  0  0  0
    6.6733   -0.3322  -55.3031 H   0  0  0  0  0  0  0  0  0  0  0  0
    4.8729    1.1960  -56.1360 H   0  0  0  0  0  0  0  0  0  0  0  0
    5.4489    3.3980  -57.1460 H   0  0  0  0  0  0  0  0  0  0  0  0
    7.8442    4.1134  -57.3595 H   0  0  0  0  0  0  0  0  0  0  0  0
    7.1130    1.5945  -59.2822 H   0  0  0  0  0  0  0  0  0  0  0  0
    4.7330    1.0565  -59.7829 H   0  0  0  0  0  0  0  0  0  0  0  0
  1  2  1  0
  2  3  1  0
  2  4  1  0
  2  5  1  0
  5  6  1  0
  6  7  2  0
  7  8  1  0
  8  9  1  0
  9 10  2  0
  9 11  2  0
  9 12  1  0
 12 13  1  0
 13 14  2  0
 14 15  1  0
 15 16  2  0
 16 17  1  0
 17 18  1  0
 18 19  2  0
 19 20  1  0
 20 21  1  0
 21 22  1  0
 22 23  1  0
 23 24  1  0
 24 25  2  0
 25 26  1  0
 26 27  1  0
 26 28  2  0
 28 29  1  0
 28 30  1  0
 21 31  1  0
 31 32  2  0
 32 33  1  0
 33 34  2  0
 34 35  1  0
 35 36  2  0
  8 37  2  0
 37 38  1  0
 38  5  2  0
 16 13  1  0
 36 19  1  0
 30 23  2  0
 36 31  1  0
  1 39  1  0
  1 40  1  0
  1 41  1  0
  3 42  1  0
  3 43  1  0
  3 44  1  0
  4 45  1  0
  4 46  1  0
  4 47  1  0
  6 48  1  0
  7 49  1  0
 12 50  1  0
 14 51  1  0
 15 52  1  0
 17 53  1  0
 20 54  1  0
 22 55  1  0
 22 56  1  0
 24 57  1  0
 25 58  1  0
 30 59  1  0
 32 60  1  0
 33 61  1  0
 34 62  1  0
 35 63  1  0
 37 64  1  0
 38 65  1  0
M  END
>  <meeko>  (128) 
{"is_sidechain": false}

$$$$

     RDKit          3D

 46 50  0  0  0  0  0  0  0  0999 V2000
    5.9910    0.7380  -55.4100 C   0  0  0  0  0  0  0  0  0  0  0  0
    7.4090    0.8230  -55.5150 N   0  0  0  0  0  0  0  0  0  0  0  0
    8.4850    0.2760  -55.0030 C   0  0  0  0  0  0  0  0  0  0  0  0
    8.7440   -0.7130  -53.9940 C   0  0  0  0  0  0  0  0  0  0  0  0
    9.9050   -1.5000  -54.0250 C   0  0  0  0  0  0  0  0  0  0  0  0
   10.1450   -2.4610  -53.0400 C   0  0  0  0  0  0  0  0  0  0  0  0
    9.2250   -2.6510  -52.0130 C   0  0  0  0  0  0  0  0  0  0  0  0
    8.0660   -1.8830  -51.9680 C   0  0  0  0  0  0  0  0  0  0  0  0
    7.8260   -0.9210  -52.9520 C   0  0  0  0  0  0  0  0  0  0  0  0
    9.2880    0.9850  -55.7730 N   0  0  0  0  0  0  0  0  0  0  0  0
    8.1990    1.5830  -56.3340 C   0  0  0  0  0  0  0  0  0  0  0  0
    7.9360    2.4460  -57.2120 N   0  0  0  0  0  0  0  0  0  0  0  0
    9.0060    3.1170  -57.9540 C   0  0  2  0  0  0  0  0  0  0  0  0
    9.6430    2.1910  -59.0110 C   0  0  0  0  0  0  0  0  0  0  0  0
   10.7020    2.9600  -59.8210 C   0  0  1  0  0  0  0  0  0  0  0  0
   10.0320    4.1420  -60.5390 C   0  0  0  0  0  0  0  0  0  0  0  0
    9.3900    5.0870  -59.5110 C   0  0  2  0  0  0  0  0  0  0  0  0
   10.4770    5.6180  -58.5620 C   0  0  0  0  0  0  0  0  0  0  0  0
   11.1510    4.4470  -57.8290 C   0  0  2  0  0  0  0  0  0  0  0  0
   11.7820    3.4960  -58.8620 C   0  0  0  0  0  0  0  0  0  0  0  0
   10.0940    3.6810  -57.0140 C   0  0  0  0  0  0  0  0  0  0  0  0
    8.3460    4.3090  -58.6940 C   0  0  0  0  0  0  0  0  0  0  0  0
    5.7023    0.7207  -54.3487 H   0  0  0  0  0  0  0  0  0  0  0  0
    5.5341    1.6104  -55.9001 H   0  0  0  0  0  0  0  0  0  0  0  0
    5.6416   -0.1827  -55.9001 H   0  0  0  0  0  0  0  0  0  0  0  0
   10.6355   -1.3585  -54.8352 H   0  0  0  0  0  0  0  0  0  0  0  0
   11.0617   -3.0680  -53.0760 H   0  0  0  0  0  0  0  0  0  0  0  0
    9.4142   -3.4079  -51.2375 H   0  0  0  0  0  0  0  0  0  0  0  0
    7.3381   -2.0333  -51.1571 H   0  0  0  0  0  0  0  0  0  0  0  0
    6.9064   -0.3189  -52.9101 H   0  0  0  0  0  0  0  0  0  0  0  0
   10.2820    1.0140  -55.8360 H   0  0  0  0  0  0  0  0  0  0  0  0
   10.1200    1.3377  -58.5066 H   0  0  0  0  0  0  0  0  0  0  0  0
    8.8588    1.8324  -59.6940 H   0  0  0  0  0  0  0  0  0  0  0  0
   11.1617    2.2890  -60.5616 H   0  0  0  0  0  0  0  0  0  0  0  0
   10.7884    4.6928  -61.1174 H   0  0  0  0  0  0  0  0  0  0  0  0
    9.2520    3.7591  -61.2135 H   0  0  0  0  0  0  0  0  0  0  0  0
    8.9072    5.9276  -60.0310 H   0  0  0  0  0  0  0  0  0  0  0  0
   11.2322    6.1670  -59.1436 H   0  0  0  0  0  0  0  0  0  0  0  0
   10.0154    6.2895  -57.8231 H   0  0  0  0  0  0  0  0  0  0  0  0
   11.9305    4.8324  -57.1553 H   0  0  0  0  0  0  0  0  0  0  0  0
   12.5432    4.0406  -59.4399 H   0  0  0  0  0  0  0  0  0  0  0  0
   12.2456    2.6495  -58.3344 H   0  0  0  0  0  0  0  0  0  0  0  0
   10.5784    2.8510  -56.4787 H   0  0  0  0  0  0  0  0  0  0  0  0
    9.6267    4.3685  -56.2937 H   0  0  0  0  0  0  0  0  0  0  0  0
    7.8892    4.9842  -57.9554 H   0  0  0  0  0  0  0  0  0  0  0  0
    7.5796    3.9187  -59.3798 H   0  0  0  0  0  0  0  0  0  0  0  0
  1  2  1  0
  2  3  1  0
  3  4  1  0
  4  5  2  0
  5  6  1  0
  6  7  2  0
  7  8  1  0
  8  9  2  0
  3 10  2  0
 10 11  1  0
 11 12  2  0
 13 12  1  1
 13 14  1  0
 14 15  1  0
 15 16  1  0
 16 17  1  0
 17 18  1  0
 18 19  1  0
 19 20  1  0
 19 21  1  0
 17 22  1  0
 11  2  1  0
 21 13  1  0
  9  4  1  0
 22 13  1  0
 20 15  1  0
  1 23  1  0
  1 24  1  0
  1 25  1  0
  5 26  1  0
  6 27  1  0
  7 28  1  0
  8 29  1  0
  9 30  1  0
 10 31  1  0
 14 32  1  0
 14 33  1  0
 15 34  1  6
 16 35  1  0
 16 36  1  0
 17 37  1  6
 18 38  1  0
 18 39  1  0
 19 40  1  1
 20 41  1  0
 20 42  1  0
 21 43  1  0
 21 44  1  0
 22 45  1  0
 22 46  1  0
M  CHG  1  10   1
M  END
>  <meeko>  (129) 
{"is_sidechain": false}

$$$$

     RDKit          3D

 46 50  0  0  0  0  0  0  0  0999 V2000
    6.8600    1.5250  -56.4680 C   0  0  0  0  0  0  0  0  0  0  0  0
    8.1440    1.0590  -56.0670 N   0  0  0  0  0  0  0  0  0  0  0  0
    8.5630    0.1890  -55.1730 C   0  0  0  0  0  0  0  0  0  0  0  0
    7.9330   -0.7000  -54.2350 C   0  0  0  0  0  0  0  0  0  0  0  0
    8.0920   -0.4950  -52.8550 C   0  0  0  0  0  0  0  0  0  0  0  0
    7.4890   -1.3510  -51.9310 C   0  0  0  0  0  0  0  0  0  0  0  0
    6.7260   -2.4270  -52.3740 C   0  0  0  0  0  0  0  0  0  0  0  0
    6.5650   -2.6500  -53.7390 C   0  0  0  0  0  0  0  0  0  0  0  0
    7.1660   -1.7930  -54.6640 C   0  0  0  0  0  0  0  0  0  0  0  0
    9.8250    0.4170  -55.4450 N   0  0  0  0  0  0  0  0  0  0  0  0
    9.4490    1.3230  -56.3990 C   0  0  0  0  0  0  0  0  0  0  0  0
   10.1990    1.9950  -57.1460 N   0  0  0  0  0  0  0  0  0  0  0  0
    9.8150    2.9660  -58.1570 C   0  0  2  0  0  0  0  0  0  0  0  0
    8.9410    2.3560  -59.2690 C   0  0  0  0  0  0  0  0  0  0  0  0
    8.6300    3.4150  -60.3410 C   0  0  1  0  0  0  0  0  0  0  0  0
    7.9230    4.6130  -59.6810 C   0  0  0  0  0  0  0  0  0  0  0  0
    8.8290    5.2460  -58.6090 C   0  0  2  0  0  0  0  0  0  0  0  0
   10.1430    5.7030  -59.2630 C   0  0  0  0  0  0  0  0  0  0  0  0
   10.8570    4.5010  -59.9030 C   0  0  2  0  0  0  0  0  0  0  0  0
    9.9460    3.8900  -60.9780 C   0  0  0  0  0  0  0  0  0  0  0  0
   11.1380    3.4450  -58.8190 C   0  0  0  0  0  0  0  0  0  0  0  0
    9.1460    4.2010  -57.5250 C   0  0  0  0  0  0  0  0  0  0  0  0
    6.2547    1.7447  -55.5762 H   0  0  0  0  0  0  0  0  0  0  0  0
    6.9730    2.4395  -57.0688 H   0  0  0  0  0  0  0  0  0  0  0  0
    6.3602    0.7509  -57.0688 H   0  0  0  0  0  0  0  0  0  0  0  0
    8.6988    0.3500  -52.4975 H   0  0  0  0  0  0  0  0  0  0  0  0
    7.6172   -1.1746  -50.8528 H   0  0  0  0  0  0  0  0  0  0  0  0
    6.2503   -3.1010  -51.6464 H   0  0  0  0  0  0  0  0  0  0  0  0
    5.9639   -3.5020  -54.0893 H   0  0  0  0  0  0  0  0  0  0  0  0
    7.0363   -1.9774  -55.7406 H   0  0  0  0  0  0  0  0  0  0  0  0
   10.6770    0.0370  -55.0910 H   0  0  0  0  0  0  0  0  0  0  0  0
    9.4778    1.5156  -59.7333 H   0  0  0  0  0  0  0  0  0  0  0  0
    7.9968    2.0016  -58.8298 H   0  0  0  0  0  0  0  0  0  0  0  0
    7.9787    2.9814  -61.1141 H   0  0  0  0  0  0  0  0  0  0  0  0
    7.6905    5.3651  -60.4493 H   0  0  0  0  0  0  0  0  0  0  0  0
    6.9963    4.2620  -59.2035 H   0  0  0  0  0  0  0  0  0  0  0  0
    8.3160    6.1072  -58.1560 H   0  0  0  0  0  0  0  0  0  0  0  0
    9.9230    6.4514  -60.0386 H   0  0  0  0  0  0  0  0  0  0  0  0
   10.7951    6.1434  -58.4944 H   0  0  0  0  0  0  0  0  0  0  0  0
   11.8036    4.8279  -60.3580 H   0  0  0  0  0  0  0  0  0  0  0  0
    9.7273    4.6481  -61.7445 H   0  0  0  0  0  0  0  0  0  0  0  0
   10.4557    3.0311  -61.4389 H   0  0  0  0  0  0  0  0  0  0  0  0
   11.6440    2.5829  -59.2782 H   0  0  0  0  0  0  0  0  0  0  0  0
   11.7759    3.8963  -58.0448 H   0  0  0  0  0  0  0  0  0  0  0  0
    9.8265    4.6428  -56.7822 H   0  0  0  0  0  0  0  0  0  0  0  0
    8.2089    3.8924  -57.0386 H   0  0  0  0  0  0  0  0  0  0  0  0
  1  2  1  0
  2  3  1  0
  3  4  1  0
  4  5  2  0
  5  6  1  0
  6  7  2  0
  7  8  1  0
  8  9  2  0
  3 10  2  0
 10 11  1  0
 11 12  2  0
 13 12  1  1
 13 14  1  0
 14 15  1  0
 15 16  1  0
 16 17  1  0
 17 18  1  0
 18 19  1  0
 19 20  1  0
 19 21  1  0
 17 22  1  0
 11  2  1  0
 21 13  1  0
  9  4  1  0
 22 13  1  0
 20 15  1  0
  1 23  1  0
  1 24  1  0
  1 25  1  0
  5 26  1  0
  6 27  1  0
  7 28  1  0
  8 29  1  0
  9 30  1  0
 10 31  1  0
 14 32  1  0
 14 33  1  0
 15 34  1  6
 16 35  1  0
 16 36  1  0
 17 37  1  1
 18 38  1  0
 18 39  1  0
 19 40  1  6
 20 41  1  0
 20 42  1  0
 21 43  1  0
 21 44  1  0
 22 45  1  0
 22 46  1  0
M  CHG  1  10   1
M  END
>  <meeko>  (130) 
{"is_sidechain": false}

$$$$

     RDKit          3D

 59 64  0  0  0  0  0  0  0  0999 V2000
    5.6190   -3.3960  -50.4260 F   0  0  0  0  0  0  0  0  0  0  0  0
    6.3530   -4.0210  -51.3860 C   0  0  0  0  0  0  0  0  0  0  0  0
    5.4960   -4.8540  -52.0360 F   0  0  0  0  0  0  0  0  0  0  0  0
    7.2390   -4.8170  -50.7320 F   0  0  0  0  0  0  0  0  0  0  0  0
    7.0470   -3.0490  -52.3170 C   0  0  0  0  0  0  0  0  0  0  0  0
    8.1390   -2.2920  -51.8720 C   0  0  0  0  0  0  0  0  0  0  0  0
    8.7960   -1.4110  -52.7380 C   0  0  0  0  0  0  0  0  0  0  0  0
    8.3830   -1.2720  -54.0710 C   0  0  0  0  0  0  0  0  0  0  0  0
    9.0500   -0.3730  -54.9710 C   0  0  0  0  0  0  0  0  0  0  0  0
    8.6120    0.6490  -55.6820 N   0  0  0  0  0  0  0  0  0  0  0  0
    9.8670    0.8050  -56.1960 C   0  0  0  0  0  0  0  0  0  0  0  0
   10.4730    1.5350  -57.0200 N   0  0  0  0  0  0  0  0  0  0  0  0
    9.7720    2.5920  -57.7520 C   0  0  2  0  0  0  0  0  0  0  0  0
    9.2510    3.6980  -56.8100 C   0  0  0  0  0  0  0  0  0  0  0  0
    8.5950    4.8240  -57.6290 C   0  0  1  0  0  0  0  0  0  0  0  0
    9.6370    5.4350  -58.5800 C   0  0  0  0  0  0  0  0  0  0  0  0
   10.1730    4.3560  -59.5350 C   0  0  2  0  0  0  0  0  0  0  0  0
    9.0080    3.7810  -60.3570 C   0  0  0  0  0  0  0  0  0  0  0  0
    7.9600    3.1600  -59.4200 C   0  0  2  0  0  0  0  0  0  0  0  0
    7.4350    4.2390  -58.4560 C   0  0  0  0  0  0  0  0  0  0  0  0
    8.6160    2.0290  -58.6050 C   0  0  0  0  0  0  0  0  0  0  0  0
   10.8120    3.2260  -58.7110 C   0  0  0  0  0  0  0  0  0  0  0  0
   10.2730   -0.2420  -55.4160 N   0  0  0  0  0  0  0  0  0  0  0  0
   11.5300   -0.9120  -55.3660 C   0  0  0  0  0  0  0  0  0  0  0  0
   11.3290   -2.3340  -55.8170 C   0  0  0  0  0  0  0  0  0  0  0  0
   10.7560   -3.2870  -54.9600 C   0  0  0  0  0  0  0  0  0  0  0  0
   10.5300   -4.5910  -55.4030 C   0  0  0  0  0  0  0  0  0  0  0  0
   10.8650   -4.9570  -56.7060 C   0  0  0  0  0  0  0  0  0  0  0  0
   11.4280   -4.0170  -57.5640 C   0  0  0  0  0  0  0  0  0  0  0  0
   11.8280   -4.4550  -59.1770 Cl  0  0  0  0  0  0  0  0  0  0  0  0
   11.6610   -2.7120  -57.1280 C   0  0  0  0  0  0  0  0  0  0  0  0
    7.2900   -2.0330  -54.5130 C   0  0  0  0  0  0  0  0  0  0  0  0
    6.6330   -2.9150  -53.6490 C   0  0  0  0  0  0  0  0  0  0  0  0
    8.4830   -2.3913  -50.8319 H   0  0  0  0  0  0  0  0  0  0  0  0
    9.6471   -0.8200  -52.3686 H   0  0  0  0  0  0  0  0  0  0  0  0
    7.7050    1.0540  -55.7640 H   0  0  0  0  0  0  0  0  0  0  0  0
    8.5085    3.2692  -56.1210 H   0  0  0  0  0  0  0  0  0  0  0  0
   10.0952    4.1124  -56.2395 H   0  0  0  0  0  0  0  0  0  0  0  0
    8.2132    5.6011  -56.9505 H   0  0  0  0  0  0  0  0  0  0  0  0
    9.1683    6.2396  -59.1656 H   0  0  0  0  0  0  0  0  0  0  0  0
   10.4712    5.8412  -57.9891 H   0  0  0  0  0  0  0  0  0  0  0  0
   10.9216    4.7971  -60.2095 H   0  0  0  0  0  0  0  0  0  0  0  0
    8.5416    4.5877  -60.9416 H   0  0  0  0  0  0  0  0  0  0  0  0
    9.3926    3.0041  -61.0341 H   0  0  0  0  0  0  0  0  0  0  0  0
    7.1263    2.7565  -60.0134 H   0  0  0  0  0  0  0  0  0  0  0  0
    6.9601    5.0441  -59.0358 H   0  0  0  0  0  0  0  0  0  0  0  0
    6.7017    3.7843  -57.7737 H   0  0  0  0  0  0  0  0  0  0  0  0
    7.8641    1.5738  -57.9437 H   0  0  0  0  0  0  0  0  0  0  0  0
    9.0142    1.2715  -59.2961 H   0  0  0  0  0  0  0  0  0  0  0  0
   11.1926    2.4520  -59.3937 H   0  0  0  0  0  0  0  0  0  0  0  0
   11.6346    3.6456  -58.1133 H   0  0  0  0  0  0  0  0  0  0  0  0
   12.2460   -0.4087  -56.0323 H   0  0  0  0  0  0  0  0  0  0  0  0
   11.9275   -0.8935  -54.3405 H   0  0  0  0  0  0  0  0  0  0  0  0
   10.4834   -3.0040  -53.9326 H   0  0  0  0  0  0  0  0  0  0  0  0
   10.0862   -5.3323  -54.7221 H   0  0  0  0  0  0  0  0  0  0  0  0
   10.6850   -5.9847  -57.0544 H   0  0  0  0  0  0  0  0  0  0  0  0
   12.1065   -1.9765  -57.8140 H   0  0  0  0  0  0  0  0  0  0  0  0
    6.9453   -1.9345  -55.5530 H   0  0  0  0  0  0  0  0  0  0  0  0
    5.7838   -3.5087  -54.0183 H   0  0  0  0  0  0  0  0  0  0  0  0
  1  2  1  0
  2  3  1  0
  2  4  1  0
  2  5  1  0
  5  6  1  0
  6  7  2  0
  7  8  1  0
  8  9  1  0
  9 10  2  0
 10 11  1  0
 11 12  2  0
 13 12  1  1
 13 14  1  0
 14 15  1  0
 15 16  1  0
 16 17  1  0
 17 18  1  0
 18 19  1  0
 19 20  1  0
 19 21  1  0
 17 22  1  0
 11 23  1  0
 23 24  1  0
 24 25  1  0
 25 26  2  0
 26 27  1  0
 27 28  2  0
 28 29  1  0
 29 30  1  0
 29 31  2  0
  8 32  2  0
 32 33  1  0
 33  5  2  0
 23  9  1  0
 31 25  1  0
 21 13  1  0
 22 13  1  0
 20 15  1  0
  6 34  1  0
  7 35  1  0
 10 36  1  0
 14 37  1  0
 14 38  1  0
 15 39  1  1
 16 40  1  0
 16 41  1  0
 17 42  1  6
 18 43  1  0
 18 44  1  0
 19 45  1  6
 20 46  1  0
 20 47  1  0
 21 48  1  0
 21 49  1  0
 22 50  1  0
 22 51  1  0
 24 52  1  0
 24 53  1  0
 26 54  1  0
 27 55  1  0
 28 56  1  0
 31 57  1  0
 32 58  1  0
 33 59  1  0
M  CHG  1  10   1
M  END
>  <meeko>  (131) 
{"is_sidechain": false}

$$$$

     RDKit          3D

 35 37  0  0  0  0  0  0  0  0999 V2000
   10.0960    3.2330  -55.7420 F   0  0  0  0  0  0  0  0  0  0  0  0
    9.7540    2.1850  -56.5380 C   0  0  0  0  0  0  0  0  0  0  0  0
   10.9020    1.4900  -56.7670 F   0  0  0  0  0  0  0  0  0  0  0  0
    9.4020    2.7260  -57.7390 F   0  0  0  0  0  0  0  0  0  0  0  0
    8.6480    1.3460  -55.9450 C   0  0  0  0  0  0  0  0  0  0  0  0
    7.3280    1.4630  -56.4030 C   0  0  0  0  0  0  0  0  0  0  0  0
    6.3160    0.6630  -55.8670 C   0  0  0  0  0  0  0  0  0  0  0  0
    6.6140   -0.2610  -54.8660 C   0  0  0  0  0  0  0  0  0  0  0  0
    7.9220   -0.3780  -54.3910 C   0  0  0  0  0  0  0  0  0  0  0  0
    8.2170   -1.3460  -53.3110 C   0  0  0  0  0  0  0  0  0  0  0  0
    7.5190   -1.3530  -52.2010 N   0  0  0  0  0  0  0  0  0  0  0  0
    8.0340   -2.3840  -51.4530 C   0  0  0  0  0  0  0  0  0  0  0  0
    7.4390   -3.0320  -50.0440 S   0  0  0  0  0  0  0  0  0  0  0  0
    9.1450   -2.9030  -52.0850 N   0  0  0  0  0  0  0  0  0  0  0  0
    9.2240   -2.3070  -53.3660 N   0  0  0  0  0  0  0  0  0  0  0  0
   10.5870   -2.0020  -53.8240 C   0  0  0  0  0  0  0  0  0  0  0  0
   10.9700   -2.7010  -55.1140 C   0  0  0  0  0  0  0  0  0  0  0  0
   11.4630   -1.9780  -56.2080 C   0  0  0  0  0  0  0  0  0  0  0  0
   11.7880   -2.6280  -57.4030 C   0  0  0  0  0  0  0  0  0  0  0  0
   11.6260   -4.0100  -57.5210 C   0  0  0  0  0  0  0  0  0  0  0  0
   12.0430   -4.7450  -59.0270 Cl  0  0  0  0  0  0  0  0  0  0  0  0
   11.1410   -4.7440  -56.4360 C   0  0  0  0  0  0  0  0  0  0  0  0
   10.9060   -6.4550  -56.5010 Cl  0  0  0  0  0  0  0  0  0  0  0  0
   10.8210   -4.0920  -55.2390 C   0  0  0  0  0  0  0  0  0  0  0  0
    8.9400    0.4090  -54.9390 C   0  0  0  0  0  0  0  0  0  0  0  0
    7.0871    2.1913  -57.1914 H   0  0  0  0  0  0  0  0  0  0  0  0
    5.2840    0.7619  -56.2346 H   0  0  0  0  0  0  0  0  0  0  0  0
    5.8189   -0.8976  -54.4506 H   0  0  0  0  0  0  0  0  0  0  0  0
    9.3150   -3.8980  -51.9930 H   0  0  0  0  0  0  0  0  0  0  0  0
   10.6651   -0.9161  -53.9816 H   0  0  0  0  0  0  0  0  0  0  0  0
   11.2750   -2.3652  -53.0464 H   0  0  0  0  0  0  0  0  0  0  0  0
   11.5957   -0.8891  -56.1264 H   0  0  0  0  0  0  0  0  0  0  0  0
   12.1732   -2.0476  -58.2543 H   0  0  0  0  0  0  0  0  0  0  0  0
   10.4480   -4.6768  -54.3853 H   0  0  0  0  0  0  0  0  0  0  0  0
    9.9738    0.2941  -54.5811 H   0  0  0  0  0  0  0  0  0  0  0  0
  1  2  1  0
  2  3  1  0
  2  4  1  0
  2  5  1  0
  5  6  2  0
  6  7  1  0
  7  8  2  0
  8  9  1  0
  9 10  1  0
 10 11  2  0
 11 12  1  0
 12 13  2  0
 12 14  1  0
 14 15  1  0
 15 16  1  0
 16 17  1  0
 17 18  1  0
 18 19  2  0
 19 20  1  0
 20 21  1  0
 20 22  2  0
 22 23  1  0
 22 24  1  0
  9 25  2  0
 25  5  1  0
 15 10  1  0
 24 17  2  0
  6 26  1  0
  7 27  1  0
  8 28  1  0
 14 29  1  0
 16 30  1  0
 16 31  1  0
 18 32  1  0
 19 33  1  0
 24 34  1  0
 25 35  1  0
M  END
>  <meeko>  (132) 
{"is_sidechain": false}

$$$$

     RDKit          3D

 35 37  0  0  0  0  0  0  0  0999 V2000
   14.2830    6.3450  -60.5520 F   0  0  0  0  0  0  0  0  0  0  0  0
   13.0570    6.6290  -60.0380 C   0  0  0  0  0  0  0  0  0  0  0  0
   12.3430    7.1900  -61.0530 F   0  0  0  0  0  0  0  0  0  0  0  0
   13.2520    7.6230  -59.1280 F   0  0  0  0  0  0  0  0  0  0  0  0
   12.3790    5.4120  -59.4580 C   0  0  0  0  0  0  0  0  0  0  0  0
   13.0000    4.6390  -58.4650 C   0  0  0  0  0  0  0  0  0  0  0  0
   12.3690    3.5060  -57.9500 C   0  0  0  0  0  0  0  0  0  0  0  0
   11.1050    3.1370  -58.4120 C   0  0  0  0  0  0  0  0  0  0  0  0
   10.4640    3.9010  -59.3940 C   0  0  0  0  0  0  0  0  0  0  0  0
    9.1270    3.5560  -59.8540 C   0  0  0  0  0  0  0  0  0  0  0  0
    8.7740    3.2850  -61.0940 N   0  0  0  0  0  0  0  0  0  0  0  0
    7.4320    3.0620  -61.0090 C   0  0  0  0  0  0  0  0  0  0  0  0
    6.4430    2.6440  -62.3720 S   0  0  0  0  0  0  0  0  0  0  0  0
    6.9080    3.1940  -59.7880 N   0  0  0  0  0  0  0  0  0  0  0  0
    8.0000    3.5250  -59.0660 N   0  0  0  0  0  0  0  0  0  0  0  0
    7.8760    3.8200  -57.6470 C   0  0  0  0  0  0  0  0  0  0  0  0
    7.4820    2.5980  -56.8510 C   0  0  0  0  0  0  0  0  0  0  0  0
    6.1310    2.2980  -56.6210 C   0  0  0  0  0  0  0  0  0  0  0  0
    5.7730    1.1870  -55.8540 C   0  0  0  0  0  0  0  0  0  0  0  0
    6.7570    0.3590  -55.3050 C   0  0  0  0  0  0  0  0  0  0  0  0
    6.2400   -0.9900  -54.3600 Cl  0  0  0  0  0  0  0  0  0  0  0  0
    8.1060    0.6440  -55.5330 C   0  0  0  0  0  0  0  0  0  0  0  0
    9.3830   -0.3160  -54.8760 Cl  0  0  0  0  0  0  0  0  0  0  0  0
    8.4640    1.7520  -56.3100 C   0  0  0  0  0  0  0  0  0  0  0  0
   11.1130    5.0220  -59.9280 C   0  0  0  0  0  0  0  0  0  0  0  0
   13.9925    4.9287  -58.0895 H   0  0  0  0  0  0  0  0  0  0  0  0
   12.8690    2.9024  -57.1782 H   0  0  0  0  0  0  0  0  0  0  0  0
   10.6110    2.2432  -58.0032 H   0  0  0  0  0  0  0  0  0  0  0  0
    6.8090    1.3580  -62.4160 H   0  0  0  0  0  0  0  0  0  0  0  0
    8.8425    4.1907  -57.2748 H   0  0  0  0  0  0  0  0  0  0  0  0
    7.0874    4.5768  -57.5233 H   0  0  0  0  0  0  0  0  0  0  0  0
    5.3482    2.9423  -57.0477 H   0  0  0  0  0  0  0  0  0  0  0  0
    4.7103    0.9620  -55.6807 H   0  0  0  0  0  0  0  0  0  0  0  0
    9.5270    1.9626  -56.4991 H   0  0  0  0  0  0  0  0  0  0  0  0
   10.6260    5.6038  -60.7245 H   0  0  0  0  0  0  0  0  0  0  0  0
  1  2  1  0
  2  3  1  0
  2  4  1  0
  2  5  1  0
  5  6  2  0
  6  7  1  0
  7  8  2  0
  8  9  1  0
  9 10  1  0
 10 11  2  0
 11 12  1  0
 12 13  1  0
 12 14  2  0
 14 15  1  0
 15 16  1  0
 16 17  1  0
 17 18  1  0
 18 19  2  0
 19 20  1  0
 20 21  1  0
 20 22  2  0
 22 23  1  0
 22 24  1  0
  9 25  2  0
 25  5  1  0
 15 10  1  0
 24 17  2  0
  6 26  1  0
  7 27  1  0
  8 28  1  0
 13 29  1  0
 16 30  1  0
 16 31  1  0
 18 32  1  0
 19 33  1  0
 24 34  1  0
 25 35  1  0
M  END
>  <meeko>  (133) 
{"is_sidechain": false}

$$$$

     RDKit          3D

 33 35  0  0  0  0  0  0  0  0999 V2000
    7.0160    2.6570  -61.9930 N   0  0  0  0  0  0  0  0  0  0  0  0
    7.7460    3.0080  -60.9400 C   0  0  0  0  0  0  0  0  0  0  0  0
    7.2030    2.8950  -59.7110 N   0  0  0  0  0  0  0  0  0  0  0  0
    8.1550    3.3360  -58.9060 C   0  0  0  0  0  0  0  0  0  0  0  0
    7.9460    3.5730  -57.4460 C   0  0  0  0  0  0  0  0  0  0  0  0
    7.5830    2.3340  -56.6520 C   0  0  0  0  0  0  0  0  0  0  0  0
    6.2420    1.9610  -56.4660 C   0  0  0  0  0  0  0  0  0  0  0  0
    5.9170    0.8120  -55.7400 C   0  0  0  0  0  0  0  0  0  0  0  0
    6.9250    0.0120  -55.1990 C   0  0  0  0  0  0  0  0  0  0  0  0
    6.4500   -1.3910  -54.3090 Cl  0  0  0  0  0  0  0  0  0  0  0  0
    8.2640    0.3580  -55.3970 C   0  0  0  0  0  0  0  0  0  0  0  0
    9.5690   -0.5850  -54.7690 Cl  0  0  0  0  0  0  0  0  0  0  0  0
    8.5880    1.5080  -56.1270 C   0  0  0  0  0  0  0  0  0  0  0  0
    9.2820    3.6430  -59.6640 N   0  0  0  0  0  0  0  0  0  0  0  0
   10.6010    4.0450  -59.3050 C   0  0  0  0  0  0  0  0  0  0  0  0
   11.4070    3.2970  -58.4400 C   0  0  0  0  0  0  0  0  0  0  0  0
   12.6930    3.7390  -58.1100 C   0  0  0  0  0  0  0  0  0  0  0  0
   13.1900    4.9220  -58.6530 C   0  0  0  0  0  0  0  0  0  0  0  0
   12.4070    5.6540  -59.5390 C   0  0  0  0  0  0  0  0  0  0  0  0
   13.0250    7.1070  -60.2220 Cl  0  0  0  0  0  0  0  0  0  0  0  0
   11.1240    5.2210  -59.8730 C   0  0  0  0  0  0  0  0  0  0  0  0
    8.9610    3.5250  -60.9790 N   0  0  0  0  0  0  0  0  0  0  0  0
    6.8160    1.6710  -62.0940 H   0  0  0  0  0  0  0  0  0  0  0  0
    6.2450    3.2650  -62.2330 H   0  0  0  0  0  0  0  0  0  0  0  0
    8.8756    3.9877  -57.0291 H   0  0  0  0  0  0  0  0  0  0  0  0
    7.0911    4.2600  -57.3606 H   0  0  0  0  0  0  0  0  0  0  0  0
    5.4399    2.5790  -56.8958 H   0  0  0  0  0  0  0  0  0  0  0  0
    4.8620    0.5367  -55.5942 H   0  0  0  0  0  0  0  0  0  0  0  0
    9.6444    1.7672  -56.2910 H   0  0  0  0  0  0  0  0  0  0  0  0
   11.0274    2.3554  -58.0166 H   0  0  0  0  0  0  0  0  0  0  0  0
   13.3141    3.1501  -57.4191 H   0  0  0  0  0  0  0  0  0  0  0  0
   14.1961    5.2750  -58.3824 H   0  0  0  0  0  0  0  0  0  0  0  0
   10.5181    5.8018  -60.5840 H   0  0  0  0  0  0  0  0  0  0  0  0
  1  2  1  0
  2  3  1  0
  3  4  2  0
  4  5  1  0
  5  6  1  0
  6  7  1  0
  7  8  2  0
  8  9  1  0
  9 10  1  0
  9 11  2  0
 11 12  1  0
 11 13  1  0
  4 14  1  0
 14 15  1  0
 15 16  2  0
 16 17  1  0
 17 18  2  0
 18 19  1  0
 19 20  1  0
 19 21  2  0
 14 22  1  0
 22  2  2  0
 13  6  2  0
 21 15  1  0
  1 23  1  0
  1 24  1  0
  5 25  1  0
  5 26  1  0
  7 27  1  0
  8 28  1  0
 13 29  1  0
 16 30  1  0
 17 31  1  0
 18 32  1  0
 21 33  1  0
M  END
>  <meeko>  (134) 
{"is_sidechain": false}

$$$$

     RDKit          3D

 33 35  0  0  0  0  0  0  0  0999 V2000
    6.7820    2.6900  -61.9210 N   0  0  0  0  0  0  0  0  0  0  0  0
    7.5890    3.0400  -60.9950 C   0  0  0  0  0  0  0  0  0  0  0  0
    7.1000    3.1950  -59.7230 N   0  0  0  0  0  0  0  0  0  0  0  0
    8.2020    3.3370  -59.0040 C   0  0  0  0  0  0  0  0  0  0  0  0
    8.1260    3.6220  -57.5240 C   0  0  0  0  0  0  0  0  0  0  0  0
    7.6940    2.4250  -56.7070 C   0  0  0  0  0  0  0  0  0  0  0  0
    6.3330    2.1480  -56.5190 C   0  0  0  0  0  0  0  0  0  0  0  0
    5.9310    1.0380  -55.7740 C   0  0  0  0  0  0  0  0  0  0  0  0
    6.8820    0.1950  -55.1930 C   0  0  0  0  0  0  0  0  0  0  0  0
    6.3100   -1.1600  -54.2890 Cl  0  0  0  0  0  0  0  0  0  0  0  0
    8.2430    0.4730  -55.3550 C   0  0  0  0  0  0  0  0  0  0  0  0
    9.4770   -0.5160  -54.6600 Cl  0  0  0  0  0  0  0  0  0  0  0  0
    8.6430    1.5870  -56.1020 C   0  0  0  0  0  0  0  0  0  0  0  0
    9.3800    3.2390  -59.7650 N   0  0  0  0  0  0  0  0  0  0  0  0
   10.5990    3.8580  -59.3920 C   0  0  0  0  0  0  0  0  0  0  0  0
   11.4310    3.2600  -58.4340 C   0  0  0  0  0  0  0  0  0  0  0  0
   12.6360    3.8570  -58.0560 C   0  0  0  0  0  0  0  0  0  0  0  0
   13.0250    5.0620  -58.6380 C   0  0  0  0  0  0  0  0  0  0  0  0
   12.2150    5.6560  -59.6020 C   0  0  0  0  0  0  0  0  0  0  0  0
   12.6980    7.1410  -60.3240 Cl  0  0  0  0  0  0  0  0  0  0  0  0
   11.0150    5.0590  -59.9870 C   0  0  0  0  0  0  0  0  0  0  0  0
    8.9430    3.2220  -61.0720 N   0  0  0  0  0  0  0  0  0  0  0  0
    5.8620    2.6400  -61.4680 H   0  0  0  0  0  0  0  0  0  0  0  0
    9.1204    3.9406  -57.1781 H   0  0  0  0  0  0  0  0  0  0  0  0
    7.3674    4.4056  -57.3811 H   0  0  0  0  0  0  0  0  0  0  0  0
    5.5752    2.8108  -56.9622 H   0  0  0  0  0  0  0  0  0  0  0  0
    4.8596    0.8258  -55.6436 H   0  0  0  0  0  0  0  0  0  0  0  0
    9.7144    1.8083  -56.2162 H   0  0  0  0  0  0  0  0  0  0  0  0
   11.1302    2.3072  -57.9738 H   0  0  0  0  0  0  0  0  0  0  0  0
   13.2761    3.3773  -57.3010 H   0  0  0  0  0  0  0  0  0  0  0  0
   13.9680    5.5418  -58.3370 H   0  0  0  0  0  0  0  0  0  0  0  0
   10.3917    5.5315  -60.7605 H   0  0  0  0  0  0  0  0  0  0  0  0
    9.3930    2.5880  -61.7220 H   0  0  0  0  0  0  0  0  0  0  0  0
  1  2  2  3
  2  3  1  0
  3  4  2  0
  4  5  1  0
  5  6  1  0
  6  7  1  0
  7  8  2  0
  8  9  1  0
  9 10  1  0
  9 11  2  0
 11 12  1  0
 11 13  1  0
  4 14  1  0
 14 15  1  0
 15 16  2  0
 16 17  1  0
 17 18  2  0
 18 19  1  0
 19 20  1  0
 19 21  2  0
 14 22  1  0
 22  2  1  0
 13  6  2  0
 21 15  1  0
  1 23  1  0
  5 24  1  0
  5 25  1  0
  7 26  1  0
  8 27  1  0
 13 28  1  0
 16 29  1  0
 17 30  1  0
 18 31  1  0
 21 32  1  0
 22 33  1  0
M  END
>  <meeko>  (135) 
{"is_sidechain": false}

$$$$

     RDKit          3D

 43 47  0  0  0  0  0  0  0  0999 V2000
    6.4980   -3.8080  -50.6420 Cl  0  0  0  0  0  0  0  0  0  0  0  0
    7.4250   -2.8420  -51.7140 C   0  0  0  0  0  0  0  0  0  0  0  0
    8.7840   -2.8650  -51.8690 C   0  0  0  0  0  0  0  0  0  0  0  0
    9.2050   -1.9210  -52.8560 C   0  0  0  0  0  0  0  0  0  0  0  0
    8.1520   -1.2110  -53.4220 C   0  0  0  0  0  0  0  0  0  0  0  0
    8.1460   -0.1990  -54.4230 C   0  0  0  0  0  0  0  0  0  0  0  0
    9.2670    0.2730  -55.0110 C   0  0  0  0  0  0  0  0  0  0  0  0
    8.8250    1.2690  -56.1430 C   0  0  0  0  0  0  0  0  0  0  0  0
    9.7140    1.8770  -56.8950 N   0  0  0  0  0  0  0  0  0  0  0  0
    9.4610    2.8260  -57.9970 C   0  0  2  0  0  0  0  0  0  0  0  0
    8.4120    2.2610  -58.9720 C   0  0  0  0  0  0  0  0  0  0  0  0
    8.1970    3.2460  -60.1350 C   0  0  1  0  0  0  0  0  0  0  0  0
    7.7280    4.6000  -59.5700 C   0  0  0  0  0  0  0  0  0  0  0  0
    8.7880    5.1740  -58.6130 C   0  0  2  0  0  0  0  0  0  0  0  0
   10.1130    5.3570  -59.3750 C   0  0  0  0  0  0  0  0  0  0  0  0
   10.5910    4.0050  -59.9300 C   0  0  2  0  0  0  0  0  0  0  0  0
    9.5250    3.4430  -60.8850 C   0  0  0  0  0  0  0  0  0  0  0  0
   10.7900    3.0240  -58.7640 C   0  0  0  0  0  0  0  0  0  0  0  0
    9.0050    4.1900  -57.4490 C   0  0  0  0  0  0  0  0  0  0  0  0
    7.4950    1.2710  -56.1140 N   0  0  0  0  0  0  0  0  0  0  0  0
    7.0220    0.4200  -54.9780 N   0  0  0  0  0  0  0  0  0  0  0  0
    6.6540   -1.7250  -52.7170 S   0  0  0  0  0  0  0  0  0  0  0  0
    9.4633   -3.5234  -51.3078 H   0  0  0  0  0  0  0  0  0  0  0  0
   10.2572   -1.7711  -53.1396 H   0  0  0  0  0  0  0  0  0  0  0  0
   10.3011    0.0082  -54.7455 H   0  0  0  0  0  0  0  0  0  0  0  0
   10.6840    1.6650  -56.6750 H   0  0  0  0  0  0  0  0  0  0  0  0
    8.7644    1.2978  -59.3696 H   0  0  0  0  0  0  0  0  0  0  0  0
    7.4611    2.1161  -58.4383 H   0  0  0  0  0  0  0  0  0  0  0  0
    7.4382    2.8472  -60.8243 H   0  0  0  0  0  0  0  0  0  0  0  0
    7.5687    5.3042  -60.3999 H   0  0  0  0  0  0  0  0  0  0  0  0
    6.7888    4.4516  -59.0170 H   0  0  0  0  0  0  0  0  0  0  0  0
    8.4481    6.1441  -58.2212 H   0  0  0  0  0  0  0  0  0  0  0  0
    9.9604    6.0593  -60.2078 H   0  0  0  0  0  0  0  0  0  0  0  0
   10.8736    5.7543  -58.6868 H   0  0  0  0  0  0  0  0  0  0  0  0
   11.5394    4.1401  -60.4706 H   0  0  0  0  0  0  0  0  0  0  0  0
    9.3728    4.1475  -61.7160 H   0  0  0  0  0  0  0  0  0  0  0  0
    9.8660    2.4729  -61.2755 H   0  0  0  0  0  0  0  0  0  0  0  0
   11.1291    2.0549  -59.1588 H   0  0  0  0  0  0  0  0  0  0  0  0
   11.5432    3.4344  -58.0753 H   0  0  0  0  0  0  0  0  0  0  0  0
    9.7761    4.5883  -56.7732 H   0  0  0  0  0  0  0  0  0  0  0  0
    8.0603    4.0632  -56.8999 H   0  0  0  0  0  0  0  0  0  0  0  0
    6.9020    1.7900  -56.7490 H   0  0  0  0  0  0  0  0  0  0  0  0
    6.2030   -0.1790  -55.1040 H   0  0  0  0  0  0  0  0  0  0  0  0
  1  2  1  0
  2  3  2  0
  3  4  1  0
  4  5  2  0
  5  6  1  0
  6  7  2  0
  7  8  1  0
  8  9  2  0
 10  9  1  1
 10 11  1  0
 11 12  1  0
 12 13  1  0
 13 14  1  0
 14 15  1  0
 15 16  1  0
 16 17  1  0
 16 18  1  0
 14 19  1  0
  8 20  1  0
 20 21  1  0
  5 22  1  0
 22  2  1  0
 21  6  1  0
 18 10  1  0
 19 10  1  0
 17 12  1  0
  3 23  1  0
  4 24  1  0
  7 25  1  0
  9 26  1  0
 11 27  1  0
 11 28  1  0
 12 29  1  6
 13 30  1  0
 13 31  1  0
 14 32  1  1
 15 33  1  0
 15 34  1  0
 16 35  1  6
 17 36  1  0
 17 37  1  0
 18 38  1  0
 18 39  1  0
 19 40  1  0
 19 41  1  0
 20 42  1  0
 21 43  1  0
M  CHG  1   9   1
M  END
>  <meeko>  (136) 
{"is_sidechain": false}

$$$$

     RDKit          3D

 40 43  0  0  0  0  0  0  0  0999 V2000
    8.2170   -3.6740  -53.4780 N   0  0  0  0  0  0  0  0  0  0  0  0
    7.8220   -2.3890  -53.5080 C   0  0  0  0  0  0  0  0  0  0  0  0
    7.6820   -1.7090  -54.6190 N   0  0  0  0  0  0  0  0  0  0  0  0
    7.2740   -0.4230  -54.3340 C   0  0  0  0  0  0  0  0  0  0  0  0
    7.0740    0.4010  -55.4170 N   0  0  0  0  0  0  0  0  0  0  0  0
    8.0020    1.2570  -55.9600 C   0  0  0  0  0  0  0  0  0  0  0  0
    9.1620    1.3790  -55.5900 O   0  0  0  0  0  0  0  0  0  0  0  0
    7.4510    1.9730  -57.0060 N   0  0  0  0  0  0  0  0  0  0  0  0
    8.1730    3.0010  -57.7680 C   0  0  2  0  0  0  0  0  0  0  0  0
    7.2720    3.4420  -58.9540 C   0  0  0  0  0  0  0  0  0  0  0  0
    7.9590    4.5270  -59.7980 C   0  0  1  0  0  0  0  0  0  0  0  0
    8.2570    5.7450  -58.9080 C   0  0  0  0  0  0  0  0  0  0  0  0
    9.1720    5.3340  -57.7450 C   0  0  2  0  0  0  0  0  0  0  0  0
   10.4870    4.7680  -58.3090 C   0  0  0  0  0  0  0  0  0  0  0  0
   10.1980    3.5480  -59.2020 C   0  0  2  0  0  0  0  0  0  0  0  0
    9.2790    3.9700  -60.3560 C   0  0  0  0  0  0  0  0  0  0  0  0
    9.5000    2.4620  -58.3630 C   0  0  0  0  0  0  0  0  0  0  0  0
    8.4730    4.2510  -56.9040 C   0  0  0  0  0  0  0  0  0  0  0  0
    7.1140   -0.1380  -52.9960 C   0  0  0  0  0  0  0  0  0  0  0  0
    7.4880   -1.5250  -52.0620 S   0  0  0  0  0  0  0  0  0  0  0  0
    8.3180   -4.1440  -54.3690 H   0  0  0  0  0  0  0  0  0  0  0  0
    7.7710   -4.2410  -52.7660 H   0  0  0  0  0  0  0  0  0  0  0  0
    6.2030    0.2410  -55.8970 H   0  0  0  0  0  0  0  0  0  0  0  0
    6.4570    2.1230  -56.9140 H   0  0  0  0  0  0  0  0  0  0  0  0
    7.0642    2.5695  -59.5909 H   0  0  0  0  0  0  0  0  0  0  0  0
    6.3374    3.8557  -58.5473 H   0  0  0  0  0  0  0  0  0  0  0  0
    7.3023    4.8267  -60.6281 H   0  0  0  0  0  0  0  0  0  0  0  0
    8.7558    6.5209  -59.5074 H   0  0  0  0  0  0  0  0  0  0  0  0
    7.3121    6.1365  -58.5032 H   0  0  0  0  0  0  0  0  0  0  0  0
    9.3850    6.2105  -57.1155 H   0  0  0  0  0  0  0  0  0  0  0  0
   10.9911    5.5435  -58.9045 H   0  0  0  0  0  0  0  0  0  0  0  0
   11.1329    4.4582  -57.4742 H   0  0  0  0  0  0  0  0  0  0  0  0
   11.1407    3.1530  -59.6087 H   0  0  0  0  0  0  0  0  0  0  0  0
    9.7782    4.7463  -60.9545 H   0  0  0  0  0  0  0  0  0  0  0  0
    9.0645    3.0945  -60.9864 H   0  0  0  0  0  0  0  0  0  0  0  0
    9.2830    1.5942  -59.0032 H   0  0  0  0  0  0  0  0  0  0  0  0
   10.1656    2.1689  -57.5377 H   0  0  0  0  0  0  0  0  0  0  0  0
    9.1273    3.9641  -56.0676 H   0  0  0  0  0  0  0  0  0  0  0  0
    7.5238    4.6552  -56.5224 H   0  0  0  0  0  0  0  0  0  0  0  0
    6.7946    0.8327  -52.5888 H   0  0  0  0  0  0  0  0  0  0  0  0
  1  2  1  0
  2  3  2  0
  3  4  1  0
  4  5  1  0
  5  6  1  0
  6  7  2  0
  6  8  1  0
  9  8  1  1
  9 10  1  0
 10 11  1  0
 11 12  1  0
 12 13  1  0
 13 14  1  0
 14 15  1  0
 15 16  1  0
 15 17  1  0
 13 18  1  0
  4 19  2  0
 19 20  1  0
 20  2  1  0
 17  9  1  0
 18  9  1  0
 16 11  1  0
  1 21  1  0
  1 22  1  0
  5 23  1  0
  8 24  1  0
 10 25  1  0
 10 26  1  0
 11 27  1  6
 12 28  1  0
 12 29  1  0
 13 30  1  1
 14 31  1  0
 14 32  1  0
 15 33  1  6
 16 34  1  0
 16 35  1  0
 17 36  1  0
 17 37  1  0
 18 38  1  0
 18 39  1  0
 19 40  1  0
M  END
>  <meeko>  (137) 
{"is_sidechain": false}

$$$$

     RDKit          3D

 40 43  0  0  0  0  0  0  0  0999 V2000
    9.9400   -2.5910  -52.7380 N   0  0  0  0  0  0  0  0  0  0  0  0
    8.9170   -1.9130  -53.1050 C   0  0  0  0  0  0  0  0  0  0  0  0
    8.7900   -1.0680  -54.1590 N   0  0  0  0  0  0  0  0  0  0  0  0
    7.5570   -0.4740  -54.3340 C   0  0  0  0  0  0  0  0  0  0  0  0
    7.2970    0.3980  -55.3570 N   0  0  0  0  0  0  0  0  0  0  0  0
    8.1500    1.3300  -55.9140 C   0  0  0  0  0  0  0  0  0  0  0  0
    9.2800    1.5840  -55.5220 O   0  0  0  0  0  0  0  0  0  0  0  0
    7.5410    1.9620  -56.9820 N   0  0  0  0  0  0  0  0  0  0  0  0
    8.1920    3.0010  -57.7930 C   0  0  2  0  0  0  0  0  0  0  0  0
    8.4770    4.2880  -56.9760 C   0  0  0  0  0  0  0  0  0  0  0  0
    9.1040    5.3710  -57.8720 C   0  0  1  0  0  0  0  0  0  0  0  0
   10.4160    4.8350  -58.4700 C   0  0  0  0  0  0  0  0  0  0  0  0
   10.1380    3.5790  -59.3160 C   0  0  2  0  0  0  0  0  0  0  0  0
    9.1580    3.9350  -60.4450 C   0  0  0  0  0  0  0  0  0  0  0  0
    7.8430    4.4640  -59.8510 C   0  0  2  0  0  0  0  0  0  0  0  0
    8.1310    5.7170  -59.0100 C   0  0  0  0  0  0  0  0  0  0  0  0
    7.2260    3.3820  -58.9480 C   0  0  0  0  0  0  0  0  0  0  0  0
    9.5140    2.4940  -58.4210 C   0  0  0  0  0  0  0  0  0  0  0  0
    6.6810   -0.8490  -53.3780 C   0  0  0  0  0  0  0  0  0  0  0  0
    7.3910   -1.9780  -52.2280 S   0  0  0  0  0  0  0  0  0  0  0  0
    9.6660   -3.1170  -51.9000 H   0  0  0  0  0  0  0  0  0  0  0  0
    9.5560   -0.9200  -54.7920 H   0  0  0  0  0  0  0  0  0  0  0  0
    6.3370    0.4630  -55.6520 H   0  0  0  0  0  0  0  0  0  0  0  0
    6.9080    1.3640  -57.4920 H   0  0  0  0  0  0  0  0  0  0  0  0
    7.5329    4.6670  -56.5576 H   0  0  0  0  0  0  0  0  0  0  0  0
    9.1817    4.0455  -56.1669 H   0  0  0  0  0  0  0  0  0  0  0  0
    9.3085    6.2724  -57.2756 H   0  0  0  0  0  0  0  0  0  0  0  0
   10.8688    5.6095  -59.1066 H   0  0  0  0  0  0  0  0  0  0  0  0
   11.1037    4.5732  -57.6523 H   0  0  0  0  0  0  0  0  0  0  0  0
   11.0782    3.2059  -59.7482 H   0  0  0  0  0  0  0  0  0  0  0  0
    9.6058    4.7089  -61.0858 H   0  0  0  0  0  0  0  0  0  0  0  0
    8.9491    3.0336  -61.0399 H   0  0  0  0  0  0  0  0  0  0  0  0
    7.1455    4.7159  -60.6634 H   0  0  0  0  0  0  0  0  0  0  0  0
    8.5792    6.4910  -59.6504 H   0  0  0  0  0  0  0  0  0  0  0  0
    7.1892    6.0892  -58.5805 H   0  0  0  0  0  0  0  0  0  0  0  0
    6.2871    3.7634  -58.5202 H   0  0  0  0  0  0  0  0  0  0  0  0
    7.0371    2.4850  -59.5561 H   0  0  0  0  0  0  0  0  0  0  0  0
    9.3069    1.5999  -59.0274 H   0  0  0  0  0  0  0  0  0  0  0  0
   10.2202    2.2502  -57.6136 H   0  0  0  0  0  0  0  0  0  0  0  0
    5.6425   -0.4904  -53.3235 H   0  0  0  0  0  0  0  0  0  0  0  0
  1  2  2  3
  2  3  1  0
  3  4  1  0
  4  5  1  0
  5  6  1  0
  6  7  2  0
  6  8  1  0
  9  8  1  1
  9 10  1  0
 10 11  1  0
 11 12  1  0
 12 13  1  0
 13 14  1  0
 14 15  1  0
 15 16  1  0
 15 17  1  0
 13 18  1  0
  4 19  2  0
 19 20  1  0
 20  2  1  0
 17  9  1  0
 18  9  1  0
 16 11  1  0
  1 21  1  0
  3 22  1  0
  5 23  1  0
  8 24  1  0
 10 25  1  0
 10 26  1  0
 11 27  1  1
 12 28  1  0
 12 29  1  0
 13 30  1  6
 14 31  1  0
 14 32  1  0
 15 33  1  6
 16 34  1  0
 16 35  1  0
 17 36  1  0
 17 37  1  0
 18 38  1  0
 18 39  1  0
 19 40  1  0
M  END
>  <meeko>  (138) 
{"is_sidechain": false}

$$$$

     RDKit          3D

 62 66  0  0  0  0  0  0  0  0999 V2000
    4.7490    1.7150  -60.9300 C   0  0  0  0  0  0  0  0  0  0  0  0
    5.2050    1.5020  -59.4990 C   0  0  0  0  0  0  0  0  0  0  0  0
    6.6290    1.6620  -59.4070 O   0  0  0  0  0  0  0  0  0  0  0  0
    7.0770    2.9310  -59.1760 C   0  0  0  0  0  0  0  0  0  0  0  0
    6.8060    3.9030  -59.8710 O   0  0  0  0  0  0  0  0  0  0  0  0
    8.0250    2.9550  -57.9510 C   0  0  1  0  0  0  0  0  0  0  0  0
    8.3010    1.6970  -57.3480 O   0  0  0  0  0  0  0  0  0  0  0  0
    8.7940    1.6700  -56.0690 C   0  0  0  0  0  0  0  0  0  0  0  0
    8.5230    0.4010  -55.3210 C   0  0  0  0  0  0  0  0  0  0  0  0
    8.7110    0.2420  -54.0600 N   0  0  0  0  0  0  0  0  0  0  0  0
    8.3980   -1.0640  -53.4610 C   0  0  2  0  0  0  0  0  0  0  0  0
    7.3480   -1.8380  -54.2870 C   0  0  0  0  0  0  0  0  0  0  0  0
    6.9900   -3.1590  -53.5830 C   0  0  1  0  0  0  0  0  0  0  0  0
    8.2660   -4.0060  -53.4160 C   0  0  0  0  0  0  0  0  0  0  0  0
    9.3010   -3.2480  -52.5670 C   0  0  2  0  0  0  0  0  0  0  0  0
    8.6960   -2.9410  -51.1870 C   0  0  0  0  0  0  0  0  0  0  0  0
    7.4290   -2.0850  -51.3480 C   0  0  2  0  0  0  0  0  0  0  0  0
    6.4020   -2.8520  -52.1970 C   0  0  0  0  0  0  0  0  0  0  0  0
    7.7940   -0.7740  -52.0630 C   0  0  0  0  0  0  0  0  0  0  0  0
    9.6630   -1.9270  -53.2680 C   0  0  0  0  0  0  0  0  0  0  0  0
    9.5180    2.6050  -55.4280 C   0  0  0  0  0  0  0  0  0  0  0  0
    9.8740    3.8650  -55.8410 N   0  0  0  0  0  0  0  0  0  0  0  0
    9.8020    4.4840  -57.0530 C   0  0  0  0  0  0  0  0  0  0  0  0
   10.1680    5.6510  -57.1680 O   0  0  0  0  0  0  0  0  0  0  0  0
    9.3040    3.7040  -58.2090 C   0  0  0  0  0  0  0  0  0  0  0  0
   10.0060    3.6020  -59.3550 C   0  0  0  0  0  0  0  0  0  0  0  0
   11.2590    4.2960  -59.6650 C   0  0  0  0  0  0  0  0  0  0  0  0
   12.4940    3.6710  -59.4600 C   0  0  0  0  0  0  0  0  0  0  0  0
   13.6810    4.3450  -59.7570 C   0  0  0  0  0  0  0  0  0  0  0  0
   13.6420    5.6490  -60.2560 C   0  0  0  0  0  0  0  0  0  0  0  0
   15.1490    6.4250  -60.5960 Cl  0  0  0  0  0  0  0  0  0  0  0  0
   12.4100    6.2800  -60.4580 C   0  0  0  0  0  0  0  0  0  0  0  0
   12.2840    7.8940  -61.0640 Cl  0  0  0  0  0  0  0  0  0  0  0  0
   11.2220    5.6040  -60.1600 C   0  0  0  0  0  0  0  0  0  0  0  0
    3.7524    2.1805  -60.9318 H   0  0  0  0  0  0  0  0  0  0  0  0
    5.4621    2.3732  -61.4479 H   0  0  0  0  0  0  0  0  0  0  0  0
    4.7019    0.7457  -61.4479 H   0  0  0  0  0  0  0  0  0  0  0  0
    4.7130    2.2385  -58.8467 H   0  0  0  0  0  0  0  0  0  0  0  0
    4.9355    0.4836  -59.1826 H   0  0  0  0  0  0  0  0  0  0  0  0
    7.4299    3.5088  -57.2100 H   0  0  0  0  0  0  0  0  0  0  0  0
    8.1355   -0.4557  -55.8918 H   0  0  0  0  0  0  0  0  0  0  0  0
    6.4415   -1.2236  -54.3904 H   0  0  0  0  0  0  0  0  0  0  0  0
    7.7645   -2.0609  -55.2804 H   0  0  0  0  0  0  0  0  0  0  0  0
    6.2528   -3.7115  -54.1841 H   0  0  0  0  0  0  0  0  0  0  0  0
    8.0107   -4.9528  -52.9175 H   0  0  0  0  0  0  0  0  0  0  0  0
    8.6950   -4.2073  -54.4087 H   0  0  0  0  0  0  0  0  0  0  0  0
   10.2050   -3.8632  -52.4473 H   0  0  0  0  0  0  0  0  0  0  0  0
    8.4369   -3.8846  -50.6846 H   0  0  0  0  0  0  0  0  0  0  0  0
    9.4318   -2.3880  -50.5847 H   0  0  0  0  0  0  0  0  0  0  0  0
    7.0022   -1.8651  -50.3583 H   0  0  0  0  0  0  0  0  0  0  0  0
    6.1449   -3.7955  -51.6933 H   0  0  0  0  0  0  0  0  0  0  0  0
    5.4994   -2.2348  -52.3165 H   0  0  0  0  0  0  0  0  0  0  0  0
    6.8875   -0.1621  -52.1808 H   0  0  0  0  0  0  0  0  0  0  0  0
    8.5402   -0.2369  -51.4591 H   0  0  0  0  0  0  0  0  0  0  0  0
   10.3889   -1.3756  -52.6524 H   0  0  0  0  0  0  0  0  0  0  0  0
   10.0998   -2.1502  -54.2526 H   0  0  0  0  0  0  0  0  0  0  0  0
    9.8767    2.3187  -54.4283 H   0  0  0  0  0  0  0  0  0  0  0  0
   10.1800    4.5070  -55.1140 H   0  0  0  0  0  0  0  0  0  0  0  0
    9.6004    2.9354  -60.1303 H   0  0  0  0  0  0  0  0  0  0  0  0
   12.5303    2.6455  -59.0637 H   0  0  0  0  0  0  0  0  0  0  0  0
   14.6490    3.8475  -59.5975 H   0  0  0  0  0  0  0  0  0  0  0  0
   10.2543    6.1032  -60.3156 H   0  0  0  0  0  0  0  0  0  0  0  0
  1  2  1  0
  2  3  1  0
  3  4  1  0
  4  5  2  0
  4  6  1  0
  6  7  1  0
  7  8  1  0
  8  9  1  0
  9 10  2  0
 11 10  1  6
 11 12  1  0
 12 13  1  0
 13 14  1  0
 14 15  1  0
 15 16  1  0
 16 17  1  0
 17 18  1  0
 17 19  1  0
 15 20  1  0
  8 21  2  0
 21 22  1  0
 22 23  1  0
 23 24  2  0
 23 25  1  0
 25 26  2  0
 26 27  1  0
 27 28  1  0
 28 29  2  0
 29 30  1  0
 30 31  1  0
 30 32  2  0
 32 33  1  0
 32 34  1  0
 25  6  1  0
 34 27  2  0
 19 11  1  0
 20 11  1  0
 18 13  1  0
  1 35  1  0
  1 36  1  0
  1 37  1  0
  2 38  1  0
  2 39  1  0
  6 40  1  1
  9 41  1  0
 12 42  1  0
 12 43  1  0
 13 44  1  6
 14 45  1  0
 14 46  1  0
 15 47  1  1
 16 48  1  0
 16 49  1  0
 17 50  1  1
 18 51  1  0
 18 52  1  0
 19 53  1  0
 19 54  1  0
 20 55  1  0
 20 56  1  0
 21 57  1  0
 22 58  1  0
 26 59  1  0
 28 60  1  0
 29 61  1  0
 34 62  1  0
M  END
>  <meeko>  (139) 
{"is_sidechain": false}

$$$$

     RDKit          3D

 62 66  0  0  0  0  0  0  0  0999 V2000
   10.9180    5.1570  -60.1900 C   0  0  0  0  0  0  0  0  0  0  0  0
   11.6670    3.9860  -59.5860 C   0  0  0  0  0  0  0  0  0  0  0  0
   10.8460    2.8090  -59.6090 O   0  0  0  0  0  0  0  0  0  0  0  0
   10.5290    2.2750  -58.3930 C   0  0  0  0  0  0  0  0  0  0  0  0
   11.3470    1.8500  -57.5860 O   0  0  0  0  0  0  0  0  0  0  0  0
    8.9900    2.2220  -58.2080 C   0  0  1  0  0  0  0  0  0  0  0  0
    8.5020    1.3180  -57.2240 O   0  0  0  0  0  0  0  0  0  0  0  0
    8.8770    1.5150  -55.9200 C   0  0  0  0  0  0  0  0  0  0  0  0
    8.7960    0.2960  -55.0540 C   0  0  0  0  0  0  0  0  0  0  0  0
    7.7860   -0.0130  -54.3200 N   0  0  0  0  0  0  0  0  0  0  0  0
    7.8480   -1.2460  -53.5210 C   0  0  2  0  0  0  0  0  0  0  0  0
    9.2850   -1.8070  -53.4410 C   0  0  0  0  0  0  0  0  0  0  0  0
    9.3160   -3.0490  -52.5310 C   0  0  1  0  0  0  0  0  0  0  0  0
    8.8580   -2.6550  -51.1180 C   0  0  0  0  0  0  0  0  0  0  0  0
    7.4280   -2.0960  -51.1660 C   0  0  2  0  0  0  0  0  0  0  0  0
    6.4820   -3.1690  -51.7290 C   0  0  0  0  0  0  0  0  0  0  0  0
    6.9220   -3.5680  -53.1470 C   0  0  2  0  0  0  0  0  0  0  0  0
    8.3600   -4.1150  -53.0950 C   0  0  0  0  0  0  0  0  0  0  0  0
    6.8850   -2.3270  -54.0580 C   0  0  0  0  0  0  0  0  0  0  0  0
    7.3980   -0.8660  -52.0880 C   0  0  0  0  0  0  0  0  0  0  0  0
    9.3380    2.6390  -55.3440 C   0  0  0  0  0  0  0  0  0  0  0  0
    9.4590    3.9010  -55.8720 N   0  0  0  0  0  0  0  0  0  0  0  0
    9.0130    4.4510  -57.0360 C   0  0  0  0  0  0  0  0  0  0  0  0
    9.1500    5.6570  -57.2360 O   0  0  0  0  0  0  0  0  0  0  0  0
    8.3770    3.5740  -58.0430 C   0  0  0  0  0  0  0  0  0  0  0  0
    7.3780    4.1240  -58.7620 C   0  0  0  0  0  0  0  0  0  0  0  0
    6.6360    3.4400  -59.8230 C   0  0  0  0  0  0  0  0  0  0  0  0
    7.2060    3.3250  -61.0950 C   0  0  0  0  0  0  0  0  0  0  0  0
    6.5120    2.6790  -62.1200 C   0  0  0  0  0  0  0  0  0  0  0  0
    5.2400    2.1480  -61.8840 C   0  0  0  0  0  0  0  0  0  0  0  0
    4.4420    1.3590  -63.1960 Cl  0  0  0  0  0  0  0  0  0  0  0  0
    4.6620    2.2680  -60.6150 C   0  0  0  0  0  0  0  0  0  0  0  0
    3.0970    1.6370  -60.2470 Cl  0  0  0  0  0  0  0  0  0  0  0  0
    5.3590    2.9160  -59.5890 C   0  0  0  0  0  0  0  0  0  0  0  0
   10.5141    5.7885  -59.3849 H   0  0  0  0  0  0  0  0  0  0  0  0
   11.6048    5.7502  -60.8117 H   0  0  0  0  0  0  0  0  0  0  0  0
   10.0915    4.7823  -60.8117 H   0  0  0  0  0  0  0  0  0  0  0  0
   12.5829    3.8018  -60.1666 H   0  0  0  0  0  0  0  0  0  0  0  0
   11.9254    4.2237  -58.5435 H   0  0  0  0  0  0  0  0  0  0  0  0
    8.6552    1.7960  -59.1653 H   0  0  0  0  0  0  0  0  0  0  0  0
    9.6613   -0.3831  -55.0450 H   0  0  0  0  0  0  0  0  0  0  0  0
    9.6237   -2.0860  -54.4497 H   0  0  0  0  0  0  0  0  0  0  0  0
    9.9504   -1.0370  -53.0235 H   0  0  0  0  0  0  0  0  0  0  0  0
   10.3387   -3.4520  -52.4897 H   0  0  0  0  0  0  0  0  0  0  0  0
    8.8809   -3.5415  -50.4672 H   0  0  0  0  0  0  0  0  0  0  0  0
    9.5342   -1.8834  -50.7213 H   0  0  0  0  0  0  0  0  0  0  0  0
    7.1071   -1.8121  -50.1529 H   0  0  0  0  0  0  0  0  0  0  0  0
    6.5072   -4.0548  -51.0772 H   0  0  0  0  0  0  0  0  0  0  0  0
    5.4602   -2.7636  -51.7692 H   0  0  0  0  0  0  0  0  0  0  0  0
    6.2446   -4.3390  -53.5428 H   0  0  0  0  0  0  0  0  0  0  0  0
    8.3868   -5.0049  -52.4490 H   0  0  0  0  0  0  0  0  0  0  0  0
    8.6796   -4.3797  -54.1137 H   0  0  0  0  0  0  0  0  0  0  0  0
    7.1901   -2.6132  -55.0753 H   0  0  0  0  0  0  0  0  0  0  0  0
    5.8623   -1.9224  -54.0740 H   0  0  0  0  0  0  0  0  0  0  0  0
    6.3736   -0.4670  -52.1249 H   0  0  0  0  0  0  0  0  0  0  0  0
    8.0882   -0.1078  -51.6895 H   0  0  0  0  0  0  0  0  0  0  0  0
    9.6654    2.5324  -54.2993 H   0  0  0  0  0  0  0  0  0  0  0  0
    9.8520    4.6080  -55.2550 H   0  0  0  0  0  0  0  0  0  0  0  0
    7.0996    5.1637  -58.5348 H   0  0  0  0  0  0  0  0  0  0  0  0
    8.2042    3.7448  -61.2885 H   0  0  0  0  0  0  0  0  0  0  0  0
    6.9676    2.5874  -63.1170 H   0  0  0  0  0  0  0  0  0  0  0  0
    4.9012    3.0141  -58.5936 H   0  0  0  0  0  0  0  0  0  0  0  0
  1  2  1  0
  2  3  1  0
  3  4  1  0
  4  5  2  0
  4  6  1  0
  6  7  1  0
  7  8  1  0
  8  9  1  0
  9 10  2  0
 11 10  1  6
 11 12  1  0
 12 13  1  0
 13 14  1  0
 14 15  1  0
 15 16  1  0
 16 17  1  0
 17 18  1  0
 17 19  1  0
 15 20  1  0
  8 21  2  0
 21 22  1  0
 22 23  1  0
 23 24  2  0
 23 25  1  0
 25 26  2  0
 26 27  1  0
 27 28  1  0
 28 29  2  0
 29 30  1  0
 30 31  1  0
 30 32  2  0
 32 33  1  0
 32 34  1  0
 25  6  1  0
 34 27  2  0
 19 11  1  0
 20 11  1  0
 18 13  1  0
  1 35  1  0
  1 36  1  0
  1 37  1  0
  2 38  1  0
  2 39  1  0
  6 40  1  6
  9 41  1  0
 12 42  1  0
 12 43  1  0
 13 44  1  1
 14 45  1  0
 14 46  1  0
 15 47  1  1
 16 48  1  0
 16 49  1  0
 17 50  1  6
 18 51  1  0
 18 52  1  0
 19 53  1  0
 19 54  1  0
 20 55  1  0
 20 56  1  0
 21 57  1  0
 22 58  1  0
 26 59  1  0
 28 60  1  0
 29 61  1  0
 34 62  1  0
M  END
>  <meeko>  (140) 
{"is_sidechain": false}

$$$$

     RDKit          3D

 62 66  0  0  0  0  0  0  0  0999 V2000
    6.9560   -3.7570  -50.7270 C   0  0  0  0  0  0  0  0  0  0  0  0
    6.8060   -2.8830  -51.9580 C   0  0  0  0  0  0  0  0  0  0  0  0
    7.5730   -1.6790  -51.8080 O   0  0  0  0  0  0  0  0  0  0  0  0
    7.3770   -0.7210  -52.7650 C   0  0  0  0  0  0  0  0  0  0  0  0
    7.2840    0.4760  -52.5350 O   0  0  0  0  0  0  0  0  0  0  0  0
    7.3720   -1.3840  -54.1640 C   0  0  1  0  0  0  0  0  0  0  0  0
    6.7010   -0.6720  -55.1960 O   0  0  0  0  0  0  0  0  0  0  0  0
    7.2240    0.5130  -55.6360 C   0  0  0  0  0  0  0  0  0  0  0  0
    6.3010    1.3450  -56.4600 C   0  0  0  0  0  0  0  0  0  0  0  0
    6.4810    2.2880  -57.2970 N   0  0  0  0  0  0  0  0  0  0  0  0
    7.6990    2.9640  -57.7260 C   0  0  2  0  0  0  0  0  0  0  0  0
    8.4460    3.7170  -56.6100 C   0  0  0  0  0  0  0  0  0  0  0  0
    9.6550    4.4760  -57.1890 C   0  0  1  0  0  0  0  0  0  0  0  0
   10.6000    3.4700  -57.8700 C   0  0  0  0  0  0  0  0  0  0  0  0
    9.8680    2.7450  -59.0130 C   0  0  2  0  0  0  0  0  0  0  0  0
    9.3810    3.7800  -60.0390 C   0  0  0  0  0  0  0  0  0  0  0  0
    8.4300    4.7800  -59.3620 C   0  0  2  0  0  0  0  0  0  0  0  0
    9.1690    5.5000  -58.2250 C   0  0  0  0  0  0  0  0  0  0  0  0
    7.2340    4.0150  -58.7740 C   0  0  0  0  0  0  0  0  0  0  0  0
    8.6560    1.9870  -58.4380 C   0  0  0  0  0  0  0  0  0  0  0  0
    8.4790    0.9750  -55.5290 C   0  0  0  0  0  0  0  0  0  0  0  0
    9.5800    0.3750  -54.9740 N   0  0  0  0  0  0  0  0  0  0  0  0
    9.8160   -0.9020  -54.5580 C   0  0  0  0  0  0  0  0  0  0  0  0
   10.9390   -1.2110  -54.1710 O   0  0  0  0  0  0  0  0  0  0  0  0
    8.7040   -1.8800  -54.6110 C   0  0  0  0  0  0  0  0  0  0  0  0
    8.9090   -3.1610  -54.9860 C   0  0  0  0  0  0  0  0  0  0  0  0
   10.1680   -3.7340  -55.4700 C   0  0  0  0  0  0  0  0  0  0  0  0
   11.0930   -4.2460  -54.5550 C   0  0  0  0  0  0  0  0  0  0  0  0
   12.2970   -4.7940  -55.0050 C   0  0  0  0  0  0  0  0  0  0  0  0
   12.5820   -4.8380  -56.3720 C   0  0  0  0  0  0  0  0  0  0  0  0
   14.0870   -5.5320  -56.8590 Cl  0  0  0  0  0  0  0  0  0  0  0  0
   11.6570   -4.3300  -57.2910 C   0  0  0  0  0  0  0  0  0  0  0  0
   11.9360   -4.3550  -58.9970 Cl  0  0  0  0  0  0  0  0  0  0  0  0
   10.4510   -3.7820  -56.8400 C   0  0  0  0  0  0  0  0  0  0  0  0
    6.8499   -3.1389  -49.8233 H   0  0  0  0  0  0  0  0  0  0  0  0
    6.1782   -4.5348  -50.7326 H   0  0  0  0  0  0  0  0  0  0  0  0
    7.9486   -4.2310  -50.7326 H   0  0  0  0  0  0  0  0  0  0  0  0
    7.1635   -3.4339  -52.8404 H   0  0  0  0  0  0  0  0  0  0  0  0
    5.7455   -2.6194  -52.0838 H   0  0  0  0  0  0  0  0  0  0  0  0
    6.7417   -2.2672  -53.9831 H   0  0  0  0  0  0  0  0  0  0  0  0
    5.2408    1.0907  -56.3143 H   0  0  0  0  0  0  0  0  0  0  0  0
    7.7606    4.4351  -56.1360 H   0  0  0  0  0  0  0  0  0  0  0  0
    8.8046    2.9891  -55.8673 H   0  0  0  0  0  0  0  0  0  0  0  0
   10.1866    4.9991  -56.3804 H   0  0  0  0  0  0  0  0  0  0  0  0
   11.4695    4.0065  -58.2777 H   0  0  0  0  0  0  0  0  0  0  0  0
   10.9310    2.7286  -57.1278 H   0  0  0  0  0  0  0  0  0  0  0  0
   10.5514    2.0344  -59.5009 H   0  0  0  0  0  0  0  0  0  0  0  0
   10.2461    4.3206  -60.4506 H   0  0  0  0  0  0  0  0  0  0  0  0
    8.8460    3.2629  -60.8492 H   0  0  0  0  0  0  0  0  0  0  0  0
    8.0815    5.5160  -60.1015 H   0  0  0  0  0  0  0  0  0  0  0  0
   10.0336    6.0412  -58.6367 H   0  0  0  0  0  0  0  0  0  0  0  0
    8.4837    6.2103  -57.7393 H   0  0  0  0  0  0  0  0  0  0  0  0
    6.5545    4.7304  -58.2876 H   0  0  0  0  0  0  0  0  0  0  0  0
    6.7213    3.4879  -59.5921 H   0  0  0  0  0  0  0  0  0  0  0  0
    8.1193    1.4867  -59.2576 H   0  0  0  0  0  0  0  0  0  0  0  0
    9.0129    1.2434  -57.7102 H   0  0  0  0  0  0  0  0  0  0  0  0
    8.6491    1.9785  -55.9461 H   0  0  0  0  0  0  0  0  0  0  0  0
   10.4350    0.9250  -54.9430 H   0  0  0  0  0  0  0  0  0  0  0  0
    8.0466   -3.8409  -54.9219 H   0  0  0  0  0  0  0  0  0  0  0  0
   10.8722   -4.2173  -53.4778 H   0  0  0  0  0  0  0  0  0  0  0  0
   13.0228   -5.1921  -54.2806 H   0  0  0  0  0  0  0  0  0  0  0  0
    9.7231   -3.3877  -57.5644 H   0  0  0  0  0  0  0  0  0  0  0  0
  1  2  1  0
  2  3  1  0
  3  4  1  0
  4  5  2  0
  4  6  1  0
  6  7  1  0
  7  8  1  0
  8  9  1  0
  9 10  2  0
 11 10  1  1
 11 12  1  0
 12 13  1  0
 13 14  1  0
 14 15  1  0
 15 16  1  0
 16 17  1  0
 17 18  1  0
 17 19  1  0
 15 20  1  0
  8 21  2  0
 21 22  1  0
 22 23  1  0
 23 24  2  0
 23 25  1  0
 25 26  2  0
 26 27  1  0
 27 28  1  0
 28 29  2  0
 29 30  1  0
 30 31  1  0
 30 32  2  0
 32 33  1  0
 32 34  1  0
 25  6  1  0
 34 27  2  0
 19 11  1  0
 20 11  1  0
 18 13  1  0
  1 35  1  0
  1 36  1  0
  1 37  1  0
  2 38  1  0
  2 39  1  0
  6 40  1  1
  9 41  1  0
 12 42  1  0
 12 43  1  0
 13 44  1  1
 14 45  1  0
 14 46  1  0
 15 47  1  6
 16 48  1  0
 16 49  1  0
 17 50  1  6
 18 51  1  0
 18 52  1  0
 19 53  1  0
 19 54  1  0
 20 55  1  0
 20 56  1  0
 21 57  1  0
 22 58  1  0
 26 59  1  0
 28 60  1  0
 29 61  1  0
 34 62  1  0
M  END
>  <meeko>  (141) 
{"is_sidechain": false}

$$$$

     RDKit          3D

 62 66  0  0  0  0  0  0  0  0999 V2000
   13.0560    4.6030  -57.8590 C   0  0  0  0  0  0  0  0  0  0  0  0
   12.7440    3.8680  -59.1470 C   0  0  0  0  0  0  0  0  0  0  0  0
   11.6120    3.0230  -58.9130 O   0  0  0  0  0  0  0  0  0  0  0  0
   10.4150    3.5610  -59.3000 C   0  0  0  0  0  0  0  0  0  0  0  0
   10.3030    4.5470  -60.0160 O   0  0  0  0  0  0  0  0  0  0  0  0
    9.2460    2.7470  -58.6920 C   0  0  1  0  0  0  0  0  0  0  0  0
    9.5520    1.5350  -58.0210 O   0  0  0  0  0  0  0  0  0  0  0  0
   10.2660    1.5690  -56.8580 C   0  0  0  0  0  0  0  0  0  0  0  0
   10.7400    0.2590  -56.3330 C   0  0  0  0  0  0  0  0  0  0  0  0
   10.2310   -0.5970  -55.5370 N   0  0  0  0  0  0  0  0  0  0  0  0
    8.9560   -0.5300  -54.8340 C   0  0  2  0  0  0  0  0  0  0  0  0
    7.8180    0.0480  -55.6950 C   0  0  0  0  0  0  0  0  0  0  0  0
    6.4800   -0.0270  -54.9310 C   0  0  1  0  0  0  0  0  0  0  0  0
    6.1550   -1.4960  -54.6130 C   0  0  0  0  0  0  0  0  0  0  0  0
    7.2680   -2.1000  -53.7440 C   0  0  2  0  0  0  0  0  0  0  0  0
    7.3880   -1.3080  -52.4330 C   0  0  0  0  0  0  0  0  0  0  0  0
    7.7220    0.1610  -52.7390 C   0  0  2  0  0  0  0  0  0  0  0  0
    6.5990    0.7540  -53.6100 C   0  0  0  0  0  0  0  0  0  0  0  0
    9.0600    0.2350  -53.5010 C   0  0  0  0  0  0  0  0  0  0  0  0
    8.5990   -2.0080  -54.5060 C   0  0  0  0  0  0  0  0  0  0  0  0
   10.5080    2.6000  -56.0310 C   0  0  0  0  0  0  0  0  0  0  0  0
   10.0270    3.8860  -56.0930 N   0  0  0  0  0  0  0  0  0  0  0  0
    9.0180    4.4370  -56.8250 C   0  0  0  0  0  0  0  0  0  0  0  0
    8.6730    5.5990  -56.6220 O   0  0  0  0  0  0  0  0  0  0  0  0
    8.3500    3.6060  -57.8530 C   0  0  0  0  0  0  0  0  0  0  0  0
    7.0250    3.7990  -58.0080 C   0  0  0  0  0  0  0  0  0  0  0  0
    6.1970    3.1170  -59.0030 C   0  0  0  0  0  0  0  0  0  0  0  0
    4.9610    2.5620  -58.6510 C   0  0  0  0  0  0  0  0  0  0  0  0
    4.1840    1.9140  -59.6140 C   0  0  0  0  0  0  0  0  0  0  0  0
    4.6330    1.8180  -60.9340 C   0  0  0  0  0  0  0  0  0  0  0  0
    3.6210    1.0000  -62.0700 Cl  0  0  0  0  0  0  0  0  0  0  0  0
    5.8650    2.3770  -61.2910 C   0  0  0  0  0  0  0  0  0  0  0  0
    6.4860    2.2970  -62.9010 Cl  0  0  0  0  0  0  0  0  0  0  0  0
    6.6430    3.0270  -60.3260 C   0  0  0  0  0  0  0  0  0  0  0  0
   12.7871    3.9695  -57.0009 H   0  0  0  0  0  0  0  0  0  0  0  0
   14.1304    4.8356  -57.8206 H   0  0  0  0  0  0  0  0  0  0  0  0
   12.4770    5.5375  -57.8206 H   0  0  0  0  0  0  0  0  0  0  0  0
   12.5114    4.5914  -59.9423 H   0  0  0  0  0  0  0  0  0  0  0  0
   13.6097    3.2672  -59.4627 H   0  0  0  0  0  0  0  0  0  0  0  0
    8.7209    2.4021  -59.5949 H   0  0  0  0  0  0  0  0  0  0  0  0
   11.7327   -0.0295  -56.7089 H   0  0  0  0  0  0  0  0  0  0  0  0
    8.0412    1.0982  -55.9344 H   0  0  0  0  0  0  0  0  0  0  0  0
    7.7354   -0.5394  -56.6213 H   0  0  0  0  0  0  0  0  0  0  0  0
    5.6820    0.4075  -55.5510 H   0  0  0  0  0  0  0  0  0  0  0  0
    5.1993   -1.5493  -54.0710 H   0  0  0  0  0  0  0  0  0  0  0  0
    6.0808   -2.0627  -55.5529 H   0  0  0  0  0  0  0  0  0  0  0  0
    7.0299   -3.1499  -53.5181 H   0  0  0  0  0  0  0  0  0  0  0  0
    6.4344   -1.3593  -51.8871 H   0  0  0  0  0  0  0  0  0  0  0  0
    8.1911   -1.7422  -51.8193 H   0  0  0  0  0  0  0  0  0  0  0  0
    7.8076    0.7300  -51.8015 H   0  0  0  0  0  0  0  0  0  0  0  0
    5.6457    0.6924  -53.0647 H   0  0  0  0  0  0  0  0  0  0  0  0
    6.8367    1.8042  -53.8349 H   0  0  0  0  0  0  0  0  0  0  0  0
    9.3045    1.2880  -53.7045 H   0  0  0  0  0  0  0  0  0  0  0  0
    9.8492   -0.2217  -52.8857 H   0  0  0  0  0  0  0  0  0  0  0  0
    9.3981   -2.4416  -53.8868 H   0  0  0  0  0  0  0  0  0  0  0  0
    8.4990   -2.5612  -55.4515 H   0  0  0  0  0  0  0  0  0  0  0  0
   11.1832    2.3855  -55.1895 H   0  0  0  0  0  0  0  0  0  0  0  0
   10.3710    4.5340  -55.3890 H   0  0  0  0  0  0  0  0  0  0  0  0
    6.5316    4.5199  -57.3395 H   0  0  0  0  0  0  0  0  0  0  0  0
    4.6010    2.6363  -57.6142 H   0  0  0  0  0  0  0  0  0  0  0  0
    3.2145    1.4774  -59.3322 H   0  0  0  0  0  0  0  0  0  0  0  0
    7.6096    3.4691  -60.6091 H   0  0  0  0  0  0  0  0  0  0  0  0
  1  2  1  0
  2  3  1  0
  3  4  1  0
  4  5  2  0
  4  6  1  0
  6  7  1  0
  7  8  1  0
  8  9  1  0
  9 10  2  0
 11 10  1  6
 11 12  1  0
 12 13  1  0
 13 14  1  0
 14 15  1  0
 15 16  1  0
 16 17  1  0
 17 18  1  0
 17 19  1  0
 15 20  1  0
  8 21  2  0
 21 22  1  0
 22 23  1  0
 23 24  2  0
 23 25  1  0
 25 26  2  0
 26 27  1  0
 27 28  1  0
 28 29  2  0
 29 30  1  0
 30 31  1  0
 30 32  2  0
 32 33  1  0
 32 34  1  0
 25  6  1  0
 34 27  2  0
 19 11  1  0
 20 11  1  0
 18 13  1  0
  1 35  1  0
  1 36  1  0
  1 37  1  0
  2 38  1  0
  2 39  1  0
  6 40  1  6
  9 41  1  0
 12 42  1  0
 12 43  1  0
 13 44  1  6
 14 45  1  0
 14 46  1  0
 15 47  1  1
 16 48  1  0
 16 49  1  0
 17 50  1  1
 18 51  1  0
 18 52  1  0
 19 53  1  0
 19 54  1  0
 20 55  1  0
 20 56  1  0
 21 57  1  0
 22 58  1  0
 26 59  1  0
 28 60  1  0
 29 61  1  0
 34 62  1  0
M  END
>  <meeko>  (142) 
{"is_sidechain": false}

$$$$

     RDKit          3D

 53 57  0  0  0  0  0  0  0  0999 V2000
    7.4570    3.7670  -56.5910 F   0  0  0  0  0  0  0  0  0  0  0  0
    6.5460    2.8440  -56.9720 C   0  0  0  0  0  0  0  0  0  0  0  0
    5.4990    2.9290  -56.1180 F   0  0  0  0  0  0  0  0  0  0  0  0
    6.0950    3.1880  -58.2000 F   0  0  0  0  0  0  0  0  0  0  0  0
    7.1260    1.4360  -56.9700 C   0  0  0  0  0  0  0  0  0  0  0  0
    8.1890    1.2750  -55.9560 N   0  0  0  0  0  0  0  0  0  0  0  0
    7.9730    0.2490  -55.0330 N   0  0  0  0  0  0  0  0  0  0  0  0
    9.1850   -0.3970  -54.8680 C   0  0  0  0  0  0  0  0  0  0  0  0
    9.5650   -1.3160  -54.0760 N   0  0  0  0  0  0  0  0  0  0  0  0
    8.7140   -1.9850  -53.0960 C   0  0  2  0  0  0  0  0  0  0  0  0
    7.7690   -0.9900  -52.3900 C   0  0  0  0  0  0  0  0  0  0  0  0
    6.9660   -1.7080  -51.2910 C   0  0  1  0  0  0  0  0  0  0  0  0
    6.1600   -2.8590  -51.9210 C   0  0  0  0  0  0  0  0  0  0  0  0
    7.1080   -3.8710  -52.5890 C   0  0  2  0  0  0  0  0  0  0  0  0
    8.0780   -4.4290  -51.5360 C   0  0  0  0  0  0  0  0  0  0  0  0
    8.8930   -3.2840  -50.9150 C   0  0  2  0  0  0  0  0  0  0  0  0
    7.9360   -2.2840  -50.2470 C   0  0  0  0  0  0  0  0  0  0  0  0
    9.6760   -2.5660  -52.0240 C   0  0  0  0  0  0  0  0  0  0  0  0
    7.9100   -3.1590  -53.6940 C   0  0  0  0  0  0  0  0  0  0  0  0
   10.1330    0.1210  -55.7270 N   0  0  0  0  0  0  0  0  0  0  0  0
    9.5260    1.1140  -56.3380 C   0  0  0  0  0  0  0  0  0  0  0  0
   10.2400    1.9660  -57.3170 C   0  0  0  0  0  0  0  0  0  0  0  0
   11.5060    2.4600  -56.9960 C   0  0  0  0  0  0  0  0  0  0  0  0
   12.1900    3.2700  -57.9030 C   0  0  0  0  0  0  0  0  0  0  0  0
   11.6050    3.5960  -59.1280 C   0  0  0  0  0  0  0  0  0  0  0  0
   10.3280    3.1180  -59.4590 C   0  0  0  0  0  0  0  0  0  0  0  0
    9.6730    3.4890  -60.7680 C   0  0  0  0  0  0  0  0  0  0  0  0
    9.5460    2.4410  -61.6280 F   0  0  0  0  0  0  0  0  0  0  0  0
    8.4150    3.9820  -60.5950 F   0  0  0  0  0  0  0  0  0  0  0  0
   10.3640    4.4490  -61.4400 F   0  0  0  0  0  0  0  0  0  0  0  0
    9.6430    2.3080  -58.5360 C   0  0  0  0  0  0  0  0  0  0  0  0
    6.3190    0.7201  -56.7549 H   0  0  0  0  0  0  0  0  0  0  0  0
    7.5701    1.2508  -57.9592 H   0  0  0  0  0  0  0  0  0  0  0  0
    7.5410    0.5120  -54.1530 H   0  0  0  0  0  0  0  0  0  0  0  0
    8.3637   -0.1831  -51.9370 H   0  0  0  0  0  0  0  0  0  0  0  0
    7.0705   -0.5719  -53.1298 H   0  0  0  0  0  0  0  0  0  0  0  0
    6.2815   -0.9951  -50.8081 H   0  0  0  0  0  0  0  0  0  0  0  0
    5.5801   -3.3677  -51.1369 H   0  0  0  0  0  0  0  0  0  0  0  0
    5.4822   -2.4465  -52.6828 H   0  0  0  0  0  0  0  0  0  0  0  0
    6.5244   -4.6946  -53.0262 H   0  0  0  0  0  0  0  0  0  0  0  0
    7.5056   -4.9387  -50.7469 H   0  0  0  0  0  0  0  0  0  0  0  0
    8.7640   -5.1413  -52.0177 H   0  0  0  0  0  0  0  0  0  0  0  0
    9.5898   -3.6880  -50.1658 H   0  0  0  0  0  0  0  0  0  0  0  0
    7.3627   -2.7976  -49.4612 H   0  0  0  0  0  0  0  0  0  0  0  0
    8.5210   -1.4635  -49.8058 H   0  0  0  0  0  0  0  0  0  0  0  0
   10.2581   -1.7451  -51.5800 H   0  0  0  0  0  0  0  0  0  0  0  0
   10.3441   -3.2929  -52.5090 H   0  0  0  0  0  0  0  0  0  0  0  0
    8.6037   -3.8753  -54.1585 H   0  0  0  0  0  0  0  0  0  0  0  0
    7.2122   -2.7685  -54.4494 H   0  0  0  0  0  0  0  0  0  0  0  0
   11.9642    2.2104  -56.0276 H   0  0  0  0  0  0  0  0  0  0  0  0
   13.1907    3.6520  -57.6528 H   0  0  0  0  0  0  0  0  0  0  0  0
   12.1500    4.2332  -59.8400 H   0  0  0  0  0  0  0  0  0  0  0  0
    8.6333    1.9414  -58.7730 H   0  0  0  0  0  0  0  0  0  0  0  0
  1  2  1  0
  2  3  1  0
  2  4  1  0
  2  5  1  0
  5  6  1  0
  6  7  1  0
  7  8  1  0
  8  9  2  0
 10  9  1  6
 10 11  1  0
 11 12  1  0
 12 13  1  0
 13 14  1  0
 14 15  1  0
 15 16  1  0
 16 17  1  0
 16 18  1  0
 14 19  1  0
  8 20  1  0
 20 21  2  0
 21 22  1  0
 22 23  1  0
 23 24  2  0
 24 25  1  0
 25 26  2  0
 26 27  1  0
 27 28  1  0
 27 29  1  0
 27 30  1  0
 26 31  1  0
 21  6  1  0
 31 22  2  0
 18 10  1  0
 19 10  1  0
 17 12  1  0
  5 32  1  0
  5 33  1  0
  7 34  1  0
 11 35  1  0
 11 36  1  0
 12 37  1  1
 13 38  1  0
 13 39  1  0
 14 40  1  6
 15 41  1  0
 15 42  1  0
 16 43  1  1
 17 44  1  0
 17 45  1  0
 18 46  1  0
 18 47  1  0
 19 48  1  0
 19 49  1  0
 23 50  1  0
 24 51  1  0
 25 52  1  0
 31 53  1  0
M  END
>  <meeko>  (143) 
{"is_sidechain": false}

$$$$

     RDKit          3D

 53 57  0  0  0  0  0  0  0  0999 V2000
    8.9120    0.7730  -53.0810 F   0  0  0  0  0  0  0  0  0  0  0  0
    7.9940   -0.1820  -53.3430 C   0  0  0  0  0  0  0  0  0  0  0  0
    6.7810    0.4040  -53.3820 F   0  0  0  0  0  0  0  0  0  0  0  0
    7.9930   -1.0250  -52.2800 F   0  0  0  0  0  0  0  0  0  0  0  0
    8.3160   -0.9480  -54.5960 C   0  0  0  0  0  0  0  0  0  0  0  0
    9.3210   -0.2810  -55.3830 N   0  0  0  0  0  0  0  0  0  0  0  0
    9.1440    1.0080  -55.7170 N   0  0  0  0  0  0  0  0  0  0  0  0
   10.2720    1.2870  -56.3630 C   0  0  0  0  0  0  0  0  0  0  0  0
   10.6720    2.4420  -56.9110 N   0  0  0  0  0  0  0  0  0  0  0  0
    9.9810    3.1340  -57.9940 C   0  0  2  0  0  0  0  0  0  0  0  0
    9.7510    2.2160  -59.2180 C   0  0  0  0  0  0  0  0  0  0  0  0
    9.0820    3.0030  -60.3600 C   0  0  1  0  0  0  0  0  0  0  0  0
    7.7400    3.5700  -59.8660 C   0  0  0  0  0  0  0  0  0  0  0  0
    7.9690    4.5160  -58.6740 C   0  0  2  0  0  0  0  0  0  0  0  0
    8.8940    5.6640  -59.1090 C   0  0  0  0  0  0  0  0  0  0  0  0
   10.2390    5.1010  -59.5940 C   0  0  2  0  0  0  0  0  0  0  0  0
    9.9980    4.1610  -60.7840 C   0  0  0  0  0  0  0  0  0  0  0  0
   10.8930    4.3080  -58.4520 C   0  0  0  0  0  0  0  0  0  0  0  0
    8.6340    3.7340  -57.5270 C   0  0  0  0  0  0  0  0  0  0  0  0
   11.1340    0.2380  -56.4650 N   0  0  0  0  0  0  0  0  0  0  0  0
   10.5050   -0.7630  -55.8810 C   0  0  0  0  0  0  0  0  0  0  0  0
   11.0130   -2.1230  -55.7490 C   0  0  0  0  0  0  0  0  0  0  0  0
   11.0440   -2.7710  -54.5080 C   0  0  0  0  0  0  0  0  0  0  0  0
   11.5300   -4.0760  -54.4060 C   0  0  0  0  0  0  0  0  0  0  0  0
   11.9800   -4.7450  -55.5440 C   0  0  0  0  0  0  0  0  0  0  0  0
   11.9460   -4.1190  -56.7990 C   0  0  0  0  0  0  0  0  0  0  0  0
   12.3950   -4.8570  -58.0370 C   0  0  0  0  0  0  0  0  0  0  0  0
   13.7370   -4.7550  -58.2570 F   0  0  0  0  0  0  0  0  0  0  0  0
   12.1270   -6.1890  -57.9730 F   0  0  0  0  0  0  0  0  0  0  0  0
   11.8000   -4.4060  -59.1750 F   0  0  0  0  0  0  0  0  0  0  0  0
   11.4460   -2.8110  -56.8900 C   0  0  0  0  0  0  0  0  0  0  0  0
    8.6846   -1.9467  -54.3188 H   0  0  0  0  0  0  0  0  0  0  0  0
    7.3992   -1.0205  -55.1995 H   0  0  0  0  0  0  0  0  0  0  0  0
   11.1670    3.0420  -56.2610 H   0  0  0  0  0  0  0  0  0  0  0  0
   10.7189    1.8254  -59.5653 H   0  0  0  0  0  0  0  0  0  0  0  0
    9.0926    1.3856  -58.9230 H   0  0  0  0  0  0  0  0  0  0  0  0
    8.9093    2.3365  -61.2178 H   0  0  0  0  0  0  0  0  0  0  0  0
    7.2575    4.1258  -60.6835 H   0  0  0  0  0  0  0  0  0  0  0  0
    7.0953    2.7384  -59.5454 H   0  0  0  0  0  0  0  0  0  0  0  0
    7.0061    4.9250  -58.3341 H   0  0  0  0  0  0  0  0  0  0  0  0
    8.4181    6.2253  -59.9266 H   0  0  0  0  0  0  0  0  0  0  0  0
    9.0699    6.3303  -58.2516 H   0  0  0  0  0  0  0  0  0  0  0  0
   10.8968    5.9272  -59.9019 H   0  0  0  0  0  0  0  0  0  0  0  0
    9.5214    4.7223  -61.6012 H   0  0  0  0  0  0  0  0  0  0  0  0
   10.9616    3.7539  -61.1242 H   0  0  0  0  0  0  0  0  0  0  0  0
   11.8540    3.9019  -58.8005 H   0  0  0  0  0  0  0  0  0  0  0  0
   11.0470    4.9851  -57.5989 H   0  0  0  0  0  0  0  0  0  0  0  0
    8.8138    4.4139  -56.6812 H   0  0  0  0  0  0  0  0  0  0  0  0
    7.9665    2.9158  -57.2187 H   0  0  0  0  0  0  0  0  0  0  0  0
   10.6837   -2.2494  -53.6091 H   0  0  0  0  0  0  0  0  0  0  0  0
   11.5580   -4.5769  -53.4271 H   0  0  0  0  0  0  0  0  0  0  0  0
   12.3647   -5.7718  -55.4568 H   0  0  0  0  0  0  0  0  0  0  0  0
   11.3932   -2.3184  -57.8721 H   0  0  0  0  0  0  0  0  0  0  0  0
  1  2  1  0
  2  3  1  0
  2  4  1  0
  2  5  1  0
  5  6  1  0
  6  7  1  0
  7  8  2  0
  8  9  1  0
 10  9  1  1
 10 11  1  0
 11 12  1  0
 12 13  1  0
 13 14  1  0
 14 15  1  0
 15 16  1  0
 16 17  1  0
 16 18  1  0
 14 19  1  0
  8 20  1  0
 20 21  2  0
 21 22  1  0
 22 23  1  0
 23 24  2  0
 24 25  1  0
 25 26  2  0
 26 27  1  0
 27 28  1  0
 27 29  1  0
 27 30  1  0
 26 31  1  0
 21  6  1  0
 31 22  2  0
 18 10  1  0
 19 10  1  0
 17 12  1  0
  5 32  1  0
  5 33  1  0
  9 34  1  0
 11 35  1  0
 11 36  1  0
 12 37  1  6
 13 38  1  0
 13 39  1  0
 14 40  1  1
 15 41  1  0
 15 42  1  0
 16 43  1  6
 17 44  1  0
 17 45  1  0
 18 46  1  0
 18 47  1  0
 19 48  1  0
 19 49  1  0
 23 50  1  0
 24 51  1  0
 25 52  1  0
 31 53  1  0
M  END
>  <meeko>  (144) 
{"is_sidechain": false}

$$$$

     RDKit          3D

 53 57  0  0  0  0  0  0  0  0999 V2000
    6.4030   -1.9390  -52.4110 F   0  0  0  0  0  0  0  0  0  0  0  0
    6.4290   -0.9110  -53.2850 C   0  0  0  0  0  0  0  0  0  0  0  0
    5.2790   -0.2120  -53.1070 F   0  0  0  0  0  0  0  0  0  0  0  0
    6.3890   -1.4170  -54.5370 F   0  0  0  0  0  0  0  0  0  0  0  0
    7.6270    0.0130  -53.0720 C   0  0  0  0  0  0  0  0  0  0  0  0
    8.9090   -0.4770  -53.6170 N   0  0  0  0  0  0  0  0  0  0  0  0
    9.2430   -1.7890  -53.3080 N   0  0  0  0  0  0  0  0  0  0  0  0
    9.8670   -2.3060  -54.4260 C   0  0  0  0  0  0  0  0  0  0  0  0
   10.4920   -3.4200  -54.4440 N   0  0  0  0  0  0  0  0  0  0  0  0
   11.1730   -3.9440  -55.6320 C   0  0  2  0  0  0  0  0  0  0  0  0
   11.8430   -2.8310  -56.4680 C   0  0  0  0  0  0  0  0  0  0  0  0
   12.6280   -3.4470  -57.6400 C   0  0  1  0  0  0  0  0  0  0  0  0
   13.7290   -4.3670  -57.0870 C   0  0  0  0  0  0  0  0  0  0  0  0
   13.1000   -5.4910  -56.2500 C   0  0  2  0  0  0  0  0  0  0  0  0
   12.1500   -6.3130  -57.1360 C   0  0  0  0  0  0  0  0  0  0  0  0
   11.0370   -5.4100  -57.6890 C   0  0  2  0  0  0  0  0  0  0  0  0
   11.6690   -4.2740  -58.5150 C   0  0  0  0  0  0  0  0  0  0  0  0
   10.2430   -4.8030  -56.5170 C   0  0  0  0  0  0  0  0  0  0  0  0
   12.2990   -4.8710  -55.0950 C   0  0  0  0  0  0  0  0  0  0  0  0
    9.7910   -1.4270  -55.4840 N   0  0  0  0  0  0  0  0  0  0  0  0
    9.2430   -0.3460  -54.9720 C   0  0  0  0  0  0  0  0  0  0  0  0
    9.0410    0.8690  -55.7910 C   0  0  0  0  0  0  0  0  0  0  0  0
    7.7390    1.3110  -56.0450 C   0  0  0  0  0  0  0  0  0  0  0  0
    7.5300    2.4500  -56.8220 C   0  0  0  0  0  0  0  0  0  0  0  0
    8.6190    3.1430  -57.3540 C   0  0  0  0  0  0  0  0  0  0  0  0
    9.9310    2.7030  -57.1160 C   0  0  0  0  0  0  0  0  0  0  0  0
   11.1090    3.4270  -57.7210 C   0  0  0  0  0  0  0  0  0  0  0  0
   11.1740    3.2750  -59.0710 F   0  0  0  0  0  0  0  0  0  0  0  0
   11.0960    4.7680  -57.4890 F   0  0  0  0  0  0  0  0  0  0  0  0
   12.3010    2.9770  -57.2350 F   0  0  0  0  0  0  0  0  0  0  0  0
   10.1320    1.5500  -56.3390 C   0  0  0  0  0  0  0  0  0  0  0  0
    7.4012    0.9774  -53.5505 H   0  0  0  0  0  0  0  0  0  0  0  0
    7.7669    0.0821  -51.9831 H   0  0  0  0  0  0  0  0  0  0  0  0
    9.7760   -1.9820  -52.4650 H   0  0  0  0  0  0  0  0  0  0  0  0
   11.0685   -2.1573  -56.8634 H   0  0  0  0  0  0  0  0  0  0  0  0
   12.5375   -2.2687  -55.8266 H   0  0  0  0  0  0  0  0  0  0  0  0
   13.0822   -2.6461  -58.2418 H   0  0  0  0  0  0  0  0  0  0  0  0
   14.2914   -4.8066  -57.9240 H   0  0  0  0  0  0  0  0  0  0  0  0
   14.4071   -3.7785  -56.4515 H   0  0  0  0  0  0  0  0  0  0  0  0
   13.8911   -6.1420  -55.8496 H   0  0  0  0  0  0  0  0  0  0  0  0
   12.7165   -6.7475  -57.9728 H   0  0  0  0  0  0  0  0  0  0  0  0
   11.6990   -7.1163  -56.5349 H   0  0  0  0  0  0  0  0  0  0  0  0
   10.3628   -6.0020  -58.3254 H   0  0  0  0  0  0  0  0  0  0  0  0
   12.2283   -4.7061  -59.3579 H   0  0  0  0  0  0  0  0  0  0  0  0
   10.8703   -3.6171  -58.8899 H   0  0  0  0  0  0  0  0  0  0  0  0
    9.4342   -4.1720  -56.9140 H   0  0  0  0  0  0  0  0  0  0  0  0
    9.8201   -5.6169  -55.9098 H   0  0  0  0  0  0  0  0  0  0  0  0
   11.8472   -5.6766  -54.4975 H   0  0  0  0  0  0  0  0  0  0  0  0
   12.9828   -4.2700  -54.4776 H   0  0  0  0  0  0  0  0  0  0  0  0
    6.8805    0.7609  -55.6324 H   0  0  0  0  0  0  0  0  0  0  0  0
    6.5063    2.8027  -57.0159 H   0  0  0  0  0  0  0  0  0  0  0  0
    8.4477    4.0416  -57.9649 H   0  0  0  0  0  0  0  0  0  0  0  0
   11.1529    1.1812  -56.1609 H   0  0  0  0  0  0  0  0  0  0  0  0
  1  2  1  0
  2  3  1  0
  2  4  1  0
  2  5  1  0
  5  6  1  0
  6  7  1  0
  7  8  1  0
  8  9  2  0
 10  9  1  1
 10 11  1  0
 11 12  1  0
 12 13  1  0
 13 14  1  0
 14 15  1  0
 15 16  1  0
 16 17  1  0
 16 18  1  0
 14 19  1  0
  8 20  1  0
 20 21  2  0
 21 22  1  0
 22 23  1  0
 23 24  2  0
 24 25  1  0
 25 26  2  0
 26 27  1  0
 27 28  1  0
 27 29  1  0
 27 30  1  0
 26 31  1  0
 21  6  1  0
 31 22  2  0
 18 10  1  0
 19 10  1  0
 17 12  1  0
  5 32  1  0
  5 33  1  0
  7 34  1  0
 11 35  1  0
 11 36  1  0
 12 37  1  6
 13 38  1  0
 13 39  1  0
 14 40  1  1
 15 41  1  0
 15 42  1  0
 16 43  1  6
 17 44  1  0
 17 45  1  0
 18 46  1  0
 18 47  1  0
 19 48  1  0
 19 49  1  0
 23 50  1  0
 24 51  1  0
 25 52  1  0
 31 53  1  0
M  END
>  <meeko>  (145) 
{"is_sidechain": false}

$$$$

     RDKit          3D

 50 54  0  0  0  0  0  0  0  0999 V2000
    5.8640    0.6870  -55.3080 C   0  0  0  0  0  0  0  0  0  0  0  0
    7.2510    0.6550  -55.7010 N   0  0  0  0  0  0  0  0  0  0  0  0
    7.7300    1.6160  -56.5690 N   0  0  0  0  0  0  0  0  0  0  0  0
    9.1050    1.6080  -56.4160 C   0  0  0  0  0  0  0  0  0  0  0  0
   10.0460    2.1590  -57.0730 N   0  0  0  0  0  0  0  0  0  0  0  0
    9.8640    3.0420  -58.2200 C   0  0  2  0  0  0  0  0  0  0  0  0
    9.3190    4.3790  -57.6430 C   0  0  0  0  0  0  0  0  0  0  0  0
    9.1030    5.4110  -58.7610 C   0  0  1  0  0  0  0  0  0  0  0  0
   10.4430    5.6740  -59.4680 C   0  0  0  0  0  0  0  0  0  0  0  0
   10.9890    4.3640  -60.0580 C   0  0  2  0  0  0  0  0  0  0  0  0
    9.9700    3.7980  -61.0630 C   0  0  0  0  0  0  0  0  0  0  0  0
    8.6220    3.5350  -60.3670 C   0  0  2  0  0  0  0  0  0  0  0  0
    8.0940    4.8510  -59.7740 C   0  0  0  0  0  0  0  0  0  0  0  0
    8.8290    2.5130  -59.2340 C   0  0  0  0  0  0  0  0  0  0  0  0
   11.2030    3.3460  -58.9230 C   0  0  0  0  0  0  0  0  0  0  0  0
    9.4750    0.7980  -55.3570 N   0  0  0  0  0  0  0  0  0  0  0  0
    8.3450    0.2690  -54.9330 C   0  0  0  0  0  0  0  0  0  0  0  0
    8.3340   -0.6560  -53.7810 C   0  0  0  0  0  0  0  0  0  0  0  0
    9.3300   -1.6360  -53.7150 C   0  0  0  0  0  0  0  0  0  0  0  0
    9.3650   -2.5300  -52.6420 C   0  0  0  0  0  0  0  0  0  0  0  0
    8.4170   -2.4420  -51.6110 C   0  0  0  0  0  0  0  0  0  0  0  0
    8.4390   -3.4180  -50.4590 C   0  0  0  0  0  0  0  0  0  0  0  0
    9.7010   -3.7250  -50.0480 F   0  0  0  0  0  0  0  0  0  0  0  0
    7.7970   -2.9320  -49.3620 F   0  0  0  0  0  0  0  0  0  0  0  0
    7.8420   -4.6080  -50.7480 F   0  0  0  0  0  0  0  0  0  0  0  0
    7.4310   -1.4440  -51.6810 C   0  0  0  0  0  0  0  0  0  0  0  0
    7.3940   -0.5500  -52.7550 C   0  0  0  0  0  0  0  0  0  0  0  0
    5.7939    0.6886  -54.2102 H   0  0  0  0  0  0  0  0  0  0  0  0
    5.3907    1.5963  -55.7070 H   0  0  0  0  0  0  0  0  0  0  0  0
    5.3493   -0.1995  -55.7070 H   0  0  0  0  0  0  0  0  0  0  0  0
    7.4410    1.5410  -57.5360 H   0  0  0  0  0  0  0  0  0  0  0  0
    8.3604    4.1892  -57.1380 H   0  0  0  0  0  0  0  0  0  0  0  0
   10.0552    4.7807  -56.9313 H   0  0  0  0  0  0  0  0  0  0  0  0
    8.7180    6.3496  -58.3358 H   0  0  0  0  0  0  0  0  0  0  0  0
   10.2914    6.4033  -60.2774 H   0  0  0  0  0  0  0  0  0  0  0  0
   11.1649    6.0718  -58.7396 H   0  0  0  0  0  0  0  0  0  0  0  0
   11.9448    4.5562  -60.5674 H   0  0  0  0  0  0  0  0  0  0  0  0
    9.8226    4.5227  -61.8773 H   0  0  0  0  0  0  0  0  0  0  0  0
   10.3548    2.8500  -61.4671 H   0  0  0  0  0  0  0  0  0  0  0  0
    7.8978    3.1401  -61.0947 H   0  0  0  0  0  0  0  0  0  0  0  0
    7.9457    5.5817  -60.5828 H   0  0  0  0  0  0  0  0  0  0  0  0
    7.1379    4.6603  -59.2645 H   0  0  0  0  0  0  0  0  0  0  0  0
    7.8717    2.3419  -58.7199 H   0  0  0  0  0  0  0  0  0  0  0  0
    9.1985    1.5706  -59.6646 H   0  0  0  0  0  0  0  0  0  0  0  0
   11.6127    2.4152  -59.3423 H   0  0  0  0  0  0  0  0  0  0  0  0
   11.9054    3.7688  -58.1896 H   0  0  0  0  0  0  0  0  0  0  0  0
   10.0875   -1.7029  -54.5098 H   0  0  0  0  0  0  0  0  0  0  0  0
   10.1412   -3.3085  -52.6050 H   0  0  0  0  0  0  0  0  0  0  0  0
    6.6795   -1.3651  -50.8816 H   0  0  0  0  0  0  0  0  0  0  0  0
    6.6251    0.2358  -52.7914 H   0  0  0  0  0  0  0  0  0  0  0  0
  1  2  1  0
  2  3  1  0
  3  4  1  0
  4  5  2  0
  6  5  1  1
  6  7  1  0
  7  8  1  0
  8  9  1  0
  9 10  1  0
 10 11  1  0
 11 12  1  0
 12 13  1  0
 12 14  1  0
 10 15  1  0
  4 16  1  0
 16 17  2  0
 17 18  1  0
 18 19  1  0
 19 20  2  0
 20 21  1  0
 21 22  1  0
 22 23  1  0
 22 24  1  0
 22 25  1  0
 21 26  2  0
 26 27  1  0
 17  2  1  0
 27 18  2  0
 14  6  1  0
 15  6  1  0
 13  8  1  0
  1 28  1  0
  1 29  1  0
  1 30  1  0
  3 31  1  0
  7 32  1  0
  7 33  1  0
  8 34  1  1
  9 35  1  0
  9 36  1  0
 10 37  1  6
 11 38  1  0
 11 39  1  0
 12 40  1  6
 13 41  1  0
 13 42  1  0
 14 43  1  0
 14 44  1  0
 15 45  1  0
 15 46  1  0
 19 47  1  0
 20 48  1  0
 26 49  1  0
 27 50  1  0
M  END
>  <meeko>  (146) 
{"is_sidechain": false}

$$$$

     RDKit          3D

 50 54  0  0  0  0  0  0  0  0999 V2000
    5.9900    0.5650  -55.2580 C   0  0  0  0  0  0  0  0  0  0  0  0
    7.3960    0.7170  -55.5260 N   0  0  0  0  0  0  0  0  0  0  0  0
    7.7920    1.5160  -56.5290 N   0  0  0  0  0  0  0  0  0  0  0  0
    9.1150    1.4800  -56.4050 C   0  0  0  0  0  0  0  0  0  0  0  0
   10.0530    2.0990  -57.1340 N   0  0  0  0  0  0  0  0  0  0  0  0
    9.7880    3.0630  -58.1940 C   0  0  2  0  0  0  0  0  0  0  0  0
    9.2730    4.4100  -57.6330 C   0  0  0  0  0  0  0  0  0  0  0  0
    9.0720    5.4240  -58.7730 C   0  0  1  0  0  0  0  0  0  0  0  0
   10.4160    5.6690  -59.4770 C   0  0  0  0  0  0  0  0  0  0  0  0
   10.9500    4.3520  -60.0610 C   0  0  2  0  0  0  0  0  0  0  0  0
    9.9370    3.7960  -61.0740 C   0  0  0  0  0  0  0  0  0  0  0  0
    8.5910    3.5380  -60.3790 C   0  0  2  0  0  0  0  0  0  0  0  0
    8.0630    4.8560  -59.7860 C   0  0  0  0  0  0  0  0  0  0  0  0
    8.7900    2.5170  -59.2440 C   0  0  0  0  0  0  0  0  0  0  0  0
   11.1340    3.3350  -58.9240 C   0  0  0  0  0  0  0  0  0  0  0  0
    9.5640    0.7090  -55.3750 N   0  0  0  0  0  0  0  0  0  0  0  0
    8.4670    0.1960  -54.8470 C   0  0  0  0  0  0  0  0  0  0  0  0
    8.4200   -0.7210  -53.7090 C   0  0  0  0  0  0  0  0  0  0  0  0
    9.3510   -1.7630  -53.6320 C   0  0  0  0  0  0  0  0  0  0  0  0
    9.3340   -2.6610  -52.5600 C   0  0  0  0  0  0  0  0  0  0  0  0
    8.3680   -2.5450  -51.5500 C   0  0  0  0  0  0  0  0  0  0  0  0
    8.3570   -3.5000  -50.3820 C   0  0  0  0  0  0  0  0  0  0  0  0
    9.5940   -3.7300  -49.8610 F   0  0  0  0  0  0  0  0  0  0  0  0
    7.8530   -4.7250  -50.7000 F   0  0  0  0  0  0  0  0  0  0  0  0
    7.5950   -3.0400  -49.3500 F   0  0  0  0  0  0  0  0  0  0  0  0
    7.4280   -1.5070  -51.6340 C   0  0  0  0  0  0  0  0  0  0  0  0
    7.4490   -0.6090  -52.7060 C   0  0  0  0  0  0  0  0  0  0  0  0
    5.8238    0.5470  -54.1708 H   0  0  0  0  0  0  0  0  0  0  0  0
    5.4393    1.4088  -55.6992 H   0  0  0  0  0  0  0  0  0  0  0  0
    5.6324   -0.3770  -55.6992 H   0  0  0  0  0  0  0  0  0  0  0  0
   10.9330    2.2180  -56.6450 H   0  0  0  0  0  0  0  0  0  0  0  0
    8.3137    4.2461  -57.1203 H   0  0  0  0  0  0  0  0  0  0  0  0
   10.0155    4.8097  -56.9266 H   0  0  0  0  0  0  0  0  0  0  0  0
    8.6912    6.3712  -58.3633 H   0  0  0  0  0  0  0  0  0  0  0  0
   10.2745    6.3970  -60.2894 H   0  0  0  0  0  0  0  0  0  0  0  0
   11.1401    6.0608  -58.7475 H   0  0  0  0  0  0  0  0  0  0  0  0
   11.9128    4.5328  -60.5613 H   0  0  0  0  0  0  0  0  0  0  0  0
    9.7948    4.5250  -61.8854 H   0  0  0  0  0  0  0  0  0  0  0  0
   10.3189    2.8505  -61.4866 H   0  0  0  0  0  0  0  0  0  0  0  0
    7.8693    3.1441  -61.1098 H   0  0  0  0  0  0  0  0  0  0  0  0
    7.9122    5.5845  -60.5963 H   0  0  0  0  0  0  0  0  0  0  0  0
    7.1093    4.6625  -59.2731 H   0  0  0  0  0  0  0  0  0  0  0  0
    7.8226    2.3229  -58.7577 H   0  0  0  0  0  0  0  0  0  0  0  0
    9.1937    1.5861  -59.6689 H   0  0  0  0  0  0  0  0  0  0  0  0
   11.5124    2.3912  -59.3437 H   0  0  0  0  0  0  0  0  0  0  0  0
   11.8487    3.7485  -58.1972 H   0  0  0  0  0  0  0  0  0  0  0  0
   10.1054   -1.8771  -54.4244 H   0  0  0  0  0  0  0  0  0  0  0  0
   10.0838   -3.4642  -52.5087 H   0  0  0  0  0  0  0  0  0  0  0  0
    6.6661   -1.3982  -50.8481 H   0  0  0  0  0  0  0  0  0  0  0  0
    6.6968    0.1917  -52.7618 H   0  0  0  0  0  0  0  0  0  0  0  0
  1  2  1  0
  2  3  1  0
  3  4  2  0
  4  5  1  0
  6  5  1  1
  6  7  1  0
  7  8  1  0
  8  9  1  0
  9 10  1  0
 10 11  1  0
 11 12  1  0
 12 13  1  0
 12 14  1  0
 10 15  1  0
  4 16  1  0
 16 17  2  0
 17 18  1  0
 18 19  1  0
 19 20  2  0
 20 21  1  0
 21 22  1  0
 22 23  1  0
 22 24  1  0
 22 25  1  0
 21 26  2  0
 26 27  1  0
 17  2  1  0
 27 18  2  0
 14  6  1  0
 15  6  1  0
 13  8  1  0
  1 28  1  0
  1 29  1  0
  1 30  1  0
  5 31  1  0
  7 32  1  0
  7 33  1  0
  8 34  1  1
  9 35  1  0
  9 36  1  0
 10 37  1  6
 11 38  1  0
 11 39  1  0
 12 40  1  6
 13 41  1  0
 13 42  1  0
 14 43  1  0
 14 44  1  0
 15 45  1  0
 15 46  1  0
 19 47  1  0
 20 48  1  0
 26 49  1  0
 27 50  1  0
M  END
>  <meeko>  (147) 
{"is_sidechain": false}

$$$$

     RDKit          3D

 50 54  0  0  0  0  0  0  0  0999 V2000
    8.3000   -1.6750  -53.6540 C   0  0  0  0  0  0  0  0  0  0  0  0
    9.2380   -0.6650  -54.1350 N   0  0  0  0  0  0  0  0  0  0  0  0
    8.6980    0.6070  -54.2910 N   0  0  0  0  0  0  0  0  0  0  0  0
    9.2480    1.1290  -55.4420 C   0  0  0  0  0  0  0  0  0  0  0  0
    9.1500    2.3560  -55.7900 N   0  0  0  0  0  0  0  0  0  0  0  0
    9.7640    2.9020  -57.0030 C   0  0  2  0  0  0  0  0  0  0  0  0
    9.0980    2.3770  -58.2930 C   0  0  0  0  0  0  0  0  0  0  0  0
    9.7150    3.0630  -59.5260 C   0  0  1  0  0  0  0  0  0  0  0  0
    9.4720    4.5780  -59.4390 C   0  0  0  0  0  0  0  0  0  0  0  0
   10.1240    5.1400  -58.1660 C   0  0  2  0  0  0  0  0  0  0  0  0
   11.6360    4.8710  -58.2080 C   0  0  0  0  0  0  0  0  0  0  0  0
   11.8960    3.3580  -58.2860 C   0  0  2  0  0  0  0  0  0  0  0  0
   11.2300    2.7930  -59.5530 C   0  0  0  0  0  0  0  0  0  0  0  0
   11.2910    2.6740  -57.0460 C   0  0  0  0  0  0  0  0  0  0  0  0
    9.5210    4.4360  -56.9400 C   0  0  0  0  0  0  0  0  0  0  0  0
    9.9730    0.1760  -56.1220 N   0  0  0  0  0  0  0  0  0  0  0  0
    9.9650   -0.8680  -55.3170 C   0  0  0  0  0  0  0  0  0  0  0  0
   10.6770   -2.1140  -55.6770 C   0  0  0  0  0  0  0  0  0  0  0  0
   10.4660   -3.2650  -54.9130 C   0  0  0  0  0  0  0  0  0  0  0  0
   11.1190   -4.4540  -55.2430 C   0  0  0  0  0  0  0  0  0  0  0  0
   11.9860   -4.5090  -56.3470 C   0  0  0  0  0  0  0  0  0  0  0  0
   12.6730   -5.8000  -56.7220 C   0  0  0  0  0  0  0  0  0  0  0  0
   13.1660   -5.7760  -57.9900 F   0  0  0  0  0  0  0  0  0  0  0  0
   13.7330   -6.0900  -55.9140 F   0  0  0  0  0  0  0  0  0  0  0  0
   11.8500   -6.8840  -56.6580 F   0  0  0  0  0  0  0  0  0  0  0  0
   12.1680   -3.3530  -57.1250 C   0  0  0  0  0  0  0  0  0  0  0  0
   11.5150   -2.1620  -56.7940 C   0  0  0  0  0  0  0  0  0  0  0  0
    8.2969   -1.6783  -52.5540 H   0  0  0  0  0  0  0  0  0  0  0  0
    7.2900   -1.4427  -54.0228 H   0  0  0  0  0  0  0  0  0  0  0  0
    8.6063   -2.6651  -54.0228 H   0  0  0  0  0  0  0  0  0  0  0  0
    8.7530    1.2580  -53.5150 H   0  0  0  0  0  0  0  0  0  0  0  0
    9.2531    1.2904  -58.3659 H   0  0  0  0  0  0  0  0  0  0  0  0
    8.0216    2.6008  -58.2584 H   0  0  0  0  0  0  0  0  0  0  0  0
    9.2514    2.6654  -60.4409 H   0  0  0  0  0  0  0  0  0  0  0  0
    9.9102    5.0689  -60.3205 H   0  0  0  0  0  0  0  0  0  0  0  0
    8.3894    4.7699  -59.4064 H   0  0  0  0  0  0  0  0  0  0  0  0
    9.9423    6.2231  -58.1030 H   0  0  0  0  0  0  0  0  0  0  0  0
   12.0694    5.3616  -59.0920 H   0  0  0  0  0  0  0  0  0  0  0  0
   12.1007    5.2718  -57.2951 H   0  0  0  0  0  0  0  0  0  0  0  0
   12.9792    3.1697  -58.3215 H   0  0  0  0  0  0  0  0  0  0  0  0
   11.6687    3.2749  -60.4392 H   0  0  0  0  0  0  0  0  0  0  0  0
   11.3992    1.7068  -59.5921 H   0  0  0  0  0  0  0  0  0  0  0  0
   11.4961    1.5942  -57.0903 H   0  0  0  0  0  0  0  0  0  0  0  0
   11.7440    3.1054  -56.1412 H   0  0  0  0  0  0  0  0  0  0  0  0
    9.9886    4.8371  -56.0287 H   0  0  0  0  0  0  0  0  0  0  0  0
    8.4364    4.6188  -56.9291 H   0  0  0  0  0  0  0  0  0  0  0  0
    9.7843   -3.2341  -54.0502 H   0  0  0  0  0  0  0  0  0  0  0  0
   10.9533   -5.3548  -54.6338 H   0  0  0  0  0  0  0  0  0  0  0  0
   12.8304   -3.3855  -58.0026 H   0  0  0  0  0  0  0  0  0  0  0  0
   11.6607   -1.2639  -57.4121 H   0  0  0  0  0  0  0  0  0  0  0  0
  1  2  1  0
  2  3  1  0
  3  4  1  0
  4  5  2  0
  6  5  1  1
  6  7  1  0
  7  8  1  0
  8  9  1  0
  9 10  1  0
 10 11  1  0
 11 12  1  0
 12 13  1  0
 12 14  1  0
 10 15  1  0
  4 16  1  0
 16 17  2  0
 17 18  1  0
 18 19  1  0
 19 20  2  0
 20 21  1  0
 21 22  1  0
 22 23  1  0
 22 24  1  0
 22 25  1  0
 21 26  2  0
 26 27  1  0
 17  2  1  0
 27 18  2  0
 14  6  1  0
 15  6  1  0
 13  8  1  0
  1 28  1  0
  1 29  1  0
  1 30  1  0
  3 31  1  0
  7 32  1  0
  7 33  1  0
  8 34  1  6
  9 35  1  0
  9 36  1  0
 10 37  1  1
 11 38  1  0
 11 39  1  0
 12 40  1  6
 13 41  1  0
 13 42  1  0
 14 43  1  0
 14 44  1  0
 15 45  1  0
 15 46  1  0
 19 47  1  0
 20 48  1  0
 26 49  1  0
 27 50  1  0
M  END
>  <meeko>  (148) 
{"is_sidechain": false}

$$$$

     RDKit          3D

 57 62  0  0  0  0  0  0  0  0999 V2000
   13.9960    6.6320  -60.5590 Cl  0  0  0  0  0  0  0  0  0  0  0  0
   12.9440    5.6620  -59.6040 C   0  0  0  0  0  0  0  0  0  0  0  0
   13.4020    4.4510  -59.0830 C   0  0  0  0  0  0  0  0  0  0  0  0
   12.5510    3.6620  -58.3060 C   0  0  0  0  0  0  0  0  0  0  0  0
   11.2480    4.0930  -58.0440 C   0  0  0  0  0  0  0  0  0  0  0  0
   10.3290    3.2730  -57.2260 C   0  0  0  0  0  0  0  0  0  0  0  0
   10.7050    2.1030  -56.7590 N   0  0  0  0  0  0  0  0  0  0  0  0
    9.6040    1.6300  -56.0720 C   0  0  0  0  0  0  0  0  0  0  0  0
    9.6840    0.4500  -55.6030 N   0  0  0  0  0  0  0  0  0  0  0  0
    8.6340   -0.2250  -54.8490 C   0  0  2  0  0  0  0  0  0  0  0  0
    8.5650    0.4950  -53.4750 C   0  0  0  0  0  0  0  0  0  0  0  0
    7.5020   -0.1480  -52.5700 C   0  0  1  0  0  0  0  0  0  0  0  0
    6.1320   -0.0500  -53.2590 C   0  0  0  0  0  0  0  0  0  0  0  0
    6.1750   -0.7710  -54.6150 C   0  0  2  0  0  0  0  0  0  0  0  0
    6.5440   -2.2500  -54.3940 C   0  0  0  0  0  0  0  0  0  0  0  0
    7.9130   -2.3600  -53.7000 C   0  0  2  0  0  0  0  0  0  0  0  0
    7.8560   -1.6270  -52.3500 C   0  0  0  0  0  0  0  0  0  0  0  0
    8.9870   -1.7030  -54.5870 C   0  0  0  0  0  0  0  0  0  0  0  0
    7.2420   -0.1130  -55.5090 C   0  0  0  0  0  0  0  0  0  0  0  0
    8.5850    2.5630  -56.0840 N   0  0  0  0  0  0  0  0  0  0  0  0
    9.0190    3.6280  -56.8760 N   0  0  0  0  0  0  0  0  0  0  0  0
    8.1000    4.1800  -57.8820 C   0  0  0  0  0  0  0  0  0  0  0  0
    7.3730    3.0910  -58.6480 C   0  0  0  0  0  0  0  0  0  0  0  0
    6.2500    2.4360  -58.1080 C   0  0  0  0  0  0  0  0  0  0  0  0
    5.6200    2.8240  -56.5440 Cl  0  0  0  0  0  0  0  0  0  0  0  0
    5.5720    1.4430  -58.8260 C   0  0  0  0  0  0  0  0  0  0  0  0
    5.9980    1.0840  -60.1000 C   0  0  0  0  0  0  0  0  0  0  0  0
    7.1020    1.7210  -60.6570 C   0  0  0  0  0  0  0  0  0  0  0  0
    7.7820    2.7150  -59.9410 C   0  0  0  0  0  0  0  0  0  0  0  0
    9.1440    3.4360  -60.7230 Cl  0  0  0  0  0  0  0  0  0  0  0  0
   10.7860    5.2980  -58.5870 C   0  0  0  0  0  0  0  0  0  0  0  0
   11.6380    6.0860  -59.3640 C   0  0  0  0  0  0  0  0  0  0  0  0
   14.4312    4.1186  -59.2839 H   0  0  0  0  0  0  0  0  0  0  0  0
   12.9059    2.7029  -57.9010 H   0  0  0  0  0  0  0  0  0  0  0  0
    9.5463    0.4258  -52.9828 H   0  0  0  0  0  0  0  0  0  0  0  0
    8.2923    1.5472  -53.6436 H   0  0  0  0  0  0  0  0  0  0  0  0
    7.4691    0.3724  -51.6015 H   0  0  0  0  0  0  0  0  0  0  0  0
    5.3686   -0.5189  -52.6208 H   0  0  0  0  0  0  0  0  0  0  0  0
    5.8830    1.0093  -53.4202 H   0  0  0  0  0  0  0  0  0  0  0  0
    5.1901   -0.7018  -55.1000 H   0  0  0  0  0  0  0  0  0  0  0  0
    5.7781   -2.7249  -53.7633 H   0  0  0  0  0  0  0  0  0  0  0  0
    6.5952   -2.7560  -55.3694 H   0  0  0  0  0  0  0  0  0  0  0  0
    8.1622   -3.4191  -53.5384 H   0  0  0  0  0  0  0  0  0  0  0  0
    7.0899   -2.0943  -51.7138 H   0  0  0  0  0  0  0  0  0  0  0  0
    8.8389   -1.6943  -51.8606 H   0  0  0  0  0  0  0  0  0  0  0  0
    9.9611   -1.7589  -54.0790 H   0  0  0  0  0  0  0  0  0  0  0  0
    9.0322   -2.2359  -55.5482 H   0  0  0  0  0  0  0  0  0  0  0  0
    7.2609   -0.6197  -56.4851 H   0  0  0  0  0  0  0  0  0  0  0  0
    6.9926    0.9500  -55.6424 H   0  0  0  0  0  0  0  0  0  0  0  0
    7.6730    2.1590  -56.2600 H   0  0  0  0  0  0  0  0  0  0  0  0
    7.3573    4.8133  -57.3747 H   0  0  0  0  0  0  0  0  0  0  0  0
    8.6947    4.7616  -58.6017 H   0  0  0  0  0  0  0  0  0  0  0  0
    4.6985    0.9448  -58.3801 H   0  0  0  0  0  0  0  0  0  0  0  0
    5.4663    0.3026  -60.6628 H   0  0  0  0  0  0  0  0  0  0  0  0
    7.4431    1.4428  -61.6651 H   0  0  0  0  0  0  0  0  0  0  0  0
    9.7519    5.6241  -58.4016 H   0  0  0  0  0  0  0  0  0  0  0  0
   11.2800    7.0372  -59.7848 H   0  0  0  0  0  0  0  0  0  0  0  0
  1  2  1  0
  2  3  1  0
  3  4  2  0
  4  5  1  0
  5  6  1  0
  6  7  2  0
  7  8  1  0
  8  9  2  0
 10  9  1  6
 10 11  1  0
 11 12  1  0
 12 13  1  0
 13 14  1  0
 14 15  1  0
 15 16  1  0
 16 17  1  0
 16 18  1  0
 14 19  1  0
  8 20  1  0
 20 21  1  0
 21 22  1  0
 22 23  1  0
 23 24  2  0
 24 25  1  0
 24 26  1  0
 26 27  2  0
 27 28  1  0
 28 29  2  0
 29 30  1  0
  5 31  2  0
 31 32  1  0
 32  2  2  0
 21  6  1  0
 29 23  1  0
 18 10  1  0
 19 10  1  0
 17 12  1  0
  3 33  1  0
  4 34  1  0
 11 35  1  0
 11 36  1  0
 12 37  1  1
 13 38  1  0
 13 39  1  0
 14 40  1  6
 15 41  1  0
 15 42  1  0
 16 43  1  1
 17 44  1  0
 17 45  1  0
 18 46  1  0
 18 47  1  0
 19 48  1  0
 19 49  1  0
 20 50  1  0
 22 51  1  0
 22 52  1  0
 26 53  1  0
 27 54  1  0
 28 55  1  0
 31 56  1  0
 32 57  1  0
M  END
>  <meeko>  (149) 
{"is_sidechain": false}

$$$$

     RDKit          3D

 57 62  0  0  0  0  0  0  0  0999 V2000
   13.2710    4.7260  -57.8280 Cl  0  0  0  0  0  0  0  0  0  0  0  0
   11.7960    3.9390  -57.4210 C   0  0  0  0  0  0  0  0  0  0  0  0
   10.8960    4.5580  -56.5570 C   0  0  0  0  0  0  0  0  0  0  0  0
    9.6960    3.9200  -56.2270 C   0  0  0  0  0  0  0  0  0  0  0  0
    9.3890    2.6640  -56.7700 C   0  0  0  0  0  0  0  0  0  0  0  0
    8.1450    1.9780  -56.4400 C   0  0  0  0  0  0  0  0  0  0  0  0
    8.0310    0.9410  -55.6310 N   0  0  0  0  0  0  0  0  0  0  0  0
    6.6970    0.6740  -55.6100 C   0  0  0  0  0  0  0  0  0  0  0  0
    6.2990   -0.3510  -54.8460 N   0  0  0  0  0  0  0  0  0  0  0  0
    7.2060   -1.2310  -54.1150 C   0  0  2  0  0  0  0  0  0  0  0  0
    8.6200   -1.2640  -54.7430 C   0  0  0  0  0  0  0  0  0  0  0  0
    9.5230   -2.2520  -53.9840 C   0  0  1  0  0  0  0  0  0  0  0  0
    9.6110   -1.8260  -52.5080 C   0  0  0  0  0  0  0  0  0  0  0  0
    8.2120   -1.8350  -51.8680 C   0  0  2  0  0  0  0  0  0  0  0  0
    7.6160   -3.2470  -51.9700 C   0  0  0  0  0  0  0  0  0  0  0  0
    7.5180   -3.6700  -53.4450 C   0  0  2  0  0  0  0  0  0  0  0  0
    8.9190   -3.6620  -54.0710 C   0  0  0  0  0  0  0  0  0  0  0  0
    6.6230   -2.6710  -54.1970 C   0  0  0  0  0  0  0  0  0  0  0  0
    7.3040   -0.8440  -52.6200 C   0  0  0  0  0  0  0  0  0  0  0  0
    5.9650    1.4710  -56.3800 N   0  0  0  0  0  0  0  0  0  0  0  0
    6.8990    2.2570  -56.9460 N   0  0  0  0  0  0  0  0  0  0  0  0
    6.5180    3.2230  -57.9660 C   0  0  0  0  0  0  0  0  0  0  0  0
    7.3980    3.1300  -59.1930 C   0  0  0  0  0  0  0  0  0  0  0  0
    7.4270    1.9710  -59.9930 C   0  0  0  0  0  0  0  0  0  0  0  0
    6.4200    0.6000  -59.6730 Cl  0  0  0  0  0  0  0  0  0  0  0  0
    8.2790    1.8780  -61.1010 C   0  0  0  0  0  0  0  0  0  0  0  0
    9.1200    2.9350  -61.4330 C   0  0  0  0  0  0  0  0  0  0  0  0
    9.1110    4.0880  -60.6550 C   0  0  0  0  0  0  0  0  0  0  0  0
    8.2630    4.1840  -59.5450 C   0  0  0  0  0  0  0  0  0  0  0  0
    8.3260    5.6580  -58.6410 Cl  0  0  0  0  0  0  0  0  0  0  0  0
   10.3140    2.0440  -57.6210 C   0  0  0  0  0  0  0  0  0  0  0  0
   11.5130    2.6820  -57.9530 C   0  0  0  0  0  0  0  0  0  0  0  0
   11.1286    5.5468  -56.1349 H   0  0  0  0  0  0  0  0  0  0  0  0
    8.9894    4.4058  -55.5380 H   0  0  0  0  0  0  0  0  0  0  0  0
    5.3950   -0.2030  -54.4140 H   0  0  0  0  0  0  0  0  0  0  0  0
    8.5421   -1.5787  -55.7941 H   0  0  0  0  0  0  0  0  0  0  0  0
    9.0610   -0.2582  -54.6803 H   0  0  0  0  0  0  0  0  0  0  0  0
   10.5285   -2.2533  -54.4300 H   0  0  0  0  0  0  0  0  0  0  0  0
   10.2631   -2.5266  -51.9659 H   0  0  0  0  0  0  0  0  0  0  0  0
   10.0246   -0.8083  -52.4523 H   0  0  0  0  0  0  0  0  0  0  0  0
    8.2863   -1.5409  -50.8106 H   0  0  0  0  0  0  0  0  0  0  0  0
    8.2617   -3.9551  -51.4299 H   0  0  0  0  0  0  0  0  0  0  0  0
    6.6095   -3.2475  -51.5261 H   0  0  0  0  0  0  0  0  0  0  0  0
    7.0891   -4.6807  -53.5127 H   0  0  0  0  0  0  0  0  0  0  0  0
    9.5644   -4.3692  -53.5295 H   0  0  0  0  0  0  0  0  0  0  0  0
    8.8452   -3.9596  -55.1274 H   0  0  0  0  0  0  0  0  0  0  0  0
    6.5552   -2.9723  -55.2527 H   0  0  0  0  0  0  0  0  0  0  0  0
    5.6263   -2.6732  -53.7316 H   0  0  0  0  0  0  0  0  0  0  0  0
    6.2987   -0.8631  -52.1739 H   0  0  0  0  0  0  0  0  0  0  0  0
    7.7336    0.1655  -52.5399 H   0  0  0  0  0  0  0  0  0  0  0  0
    5.4755    3.0343  -58.2618 H   0  0  0  0  0  0  0  0  0  0  0  0
    6.6352    4.2304  -57.5400 H   0  0  0  0  0  0  0  0  0  0  0  0
    8.2830    0.9635  -61.7123 H   0  0  0  0  0  0  0  0  0  0  0  0
    9.7872    2.8596  -62.3043 H   0  0  0  0  0  0  0  0  0  0  0  0
    9.7729    4.9279  -60.9129 H   0  0  0  0  0  0  0  0  0  0  0  0
   10.0949    1.0471  -58.0311 H   0  0  0  0  0  0  0  0  0  0  0  0
   12.2294    2.1945  -58.6306 H   0  0  0  0  0  0  0  0  0  0  0  0
  1  2  1  0
  2  3  1  0
  3  4  2  0
  4  5  1  0
  5  6  1  0
  6  7  2  0
  7  8  1  0
  8  9  1  0
 10  9  1  6
 10 11  1  0
 11 12  1  0
 12 13  1  0
 13 14  1  0
 14 15  1  0
 15 16  1  0
 16 17  1  0
 16 18  1  0
 14 19  1  0
  8 20  2  0
 20 21  1  0
 21 22  1  0
 22 23  1  0
 23 24  2  0
 24 25  1  0
 24 26  1  0
 26 27  2  0
 27 28  1  0
 28 29  2  0
 29 30  1  0
  5 31  2  0
 31 32  1  0
 32  2  2  0
 21  6  1  0
 29 23  1  0
 18 10  1  0
 19 10  1  0
 17 12  1  0
  3 33  1  0
  4 34  1  0
  9 35  1  0
 11 36  1  0
 11 37  1  0
 12 38  1  6
 13 39  1  0
 13 40  1  0
 14 41  1  1
 15 42  1  0
 15 43  1  0
 16 44  1  1
 17 45  1  0
 17 46  1  0
 18 47  1  0
 18 48  1  0
 19 49  1  0
 19 50  1  0
 22 51  1  0
 22 52  1  0
 26 53  1  0
 27 54  1  0
 28 55  1  0
 31 56  1  0
 32 57  1  0
M  END
>  <meeko>  (150) 
{"is_sidechain": false}

$$$$

     RDKit          3D

 57 62  0  0  0  0  0  0  0  0999 V2000
    2.5770    1.0090  -61.7620 Cl  0  0  0  0  0  0  0  0  0  0  0  0
    3.8310    1.2930  -60.6190 C   0  0  0  0  0  0  0  0  0  0  0  0
    3.6620    2.2680  -59.6340 C   0  0  0  0  0  0  0  0  0  0  0  0
    4.6770    2.4940  -58.7020 C   0  0  0  0  0  0  0  0  0  0  0  0
    5.8460    1.7300  -58.7540 C   0  0  0  0  0  0  0  0  0  0  0  0
    6.9140    1.9750  -57.7710 C   0  0  0  0  0  0  0  0  0  0  0  0
    7.2380    1.0530  -56.8910 N   0  0  0  0  0  0  0  0  0  0  0  0
    8.2010    1.6560  -56.1130 C   0  0  0  0  0  0  0  0  0  0  0  0
    8.6750    1.1690  -55.0300 N   0  0  0  0  0  0  0  0  0  0  0  0
    8.2810   -0.1360  -54.4930 C   0  0  2  0  0  0  0  0  0  0  0  0
    8.1930    0.0560  -52.9520 C   0  0  0  0  0  0  0  0  0  0  0  0
    7.7820   -1.2520  -52.2570 C   0  0  1  0  0  0  0  0  0  0  0  0
    6.4110   -1.6950  -52.7890 C   0  0  0  0  0  0  0  0  0  0  0  0
    6.4830   -1.9050  -54.3100 C   0  0  2  0  0  0  0  0  0  0  0  0
    7.5380   -2.9810  -54.6240 C   0  0  0  0  0  0  0  0  0  0  0  0
    8.9160   -2.5510  -54.0890 C   0  0  2  0  0  0  0  0  0  0  0  0
    8.8250   -2.3360  -52.5710 C   0  0  0  0  0  0  0  0  0  0  0  0
    9.3330   -1.2320  -54.7660 C   0  0  0  0  0  0  0  0  0  0  0  0
    6.8880   -0.5840  -54.9880 C   0  0  0  0  0  0  0  0  0  0  0  0
    8.5410    2.8930  -56.6160 N   0  0  0  0  0  0  0  0  0  0  0  0
    7.6510    3.1640  -57.6580 N   0  0  0  0  0  0  0  0  0  0  0  0
    8.2740    3.7860  -58.8410 C   0  0  0  0  0  0  0  0  0  0  0  0
    9.7760    3.8980  -58.7290 C   0  0  0  0  0  0  0  0  0  0  0  0
   10.6220    3.2040  -59.6180 C   0  0  0  0  0  0  0  0  0  0  0  0
   10.0040    2.2220  -60.9040 Cl  0  0  0  0  0  0  0  0  0  0  0  0
   12.0160    3.2940  -59.5150 C   0  0  0  0  0  0  0  0  0  0  0  0
   12.5970    4.0860  -58.5310 C   0  0  0  0  0  0  0  0  0  0  0  0
   11.7830    4.7990  -57.6580 C   0  0  0  0  0  0  0  0  0  0  0  0
   10.3890    4.7130  -57.7580 C   0  0  0  0  0  0  0  0  0  0  0  0
    9.4790    5.6600  -56.6310 Cl  0  0  0  0  0  0  0  0  0  0  0  0
    6.0270    0.7750  -59.7580 C   0  0  0  0  0  0  0  0  0  0  0  0
    5.0100    0.5510  -60.6890 C   0  0  0  0  0  0  0  0  0  0  0  0
    2.7331    2.8557  -59.5923 H   0  0  0  0  0  0  0  0  0  0  0  0
    4.5570    3.2693  -57.9310 H   0  0  0  0  0  0  0  0  0  0  0  0
    9.1758    0.3719  -52.5721 H   0  0  0  0  0  0  0  0  0  0  0  0
    7.4327    0.8213  -52.7368 H   0  0  0  0  0  0  0  0  0  0  0  0
    7.7240   -1.0970  -51.1695 H   0  0  0  0  0  0  0  0  0  0  0  0
    6.1190   -2.6381  -52.3040 H   0  0  0  0  0  0  0  0  0  0  0  0
    5.6670   -0.9161  -52.5658 H   0  0  0  0  0  0  0  0  0  0  0  0
    5.5007   -2.2273  -54.6858 H   0  0  0  0  0  0  0  0  0  0  0  0
    7.2433   -3.9278  -54.1479 H   0  0  0  0  0  0  0  0  0  0  0  0
    7.6024   -3.1112  -55.7144 H   0  0  0  0  0  0  0  0  0  0  0  0
    9.6598   -3.3313  -54.3080 H   0  0  0  0  0  0  0  0  0  0  0  0
    8.5289   -3.2781  -52.0865 H   0  0  0  0  0  0  0  0  0  0  0  0
    9.8062   -2.0146  -52.1917 H   0  0  0  0  0  0  0  0  0  0  0  0
   10.3055   -0.9098  -54.3655 H   0  0  0  0  0  0  0  0  0  0  0  0
    9.4085   -1.3942  -55.8513 H   0  0  0  0  0  0  0  0  0  0  0  0
    6.9191   -0.7295  -56.0779 H   0  0  0  0  0  0  0  0  0  0  0  0
    6.1501    0.1911  -54.7337 H   0  0  0  0  0  0  0  0  0  0  0  0
    8.6450    3.5870  -55.8820 H   0  0  0  0  0  0  0  0  0  0  0  0
    8.0332    3.1768  -59.7246 H   0  0  0  0  0  0  0  0  0  0  0  0
    7.8740    4.8073  -58.9238 H   0  0  0  0  0  0  0  0  0  0  0  0
   12.6540    2.7355  -60.2158 H   0  0  0  0  0  0  0  0  0  0  0  0
   13.6918    4.1480  -58.4439 H   0  0  0  0  0  0  0  0  0  0  0  0
   12.2371    5.4348  -56.8837 H   0  0  0  0  0  0  0  0  0  0  0  0
    6.9649    0.2030  -59.8148 H   0  0  0  0  0  0  0  0  0  0  0  0
    5.1385   -0.2080  -61.4747 H   0  0  0  0  0  0  0  0  0  0  0  0
  1  2  1  0
  2  3  1  0
  3  4  2  0
  4  5  1  0
  5  6  1  0
  6  7  2  0
  7  8  1  0
  8  9  2  0
 10  9  1  6
 10 11  1  0
 11 12  1  0
 12 13  1  0
 13 14  1  0
 14 15  1  0
 15 16  1  0
 16 17  1  0
 16 18  1  0
 14 19  1  0
  8 20  1  0
 20 21  1  0
 21 22  1  0
 22 23  1  0
 23 24  2  0
 24 25  1  0
 24 26  1  0
 26 27  2  0
 27 28  1  0
 28 29  2  0
 29 30  1  0
  5 31  2  0
 31 32  1  0
 32  2  2  0
 21  6  1  0
 29 23  1  0
 18 10  1  0
 19 10  1  0
 17 12  1  0
  3 33  1  0
  4 34  1  0
 11 35  1  0
 11 36  1  0
 12 37  1  1
 13 38  1  0
 13 39  1  0
 14 40  1  6
 15 41  1  0
 15 42  1  0
 16 43  1  1
 17 44  1  0
 17 45  1  0
 18 46  1  0
 18 47  1  0
 19 48  1  0
 19 49  1  0
 20 50  1  0
 22 51  1  0
 22 52  1  0
 26 53  1  0
 27 54  1  0
 28 55  1  0
 31 56  1  0
 32 57  1  0
M  END
>  <meeko>  (151) 
{"is_sidechain": false}

$$$$

     RDKit          3D

 61 66  0  0  0  0  0  0  0  0999 V2000
    5.6340    2.5450  -59.4070 O   0  0  0  0  0  0  0  0  0  0  0  0
    6.7670    2.8910  -59.7610 N   0  0  0  0  0  0  0  0  0  0  0  0
    7.0710    3.2580  -60.9050 O   0  0  0  0  0  0  0  0  0  0  0  0
    7.8370    2.8480  -58.7580 C   0  0  0  0  0  0  0  0  0  0  0  0
    7.7740    1.8980  -57.7290 C   0  0  0  0  0  0  0  0  0  0  0  0
    8.7840    1.8660  -56.7620 C   0  0  0  0  0  0  0  0  0  0  0  0
    8.7570    0.8550  -55.6850 C   0  0  0  0  0  0  0  0  0  0  0  0
    7.6210    0.4960  -55.1290 N   0  0  0  0  0  0  0  0  0  0  0  0
    7.9820   -0.4460  -54.1810 C   0  0  0  0  0  0  0  0  0  0  0  0
    7.0350   -1.0810  -53.6200 N   0  0  0  0  0  0  0  0  0  0  0  0
    7.2110   -2.1460  -52.6370 C   0  0  2  0  0  0  0  0  0  0  0  0
    8.4370   -3.0380  -52.9180 C   0  0  0  0  0  0  0  0  0  0  0  0
    8.6050   -4.0790  -51.7950 C   0  0  1  0  0  0  0  0  0  0  0  0
    8.8270   -3.3540  -50.4590 C   0  0  0  0  0  0  0  0  0  0  0  0
    7.6210   -2.4560  -50.1430 C   0  0  2  0  0  0  0  0  0  0  0  0
    6.3540   -3.3230  -50.0490 C   0  0  0  0  0  0  0  0  0  0  0  0
    6.1130   -4.0470  -51.3820 C   0  0  2  0  0  0  0  0  0  0  0  0
    7.3290   -4.9340  -51.7040 C   0  0  0  0  0  0  0  0  0  0  0  0
    5.9350   -3.0040  -52.5000 C   0  0  0  0  0  0  0  0  0  0  0  0
    7.4470   -1.4330  -51.2760 C   0  0  0  0  0  0  0  0  0  0  0  0
    9.3590   -0.5450  -54.0910 N   0  0  0  0  0  0  0  0  0  0  0  0
    9.8720    0.2190  -55.1400 N   0  0  0  0  0  0  0  0  0  0  0  0
   10.9640   -0.3360  -55.9520 C   0  0  0  0  0  0  0  0  0  0  0  0
   11.1600   -1.8240  -55.7380 C   0  0  0  0  0  0  0  0  0  0  0  0
   11.3250   -2.3520  -54.4490 C   0  0  0  0  0  0  0  0  0  0  0  0
   11.5380   -3.7190  -54.2660 C   0  0  0  0  0  0  0  0  0  0  0  0
   11.5800   -4.5730  -55.3650 C   0  0  0  0  0  0  0  0  0  0  0  0
   11.4080   -4.0630  -56.6500 C   0  0  0  0  0  0  0  0  0  0  0  0
   11.1990   -2.6960  -56.8370 C   0  0  0  0  0  0  0  0  0  0  0  0
    9.8620    2.7560  -56.8340 C   0  0  0  0  0  0  0  0  0  0  0  0
    9.9110    3.6980  -57.8710 C   0  0  0  0  0  0  0  0  0  0  0  0
   11.0320    4.6420  -57.9380 N   0  0  0  0  0  0  0  0  0  0  0  0
   10.9080    5.6290  -58.6720 O   0  0  0  0  0  0  0  0  0  0  0  0
   12.0380    4.3790  -57.2660 O   0  0  0  0  0  0  0  0  0  0  0  0
    8.9010    3.7550  -58.8400 C   0  0  0  0  0  0  0  0  0  0  0  0
    6.9381    1.1845  -57.6826 H   0  0  0  0  0  0  0  0  0  0  0  0
    8.2963   -3.5576  -53.8773 H   0  0  0  0  0  0  0  0  0  0  0  0
    9.3375   -2.4078  -52.9613 H   0  0  0  0  0  0  0  0  0  0  0  0
    9.4693   -4.7236  -52.0126 H   0  0  0  0  0  0  0  0  0  0  0  0
    8.9483   -4.0969  -49.6569 H   0  0  0  0  0  0  0  0  0  0  0  0
    9.7317   -2.7324  -50.5309 H   0  0  0  0  0  0  0  0  0  0  0  0
    7.7855   -1.9342  -49.1887 H   0  0  0  0  0  0  0  0  0  0  0  0
    6.4799   -4.0665  -49.2482 H   0  0  0  0  0  0  0  0  0  0  0  0
    5.4909   -2.6783  -49.8270 H   0  0  0  0  0  0  0  0  0  0  0  0
    5.2092   -4.6696  -51.3085 H   0  0  0  0  0  0  0  0  0  0  0  0
    7.4512   -5.6846  -50.9092 H   0  0  0  0  0  0  0  0  0  0  0  0
    7.1625   -5.4320  -52.6706 H   0  0  0  0  0  0  0  0  0  0  0  0
    5.7408   -3.5208  -53.4514 H   0  0  0  0  0  0  0  0  0  0  0  0
    5.0876   -2.3493  -52.2484 H   0  0  0  0  0  0  0  0  0  0  0  0
    6.5827   -0.7907  -51.0515 H   0  0  0  0  0  0  0  0  0  0  0  0
    8.3648   -0.8311  -51.3495 H   0  0  0  0  0  0  0  0  0  0  0  0
    9.6840   -1.4990  -53.9880 H   0  0  0  0  0  0  0  0  0  0  0  0
   10.7359   -0.1610  -57.0138 H   0  0  0  0  0  0  0  0  0  0  0  0
   11.8927    0.1671  -55.6448 H   0  0  0  0  0  0  0  0  0  0  0  0
   11.2862   -1.6837  -53.5761 H   0  0  0  0  0  0  0  0  0  0  0  0
   11.6730   -4.1226  -53.2517 H   0  0  0  0  0  0  0  0  0  0  0  0
   11.7489   -5.6500  -55.2186 H   0  0  0  0  0  0  0  0  0  0  0  0
   11.4370   -4.7383  -57.5178 H   0  0  0  0  0  0  0  0  0  0  0  0
   11.0638   -2.2988  -57.8538 H   0  0  0  0  0  0  0  0  0  0  0  0
   10.6645    2.7165  -56.0827 H   0  0  0  0  0  0  0  0  0  0  0  0
    8.9428    4.4981  -59.6500 H   0  0  0  0  0  0  0  0  0  0  0  0
  1  2  2  0
  2  3  1  0
  2  4  1  0
  4  5  1  0
  5  6  2  0
  6  7  1  0
  7  8  2  0
  8  9  1  0
  9 10  2  0
 11 10  1  6
 11 12  1  0
 12 13  1  0
 13 14  1  0
 14 15  1  0
 15 16  1  0
 16 17  1  0
 17 18  1  0
 17 19  1  0
 15 20  1  0
  9 21  1  0
 21 22  1  0
 22 23  1  0
 23 24  1  0
 24 25  2  0
 25 26  1  0
 26 27  2  0
 27 28  1  0
 28 29  2  0
  6 30  1  0
 30 31  2  0
 31 32  1  0
 32 33  2  0
 32 34  1  0
 31 35  1  0
 35  4  2  0
 22  7  1  0
 29 24  1  0
 19 11  1  0
 20 11  1  0
 18 13  1  0
  5 36  1  0
 12 37  1  0
 12 38  1  0
 13 39  1  6
 14 40  1  0
 14 41  1  0
 15 42  1  1
 16 43  1  0
 16 44  1  0
 17 45  1  1
 18 46  1  0
 18 47  1  0
 19 48  1  0
 19 49  1  0
 20 50  1  0
 20 51  1  0
 21 52  1  0
 23 53  1  0
 23 54  1  0
 25 55  1  0
 26 56  1  0
 27 57  1  0
 28 58  1  0
 29 59  1  0
 30 60  1  0
 35 61  1  0
M  CHG  4   2   1   3  -1  32   1  34  -1
M  END
>  <meeko>  (152) 
{"is_sidechain": false}

$$$$

     RDKit          3D

 61 66  0  0  0  0  0  0  0  0999 V2000
   10.4370   -4.0280  -56.4160 O   0  0  0  0  0  0  0  0  0  0  0  0
   10.6930   -3.6640  -55.2600 N   0  0  0  0  0  0  0  0  0  0  0  0
   11.6200   -4.1100  -54.5700 O   0  0  0  0  0  0  0  0  0  0  0  0
    9.8360   -2.6340  -54.6600 C   0  0  0  0  0  0  0  0  0  0  0  0
    9.8020   -1.3490  -55.2210 C   0  0  0  0  0  0  0  0  0  0  0  0
    8.9660   -0.3630  -54.6760 C   0  0  0  0  0  0  0  0  0  0  0  0
    8.9200    0.9520  -55.3020 C   0  0  0  0  0  0  0  0  0  0  0  0
    9.9420    1.7790  -55.4050 N   0  0  0  0  0  0  0  0  0  0  0  0
    9.4420    2.8510  -56.0810 C   0  0  0  0  0  0  0  0  0  0  0  0
   10.2920    3.8610  -56.3050 N   0  0  0  0  0  0  0  0  0  0  0  0
   10.8790    4.1900  -57.5990 C   0  0  2  0  0  0  0  0  0  0  0  0
   12.3850    4.5270  -57.4880 C   0  0  0  0  0  0  0  0  0  0  0  0
   12.9790    4.8000  -58.8820 C   0  0  1  0  0  0  0  0  0  0  0  0
   12.8230    3.5470  -59.7570 C   0  0  0  0  0  0  0  0  0  0  0  0
   11.3350    3.1900  -59.8980 C   0  0  2  0  0  0  0  0  0  0  0  0
   10.5900    4.3650  -60.5520 C   0  0  0  0  0  0  0  0  0  0  0  0
   10.7320    5.6250  -59.6830 C   0  0  2  0  0  0  0  0  0  0  0  0
   12.2230    5.9720  -59.5330 C   0  0  0  0  0  0  0  0  0  0  0  0
   10.1300    5.3540  -58.2910 C   0  0  0  0  0  0  0  0  0  0  0  0
   10.7440    2.9310  -58.5030 C   0  0  0  0  0  0  0  0  0  0  0  0
    8.1670    2.7310  -56.4380 N   0  0  0  0  0  0  0  0  0  0  0  0
    7.8490    1.5150  -55.9540 N   0  0  0  0  0  0  0  0  0  0  0  0
    6.5110    0.9860  -56.1830 C   0  0  0  0  0  0  0  0  0  0  0  0
    5.9160    1.4090  -57.5060 C   0  0  0  0  0  0  0  0  0  0  0  0
    6.5100    1.0320  -58.7200 C   0  0  0  0  0  0  0  0  0  0  0  0
    5.9400    1.4130  -59.9360 C   0  0  0  0  0  0  0  0  0  0  0  0
    4.7830    2.1890  -59.9520 C   0  0  0  0  0  0  0  0  0  0  0  0
    4.1990    2.5950  -58.7530 C   0  0  0  0  0  0  0  0  0  0  0  0
    4.7660    2.2130  -57.5360 C   0  0  0  0  0  0  0  0  0  0  0  0
    8.1970   -0.6610  -53.5450 C   0  0  0  0  0  0  0  0  0  0  0  0
    8.2350   -1.9530  -52.9980 C   0  0  0  0  0  0  0  0  0  0  0  0
    7.3830   -2.2650  -51.8470 N   0  0  0  0  0  0  0  0  0  0  0  0
    6.3240   -2.8670  -52.0720 O   0  0  0  0  0  0  0  0  0  0  0  0
    7.7820   -1.9210  -50.7280 O   0  0  0  0  0  0  0  0  0  0  0  0
    9.0510   -2.9500  -53.5460 C   0  0  0  0  0  0  0  0  0  0  0  0
   10.4327   -1.1136  -56.0909 H   0  0  0  0  0  0  0  0  0  0  0  0
   10.8560    4.1030  -55.4980 H   0  0  0  0  0  0  0  0  0  0  0  0
   12.5109    5.4207  -56.8592 H   0  0  0  0  0  0  0  0  0  0  0  0
   12.9096    3.6710  -57.0384 H   0  0  0  0  0  0  0  0  0  0  0  0
   14.0455    5.0523  -58.7870 H   0  0  0  0  0  0  0  0  0  0  0  0
   13.2472    3.7424  -60.7529 H   0  0  0  0  0  0  0  0  0  0  0  0
   13.3540    2.7071  -59.2851 H   0  0  0  0  0  0  0  0  0  0  0  0
   11.2272    2.2903  -60.5216 H   0  0  0  0  0  0  0  0  0  0  0  0
   11.0168    4.5586  -61.5472 H   0  0  0  0  0  0  0  0  0  0  0  0
    9.5243    4.1095  -60.6470 H   0  0  0  0  0  0  0  0  0  0  0  0
   10.2022    6.4640  -60.1578 H   0  0  0  0  0  0  0  0  0  0  0  0
   12.6508    6.1734  -60.5262 H   0  0  0  0  0  0  0  0  0  0  0  0
   12.3217    6.8618  -58.8939 H   0  0  0  0  0  0  0  0  0  0  0  0
   10.2193    6.2605  -57.6743 H   0  0  0  0  0  0  0  0  0  0  0  0
    9.0711    5.0795  -58.4065 H   0  0  0  0  0  0  0  0  0  0  0  0
    9.6794    2.6738  -58.6052 H   0  0  0  0  0  0  0  0  0  0  0  0
   11.2969    2.1027  -58.0359 H   0  0  0  0  0  0  0  0  0  0  0  0
    6.5617   -0.1126  -56.1590 H   0  0  0  0  0  0  0  0  0  0  0  0
    5.8626    1.3901  -55.3916 H   0  0  0  0  0  0  0  0  0  0  0  0
    7.4317    0.4317  -58.7135 H   0  0  0  0  0  0  0  0  0  0  0  0
    6.4049    1.1002  -60.8826 H   0  0  0  0  0  0  0  0  0  0  0  0
    4.3302    2.4814  -60.9109 H   0  0  0  0  0  0  0  0  0  0  0  0
    3.2914    3.2164  -58.7660 H   0  0  0  0  0  0  0  0  0  0  0  0
    4.3077    2.5449  -56.5927 H   0  0  0  0  0  0  0  0  0  0  0  0
    7.5654    0.1143  -53.0867 H   0  0  0  0  0  0  0  0  0  0  0  0
    9.0744   -3.9597  -53.1102 H   0  0  0  0  0  0  0  0  0  0  0  0
  1  2  2  0
  2  3  1  0
  2  4  1  0
  4  5  1  0
  5  6  2  0
  6  7  1  0
  7  8  2  0
  8  9  1  0
  9 10  1  0
 11 10  1  1
 11 12  1  0
 12 13  1  0
 13 14  1  0
 14 15  1  0
 15 16  1  0
 16 17  1  0
 17 18  1  0
 17 19  1  0
 15 20  1  0
  9 21  2  0
 21 22  1  0
 22 23  1  0
 23 24  1  0
 24 25  2  0
 25 26  1  0
 26 27  2  0
 27 28  1  0
 28 29  2  0
  6 30  1  0
 30 31  2  0
 31 32  1  0
 32 33  2  0
 32 34  1  0
 31 35  1  0
 35  4  2  0
 22  7  1  0
 29 24  1  0
 19 11  1  0
 20 11  1  0
 18 13  1  0
  5 36  1  0
 10 37  1  0
 12 38  1  0
 12 39  1  0
 13 40  1  1
 14 41  1  0
 14 42  1  0
 15 43  1  6
 16 44  1  0
 16 45  1  0
 17 46  1  6
 18 47  1  0
 18 48  1  0
 19 49  1  0
 19 50  1  0
 20 51  1  0
 20 52  1  0
 23 53  1  0
 23 54  1  0
 25 55  1  0
 26 56  1  0
 27 57  1  0
 28 58  1  0
 29 59  1  0
 30 60  1  0
 35 61  1  0
M  CHG  4   2   1   3  -1  32   1  34  -1
M  END
>  <meeko>  (153) 
{"is_sidechain": false}

$$$$

     RDKit          3D

 61 66  0  0  0  0  0  0  0  0999 V2000
    5.1400    1.4050  -56.2800 O   0  0  0  0  0  0  0  0  0  0  0  0
    5.9910    2.0920  -56.8600 N   0  0  0  0  0  0  0  0  0  0  0  0
    5.7420    2.9690  -57.6970 O   0  0  0  0  0  0  0  0  0  0  0  0
    7.4010    1.8360  -56.5380 C   0  0  0  0  0  0  0  0  0  0  0  0
    7.7480    0.6850  -55.8180 C   0  0  0  0  0  0  0  0  0  0  0  0
    9.0920    0.4490  -55.5020 C   0  0  0  0  0  0  0  0  0  0  0  0
    9.4550   -0.7870  -54.7750 C   0  0  0  0  0  0  0  0  0  0  0  0
   10.0280   -1.7870  -55.4080 N   0  0  0  0  0  0  0  0  0  0  0  0
   10.2750   -2.7160  -54.4190 C   0  0  0  0  0  0  0  0  0  0  0  0
   10.9710   -3.7750  -54.5730 N   0  0  0  0  0  0  0  0  0  0  0  0
   11.5680   -4.1720  -55.8500 C   0  0  2  0  0  0  0  0  0  0  0  0
   10.5510   -4.8470  -56.7960 C   0  0  0  0  0  0  0  0  0  0  0  0
   11.2560   -5.3350  -58.0750 C   0  0  1  0  0  0  0  0  0  0  0  0
   11.9280   -4.1370  -58.7720 C   0  0  0  0  0  0  0  0  0  0  0  0
   12.9730   -3.4960  -57.8410 C   0  0  2  0  0  0  0  0  0  0  0  0
   14.0320   -4.5450  -57.4690 C   0  0  0  0  0  0  0  0  0  0  0  0
   13.3630   -5.7340  -56.7600 C   0  0  2  0  0  0  0  0  0  0  0  0
   12.3280   -6.3700  -57.7010 C   0  0  0  0  0  0  0  0  0  0  0  0
   12.6520   -5.2290  -55.4950 C   0  0  0  0  0  0  0  0  0  0  0  0
   12.2760   -2.9990  -56.5610 C   0  0  0  0  0  0  0  0  0  0  0  0
    9.7240   -2.3130  -53.2230 N   0  0  0  0  0  0  0  0  0  0  0  0
    9.2720   -1.0060  -53.4060 N   0  0  0  0  0  0  0  0  0  0  0  0
    8.0050   -0.6800  -52.7390 C   0  0  0  0  0  0  0  0  0  0  0  0
    7.4840   -1.8750  -51.9730 C   0  0  0  0  0  0  0  0  0  0  0  0
    6.6780   -2.8320  -52.6090 C   0  0  0  0  0  0  0  0  0  0  0  0
    6.2100   -3.9420  -51.9050 C   0  0  0  0  0  0  0  0  0  0  0  0
    6.5460   -4.1110  -50.5630 C   0  0  0  0  0  0  0  0  0  0  0  0
    7.3530   -3.1710  -49.9240 C   0  0  0  0  0  0  0  0  0  0  0  0
    7.8220   -2.0590  -50.6240 C   0  0  0  0  0  0  0  0  0  0  0  0
   10.0840    1.3370  -55.9240 C   0  0  0  0  0  0  0  0  0  0  0  0
    9.7210    2.4850  -56.6420 C   0  0  0  0  0  0  0  0  0  0  0  0
   10.7670    3.4230  -57.0690 N   0  0  0  0  0  0  0  0  0  0  0  0
   11.9040    2.9650  -57.2490 O   0  0  0  0  0  0  0  0  0  0  0  0
   10.4490    4.6100  -57.2130 O   0  0  0  0  0  0  0  0  0  0  0  0
    8.3820    2.7480  -56.9530 C   0  0  0  0  0  0  0  0  0  0  0  0
    6.9711   -0.0275  -55.5035 H   0  0  0  0  0  0  0  0  0  0  0  0
   10.0928   -5.7058  -56.2836 H   0  0  0  0  0  0  0  0  0  0  0  0
    9.7763   -4.1158  -57.0703 H   0  0  0  0  0  0  0  0  0  0  0  0
   10.5198   -5.7933  -58.7517 H   0  0  0  0  0  0  0  0  0  0  0  0
   12.4240   -4.4830  -59.6908 H   0  0  0  0  0  0  0  0  0  0  0  0
   11.1602   -3.3886  -59.0178 H   0  0  0  0  0  0  0  0  0  0  0  0
   13.4551   -2.6495  -58.3519 H   0  0  0  0  0  0  0  0  0  0  0  0
   14.5316   -4.8991  -58.3828 H   0  0  0  0  0  0  0  0  0  0  0  0
   14.7717   -4.0898  -56.7939 H   0  0  0  0  0  0  0  0  0  0  0  0
   14.1238   -6.4806  -56.4885 H   0  0  0  0  0  0  0  0  0  0  0  0
   12.8317   -6.7198  -58.6142 H   0  0  0  0  0  0  0  0  0  0  0  0
   11.8493   -7.2195  -57.1919 H   0  0  0  0  0  0  0  0  0  0  0  0
   12.1729   -6.0794  -54.9878 H   0  0  0  0  0  0  0  0  0  0  0  0
   13.3981   -4.7590  -54.8374 H   0  0  0  0  0  0  0  0  0  0  0  0
   13.0261   -2.5635  -55.8845 H   0  0  0  0  0  0  0  0  0  0  0  0
   11.5281   -2.2391  -56.8314 H   0  0  0  0  0  0  0  0  0  0  0  0
   10.3140   -2.5160  -52.4200 H   0  0  0  0  0  0  0  0  0  0  0  0
    8.1683    0.1540  -52.0405 H   0  0  0  0  0  0  0  0  0  0  0  0
    7.2648   -0.3978  -53.5022 H   0  0  0  0  0  0  0  0  0  0  0  0
    6.4136   -2.7061  -53.6693 H   0  0  0  0  0  0  0  0  0  0  0  0
    5.5749   -4.6848  -52.4099 H   0  0  0  0  0  0  0  0  0  0  0  0
    6.1747   -4.9854  -50.0085 H   0  0  0  0  0  0  0  0  0  0  0  0
    7.6206   -3.3063  -48.8657 H   0  0  0  0  0  0  0  0  0  0  0  0
    8.4607   -1.3221  -50.1150 H   0  0  0  0  0  0  0  0  0  0  0  0
   11.1412    1.1373  -55.6949 H   0  0  0  0  0  0  0  0  0  0  0  0
    8.1043    3.6534  -57.5126 H   0  0  0  0  0  0  0  0  0  0  0  0
  1  2  2  0
  2  3  1  0
  2  4  1  0
  4  5  1  0
  5  6  2  0
  6  7  1  0
  7  8  2  0
  8  9  1  0
  9 10  2  0
 11 10  1  1
 11 12  1  0
 12 13  1  0
 13 14  1  0
 14 15  1  0
 15 16  1  0
 16 17  1  0
 17 18  1  0
 17 19  1  0
 15 20  1  0
  9 21  1  0
 21 22  1  0
 22 23  1  0
 23 24  1  0
 24 25  2  0
 25 26  1  0
 26 27  2  0
 27 28  1  0
 28 29  2  0
  6 30  1  0
 30 31  2  0
 31 32  1  0
 32 33  2  0
 32 34  1  0
 31 35  1  0
 35  4  2  0
 22  7  1  0
 29 24  1  0
 19 11  1  0
 20 11  1  0
 18 13  1  0
  5 36  1  0
 12 37  1  0
 12 38  1  0
 13 39  1  6
 14 40  1  0
 14 41  1  0
 15 42  1  6
 16 43  1  0
 16 44  1  0
 17 45  1  1
 18 46  1  0
 18 47  1  0
 19 48  1  0
 19 49  1  0
 20 50  1  0
 20 51  1  0
 21 52  1  0
 23 53  1  0
 23 54  1  0
 25 55  1  0
 26 56  1  0
 27 57  1  0
 28 58  1  0
 29 59  1  0
 30 60  1  0
 35 61  1  0
M  CHG  4   2   1   3  -1  32   1  34  -1
M  END
>  <meeko>  (154) 
{"is_sidechain": false}

$$$$

     RDKit          3D

 54 57  0  0  0  0  0  0  0  0999 V2000
    6.1340   -0.0170  -53.7870 C   0  0  0  0  0  0  0  0  0  0  0  0
    7.5330   -0.3020  -54.2210 C   0  0  0  0  0  0  0  0  0  0  0  0
    8.2940    0.4040  -55.2210 C   0  0  0  0  0  0  0  0  0  0  0  0
    7.9640    1.5750  -56.0360 C   0  0  0  0  0  0  0  0  0  0  0  0
    6.8710    1.7070  -56.5800 O   0  0  0  0  0  0  0  0  0  0  0  0
    8.9960    2.4810  -56.1840 N   0  0  0  0  0  0  0  0  0  0  0  0
    8.8900    3.6370  -57.0120 C   0  0  0  0  0  0  0  0  0  0  0  0
    9.0390    5.0160  -56.4270 C   0  0  0  0  0  0  0  0  0  0  0  0
   10.1050    4.4650  -57.3280 C   0  0  0  0  0  0  0  0  0  0  0  0
    9.4990   -0.2670  -55.3290 C   0  0  0  0  0  0  0  0  0  0  0  0
    9.5190   -1.3060  -54.4380 N   0  0  0  0  0  0  0  0  0  0  0  0
   10.6590   -2.2010  -54.2840 C   0  0  0  0  0  0  0  0  0  0  0  0
   10.8410   -3.1930  -55.4500 C   0  0  2  0  0  0  0  0  0  0  0  0
   11.5810   -4.4670  -55.0140 C   0  0  0  0  0  0  0  0  0  0  0  0
   11.8310   -5.4100  -56.1890 C   0  0  0  0  0  0  0  0  0  0  0  0
   12.5720   -4.7140  -57.3250 C   0  0  1  0  0  0  0  0  0  0  0  0
   12.6800   -5.6170  -58.4190 O   0  0  0  0  0  0  0  0  0  0  0  0
   11.8390   -3.4510  -57.7710 C   0  0  0  0  0  0  0  0  0  0  0  0
   11.5920   -2.5030  -56.6020 C   0  0  0  0  0  0  0  0  0  0  0  0
    8.3400   -1.3270  -53.7260 C   0  0  0  0  0  0  0  0  0  0  0  0
    8.0420   -2.2970  -52.6740 C   0  0  0  0  0  0  0  0  0  0  0  0
    7.6440   -3.5970  -53.0020 C   0  0  0  0  0  0  0  0  0  0  0  0
    7.3600   -4.5220  -51.9960 C   0  0  0  0  0  0  0  0  0  0  0  0
    7.4690   -4.1490  -50.6560 C   0  0  0  0  0  0  0  0  0  0  0  0
    7.8550   -2.8520  -50.3220 C   0  0  0  0  0  0  0  0  0  0  0  0
    8.1400   -1.9270  -51.3270 C   0  0  0  0  0  0  0  0  0  0  0  0
    6.0858   -0.0072  -52.6881 H   0  0  0  0  0  0  0  0  0  0  0  0
    5.8217    0.9632  -54.1765 H   0  0  0  0  0  0  0  0  0  0  0  0
    5.4632   -0.7969  -54.1765 H   0  0  0  0  0  0  0  0  0  0  0  0
    9.9110    2.1970  -55.8650 H   0  0  0  0  0  0  0  0  0  0  0  0
    8.1209    3.1229  -57.6071 H   0  0  0  0  0  0  0  0  0  0  0  0
    8.3925    5.8344  -56.7766 H   0  0  0  0  0  0  0  0  0  0  0  0
    9.0206    5.4355  -55.4103 H   0  0  0  0  0  0  0  0  0  0  0  0
   10.2398    4.8801  -58.3377 H   0  0  0  0  0  0  0  0  0  0  0  0
   11.1914    4.3140  -57.2444 H   0  0  0  0  0  0  0  0  0  0  0  0
   10.3128   -0.0066  -56.0217 H   0  0  0  0  0  0  0  0  0  0  0  0
   11.5701   -1.5898  -54.2048 H   0  0  0  0  0  0  0  0  0  0  0  0
   10.4715   -2.8019  -53.3819 H   0  0  0  0  0  0  0  0  0  0  0  0
    9.8419   -3.5012  -55.7918 H   0  0  0  0  0  0  0  0  0  0  0  0
   12.5482   -4.1834  -54.5734 H   0  0  0  0  0  0  0  0  0  0  0  0
   10.9512   -4.9937  -54.2819 H   0  0  0  0  0  0  0  0  0  0  0  0
   12.4332   -6.2618  -55.8401 H   0  0  0  0  0  0  0  0  0  0  0  0
   10.8559   -5.7459  -56.5716 H   0  0  0  0  0  0  0  0  0  0  0  0
   13.5704   -4.4178  -56.9707 H   0  0  0  0  0  0  0  0  0  0  0  0
   12.3350   -6.4780  -58.1250 H   0  0  0  0  0  0  0  0  0  0  0  0
   12.4471   -2.9337  -58.5278 H   0  0  0  0  0  0  0  0  0  0  0  0
   10.8642   -3.7472  -58.1858 H   0  0  0  0  0  0  0  0  0  0  0  0
   12.5608   -2.1405  -56.2278 H   0  0  0  0  0  0  0  0  0  0  0  0
   10.9694   -1.6716  -56.9641 H   0  0  0  0  0  0  0  0  0  0  0  0
    7.5543   -3.8920  -54.0579 H   0  0  0  0  0  0  0  0  0  0  0  0
    7.0505   -5.5442  -52.2594 H   0  0  0  0  0  0  0  0  0  0  0  0
    7.2502   -4.8789  -49.8627 H   0  0  0  0  0  0  0  0  0  0  0  0
    7.9350   -2.5574  -49.2652 H   0  0  0  0  0  0  0  0  0  0  0  0
    8.4427   -0.9037  -51.0603 H   0  0  0  0  0  0  0  0  0  0  0  0
  1  2  1  0
  2  3  1  0
  3  4  1  0
  4  5  2  0
  4  6  1  0
  6  7  1  0
  7  8  1  0
  8  9  1  0
  3 10  2  0
 10 11  1  0
 11 12  1  0
 12 13  1  0
 13 14  1  0
 14 15  1  0
 15 16  1  0
 16 17  1  0
 16 18  1  0
 18 19  1  0
 11 20  1  0
 20 21  1  0
 21 22  2  0
 22 23  1  0
 23 24  2  0
 24 25  1  0
 25 26  2  0
 20  2  2  0
 26 21  1  0
  9  7  1  0
 19 13  1  0
  1 27  1  0
  1 28  1  0
  1 29  1  0
  6 30  1  0
  7 31  1  0
  8 32  1  0
  8 33  1  0
  9 34  1  0
  9 35  1  0
 10 36  1  0
 12 37  1  0
 12 38  1  0
 13 39  1  1
 14 40  1  0
 14 41  1  0
 15 42  1  0
 15 43  1  0
 16 44  1  6
 17 45  1  0
 18 46  1  0
 18 47  1  0
 19 48  1  0
 19 49  1  0
 22 50  1  0
 23 51  1  0
 24 52  1  0
 25 53  1  0
 26 54  1  0
M  END
>  <meeko>  (155) 
{"is_sidechain": false}

$$$$

     RDKit          3D

 47 49  0  0  0  0  0  0  0  0999 V2000
    5.7390   -0.6020  -53.7300 C   0  0  0  0  0  0  0  0  0  0  0  0
    7.1860   -0.6730  -54.0850 C   0  0  0  0  0  0  0  0  0  0  0  0
    7.8510    0.1530  -55.0480 C   0  0  0  0  0  0  0  0  0  0  0  0
    7.2450    1.2190  -55.8990 C   0  0  0  0  0  0  0  0  0  0  0  0
    8.2400    1.8990  -56.6570 O   0  0  0  0  0  0  0  0  0  0  0  0
    9.1770   -0.2260  -55.0430 C   0  0  0  0  0  0  0  0  0  0  0  0
    9.3420   -1.2630  -54.1610 N   0  0  0  0  0  0  0  0  0  0  0  0
   10.6230   -1.9040  -53.9030 C   0  0  0  0  0  0  0  0  0  0  0  0
   11.1460   -2.8790  -54.9790 C   0  0  2  0  0  0  0  0  0  0  0  0
   11.4550   -2.2130  -56.3240 C   0  0  0  0  0  0  0  0  0  0  0  0
   12.2200   -3.1550  -57.2660 C   0  0  0  0  0  0  0  0  0  0  0  0
   11.8910   -4.6390  -57.0590 C   0  0  1  0  0  0  0  0  0  0  0  0
   12.8200   -5.2170  -56.1430 O   0  0  0  0  0  0  0  0  0  0  0  0
   10.4840   -4.8390  -56.5090 C   0  0  0  0  0  0  0  0  0  0  0  0
   10.2400   -4.1040  -55.1840 C   0  0  0  0  0  0  0  0  0  0  0  0
    8.1430   -1.5140  -53.5210 C   0  0  0  0  0  0  0  0  0  0  0  0
    7.9750   -2.4900  -52.4440 C   0  0  0  0  0  0  0  0  0  0  0  0
    8.2370   -2.1260  -51.1190 C   0  0  0  0  0  0  0  0  0  0  0  0
    8.0720   -3.0520  -50.0870 C   0  0  0  0  0  0  0  0  0  0  0  0
    7.6390   -4.3460  -50.3740 C   0  0  0  0  0  0  0  0  0  0  0  0
    7.3640   -4.7130  -51.6910 C   0  0  0  0  0  0  0  0  0  0  0  0
    7.5270   -3.7850  -52.7230 C   0  0  0  0  0  0  0  0  0  0  0  0
    5.6298   -0.5966  -52.6354 H   0  0  0  0  0  0  0  0  0  0  0  0
    5.3040    0.3186  -54.1464 H   0  0  0  0  0  0  0  0  0  0  0  0
    5.2160   -1.4756  -54.1464 H   0  0  0  0  0  0  0  0  0  0  0  0
    6.5204    0.7600  -56.5877 H   0  0  0  0  0  0  0  0  0  0  0  0
    6.7474    1.9483  -55.2428 H   0  0  0  0  0  0  0  0  0  0  0  0
    9.0960    1.6230  -56.2850 H   0  0  0  0  0  0  0  0  0  0  0  0
    9.9739    0.2300  -55.6489 H   0  0  0  0  0  0  0  0  0  0  0  0
   11.3737   -1.1092  -53.7819 H   0  0  0  0  0  0  0  0  0  0  0  0
   10.4580   -2.5247  -53.0100 H   0  0  0  0  0  0  0  0  0  0  0  0
   12.1019   -3.2336  -54.5660 H   0  0  0  0  0  0  0  0  0  0  0  0
   10.5084   -1.9225  -56.8030 H   0  0  0  0  0  0  0  0  0  0  0  0
   12.0879   -1.3340  -56.1323 H   0  0  0  0  0  0  0  0  0  0  0  0
   11.9708   -2.8859  -58.3030 H   0  0  0  0  0  0  0  0  0  0  0  0
   13.2901   -3.0302  -57.0442 H   0  0  0  0  0  0  0  0  0  0  0  0
   11.9565   -5.1274  -58.0424 H   0  0  0  0  0  0  0  0  0  0  0  0
   12.9920   -4.5600  -55.4470 H   0  0  0  0  0  0  0  0  0  0  0  0
    9.7627   -4.4680  -57.2520 H   0  0  0  0  0  0  0  0  0  0  0  0
   10.3608   -5.9143  -56.3126 H   0  0  0  0  0  0  0  0  0  0  0  0
    9.1926   -3.7687  -55.1610 H   0  0  0  0  0  0  0  0  0  0  0  0
   10.4723   -4.8135  -54.3761 H   0  0  0  0  0  0  0  0  0  0  0  0
    8.5748   -1.1048  -50.8888 H   0  0  0  0  0  0  0  0  0  0  0  0
    8.2836   -2.7607  -49.0476 H   0  0  0  0  0  0  0  0  0  0  0  0
    7.5143   -5.0772  -49.5617 H   0  0  0  0  0  0  0  0  0  0  0  0
    7.0189   -5.7326  -51.9174 H   0  0  0  0  0  0  0  0  0  0  0  0
    7.3018   -4.0746  -53.7600 H   0  0  0  0  0  0  0  0  0  0  0  0
  1  2  1  0
  2  3  1  0
  3  4  1  0
  4  5  1  0
  3  6  2  0
  6  7  1  0
  7  8  1  0
  8  9  1  0
  9 10  1  0
 10 11  1  0
 11 12  1  0
 12 13  1  0
 12 14  1  0
 14 15  1  0
  7 16  1  0
 16 17  1  0
 17 18  2  0
 18 19  1  0
 19 20  2  0
 20 21  1  0
 21 22  2  0
 16  2  2  0
 22 17  1  0
 15  9  1  0
  1 23  1  0
  1 24  1  0
  1 25  1  0
  4 26  1  0
  4 27  1  0
  5 28  1  0
  6 29  1  0
  8 30  1  0
  8 31  1  0
  9 32  1  6
 10 33  1  0
 10 34  1  0
 11 35  1  0
 11 36  1  0
 12 37  1  1
 13 38  1  0
 14 39  1  0
 14 40  1  0
 15 41  1  0
 15 42  1  0
 18 43  1  0
 19 44  1  0
 20 45  1  0
 21 46  1  0
 22 47  1  0
M  END
>  <meeko>  (156) 
{"is_sidechain": false}

$$$$

     RDKit          3D

 67 70  0  0  0  0  0  0  0  0999 V2000
   10.5680    3.7120  -55.8880 C   0  0  0  0  0  0  0  0  0  0  0  0
    9.9950    3.0310  -57.0860 C   0  0  0  0  0  0  0  0  0  0  0  0
    8.9990    1.9910  -57.0970 C   0  0  0  0  0  0  0  0  0  0  0  0
    8.3180    1.2980  -55.9950 C   0  0  0  0  0  0  0  0  0  0  0  0
    7.1330    1.5040  -55.7630 O   0  0  0  0  0  0  0  0  0  0  0  0
    9.1310    0.3930  -55.3410 N   0  0  0  0  0  0  0  0  0  0  0  0
    8.8140   -0.4030  -54.2240 C   0  0  0  0  0  0  0  0  0  0  0  0
    9.6920   -1.4430  -53.9100 C   0  0  0  0  0  0  0  0  0  0  0  0
    9.4520   -2.2760  -52.8110 C   0  0  0  0  0  0  0  0  0  0  0  0
    8.3270   -2.0990  -51.9850 C   0  0  0  0  0  0  0  0  0  0  0  0
    8.0900   -3.0310  -50.7850 C   0  0  0  0  0  0  0  0  0  0  0  0
    7.4770   -2.2280  -49.6180 C   0  0  0  0  0  0  0  0  0  0  0  0
    9.3760   -3.7020  -50.2530 C   0  0  0  0  0  0  0  0  0  0  0  0
    7.1190   -4.1610  -51.1900 C   0  0  0  0  0  0  0  0  0  0  0  0
    7.4580   -1.0470  -52.3130 C   0  0  0  0  0  0  0  0  0  0  0  0
    7.6990   -0.2100  -53.4150 C   0  0  0  0  0  0  0  0  0  0  0  0
    8.7280    1.7310  -58.4280 C   0  0  0  0  0  0  0  0  0  0  0  0
    9.5170    2.5270  -59.2120 N   0  0  0  0  0  0  0  0  0  0  0  0
    9.5030    2.4960  -60.6690 C   0  0  0  0  0  0  0  0  0  0  0  0
    8.2770    3.1850  -61.3030 C   0  0  0  0  0  0  0  0  0  0  0  0
    7.7540    2.3190  -62.4680 C   0  0  0  0  0  0  0  0  0  0  0  0
    6.2980    2.6180  -62.8000 C   0  0  0  0  0  0  0  0  0  0  0  0
    5.4320    2.3080  -61.5980 C   0  0  0  0  0  0  0  0  0  0  0  0
    4.2610    1.9550  -61.7260 O   0  0  0  0  0  0  0  0  0  0  0  0
    6.0730    2.4450  -60.2340 C   0  0  0  0  0  0  0  0  0  0  0  0
    7.1680    3.5050  -60.2770 C   0  0  0  0  0  0  0  0  0  0  0  0
   10.3280    3.3050  -58.4120 C   0  0  0  0  0  0  0  0  0  0  0  0
   11.3130    4.2530  -58.9330 C   0  0  0  0  0  0  0  0  0  0  0  0
   10.9070    5.5160  -59.3800 C   0  0  0  0  0  0  0  0  0  0  0  0
   11.8480    6.4220  -59.8740 C   0  0  0  0  0  0  0  0  0  0  0  0
   13.1950    6.0680  -59.9290 C   0  0  0  0  0  0  0  0  0  0  0  0
   13.6050    4.8090  -59.4930 C   0  0  0  0  0  0  0  0  0  0  0  0
   12.6650    3.9020  -58.9990 C   0  0  0  0  0  0  0  0  0  0  0  0
   10.1728    3.2423  -54.9752 H   0  0  0  0  0  0  0  0  0  0  0  0
   11.6640    3.6196  -55.9029 H   0  0  0  0  0  0  0  0  0  0  0  0
   10.2895    4.7761  -55.9029 H   0  0  0  0  0  0  0  0  0  0  0  0
   10.0360    0.2380  -55.7570 H   0  0  0  0  0  0  0  0  0  0  0  0
   10.5826   -1.6094  -54.5338 H   0  0  0  0  0  0  0  0  0  0  0  0
   10.1596   -3.0881  -52.5879 H   0  0  0  0  0  0  0  0  0  0  0  0
    7.8072   -2.6605  -48.6620 H   0  0  0  0  0  0  0  0  0  0  0  0
    7.8074   -1.1806  -49.6802 H   0  0  0  0  0  0  0  0  0  0  0  0
    6.3796   -2.2706  -49.6802 H   0  0  0  0  0  0  0  0  0  0  0  0
    9.3646   -3.6960  -49.1531 H   0  0  0  0  0  0  0  0  0  0  0  0
    9.4240   -4.7401  -50.6136 H   0  0  0  0  0  0  0  0  0  0  0  0
   10.2550   -3.1476  -50.6136 H   0  0  0  0  0  0  0  0  0  0  0  0
    6.7111   -4.6357  -50.2854 H   0  0  0  0  0  0  0  0  0  0  0  0
    6.2959   -3.7408  -51.7866 H   0  0  0  0  0  0  0  0  0  0  0  0
    7.6582   -4.9115  -51.7866 H   0  0  0  0  0  0  0  0  0  0  0  0
    6.5666   -0.8737  -51.6921 H   0  0  0  0  0  0  0  0  0  0  0  0
    6.9982    0.6072  -53.6408 H   0  0  0  0  0  0  0  0  0  0  0  0
    7.9941    0.9998  -58.7976 H   0  0  0  0  0  0  0  0  0  0  0  0
   10.4097    3.0008  -61.0338 H   0  0  0  0  0  0  0  0  0  0  0  0
    9.4583    1.4369  -60.9628 H   0  0  0  0  0  0  0  0  0  0  0  0
    8.5971    4.1621  -61.6939 H   0  0  0  0  0  0  0  0  0  0  0  0
    8.3680    2.5162  -63.3591 H   0  0  0  0  0  0  0  0  0  0  0  0
    7.8202    1.2649  -62.1607 H   0  0  0  0  0  0  0  0  0  0  0  0
    6.1928    3.6808  -63.0632 H   0  0  0  0  0  0  0  0  0  0  0  0
    5.9809    1.9963  -63.6503 H   0  0  0  0  0  0  0  0  0  0  0  0
    5.3086    2.7404  -59.5002 H   0  0  0  0  0  0  0  0  0  0  0  0
    6.5152    1.4804  -59.9441 H   0  0  0  0  0  0  0  0  0  0  0  0
    6.7117    4.4698  -60.5433 H   0  0  0  0  0  0  0  0  0  0  0  0
    7.6377    3.5337  -59.2827 H   0  0  0  0  0  0  0  0  0  0  0  0
    9.8438    5.7956  -59.3420 H   0  0  0  0  0  0  0  0  0  0  0  0
   11.5260    7.4153  -60.2198 H   0  0  0  0  0  0  0  0  0  0  0  0
   13.9355    6.7830  -60.3169 H   0  0  0  0  0  0  0  0  0  0  0  0
   14.6681    4.5302  -59.5380 H   0  0  0  0  0  0  0  0  0  0  0  0
   12.9896    2.9070  -58.6603 H   0  0  0  0  0  0  0  0  0  0  0  0
  1  2  1  0
  2  3  1  0
  3  4  1  0
  4  5  2  0
  4  6  1  0
  6  7  1  0
  7  8  1  0
  8  9  2  0
  9 10  1  0
 10 11  1  0
 11 12  1  0
 11 13  1  0
 11 14  1  0
 10 15  2  0
 15 16  1  0
  3 17  2  0
 17 18  1  0
 18 19  1  0
 19 20  1  0
 20 21  1  0
 21 22  1  0
 22 23  1  0
 23 24  2  0
 23 25  1  0
 25 26  1  0
 18 27  1  0
 27 28  1  0
 28 29  2  0
 29 30  1  0
 30 31  2  0
 31 32  1  0
 32 33  2  0
 27  2  2  0
 33 28  1  0
 16  7  2  0
 26 20  1  0
  1 34  1  0
  1 35  1  0
  1 36  1  0
  6 37  1  0
  8 38  1  0
  9 39  1  0
 12 40  1  0
 12 41  1  0
 12 42  1  0
 13 43  1  0
 13 44  1  0
 13 45  1  0
 14 46  1  0
 14 47  1  0
 14 48  1  0
 15 49  1  0
 16 50  1  0
 17 51  1  0
 19 52  1  0
 19 53  1  0
 20 54  1  0
 21 55  1  0
 21 56  1  0
 22 57  1  0
 22 58  1  0
 25 59  1  0
 25 60  1  0
 26 61  1  0
 26 62  1  0
 29 63  1  0
 30 64  1  0
 31 65  1  0
 32 66  1  0
 33 67  1  0
M  END
>  <meeko>  (157) 
{"is_sidechain": false}

$$$$

     RDKit          3D

 77 82  0  0  0  0  0  0  0  0999 V2000
    5.3160   -4.4490  -50.7470 C   0  0  0  0  0  0  0  0  0  0  0  0
    6.6590   -3.8240  -50.9800 C   0  0  0  0  0  0  0  0  0  0  0  0
    7.7120   -4.0490  -50.0860 C   0  0  0  0  0  0  0  0  0  0  0  0
    8.9560   -3.4510  -50.2950 C   0  0  0  0  0  0  0  0  0  0  0  0
    9.1530   -2.6110  -51.3900 C   0  0  0  0  0  0  0  0  0  0  0  0
    8.1030   -2.3550  -52.2780 C   0  0  0  0  0  0  0  0  0  0  0  0
    8.3060   -1.4680  -53.4210 C   0  0  0  0  0  0  0  0  0  0  0  0
    7.4560   -0.4870  -53.9240 C   0  0  0  0  0  0  0  0  0  0  0  0
    6.1110   -0.1160  -53.3920 C   0  0  0  0  0  0  0  0  0  0  0  0
    8.1020    0.1270  -55.0560 C   0  0  0  0  0  0  0  0  0  0  0  0
    7.5700    1.2080  -55.8970 C   0  0  0  0  0  0  0  0  0  0  0  0
    6.4370    1.1810  -56.3660 O   0  0  0  0  0  0  0  0  0  0  0  0
    8.4490    2.2430  -56.1430 N   0  0  0  0  0  0  0  0  0  0  0  0
    8.1240    3.3540  -57.0120 C   0  0  0  0  0  0  0  0  0  0  0  0
    9.2670    3.7550  -57.9710 C   0  0  2  0  0  0  0  0  0  0  0  0
    9.5860    2.5490  -58.8960 C   0  0  0  0  0  0  0  0  0  0  0  0
   10.7140    2.8960  -59.8810 C   0  0  1  0  0  0  0  0  0  0  0  0
   10.2820    4.0910  -60.7440 C   0  0  0  0  0  0  0  0  0  0  0  0
    9.9900    5.3060  -59.8500 C   0  0  2  0  0  0  0  0  0  0  0  0
   11.2560    5.6700  -59.0590 C   0  0  0  0  0  0  0  0  0  0  0  0
   11.6930    4.4800  -58.1880 C   0  0  2  0  0  0  0  0  0  0  0  0
   11.9770    3.2690  -59.0890 C   0  0  0  0  0  0  0  0  0  0  0  0
   10.5610    4.1300  -57.2060 C   0  0  0  0  0  0  0  0  0  0  0  0
    8.8600    4.9550  -58.8660 C   0  0  0  0  0  0  0  0  0  0  0  0
    9.3300   -0.5010  -55.1760 C   0  0  0  0  0  0  0  0  0  0  0  0
    9.4330   -1.4770  -54.2140 N   0  0  0  0  0  0  0  0  0  0  0  0
   10.6000   -2.3420  -54.0790 C   0  0  0  0  0  0  0  0  0  0  0  0
   10.8920   -3.1870  -55.3320 C   0  0  2  0  0  0  0  0  0  0  0  0
   11.6520   -4.4830  -54.9920 C   0  0  0  0  0  0  0  0  0  0  0  0
   12.4650   -5.0530  -56.1610 C   0  0  0  0  0  0  0  0  0  0  0  0
   11.9090   -4.6510  -57.5230 C   0  0  1  0  0  0  0  0  0  0  0  0
   10.5890   -5.1720  -57.6710 O   0  0  0  0  0  0  0  0  0  0  0  0
   11.8600   -3.1280  -57.6870 C   0  0  0  0  0  0  0  0  0  0  0  0
   11.6710   -2.3690  -56.3660 C   0  0  0  0  0  0  0  0  0  0  0  0
    6.8600   -2.9660  -52.0700 C   0  0  0  0  0  0  0  0  0  0  0  0
    5.1337   -4.5338  -49.6655 H   0  0  0  0  0  0  0  0  0  0  0  0
    4.5356   -3.8215  -51.2023 H   0  0  0  0  0  0  0  0  0  0  0  0
    5.2935   -5.4501  -51.2023 H   0  0  0  0  0  0  0  0  0  0  0  0
    7.5585   -4.7010  -49.2134 H   0  0  0  0  0  0  0  0  0  0  0  0
    9.7821   -3.6429  -49.5945 H   0  0  0  0  0  0  0  0  0  0  0  0
   10.1370   -2.1482  -51.5562 H   0  0  0  0  0  0  0  0  0  0  0  0
    6.1369   -0.1232  -52.2923 H   0  0  0  0  0  0  0  0  0  0  0  0
    5.8415    0.8900  -53.7459 H   0  0  0  0  0  0  0  0  0  0  0  0
    5.3638   -0.8416  -53.7459 H   0  0  0  0  0  0  0  0  0  0  0  0
    9.3940    2.1650  -55.8000 H   0  0  0  0  0  0  0  0  0  0  0  0
    7.2471    3.0765  -57.6154 H   0  0  0  0  0  0  0  0  0  0  0  0
    7.9332    4.2214  -56.3629 H   0  0  0  0  0  0  0  0  0  0  0  0
    9.8978    1.6939  -58.2782 H   0  0  0  0  0  0  0  0  0  0  0  0
    8.6823    2.2986  -59.4709 H   0  0  0  0  0  0  0  0  0  0  0  0
   10.9241    2.0312  -60.5275 H   0  0  0  0  0  0  0  0  0  0  0  0
   11.0887    4.3423  -61.4483 H   0  0  0  0  0  0  0  0  0  0  0  0
    9.3711    3.8245  -61.3001 H   0  0  0  0  0  0  0  0  0  0  0  0
    9.6849    6.1588  -60.4742 H   0  0  0  0  0  0  0  0  0  0  0  0
   12.0639    5.9234  -59.7612 H   0  0  0  0  0  0  0  0  0  0  0  0
   11.0409    6.5321  -58.4105 H   0  0  0  0  0  0  0  0  0  0  0  0
   12.6020    4.7437  -57.6275 H   0  0  0  0  0  0  0  0  0  0  0  0
   12.7865    3.5188  -59.7906 H   0  0  0  0  0  0  0  0  0  0  0  0
   12.2762    2.4153  -58.4631 H   0  0  0  0  0  0  0  0  0  0  0  0
   10.8729    3.2774  -56.5849 H   0  0  0  0  0  0  0  0  0  0  0  0
   10.3566    5.0079  -56.5755 H   0  0  0  0  0  0  0  0  0  0  0  0
    8.6521    5.8270  -58.2285 H   0  0  0  0  0  0  0  0  0  0  0  0
    7.9629    4.6803  -59.4403 H   0  0  0  0  0  0  0  0  0  0  0  0
   10.1005   -0.2575  -55.9224 H   0  0  0  0  0  0  0  0  0  0  0  0
   11.4776   -1.7116  -53.8730 H   0  0  0  0  0  0  0  0  0  0  0  0
   10.3864   -3.0446  -53.2600 H   0  0  0  0  0  0  0  0  0  0  0  0
    9.9214   -3.4759  -55.7616 H   0  0  0  0  0  0  0  0  0  0  0  0
   12.3414   -4.2721  -54.1612 H   0  0  0  0  0  0  0  0  0  0  0  0
   10.8950   -5.2377  -54.7323 H   0  0  0  0  0  0  0  0  0  0  0  0
   13.4988   -4.6855  -56.0816 H   0  0  0  0  0  0  0  0  0  0  0  0
   12.4139   -6.1498  -56.0945 H   0  0  0  0  0  0  0  0  0  0  0  0
   12.5778   -5.0629  -58.2931 H   0  0  0  0  0  0  0  0  0  0  0  0
   10.4670   -5.3960  -58.6090 H   0  0  0  0  0  0  0  0  0  0  0  0
   12.8041   -2.7978  -58.1448 H   0  0  0  0  0  0  0  0  0  0  0  0
   10.9859   -2.9011  -58.3151 H   0  0  0  0  0  0  0  0  0  0  0  0
   12.6611   -2.1268  -55.9524 H   0  0  0  0  0  0  0  0  0  0  0  0
   11.0917   -1.4589  -56.5807 H   0  0  0  0  0  0  0  0  0  0  0  0
    6.0334   -2.7706  -52.7689 H   0  0  0  0  0  0  0  0  0  0  0  0
  1  2  1  0
  2  3  2  0
  3  4  1  0
  4  5  2  0
  5  6  1  0
  6  7  1  0
  7  8  2  0
  8  9  1  0
  8 10  1  0
 10 11  1  0
 11 12  2  0
 11 13  1  0
 13 14  1  0
 15 14  1  1
 15 16  1  0
 16 17  1  0
 17 18  1  0
 18 19  1  0
 19 20  1  0
 20 21  1  0
 21 22  1  0
 21 23  1  0
 19 24  1  0
 10 25  2  0
 25 26  1  0
 26 27  1  0
 27 28  1  0
 28 29  1  0
 29 30  1  0
 30 31  1  0
 31 32  1  0
 31 33  1  0
 33 34  1  0
  6 35  2  0
 35  2  1  0
 26  7  1  0
 34 28  1  0
 23 15  1  0
 24 15  1  0
 22 17  1  0
  1 36  1  0
  1 37  1  0
  1 38  1  0
  3 39  1  0
  4 40  1  0
  5 41  1  0
  9 42  1  0
  9 43  1  0
  9 44  1  0
 13 45  1  0
 14 46  1  0
 14 47  1  0
 16 48  1  0
 16 49  1  0
 17 50  1  6
 18 51  1  0
 18 52  1  0
 19 53  1  6
 20 54  1  0
 20 55  1  0
 21 56  1  1
 22 57  1  0
 22 58  1  0
 23 59  1  0
 23 60  1  0
 24 61  1  0
 24 62  1  0
 25 63  1  0
 27 64  1  0
 27 65  1  0
 28 66  1  1
 29 67  1  0
 29 68  1  0
 30 69  1  0
 30 70  1  0
 31 71  1  1
 32 72  1  0
 33 73  1  0
 33 74  1  0
 34 75  1  0
 34 76  1  0
 35 77  1  0
M  END
>  <meeko>  (158) 
{"is_sidechain": false}

$$$$

     RDKit          3D

 57 60  0  0  0  0  0  0  0  0999 V2000
    7.9320    0.4600  -53.4650 C   0  0  0  0  0  0  0  0  0  0  0  0
    8.9220   -0.4190  -54.1570 C   0  0  0  0  0  0  0  0  0  0  0  0
    9.6760   -0.0630  -55.3310 C   0  0  0  0  0  0  0  0  0  0  0  0
    9.6140    1.2100  -56.0700 C   0  0  0  0  0  0  0  0  0  0  0  0
    8.6680    1.9750  -55.9310 O   0  0  0  0  0  0  0  0  0  0  0  0
   10.7140    1.4420  -56.8790 N   0  0  0  0  0  0  0  0  0  0  0  0
   10.9460    2.5410  -57.7300 C   0  0  0  0  0  0  0  0  0  0  0  0
   11.8130    3.5350  -57.2590 C   0  0  0  0  0  0  0  0  0  0  0  0
   12.1040    4.6590  -58.0380 C   0  0  0  0  0  0  0  0  0  0  0  0
   11.5310    4.8000  -59.3020 C   0  0  0  0  0  0  0  0  0  0  0  0
   11.9330    6.2120  -60.2140 Cl  0  0  0  0  0  0  0  0  0  0  0  0
   10.6680    3.8120  -59.7840 C   0  0  0  0  0  0  0  0  0  0  0  0
    9.9260    3.9190  -61.3430 Cl  0  0  0  0  0  0  0  0  0  0  0  0
   10.3790    2.6870  -58.9990 C   0  0  0  0  0  0  0  0  0  0  0  0
   10.4410   -1.1750  -55.6430 C   0  0  0  0  0  0  0  0  0  0  0  0
   10.2140   -2.1540  -54.7040 N   0  0  0  0  0  0  0  0  0  0  0  0
   10.8610   -3.4600  -54.7410 C   0  0  0  0  0  0  0  0  0  0  0  0
   10.7430   -4.1800  -56.0990 C   0  0  2  0  0  0  0  0  0  0  0  0
   11.1610   -5.6610  -55.9710 C   0  0  0  0  0  0  0  0  0  0  0  0
   12.5840   -5.9130  -56.4680 C   0  0  0  0  0  0  0  0  0  0  0  0
   12.7350   -5.5410  -57.9480 C   0  0  1  0  0  0  0  0  0  0  0  0
   12.4000   -6.6640  -58.7620 O   0  0  0  0  0  0  0  0  0  0  0  0
   11.8380   -4.3740  -58.3710 C   0  0  0  0  0  0  0  0  0  0  0  0
   11.5370   -3.4480  -57.2000 C   0  0  0  0  0  0  0  0  0  0  0  0
    9.2720   -1.7190  -53.7980 C   0  0  0  0  0  0  0  0  0  0  0  0
    8.7670   -2.5250  -52.6900 C   0  0  0  0  0  0  0  0  0  0  0  0
    9.5050   -2.6350  -51.5050 C   0  0  0  0  0  0  0  0  0  0  0  0
    9.0250   -3.4050  -50.4440 C   0  0  0  0  0  0  0  0  0  0  0  0
    7.8040   -4.0700  -50.5640 C   0  0  0  0  0  0  0  0  0  0  0  0
    7.0750   -3.9690  -51.7480 C   0  0  0  0  0  0  0  0  0  0  0  0
    5.5690   -4.7890  -51.8940 Cl  0  0  0  0  0  0  0  0  0  0  0  0
    7.5510   -3.2060  -52.8120 C   0  0  0  0  0  0  0  0  0  0  0  0
    8.0483    0.3568  -52.3760 H   0  0  0  0  0  0  0  0  0  0  0  0
    8.1057    1.5069  -53.7547 H   0  0  0  0  0  0  0  0  0  0  0  0
    6.9131    0.1636  -53.7547 H   0  0  0  0  0  0  0  0  0  0  0  0
   11.4620    0.7670  -56.8050 H   0  0  0  0  0  0  0  0  0  0  0  0
   12.2705    3.4301  -56.2642 H   0  0  0  0  0  0  0  0  0  0  0  0
   12.7852    5.4326  -57.6539 H   0  0  0  0  0  0  0  0  0  0  0  0
    9.7001    1.9125  -59.3852 H   0  0  0  0  0  0  0  0  0  0  0  0
   11.1208   -1.2612  -56.5035 H   0  0  0  0  0  0  0  0  0  0  0  0
   11.9285   -3.3237  -54.5134 H   0  0  0  0  0  0  0  0  0  0  0  0
   10.3472   -4.0908  -54.0007 H   0  0  0  0  0  0  0  0  0  0  0  0
    9.6867   -4.1587  -56.4052 H   0  0  0  0  0  0  0  0  0  0  0  0
   11.0999   -5.9545  -54.9126 H   0  0  0  0  0  0  0  0  0  0  0  0
   10.4787   -6.2559  -56.5959 H   0  0  0  0  0  0  0  0  0  0  0  0
   13.2832   -5.3065  -55.8736 H   0  0  0  0  0  0  0  0  0  0  0  0
   12.8043   -6.9849  -56.3567 H   0  0  0  0  0  0  0  0  0  0  0  0
   13.7831   -5.2358  -58.0831 H   0  0  0  0  0  0  0  0  0  0  0  0
   11.6330   -6.4130  -59.3070 H   0  0  0  0  0  0  0  0  0  0  0  0
   12.3468   -3.7996  -59.1592 H   0  0  0  0  0  0  0  0  0  0  0  0
   10.8865   -4.7858  -58.7385 H   0  0  0  0  0  0  0  0  0  0  0  0
   12.4852   -3.0847  -56.7771 H   0  0  0  0  0  0  0  0  0  0  0  0
   10.9290   -2.6083  -57.5677 H   0  0  0  0  0  0  0  0  0  0  0  0
   10.4680   -2.1120  -51.4096 H   0  0  0  0  0  0  0  0  0  0  0  0
    9.6082   -3.4874  -49.5150 H   0  0  0  0  0  0  0  0  0  0  0  0
    7.4183   -4.6715  -49.7277 H   0  0  0  0  0  0  0  0  0  0  0  0
    6.9725   -3.1392  -53.7452 H   0  0  0  0  0  0  0  0  0  0  0  0
  1  2  1  0
  2  3  1  0
  3  4  1  0
  4  5  2  0
  4  6  1  0
  6  7  1  0
  7  8  1  0
  8  9  2  0
  9 10  1  0
 10 11  1  0
 10 12  2  0
 12 13  1  0
 12 14  1  0
  3 15  2  0
 15 16  1  0
 16 17  1  0
 17 18  1  0
 18 19  1  0
 19 20  1  0
 20 21  1  0
 21 22  1  0
 21 23  1  0
 23 24  1  0
 16 25  1  0
 25 26  1  0
 26 27  2  0
 27 28  1  0
 28 29  2  0
 29 30  1  0
 30 31  1  0
 30 32  2  0
 25  2  2  0
 32 26  1  0
 14  7  2  0
 24 18  1  0
  1 33  1  0
  1 34  1  0
  1 35  1  0
  6 36  1  0
  8 37  1  0
  9 38  1  0
 14 39  1  0
 15 40  1  0
 17 41  1  0
 17 42  1  0
 18 43  1  1
 19 44  1  0
 19 45  1  0
 20 46  1  0
 20 47  1  0
 21 48  1  6
 22 49  1  0
 23 50  1  0
 23 51  1  0
 24 52  1  0
 24 53  1  0
 27 54  1  0
 28 55  1  0
 29 56  1  0
 32 57  1  0
M  END
>  <meeko>  (159) 
{"is_sidechain": false}

$$$$

     RDKit          3D

 76 81  0  0  0  0  0  0  0  0999 V2000
    9.8380    0.4300  -55.1810 C   0  0  0  0  0  0  0  0  0  0  0  0
    8.5230    0.8900  -55.7110 C   0  0  0  0  0  0  0  0  0  0  0  0
    7.2170    0.4050  -55.3400 C   0  0  0  0  0  0  0  0  0  0  0  0
    6.8150   -0.6640  -54.4220 C   0  0  0  0  0  0  0  0  0  0  0  0
    5.7960   -1.3220  -54.6010 O   0  0  0  0  0  0  0  0  0  0  0  0
    7.7100   -0.8920  -53.3980 N   0  0  0  0  0  0  0  0  0  0  0  0
    7.6090   -1.9780  -52.4120 C   0  0  1  0  0  0  0  0  0  0  0  0
    6.6620   -3.0560  -53.0160 C   0  0  0  0  0  0  0  0  0  0  0  0
    6.9230   -4.4730  -52.4900 C   0  0  0  0  0  0  0  0  0  0  0  0
    7.4930   -4.4770  -51.0640 C   0  0  2  0  0  0  0  0  0  0  0  0
    7.7160   -5.9210  -50.6000 C   0  0  0  0  0  0  0  0  0  0  0  0
    6.5140   -3.7460  -50.1090 C   0  0  0  0  0  0  0  0  0  0  0  0
    7.1750   -2.3910  -49.8640 C   0  0  1  0  0  0  0  0  0  0  0  0
    8.6340   -2.8090  -49.7120 C   0  0  0  0  0  0  0  0  0  0  0  0
    8.8210   -3.6500  -50.9780 C   0  0  2  0  0  0  0  0  0  0  0  0
    8.9670   -2.6700  -52.1590 C   0  0  0  0  0  0  0  0  0  0  0  0
    7.0190   -1.4370  -51.0690 C   0  0  0  0  0  0  0  0  0  0  0  0
    6.3040    1.1970  -56.0140 C   0  0  0  0  0  0  0  0  0  0  0  0
    6.9780    2.0650  -56.8310 N   0  0  0  0  0  0  0  0  0  0  0  0
    6.3320    3.0620  -57.6690 C   0  0  0  0  0  0  0  0  0  0  0  0
    5.6510    2.5440  -58.9520 C   0  0  2  0  0  0  0  0  0  0  0  0
    4.1250    2.4470  -58.8420 C   0  0  0  0  0  0  0  0  0  0  0  0
    3.4670    2.1810  -60.2040 C   0  0  0  0  0  0  0  0  0  0  0  0
    4.3440    1.3730  -61.1680 C   0  0  1  0  0  0  0  0  0  0  0  0
    5.1030    2.2580  -61.9910 O   0  0  0  0  0  0  0  0  0  0  0  0
    5.3120    0.4600  -60.4260 C   0  0  0  0  0  0  0  0  0  0  0  0
    6.2400    1.2170  -59.4650 C   0  0  0  0  0  0  0  0  0  0  0  0
    8.3290    1.9070  -56.6380 C   0  0  0  0  0  0  0  0  0  0  0  0
    9.3400    2.6760  -57.2850 C   0  0  0  0  0  0  0  0  0  0  0  0
   10.1810    3.3230  -57.8490 C   0  0  0  0  0  0  0  0  0  0  0  0
   11.1710    4.1030  -58.5220 C   0  0  0  0  0  0  0  0  0  0  0  0
   12.5190    3.7360  -58.4540 C   0  0  0  0  0  0  0  0  0  0  0  0
   13.4840    4.5020  -59.1130 C   0  0  0  0  0  0  0  0  0  0  0  0
   13.0920    5.6260  -59.8310 C   0  0  0  0  0  0  0  0  0  0  0  0
   14.0190    6.3590  -60.4630 F   0  0  0  0  0  0  0  0  0  0  0  0
   11.7550    6.0000  -59.9060 C   0  0  0  0  0  0  0  0  0  0  0  0
   10.7900    5.2370  -59.2490 C   0  0  0  0  0  0  0  0  0  0  0  0
    9.8134    0.4386  -54.0813 H   0  0  0  0  0  0  0  0  0  0  0  0
   10.0390   -0.5918  -55.5353 H   0  0  0  0  0  0  0  0  0  0  0  0
   10.6321    1.1037  -55.5353 H   0  0  0  0  0  0  0  0  0  0  0  0
    8.6260   -0.4900  -53.5390 H   0  0  0  0  0  0  0  0  0  0  0  0
    5.6247   -2.7816  -52.7737 H   0  0  0  0  0  0  0  0  0  0  0  0
    6.8495   -3.0766  -54.0997 H   0  0  0  0  0  0  0  0  0  0  0  0
    5.9744   -5.0300  -52.4920 H   0  0  0  0  0  0  0  0  0  0  0  0
    7.6692   -4.9411  -53.1488 H   0  0  0  0  0  0  0  0  0  0  0  0
    7.7214   -5.9562  -49.5006 H   0  0  0  0  0  0  0  0  0  0  0  0
    6.9057   -6.5586  -50.9832 H   0  0  0  0  0  0  0  0  0  0  0  0
    8.6809   -6.2844  -50.9832 H   0  0  0  0  0  0  0  0  0  0  0  0
    5.5286   -3.6201  -50.5814 H   0  0  0  0  0  0  0  0  0  0  0  0
    6.3369   -4.3040  -49.1777 H   0  0  0  0  0  0  0  0  0  0  0  0
    6.7471   -1.8408  -49.0130 H   0  0  0  0  0  0  0  0  0  0  0  0
    9.3061   -1.9383  -49.7007 H   0  0  0  0  0  0  0  0  0  0  0  0
    8.8626   -3.3374  -48.7747 H   0  0  0  0  0  0  0  0  0  0  0  0
    9.7006   -4.3105  -50.9838 H   0  0  0  0  0  0  0  0  0  0  0  0
    9.7271   -1.9125  -51.9174 H   0  0  0  0  0  0  0  0  0  0  0  0
    9.2769   -3.2191  -53.0603 H   0  0  0  0  0  0  0  0  0  0  0  0
    5.9460   -1.2465  -51.2184 H   0  0  0  0  0  0  0  0  0  0  0  0
    7.5898   -0.5296  -50.8224 H   0  0  0  0  0  0  0  0  0  0  0  0
    5.2105    1.1386  -55.9100 H   0  0  0  0  0  0  0  0  0  0  0  0
    5.5638    3.5626  -57.0614 H   0  0  0  0  0  0  0  0  0  0  0  0
    7.1417    3.7215  -58.0145 H   0  0  0  0  0  0  0  0  0  0  0  0
    5.8759    3.3175  -59.7011 H   0  0  0  0  0  0  0  0  0  0  0  0
    3.8696    1.6248  -58.1573 H   0  0  0  0  0  0  0  0  0  0  0  0
    3.7491    3.4095  -58.4647 H   0  0  0  0  0  0  0  0  0  0  0  0
    2.5334    1.6244  -60.0353 H   0  0  0  0  0  0  0  0  0  0  0  0
    3.2942    3.1609  -60.6730 H   0  0  0  0  0  0  0  0  0  0  0  0
    3.6704    0.7531  -61.7779 H   0  0  0  0  0  0  0  0  0  0  0  0
    5.2190    3.0880  -61.4970 H   0  0  0  0  0  0  0  0  0  0  0  0
    4.7289   -0.2707  -59.8462 H   0  0  0  0  0  0  0  0  0  0  0  0
    5.9481   -0.0252  -61.1809 H   0  0  0  0  0  0  0  0  0  0  0  0
    6.4452    0.5704  -58.5991 H   0  0  0  0  0  0  0  0  0  0  0  0
    7.1514    1.4664  -60.0282 H   0  0  0  0  0  0  0  0  0  0  0  0
   12.8190    2.8454  -57.8824 H   0  0  0  0  0  0  0  0  0  0  0  0
   14.5456    4.2179  -59.0641 H   0  0  0  0  0  0  0  0  0  0  0  0
   11.4604    6.8913  -60.4794 H   0  0  0  0  0  0  0  0  0  0  0  0
    9.7300    5.5261  -59.3020 H   0  0  0  0  0  0  0  0  0  0  0  0
  1  2  1  0
  2  3  1  0
  3  4  1  0
  4  5  2  0
  4  6  1  0
  7  6  1  6
  7  8  1  0
  8  9  1  0
  9 10  1  0
 10 11  1  1
 10 12  1  0
 12 13  1  0
 13 14  1  0
 14 15  1  0
 15 16  1  0
 13 17  1  0
  3 18  2  0
 18 19  1  0
 19 20  1  0
 20 21  1  0
 21 22  1  0
 22 23  1  0
 23 24  1  0
 24 25  1  0
 24 26  1  0
 26 27  1  0
 19 28  1  0
 28 29  1  0
 29 30  3  0
 30 31  1  0
 31 32  1  0
 32 33  2  0
 33 34  1  0
 34 35  1  0
 34 36  2  0
 36 37  1  0
 28  2  2  0
 37 31  2  0
 16  7  1  0
 27 21  1  0
 17  7  1  0
 15 10  1  0
  1 38  1  0
  1 39  1  0
  1 40  1  0
  6 41  1  0
  8 42  1  0
  8 43  1  0
  9 44  1  0
  9 45  1  0
 11 46  1  0
 11 47  1  0
 11 48  1  0
 12 49  1  0
 12 50  1  0
 13 51  1  1
 14 52  1  0
 14 53  1  0
 15 54  1  1
 16 55  1  0
 16 56  1  0
 17 57  1  0
 17 58  1  0
 18 59  1  0
 20 60  1  0
 20 61  1  0
 21 62  1  1
 22 63  1  0
 22 64  1  0
 23 65  1  0
 23 66  1  0
 24 67  1  1
 25 68  1  0
 26 69  1  0
 26 70  1  0
 27 71  1  0
 27 72  1  0
 32 73  1  0
 33 74  1  0
 36 75  1  0
 37 76  1  0
M  END
>  <meeko>  (160) 
{"is_sidechain": false}

$$$$

     RDKit          3D

 68 72  0  0  0  0  0  0  0  0999 V2000
    5.9050    0.7460  -58.8980 C   0  0  0  0  0  0  0  0  0  0  0  0
    6.6740    2.0010  -58.5960 C   0  0  0  0  0  0  0  0  0  0  0  0
    6.8620    2.9510  -59.6090 C   0  0  0  0  0  0  0  0  0  0  0  0
    7.5960    4.1180  -59.3700 C   0  0  0  0  0  0  0  0  0  0  0  0
    8.1650    4.3630  -58.1140 C   0  0  0  0  0  0  0  0  0  0  0  0
    8.9410    5.6380  -57.8720 C   0  0  0  0  0  0  0  0  0  0  0  0
   10.3460    5.4710  -58.0610 O   0  0  0  0  0  0  0  0  0  0  0  0
   10.7100    4.8360  -59.2910 C   0  0  0  0  0  0  0  0  0  0  0  0
   11.6160    3.6330  -58.9850 C   0  0  0  0  0  0  0  0  0  0  0  0
   13.0370    4.0020  -58.5450 C   0  0  2  0  0  0  0  0  0  0  0  0
   13.0240    4.4930  -57.2090 O   0  0  0  0  0  0  0  0  0  0  0  0
   13.6750    5.0340  -59.4680 C   0  0  0  0  0  0  0  0  0  0  0  0
   12.7760    6.2510  -59.6660 C   0  0  1  0  0  0  0  0  0  0  0  0
   13.4070    7.1230  -60.6030 O   0  0  0  0  0  0  0  0  0  0  0  0
   11.4080    5.8410  -60.2080 C   0  0  0  0  0  0  0  0  0  0  0  0
    7.9530    3.4330  -57.0880 C   0  0  0  0  0  0  0  0  0  0  0  0
    7.2090    2.2690  -57.3240 C   0  0  0  0  0  0  0  0  0  0  0  0
    7.0250    1.3450  -56.1800 C   0  0  0  0  0  0  0  0  0  0  0  0
    5.9080    1.1630  -55.7170 O   0  0  0  0  0  0  0  0  0  0  0  0
    8.1790    0.7220  -55.7600 N   0  0  0  0  0  0  0  0  0  0  0  0
    8.2230   -0.2960  -54.7000 C   0  0  1  0  0  0  0  0  0  0  0  0
    7.9380    0.3580  -53.3240 C   0  0  0  0  0  0  0  0  0  0  0  0
    7.2750   -0.5990  -52.3230 C   0  0  0  0  0  0  0  0  0  0  0  0
    7.6610   -2.0680  -52.5640 C   0  0  2  0  0  0  0  0  0  0  0  0
    6.9850   -2.9580  -51.5150 C   0  0  0  0  0  0  0  0  0  0  0  0
    9.2030   -2.2260  -52.4930 C   0  0  0  0  0  0  0  0  0  0  0  0
    9.6300   -2.3750  -53.9530 C   0  0  1  0  0  0  0  0  0  0  0  0
    8.5300   -3.2920  -54.4780 C   0  0  0  0  0  0  0  0  0  0  0  0
    7.2860   -2.5300  -54.0140 C   0  0  2  0  0  0  0  0  0  0  0  0
    7.1080   -1.3330  -54.9640 C   0  0  0  0  0  0  0  0  0  0  0  0
    9.6050   -1.0280  -54.7070 C   0  0  0  0  0  0  0  0  0  0  0  0
    5.6084    0.2620  -57.9558 H   0  0  0  0  0  0  0  0  0  0  0  0
    5.0060    0.9979  -59.4797 H   0  0  0  0  0  0  0  0  0  0  0  0
    6.5376    0.0594  -59.4797 H   0  0  0  0  0  0  0  0  0  0  0  0
    6.4271    2.7771  -60.6043 H   0  0  0  0  0  0  0  0  0  0  0  0
    7.7277    4.8521  -60.1786 H   0  0  0  0  0  0  0  0  0  0  0  0
    8.5807    6.4074  -58.5707 H   0  0  0  0  0  0  0  0  0  0  0  0
    8.7789    5.9324  -56.8246 H   0  0  0  0  0  0  0  0  0  0  0  0
    9.8110    4.4748  -59.8119 H   0  0  0  0  0  0  0  0  0  0  0  0
   11.1485    3.0470  -58.1799 H   0  0  0  0  0  0  0  0  0  0  0  0
   11.7162    3.0703  -59.9248 H   0  0  0  0  0  0  0  0  0  0  0  0
   13.6440    3.0862  -58.5990 H   0  0  0  0  0  0  0  0  0  0  0  0
   13.7690    4.0850  -56.7350 H   0  0  0  0  0  0  0  0  0  0  0  0
   14.6282    5.3633  -59.0287 H   0  0  0  0  0  0  0  0  0  0  0  0
   13.8333    4.5630  -60.4494 H   0  0  0  0  0  0  0  0  0  0  0  0
   12.6269    6.7507  -58.6975 H   0  0  0  0  0  0  0  0  0  0  0  0
   12.7010    7.6170  -61.0560 H   0  0  0  0  0  0  0  0  0  0  0  0
   10.7776    6.7379  -60.2980 H   0  0  0  0  0  0  0  0  0  0  0  0
   11.5583    5.3625  -61.1870 H   0  0  0  0  0  0  0  0  0  0  0  0
    8.3740    3.6179  -56.0887 H   0  0  0  0  0  0  0  0  0  0  0  0
    8.9990    0.8330  -56.3420 H   0  0  0  0  0  0  0  0  0  0  0  0
    8.8912    0.7040  -52.8976 H   0  0  0  0  0  0  0  0  0  0  0  0
    7.2361    1.1872  -53.4963 H   0  0  0  0  0  0  0  0  0  0  0  0
    7.5851   -0.3156  -51.3064 H   0  0  0  0  0  0  0  0  0  0  0  0
    6.1860   -0.5152  -52.4534 H   0  0  0  0  0  0  0  0  0  0  0  0
    7.2526   -2.6057  -50.5079 H   0  0  0  0  0  0  0  0  0  0  0  0
    5.8934   -2.9103  -51.6422 H   0  0  0  0  0  0  0  0  0  0  0  0
    7.3239   -3.9968  -51.6422 H   0  0  0  0  0  0  0  0  0  0  0  0
    9.6661   -1.3373  -52.0394 H   0  0  0  0  0  0  0  0  0  0  0  0
    9.5117   -3.0809  -51.8735 H   0  0  0  0  0  0  0  0  0  0  0  0
   10.6575   -2.7477  -54.0769 H   0  0  0  0  0  0  0  0  0  0  0  0
    8.5655   -3.3826  -55.5737 H   0  0  0  0  0  0  0  0  0  0  0  0
    8.5905   -4.3309  -54.1216 H   0  0  0  0  0  0  0  0  0  0  0  0
    6.3487   -3.1057  -54.0186 H   0  0  0  0  0  0  0  0  0  0  0  0
    7.1689   -1.6797  -56.0062 H   0  0  0  0  0  0  0  0  0  0  0  0
    6.1263   -0.8686  -54.7890 H   0  0  0  0  0  0  0  0  0  0  0  0
   10.3469   -0.3621  -54.2420 H   0  0  0  0  0  0  0  0  0  0  0  0
    9.8269   -1.2589  -55.7594 H   0  0  0  0  0  0  0  0  0  0  0  0
  1  2  1  0
  2  3  1  0
  3  4  2  0
  4  5  1  0
  5  6  1  0
  6  7  1  0
  7  8  1  0
  8  9  1  0
  9 10  1  0
 10 11  1  0
 10 12  1  0
 12 13  1  0
 13 14  1  0
 13 15  1  0
  5 16  2  0
 16 17  1  0
 17 18  1  0
 18 19  2  0
 18 20  1  0
 21 20  1  6
 21 22  1  0
 22 23  1  0
 23 24  1  0
 24 25  1  1
 24 26  1  0
 26 27  1  0
 27 28  1  0
 28 29  1  0
 29 30  1  0
 27 31  1  0
 17  2  2  0
 30 21  1  0
 15  8  1  0
 31 21  1  0
 29 24  1  0
  1 32  1  0
  1 33  1  0
  1 34  1  0
  3 35  1  0
  4 36  1  0
  6 37  1  0
  6 38  1  0
  8 39  1  0
  9 40  1  0
  9 41  1  0
 10 42  1  1
 11 43  1  0
 12 44  1  0
 12 45  1  0
 13 46  1  1
 14 47  1  0
 15 48  1  0
 15 49  1  0
 16 50  1  0
 20 51  1  0
 22 52  1  0
 22 53  1  0
 23 54  1  0
 23 55  1  0
 25 56  1  0
 25 57  1  0
 25 58  1  0
 26 59  1  0
 26 60  1  0
 27 61  1  1
 28 62  1  0
 28 63  1  0
 29 64  1  1
 30 65  1  0
 30 66  1  0
 31 67  1  0
 31 68  1  0
M  END
>  <meeko>  (161) 
{"is_sidechain": false}

$$$$

     RDKit          3D

 71 74  0  0  0  0  0  0  0  0999 V2000
    8.1290    0.8480  -54.2060 C   0  0  0  0  0  0  0  0  0  0  0  0
    9.2050    0.1410  -54.9640 C   0  0  0  0  0  0  0  0  0  0  0  0
    9.9820    0.6680  -56.0500 C   0  0  0  0  0  0  0  0  0  0  0  0
    9.9970    1.9960  -56.6690 C   0  0  0  0  0  0  0  0  0  0  0  0
   10.0410    3.0270  -56.0060 O   0  0  0  0  0  0  0  0  0  0  0  0
    9.8970    1.9800  -58.0420 N   0  0  0  0  0  0  0  0  0  0  0  0
    9.6680    3.2050  -58.8040 C   0  0  1  0  0  0  0  0  0  0  0  0
   10.2910    3.0830  -60.2050 C   0  0  0  0  0  0  0  0  0  0  0  0
    9.1300    2.9020  -61.1910 C   0  0  0  0  0  0  0  0  0  0  0  0
    7.9040    2.6140  -60.3290 C   0  0  2  0  0  0  0  0  0  0  0  0
    6.4880    2.7380  -60.9260 C   0  0  0  0  0  0  0  0  0  0  0  0
    5.2890    1.8800  -60.4530 C   0  0  0  0  0  0  0  0  0  0  0  0
    5.6300    0.4160  -60.1660 C   0  0  0  0  0  0  0  0  0  0  0  0
    4.5300    2.4880  -59.2670 C   0  0  0  0  0  0  0  0  0  0  0  0
    4.3570    1.9140  -61.7180 C   0  0  0  0  0  0  0  0  0  0  0  0
    3.1460    1.6100  -61.5180 O   0  0  0  0  0  0  0  0  0  0  0  0
    4.9090    2.2850  -62.7940 O   0  0  0  0  0  0  0  0  0  0  0  0
    8.1670    3.4550  -59.0680 C   0  0  2  0  0  0  0  0  0  0  0  0
    7.9520    4.8430  -59.2980 O   0  0  0  0  0  0  0  0  0  0  0  0
   10.7840   -0.3690  -56.4820 C   0  0  0  0  0  0  0  0  0  0  0  0
   10.5900   -1.4690  -55.6820 N   0  0  0  0  0  0  0  0  0  0  0  0
   11.3410   -2.7100  -55.8880 C   0  0  0  0  0  0  0  0  0  0  0  0
   12.2040   -2.6730  -57.1630 C   0  0  0  0  0  0  0  0  0  0  0  0
   12.5090   -4.0650  -57.7220 C   0  0  0  0  0  0  0  0  0  0  0  0
   12.6860   -5.0920  -56.6110 C   0  0  0  0  0  0  0  0  0  0  0  0
   11.4340   -5.2320  -55.7410 C   0  0  0  0  0  0  0  0  0  0  0  0
   10.5220   -4.0020  -55.7790 C   0  0  0  0  0  0  0  0  0  0  0  0
    9.6170   -1.1760  -54.7450 C   0  0  0  0  0  0  0  0  0  0  0  0
    9.1280   -2.0960  -53.7190 C   0  0  0  0  0  0  0  0  0  0  0  0
    7.9320   -2.7990  -53.9000 C   0  0  0  0  0  0  0  0  0  0  0  0
    7.4630   -3.6570  -52.9030 C   0  0  0  0  0  0  0  0  0  0  0  0
    8.1780   -3.8060  -51.7150 C   0  0  0  0  0  0  0  0  0  0  0  0
    9.3590   -3.0900  -51.5180 C   0  0  0  0  0  0  0  0  0  0  0  0
    9.8290   -2.2330  -52.5140 C   0  0  0  0  0  0  0  0  0  0  0  0
    8.3047    0.7326  -53.1263 H   0  0  0  0  0  0  0  0  0  0  0  0
    8.1383    1.9166  -54.4668 H   0  0  0  0  0  0  0  0  0  0  0  0
    7.1519    0.4154  -54.4668 H   0  0  0  0  0  0  0  0  0  0  0  0
    9.5780    1.1150  -58.4530 H   0  0  0  0  0  0  0  0  0  0  0  0
   10.1075    4.0153  -58.2037 H   0  0  0  0  0  0  0  0  0  0  0  0
   10.8565    3.9944  -60.4488 H   0  0  0  0  0  0  0  0  0  0  0  0
   10.9878    2.2333  -60.2549 H   0  0  0  0  0  0  0  0  0  0  0  0
    8.9792    3.8189  -61.7798 H   0  0  0  0  0  0  0  0  0  0  0  0
    9.3254    2.0900  -61.9068 H   0  0  0  0  0  0  0  0  0  0  0  0
    7.8299    1.5307  -60.1532 H   0  0  0  0  0  0  0  0  0  0  0  0
    6.1876    3.7854  -60.7754 H   0  0  0  0  0  0  0  0  0  0  0  0
    6.6460    2.3488  -61.9426 H   0  0  0  0  0  0  0  0  0  0  0  0
    5.6676    0.2547  -59.0785 H   0  0  0  0  0  0  0  0  0  0  0  0
    4.8590   -0.2332  -60.6066 H   0  0  0  0  0  0  0  0  0  0  0  0
    6.6085    0.1743  -60.6066 H   0  0  0  0  0  0  0  0  0  0  0  0
    4.9745    2.1320  -58.3259 H   0  0  0  0  0  0  0  0  0  0  0  0
    4.5971    3.5850  -59.3123 H   0  0  0  0  0  0  0  0  0  0  0  0
    3.4741    2.1831  -59.3123 H   0  0  0  0  0  0  0  0  0  0  0  0
    7.5004    3.1815  -58.2368 H   0  0  0  0  0  0  0  0  0  0  0  0
    8.8300    5.2410  -59.4450 H   0  0  0  0  0  0  0  0  0  0  0  0
   11.4740   -0.3219  -57.3373 H   0  0  0  0  0  0  0  0  0  0  0  0
   12.0220   -2.7501  -55.0251 H   0  0  0  0  0  0  0  0  0  0  0  0
   11.6684   -2.0966  -57.9317 H   0  0  0  0  0  0  0  0  0  0  0  0
   13.1649   -2.2091  -56.8955 H   0  0  0  0  0  0  0  0  0  0  0  0
   11.6768   -4.3795  -58.3689 H   0  0  0  0  0  0  0  0  0  0  0  0
   13.4497   -4.0081  -58.2894 H   0  0  0  0  0  0  0  0  0  0  0  0
   12.9117   -6.0682  -57.0650 H   0  0  0  0  0  0  0  0  0  0  0  0
   13.5071   -4.7487  -55.9645 H   0  0  0  0  0  0  0  0  0  0  0  0
   10.8603   -6.1016  -56.0940 H   0  0  0  0  0  0  0  0  0  0  0  0
   11.7742   -5.3501  -54.7016 H   0  0  0  0  0  0  0  0  0  0  0  0
    9.8530   -4.0776  -56.6489 H   0  0  0  0  0  0  0  0  0  0  0  0
    9.9408   -3.9693  -54.8457 H   0  0  0  0  0  0  0  0  0  0  0  0
    7.3591   -2.6755  -54.8309 H   0  0  0  0  0  0  0  0  0  0  0  0
    6.5280   -4.2162  -53.0550 H   0  0  0  0  0  0  0  0  0  0  0  0
    7.8110   -4.4877  -50.9337 H   0  0  0  0  0  0  0  0  0  0  0  0
    9.9195   -3.2009  -50.5780 H   0  0  0  0  0  0  0  0  0  0  0  0
   10.7551   -1.6619  -52.3520 H   0  0  0  0  0  0  0  0  0  0  0  0
  1  2  1  0
  2  3  1  0
  3  4  1  0
  4  5  2  0
  4  6  1  0
  6  7  1  0
  7  8  1  0
  8  9  1  0
  9 10  1  0
 10 11  1  0
 11 12  1  0
 12 13  1  0
 12 14  1  0
 12 15  1  0
 15 16  2  0
 15 17  1  0
 10 18  1  0
 18 19  1  0
  3 20  2  0
 20 21  1  0
 21 22  1  0
 22 23  1  0
 23 24  1  0
 24 25  1  0
 25 26  1  0
 26 27  1  0
 21 28  1  0
 28 29  1  0
 29 30  2  0
 30 31  1  0
 31 32  2  0
 32 33  1  0
 33 34  2  0
 28  2  2  0
 34 29  1  0
 18  7  1  0
 27 22  1  0
  1 35  1  0
  1 36  1  0
  1 37  1  0
  6 38  1  0
  7 39  1  1
  8 40  1  0
  8 41  1  0
  9 42  1  0
  9 43  1  0
 10 44  1  1
 11 45  1  0
 11 46  1  0
 13 47  1  0
 13 48  1  0
 13 49  1  0
 14 50  1  0
 14 51  1  0
 14 52  1  0
 18 53  1  1
 19 54  1  0
 20 55  1  0
 22 56  1  0
 23 57  1  0
 23 58  1  0
 24 59  1  0
 24 60  1  0
 25 61  1  0
 25 62  1  0
 26 63  1  0
 26 64  1  0
 27 65  1  0
 27 66  1  0
 30 67  1  0
 31 68  1  0
 32 69  1  0
 33 70  1  0
 34 71  1  0
M  CHG  1  17  -1
M  END
>  <meeko>  (162) 
{"is_sidechain": false}

$$$$

     RDKit          3D

 64 69  0  0  0  0  0  0  0  0999 V2000
   11.1580    5.2490  -60.5430 C   0  0  0  0  0  0  0  0  0  0  0  0
   10.8360    4.5210  -59.2340 C   0  0  2  0  0  0  0  0  0  0  0  0
   12.0640    3.7220  -58.7680 C   0  0  0  0  0  0  0  0  0  0  0  0
   11.8230    2.9850  -57.4440 C   0  0  0  0  0  0  0  0  0  0  0  0
   10.3410    2.5850  -57.2240 C   0  0  1  0  0  0  0  0  0  0  0  0
   10.2620    1.3700  -56.4040 N   0  0  0  0  0  0  0  0  0  0  0  0
    9.1050    0.9020  -55.8160 C   0  0  0  0  0  0  0  0  0  0  0  0
    8.0130    1.4430  -55.9520 O   0  0  0  0  0  0  0  0  0  0  0  0
    9.2700   -0.2930  -54.9870 C   0  0  0  0  0  0  0  0  0  0  0  0
    8.3340   -0.7740  -54.0240 C   0  0  0  0  0  0  0  0  0  0  0  0
    8.8280   -1.9310  -53.4470 C   0  0  0  0  0  0  0  0  0  0  0  0
    8.2190   -2.7650  -52.4200 C   0  0  0  0  0  0  0  0  0  0  0  0
    7.2800   -3.7400  -52.7730 C   0  0  0  0  0  0  0  0  0  0  0  0
    6.6880   -4.5360  -51.7900 C   0  0  0  0  0  0  0  0  0  0  0  0
    7.0380   -4.3640  -50.4500 C   0  0  0  0  0  0  0  0  0  0  0  0
    7.9810   -3.4010  -50.0940 C   0  0  0  0  0  0  0  0  0  0  0  0
    8.5730   -2.6040  -51.0760 C   0  0  0  0  0  0  0  0  0  0  0  0
   10.0580   -2.1680  -54.0240 N   0  0  0  0  0  0  0  0  0  0  0  0
   10.9410   -3.3020  -53.7530 C   0  0  0  0  0  0  0  0  0  0  0  0
   11.2560   -4.0990  -54.9940 C   0  0  0  0  0  0  0  0  0  0  0  0
   12.4280   -4.8680  -55.0620 C   0  0  0  0  0  0  0  0  0  0  0  0
   12.7230   -5.6130  -56.2040 C   0  0  0  0  0  0  0  0  0  0  0  0
   11.8520   -5.6020  -57.2900 C   0  0  0  0  0  0  0  0  0  0  0  0
   10.6820   -4.8460  -57.2350 C   0  0  0  0  0  0  0  0  0  0  0  0
   10.3850   -4.1000  -56.0930 C   0  0  0  0  0  0  0  0  0  0  0  0
   10.3200   -1.1980  -54.9690 C   0  0  0  0  0  0  0  0  0  0  0  0
    9.5310    3.7460  -56.5600 C   0  0  0  0  0  0  0  0  0  0  0  0
    9.1770    4.9160  -57.5040 C   0  0  2  0  0  0  0  0  0  0  0  0
    8.4560    4.3950  -58.7420 C   0  0  0  0  0  0  0  0  0  0  0  0
    9.5820    3.5960  -59.4040 C   0  0  2  0  0  0  0  0  0  0  0  0
    9.7310    2.2840  -58.6120 C   0  0  0  0  0  0  0  0  0  0  0  0
   10.4210    5.5380  -58.1370 C   0  0  0  0  0  0  0  0  0  0  0  0
   11.5935    6.2336  -60.3174 H   0  0  0  0  0  0  0  0  0  0  0  0
   11.8772    4.6547  -61.1257 H   0  0  0  0  0  0  0  0  0  0  0  0
   10.2345    5.3814  -61.1257 H   0  0  0  0  0  0  0  0  0  0  0  0
   12.3168    2.9821  -59.5417 H   0  0  0  0  0  0  0  0  0  0  0  0
   12.8839    4.4372  -58.6058 H   0  0  0  0  0  0  0  0  0  0  0  0
   12.4357    2.0715  -57.4367 H   0  0  0  0  0  0  0  0  0  0  0  0
   12.0973    3.6755  -56.6328 H   0  0  0  0  0  0  0  0  0  0  0  0
   11.1290    0.9390  -56.1200 H   0  0  0  0  0  0  0  0  0  0  0  0
    7.3719   -0.3004  -53.7788 H   0  0  0  0  0  0  0  0  0  0  0  0
    7.0068   -3.8803  -53.8293 H   0  0  0  0  0  0  0  0  0  0  0  0
    5.9464   -5.2980  -52.0717 H   0  0  0  0  0  0  0  0  0  0  0  0
    6.5698   -4.9883  -49.6747 H   0  0  0  0  0  0  0  0  0  0  0  0
    8.2592   -3.2687  -49.0380 H   0  0  0  0  0  0  0  0  0  0  0  0
    9.3196   -1.8477  -50.7922 H   0  0  0  0  0  0  0  0  0  0  0  0
   11.8825   -2.9225  -53.3292 H   0  0  0  0  0  0  0  0  0  0  0  0
   10.4210   -3.9697  -53.0503 H   0  0  0  0  0  0  0  0  0  0  0  0
   13.1202   -4.8835  -54.2072 H   0  0  0  0  0  0  0  0  0  0  0  0
   13.6457   -6.2103  -56.2465 H   0  0  0  0  0  0  0  0  0  0  0  0
   12.0867   -6.1890  -58.1902 H   0  0  0  0  0  0  0  0  0  0  0  0
    9.9924   -4.8373  -58.0920 H   0  0  0  0  0  0  0  0  0  0  0  0
    9.4590   -3.5074  -56.0549 H   0  0  0  0  0  0  0  0  0  0  0  0
   11.2163   -1.1503  -55.6049 H   0  0  0  0  0  0  0  0  0  0  0  0
    8.5923    3.3271  -56.1684 H   0  0  0  0  0  0  0  0  0  0  0  0
   10.1803    4.1667  -55.7781 H   0  0  0  0  0  0  0  0  0  0  0  0
    8.6002    5.6162  -56.8819 H   0  0  0  0  0  0  0  0  0  0  0  0
    7.6041    3.7522  -58.4756 H   0  0  0  0  0  0  0  0  0  0  0  0
    8.0128    5.1759  -59.3774 H   0  0  0  0  0  0  0  0  0  0  0  0
    9.4204    3.3358  -60.4605 H   0  0  0  0  0  0  0  0  0  0  0  0
    8.7425    1.8185  -58.4847 H   0  0  0  0  0  0  0  0  0  0  0  0
   10.3921    1.5977  -59.1615 H   0  0  0  0  0  0  0  0  0  0  0  0
   10.1857    6.5167  -58.5807 H   0  0  0  0  0  0  0  0  0  0  0  0
   11.2216    5.7195  -57.4048 H   0  0  0  0  0  0  0  0  0  0  0  0
  2  1  1  6
  2  3  1  0
  3  4  1  0
  4  5  1  0
  5  6  1  1
  6  7  1  0
  7  8  2  0
  7  9  1  0
  9 10  1  0
 10 11  2  0
 11 12  1  0
 12 13  2  0
 13 14  1  0
 14 15  2  0
 15 16  1  0
 16 17  2  0
 11 18  1  0
 18 19  1  0
 19 20  1  0
 20 21  2  0
 21 22  1  0
 22 23  2  0
 23 24  1  0
 24 25  2  0
 18 26  1  0
  5 27  1  0
 27 28  1  0
 28 29  1  0
 29 30  1  0
 30 31  1  0
 28 32  1  0
 30  2  1  0
 32  2  1  0
 31  5  1  0
 26  9  2  0
 17 12  1  0
 25 20  1  0
  1 33  1  0
  1 34  1  0
  1 35  1  0
  3 36  1  0
  3 37  1  0
  4 38  1  0
  4 39  1  0
  6 40  1  0
 10 41  1  0
 13 42  1  0
 14 43  1  0
 15 44  1  0
 16 45  1  0
 17 46  1  0
 19 47  1  0
 19 48  1  0
 21 49  1  0
 22 50  1  0
 23 51  1  0
 24 52  1  0
 25 53  1  0
 26 54  1  0
 27 55  1  0
 27 56  1  0
 28 57  1  1
 29 58  1  0
 29 59  1  0
 30 60  1  6
 31 61  1  0
 31 62  1  0
 32 63  1  0
 32 64  1  0
M  END
>  <meeko>  (163) 
{"is_sidechain": false}

$$$$

     RDKit          3D

 70 74  0  0  0  0  0  0  0  0999 V2000
    8.6060    3.2800  -61.0190 C   0  0  0  0  0  0  0  0  0  0  0  0
    7.5220    3.8490  -60.1150 C   0  0  0  0  0  0  0  0  0  0  0  0
    7.5890    3.2650  -58.7340 C   0  0  0  0  0  0  0  0  0  0  0  0
    7.0430    2.0750  -58.2560 C   0  0  0  0  0  0  0  0  0  0  0  0
    6.2230    1.1130  -59.0490 C   0  0  0  0  0  0  0  0  0  0  0  0
    7.3870    1.9700  -56.8630 C   0  0  0  0  0  0  0  0  0  0  0  0
    7.0960    0.9250  -55.8780 C   0  0  0  0  0  0  0  0  0  0  0  0
    5.9580    0.6930  -55.4890 O   0  0  0  0  0  0  0  0  0  0  0  0
    8.2170    0.2830  -55.3960 N   0  0  0  0  0  0  0  0  0  0  0  0
    8.1960   -0.6930  -54.2980 C   0  0  1  0  0  0  0  0  0  0  0  0
    7.7120   -0.0210  -52.9850 C   0  0  0  0  0  0  0  0  0  0  0  0
    6.9950   -0.9890  -52.0330 C   0  0  0  0  0  0  0  0  0  0  0  0
    7.5000   -2.4350  -52.1740 C   0  0  2  0  0  0  0  0  0  0  0  0
    6.7640   -3.3380  -51.1780 C   0  0  0  0  0  0  0  0  0  0  0  0
    9.0300   -2.4870  -51.9240 C   0  0  0  0  0  0  0  0  0  0  0  0
    9.6310   -2.6500  -53.3200 C   0  0  1  0  0  0  0  0  0  0  0  0
    8.6580   -3.6520  -53.9320 C   0  0  0  0  0  0  0  0  0  0  0  0
    7.3230   -2.9610  -53.6390 C   0  0  2  0  0  0  0  0  0  0  0  0
    7.1810   -1.8050  -54.6450 C   0  0  0  0  0  0  0  0  0  0  0  0
    9.6110   -1.3300  -54.1210 C   0  0  0  0  0  0  0  0  0  0  0  0
    8.0740    3.1270  -56.5490 C   0  0  0  0  0  0  0  0  0  0  0  0
    8.2320    3.8800  -57.6800 N   0  0  0  0  0  0  0  0  0  0  0  0
    8.9320    5.1560  -57.7030 C   0  0  0  0  0  0  0  0  0  0  0  0
   10.4420    5.0300  -57.9800 C   0  0  2  0  0  0  0  0  0  0  0  0
   10.8380    5.6590  -59.3310 C   0  0  0  0  0  0  0  0  0  0  0  0
   12.0950    5.0440  -59.9590 C   0  0  0  0  0  0  0  0  0  0  0  0
   13.0570    4.4730  -58.9250 C   0  0  1  0  0  0  0  0  0  0  0  0
   13.5130    5.5390  -58.0930 O   0  0  0  0  0  0  0  0  0  0  0  0
   12.3930    3.3920  -58.0650 C   0  0  0  0  0  0  0  0  0  0  0  0
   10.8740    3.5600  -57.9260 C   0  0  0  0  0  0  0  0  0  0  0  0
    9.4126    2.8566  -60.4025 H   0  0  0  0  0  0  0  0  0  0  0  0
    8.1770    2.4908  -61.6540 H   0  0  0  0  0  0  0  0  0  0  0  0
    9.0119    4.0813  -61.6540 H   0  0  0  0  0  0  0  0  0  0  0  0
    7.6498    4.9395  -60.0477 H   0  0  0  0  0  0  0  0  0  0  0  0
    6.5440    3.5932  -60.5488 H   0  0  0  0  0  0  0  0  0  0  0  0
    5.6640    0.4572  -58.3653 H   0  0  0  0  0  0  0  0  0  0  0  0
    5.5167    1.6690  -59.6831 H   0  0  0  0  0  0  0  0  0  0  0  0
    6.8838    0.5037  -59.6831 H   0  0  0  0  0  0  0  0  0  0  0  0
    9.0910    0.7590  -55.5750 H   0  0  0  0  0  0  0  0  0  0  0  0
    8.5863    0.3967  -52.4642 H   0  0  0  0  0  0  0  0  0  0  0  0
    6.9855    0.7556  -53.2663 H   0  0  0  0  0  0  0  0  0  0  0  0
    7.1633   -0.6558  -50.9983 H   0  0  0  0  0  0  0  0  0  0  0  0
    5.9257   -0.9814  -52.2911 H   0  0  0  0  0  0  0  0  0  0  0  0
    7.0137   -3.0316  -50.1515 H   0  0  0  0  0  0  0  0  0  0  0  0
    5.6788   -3.2478  -51.3339 H   0  0  0  0  0  0  0  0  0  0  0  0
    7.0712   -4.3827  -51.3339 H   0  0  0  0  0  0  0  0  0  0  0  0
    9.3807   -1.5562  -51.4542 H   0  0  0  0  0  0  0  0  0  0  0  0
    9.3188   -3.3008  -51.2426 H   0  0  0  0  0  0  0  0  0  0  0  0
   10.6870   -2.9578  -53.3131 H   0  0  0  0  0  0  0  0  0  0  0  0
    8.8246   -3.7715  -55.0127 H   0  0  0  0  0  0  0  0  0  0  0  0
    8.7419   -4.6738  -53.5335 H   0  0  0  0  0  0  0  0  0  0  0  0
    6.4301   -3.5971  -53.7292 H   0  0  0  0  0  0  0  0  0  0  0  0
    7.3778   -2.1770  -55.6613 H   0  0  0  0  0  0  0  0  0  0  0  0
    6.1601   -1.3984  -54.5948 H   0  0  0  0  0  0  0  0  0  0  0  0
   10.2507   -0.6032  -53.5990 H   0  0  0  0  0  0  0  0  0  0  0  0
    9.9688   -1.5756  -55.1318 H   0  0  0  0  0  0  0  0  0  0  0  0
    8.4368    3.3997  -55.5470 H   0  0  0  0  0  0  0  0  0  0  0  0
    8.4859    5.7825  -58.4895 H   0  0  0  0  0  0  0  0  0  0  0  0
    8.8251    5.5989  -56.7018 H   0  0  0  0  0  0  0  0  0  0  0  0
   10.9683    5.5890  -57.1923 H   0  0  0  0  0  0  0  0  0  0  0  0
   10.0009    5.5279  -60.0325 H   0  0  0  0  0  0  0  0  0  0  0  0
   11.0642    6.7177  -59.1359 H   0  0  0  0  0  0  0  0  0  0  0  0
   11.7880    4.2343  -60.6373 H   0  0  0  0  0  0  0  0  0  0  0  0
   12.6237    5.8475  -60.4927 H   0  0  0  0  0  0  0  0  0  0  0  0
   13.9001    4.0018  -59.4515 H   0  0  0  0  0  0  0  0  0  0  0  0
   13.0240    6.3400  -58.3480 H   0  0  0  0  0  0  0  0  0  0  0  0
   12.5934    2.4122  -58.5231 H   0  0  0  0  0  0  0  0  0  0  0  0
   12.8195    3.4785  -57.0547 H   0  0  0  0  0  0  0  0  0  0  0  0
   10.3818    3.0167  -58.7461 H   0  0  0  0  0  0  0  0  0  0  0  0
   10.5804    3.1596  -56.9444 H   0  0  0  0  0  0  0  0  0  0  0  0
  1  2  1  0
  2  3  1  0
  3  4  2  0
  4  5  1  0
  4  6  1  0
  6  7  1  0
  7  8  2  0
  7  9  1  0
 10  9  1  6
 10 11  1  0
 11 12  1  0
 12 13  1  0
 13 14  1  1
 13 15  1  0
 15 16  1  0
 16 17  1  0
 17 18  1  0
 18 19  1  0
 16 20  1  0
  6 21  2  0
 21 22  1  0
 22 23  1  0
 23 24  1  0
 24 25  1  0
 25 26  1  0
 26 27  1  0
 27 28  1  0
 27 29  1  0
 29 30  1  0
 22  3  1  0
 30 24  1  0
 19 10  1  0
 20 10  1  0
 18 13  1  0
  1 31  1  0
  1 32  1  0
  1 33  1  0
  2 34  1  0
  2 35  1  0
  5 36  1  0
  5 37  1  0
  5 38  1  0
  9 39  1  0
 11 40  1  0
 11 41  1  0
 12 42  1  0
 12 43  1  0
 14 44  1  0
 14 45  1  0
 14 46  1  0
 15 47  1  0
 15 48  1  0
 16 49  1  1
 17 50  1  0
 17 51  1  0
 18 52  1  1
 19 53  1  0
 19 54  1  0
 20 55  1  0
 20 56  1  0
 21 57  1  0
 23 58  1  0
 23 59  1  0
 24 60  1  6
 25 61  1  0
 25 62  1  0
 26 63  1  0
 26 64  1  0
 27 65  1  1
 28 66  1  0
 29 67  1  0
 29 68  1  0
 30 69  1  0
 30 70  1  0
M  END
>  <meeko>  (164) 
{"is_sidechain": false}

$$$$

     RDKit          3D

 65 69  0  0  0  0  0  0  0  0999 V2000
    6.6410   -0.1040  -53.7240 C   0  0  0  0  0  0  0  0  0  0  0  0
    8.0080   -0.6650  -53.9420 C   0  0  0  0  0  0  0  0  0  0  0  0
    8.9730   -0.1680  -54.8880 C   0  0  0  0  0  0  0  0  0  0  0  0
    8.8020    0.9590  -55.8170 C   0  0  0  0  0  0  0  0  0  0  0  0
    7.7030    1.4480  -56.0480 O   0  0  0  0  0  0  0  0  0  0  0  0
    9.9750    1.4240  -56.3770 N   0  0  0  0  0  0  0  0  0  0  0  0
   10.0870    2.6000  -57.2540 C   0  0  1  0  0  0  0  0  0  0  0  0
   11.6040    2.9060  -57.4220 C   0  0  0  0  0  0  0  0  0  0  0  0
   11.9490    3.6260  -58.7320 C   0  0  0  0  0  0  0  0  0  0  0  0
   10.7960    4.4980  -59.2480 C   0  0  2  0  0  0  0  0  0  0  0  0
   11.2140    5.1940  -60.5480 C   0  0  0  0  0  0  0  0  0  0  0  0
   10.4140    5.5480  -58.1720 C   0  0  0  0  0  0  0  0  0  0  0  0
    9.1160    5.0110  -57.5720 C   0  0  1  0  0  0  0  0  0  0  0  0
    8.4010    4.5260  -58.8290 C   0  0  0  0  0  0  0  0  0  0  0  0
    9.4920    3.6550  -59.4590 C   0  0  2  0  0  0  0  0  0  0  0  0
    9.5290    2.3310  -58.6710 C   0  0  0  0  0  0  0  0  0  0  0  0
    9.3610    3.8270  -56.6110 C   0  0  0  0  0  0  0  0  0  0  0  0
   10.0850   -0.9850  -54.7630 C   0  0  0  0  0  0  0  0  0  0  0  0
    9.8370   -1.9350  -53.8020 N   0  0  0  0  0  0  0  0  0  0  0  0
   10.8000   -2.9610  -53.4040 C   0  0  0  0  0  0  0  0  0  0  0  0
   11.3850   -3.7820  -54.5240 C   0  0  0  0  0  0  0  0  0  0  0  0
   10.7270   -4.5130  -55.4400 C   0  0  0  0  0  0  0  0  0  0  0  0
   11.3880   -5.3410  -56.4910 C   0  0  0  0  0  0  0  0  0  0  0  0
   12.6920   -5.6690  -56.0410 O   0  0  0  0  0  0  0  0  0  0  0  0
    8.5730   -1.7500  -53.2790 C   0  0  0  0  0  0  0  0  0  0  0  0
    7.9850   -2.6140  -52.2560 C   0  0  0  0  0  0  0  0  0  0  0  0
    8.0940   -2.2850  -50.9010 C   0  0  0  0  0  0  0  0  0  0  0  0
    7.5320   -3.1150  -49.9290 C   0  0  0  0  0  0  0  0  0  0  0  0
    6.8540   -4.2740  -50.3080 C   0  0  0  0  0  0  0  0  0  0  0  0
    6.7310   -4.6000  -51.6580 C   0  0  0  0  0  0  0  0  0  0  0  0
    7.2920   -3.7710  -52.6300 C   0  0  0  0  0  0  0  0  0  0  0  0
    6.4455   -0.0238  -52.6445 H   0  0  0  0  0  0  0  0  0  0  0  0
    6.5764    0.8934  -54.1835 H   0  0  0  0  0  0  0  0  0  0  0  0
    5.8944   -0.7684  -54.1835 H   0  0  0  0  0  0  0  0  0  0  0  0
   10.8260    1.0950  -55.9470 H   0  0  0  0  0  0  0  0  0  0  0  0
   11.9249    3.5405  -56.5826 H   0  0  0  0  0  0  0  0  0  0  0  0
   12.1259    1.9379  -57.4415 H   0  0  0  0  0  0  0  0  0  0  0  0
   12.8263    4.2672  -58.5611 H   0  0  0  0  0  0  0  0  0  0  0  0
   12.1505    2.8566  -59.4918 H   0  0  0  0  0  0  0  0  0  0  0  0
   11.7669    6.1146  -60.3096 H   0  0  0  0  0  0  0  0  0  0  0  0
   11.8575    4.5210  -61.1337 H   0  0  0  0  0  0  0  0  0  0  0  0
   10.3176    5.4459  -61.1337 H   0  0  0  0  0  0  0  0  0  0  0  0
   11.1977    5.6228  -57.4038 H   0  0  0  0  0  0  0  0  0  0  0  0
   10.2993    6.5588  -58.5904 H   0  0  0  0  0  0  0  0  0  0  0  0
    8.5701    5.7526  -56.9703 H   0  0  0  0  0  0  0  0  0  0  0  0
    7.5043    3.9379  -58.5837 H   0  0  0  0  0  0  0  0  0  0  0  0
    8.0264    5.3299  -59.4798 H   0  0  0  0  0  0  0  0  0  0  0  0
    9.3476    3.4064  -60.5208 H   0  0  0  0  0  0  0  0  0  0  0  0
    8.5117    1.9197  -58.5942 H   0  0  0  0  0  0  0  0  0  0  0  0
   10.1740    1.6080  -59.1918 H   0  0  0  0  0  0  0  0  0  0  0  0
    9.9757    4.1878  -55.7731 H   0  0  0  0  0  0  0  0  0  0  0  0
    8.3681    3.4708  -56.2990 H   0  0  0  0  0  0  0  0  0  0  0  0
   11.0164   -0.8885  -55.3402 H   0  0  0  0  0  0  0  0  0  0  0  0
   11.6299   -2.4609  -52.8832 H   0  0  0  0  0  0  0  0  0  0  0  0
   10.2393   -3.6692  -52.7762 H   0  0  0  0  0  0  0  0  0  0  0  0
   12.4823   -3.7832  -54.6012 H   0  0  0  0  0  0  0  0  0  0  0  0
    9.6274   -4.5001  -55.4132 H   0  0  0  0  0  0  0  0  0  0  0  0
   10.8094   -6.2614  -56.6587 H   0  0  0  0  0  0  0  0  0  0  0  0
   11.4416   -4.7824  -57.4371 H   0  0  0  0  0  0  0  0  0  0  0  0
   12.8930   -5.0700  -55.3010 H   0  0  0  0  0  0  0  0  0  0  0  0
    8.6242   -1.3694  -50.6001 H   0  0  0  0  0  0  0  0  0  0  0  0
    7.6238   -2.8550  -48.8641 H   0  0  0  0  0  0  0  0  0  0  0  0
    6.4164   -4.9307  -49.5416 H   0  0  0  0  0  0  0  0  0  0  0  0
    6.1916   -5.5109  -51.9568 H   0  0  0  0  0  0  0  0  0  0  0  0
    7.1892   -4.0278  -53.6946 H   0  0  0  0  0  0  0  0  0  0  0  0
  1  2  1  0
  2  3  1  0
  3  4  1  0
  4  5  2  0
  4  6  1  0
  7  6  1  1
  7  8  1  0
  8  9  1  0
  9 10  1  0
 10 11  1  6
 10 12  1  0
 12 13  1  0
 13 14  1  0
 14 15  1  0
 15 16  1  0
 13 17  1  0
  3 18  2  0
 18 19  1  0
 19 20  1  0
 20 21  1  0
 21 22  2  0
 22 23  1  0
 23 24  1  0
 19 25  1  0
 25 26  1  0
 26 27  2  0
 27 28  1  0
 28 29  2  0
 29 30  1  0
 30 31  2  0
 25  2  2  0
 31 26  1  0
 16  7  1  0
 17  7  1  0
 15 10  1  0
  1 32  1  0
  1 33  1  0
  1 34  1  0
  6 35  1  0
  8 36  1  0
  8 37  1  0
  9 38  1  0
  9 39  1  0
 11 40  1  0
 11 41  1  0
 11 42  1  0
 12 43  1  0
 12 44  1  0
 13 45  1  1
 14 46  1  0
 14 47  1  0
 15 48  1  6
 16 49  1  0
 16 50  1  0
 17 51  1  0
 17 52  1  0
 18 53  1  0
 20 54  1  0
 20 55  1  0
 21 56  1  0
 22 57  1  0
 23 58  1  0
 23 59  1  0
 24 60  1  0
 27 61  1  0
 28 62  1  0
 29 63  1  0
 30 64  1  0
 31 65  1  0
M  END
>  <meeko>  (165) 
{"is_sidechain": false}

$$$$

     RDKit          3D

 71 76  0  0  0  0  0  0  0  0999 V2000
   12.0150   -7.1210  -57.1490 C   0  0  0  0  0  0  0  0  0  0  0  0
   12.6750   -6.0980  -56.2420 C   0  0  0  0  0  0  0  0  0  0  0  0
   12.4020   -4.7420  -56.6510 N   0  0  0  0  0  0  0  0  0  0  0  0
   13.1540   -4.1590  -57.5980 N   0  0  0  0  0  0  0  0  0  0  0  0
   12.6470   -2.9440  -57.7480 N   0  0  0  0  0  0  0  0  0  0  0  0
   11.5860   -2.7470  -56.9000 N   0  0  0  0  0  0  0  0  0  0  0  0
   11.4410   -3.8660  -56.2190 C   0  0  0  0  0  0  0  0  0  0  0  0
   10.4400   -4.1280  -55.1550 C   0  0  0  0  0  0  0  0  0  0  0  0
   10.5830   -3.1230  -54.0160 C   0  0  0  0  0  0  0  0  0  0  0  0
    9.6510   -2.0120  -54.1590 N   0  0  0  0  0  0  0  0  0  0  0  0
    9.8210   -1.0010  -55.0650 C   0  0  0  0  0  0  0  0  0  0  0  0
    8.7940   -0.0840  -54.9220 C   0  0  0  0  0  0  0  0  0  0  0  0
    8.7040    1.1320  -55.7360 C   0  0  0  0  0  0  0  0  0  0  0  0
    7.6240    1.6130  -56.0620 O   0  0  0  0  0  0  0  0  0  0  0  0
    9.9180    1.6360  -56.1490 N   0  0  0  0  0  0  0  0  0  0  0  0
   10.0680    2.7690  -57.0710 C   0  0  1  0  0  0  0  0  0  0  0  0
   11.5700    3.0340  -57.3640 C   0  0  0  0  0  0  0  0  0  0  0  0
   11.8220    3.6410  -58.7500 C   0  0  0  0  0  0  0  0  0  0  0  0
   10.6430    4.4930  -59.2460 C   0  0  2  0  0  0  0  0  0  0  0  0
   10.9760    5.0880  -60.6190 C   0  0  0  0  0  0  0  0  0  0  0  0
   10.3430    5.6230  -58.2260 C   0  0  0  0  0  0  0  0  0  0  0  0
    9.0790    5.1520  -57.5090 C   0  0  1  0  0  0  0  0  0  0  0  0
    8.2800    4.5910  -58.6800 C   0  0  0  0  0  0  0  0  0  0  0  0
    9.3190    3.6560  -59.3060 C   0  0  2  0  0  0  0  0  0  0  0  0
    9.3970    2.4040  -58.4150 C   0  0  0  0  0  0  0  0  0  0  0  0
    9.3710    4.0370  -56.4820 C   0  0  0  0  0  0  0  0  0  0  0  0
    7.9280   -0.6140  -53.9010 C   0  0  0  0  0  0  0  0  0  0  0  0
    6.6250   -0.0500  -53.4370 C   0  0  0  0  0  0  0  0  0  0  0  0
    8.5060   -1.7920  -53.4270 C   0  0  0  0  0  0  0  0  0  0  0  0
    8.0340   -2.6850  -52.3710 C   0  0  0  0  0  0  0  0  0  0  0  0
    8.5570   -2.5910  -51.0770 C   0  0  0  0  0  0  0  0  0  0  0  0
    8.1010   -3.4450  -50.0710 C   0  0  0  0  0  0  0  0  0  0  0  0
    7.1260   -4.4000  -50.3550 C   0  0  0  0  0  0  0  0  0  0  0  0
    6.6090   -4.5060  -51.6470 C   0  0  0  0  0  0  0  0  0  0  0  0
    7.0640   -3.6530  -52.6530 C   0  0  0  0  0  0  0  0  0  0  0  0
   11.5197   -7.8887  -56.5364 H   0  0  0  0  0  0  0  0  0  0  0  0
   11.2688   -6.6208  -57.7839 H   0  0  0  0  0  0  0  0  0  0  0  0
   12.7783   -7.5947  -57.7839 H   0  0  0  0  0  0  0  0  0  0  0  0
   12.2999   -6.2402  -55.2177 H   0  0  0  0  0  0  0  0  0  0  0  0
   13.7626   -6.2524  -56.2985 H   0  0  0  0  0  0  0  0  0  0  0  0
    9.4298   -4.0469  -55.5826 H   0  0  0  0  0  0  0  0  0  0  0  0
   10.6071   -5.1392  -54.7555 H   0  0  0  0  0  0  0  0  0  0  0  0
   10.3851   -3.6342  -53.0623 H   0  0  0  0  0  0  0  0  0  0  0  0
   11.6057   -2.7188  -54.0410 H   0  0  0  0  0  0  0  0  0  0  0  0
   10.6434   -0.9284  -55.7918 H   0  0  0  0  0  0  0  0  0  0  0  0
   10.7040    1.0100  -56.0560 H   0  0  0  0  0  0  0  0  0  0  0  0
   11.9564    3.7286  -56.6036 H   0  0  0  0  0  0  0  0  0  0  0  0
   12.0828    2.0612  -57.3372 H   0  0  0  0  0  0  0  0  0  0  0  0
   12.7185    4.2763  -58.6985 H   0  0  0  0  0  0  0  0  0  0  0  0
   11.9534    2.8099  -59.4585 H   0  0  0  0  0  0  0  0  0  0  0  0
   11.5093    6.0409  -60.4861 H   0  0  0  0  0  0  0  0  0  0  0  0
   11.6126    4.3864  -61.1780 H   0  0  0  0  0  0  0  0  0  0  0  0
   10.0451    5.2637  -61.1780 H   0  0  0  0  0  0  0  0  0  0  0  0
   11.1748    5.7387  -57.5156 H   0  0  0  0  0  0  0  0  0  0  0  0
   10.2145    6.6034  -58.7079 H   0  0  0  0  0  0  0  0  0  0  0  0
    8.5806    5.9433  -56.9299 H   0  0  0  0  0  0  0  0  0  0  0  0
    7.3916    4.0398  -58.3382 H   0  0  0  0  0  0  0  0  0  0  0  0
    7.8764    5.3512  -59.3650 H   0  0  0  0  0  0  0  0  0  0  0  0
    9.1020    3.3251  -60.3324 H   0  0  0  0  0  0  0  0  0  0  0  0
    8.3820    2.0241  -58.2268 H   0  0  0  0  0  0  0  0  0  0  0  0
    9.9903    1.6292  -58.9225 H   0  0  0  0  0  0  0  0  0  0  0  0
   10.0233    4.4540  -55.7006 H   0  0  0  0  0  0  0  0  0  0  0  0
    8.3944    3.7042  -56.1007 H   0  0  0  0  0  0  0  0  0  0  0  0
    6.6008   -0.0395  -52.3373 H   0  0  0  0  0  0  0  0  0  0  0  0
    6.5141    0.9767  -53.8160 H   0  0  0  0  0  0  0  0  0  0  0  0
    5.8006   -0.6718  -53.8160 H   0  0  0  0  0  0  0  0  0  0  0  0
    9.3301   -1.8418  -50.8513 H   0  0  0  0  0  0  0  0  0  0  0  0
    8.5114   -3.3642  -49.0536 H   0  0  0  0  0  0  0  0  0  0  0  0
    6.7642   -5.0698  -49.5610 H   0  0  0  0  0  0  0  0  0  0  0  0
    5.8426   -5.2622  -51.8722 H   0  0  0  0  0  0  0  0  0  0  0  0
    6.6586   -3.7419  -53.6717 H   0  0  0  0  0  0  0  0  0  0  0  0
  1  2  1  0
  2  3  1  0
  3  4  1  0
  4  5  2  0
  5  6  1  0
  6  7  2  0
  7  8  1  0
  8  9  1  0
  9 10  1  0
 10 11  1  0
 11 12  2  0
 12 13  1  0
 13 14  2  0
 13 15  1  0
 16 15  1  1
 16 17  1  0
 17 18  1  0
 18 19  1  0
 19 20  1  6
 19 21  1  0
 21 22  1  0
 22 23  1  0
 23 24  1  0
 24 25  1  0
 22 26  1  0
 12 27  1  0
 27 28  1  0
 27 29  2  0
 29 30  1  0
 30 31  2  0
 31 32  1  0
 32 33  2  0
 33 34  1  0
 34 35  2  0
  7  3  1  0
 29 10  1  0
 35 30  1  0
 25 16  1  0
 26 16  1  0
 24 19  1  0
  1 36  1  0
  1 37  1  0
  1 38  1  0
  2 39  1  0
  2 40  1  0
  8 41  1  0
  8 42  1  0
  9 43  1  0
  9 44  1  0
 11 45  1  0
 15 46  1  0
 17 47  1  0
 17 48  1  0
 18 49  1  0
 18 50  1  0
 20 51  1  0
 20 52  1  0
 20 53  1  0
 21 54  1  0
 21 55  1  0
 22 56  1  1
 23 57  1  0
 23 58  1  0
 24 59  1  6
 25 60  1  0
 25 61  1  0
 26 62  1  0
 26 63  1  0
 28 64  1  0
 28 65  1  0
 28 66  1  0
 31 67  1  0
 32 68  1  0
 33 69  1  0
 34 70  1  0
 35 71  1  0
M  END
>  <meeko>  (166) 
{"is_sidechain": false}

$$$$

     RDKit          3D

 56 58  0  0  0  0  0  0  0  0999 V2000
    7.4530    4.0850  -58.3310 C   0  0  0  0  0  0  0  0  0  0  0  0
    7.5250    2.9810  -57.3280 C   0  0  0  0  0  0  0  0  0  0  0  0
    8.6990    2.6230  -56.5770 C   0  0  0  0  0  0  0  0  0  0  0  0
   10.0170    3.2700  -56.6290 C   0  0  0  0  0  0  0  0  0  0  0  0
   10.2570    4.3310  -56.0600 O   0  0  0  0  0  0  0  0  0  0  0  0
   10.9620    2.6080  -57.3880 N   0  0  0  0  0  0  0  0  0  0  0  0
   12.2540    3.2020  -57.6540 C   0  0  0  0  0  0  0  0  0  0  0  0
   12.4820    3.4440  -59.1580 C   0  0  0  0  0  0  0  0  0  0  0  0
   13.0780    4.8300  -59.4460 C   0  0  0  0  0  0  0  0  0  0  0  0
   12.1140    5.9750  -59.1340 C   0  0  0  0  0  0  0  0  0  0  0  0
   10.6560    5.6540  -59.4620 C   0  0  0  0  0  0  0  0  0  0  0  0
   10.5270    4.5160  -60.4630 C   0  0  0  0  0  0  0  0  0  0  0  0
   11.1760    3.2270  -59.9530 C   0  0  0  0  0  0  0  0  0  0  0  0
    8.3290    1.5530  -55.7790 C   0  0  0  0  0  0  0  0  0  0  0  0
    7.0050    1.2650  -55.9990 N   0  0  0  0  0  0  0  0  0  0  0  0
    6.3020    0.1800  -55.3280 C   0  0  0  0  0  0  0  0  0  0  0  0
    7.2200   -0.7360  -54.5170 C   0  0  2  0  0  0  0  0  0  0  0  0
    6.7540   -2.1970  -54.5360 C   0  0  0  0  0  0  0  0  0  0  0  0
    7.1740   -2.8020  -53.1900 C   0  0  0  0  0  0  0  0  0  0  0  0
    7.8620   -1.6780  -52.4210 C   0  0  1  0  0  0  0  0  0  0  0  0
    9.2640   -1.7220  -52.6620 O   0  0  0  0  0  0  0  0  0  0  0  0
    7.2900   -0.4040  -53.0250 C   0  0  0  0  0  0  0  0  0  0  0  0
    6.4970    2.1230  -56.9490 C   0  0  0  0  0  0  0  0  0  0  0  0
    5.0830    2.0590  -57.4180 C   0  0  0  0  0  0  0  0  0  0  0  0
    7.3900    5.0512  -57.8089 H   0  0  0  0  0  0  0  0  0  0  0  0
    8.3542    4.0670  -58.9614 H   0  0  0  0  0  0  0  0  0  0  0  0
    6.5617    3.9501  -58.9614 H   0  0  0  0  0  0  0  0  0  0  0  0
   10.6210    1.8990  -58.0220 H   0  0  0  0  0  0  0  0  0  0  0  0
   12.3170    4.1651  -57.1262 H   0  0  0  0  0  0  0  0  0  0  0  0
   13.0270    2.5029  -57.3024 H   0  0  0  0  0  0  0  0  0  0  0  0
   13.2233    2.7038  -59.4935 H   0  0  0  0  0  0  0  0  0  0  0  0
   13.9820    4.9566  -58.8322 H   0  0  0  0  0  0  0  0  0  0  0  0
   13.3010    4.8735  -60.5223 H   0  0  0  0  0  0  0  0  0  0  0  0
   12.1860    6.2077  -58.0613 H   0  0  0  0  0  0  0  0  0  0  0  0
   12.4074    6.8253  -59.7672 H   0  0  0  0  0  0  0  0  0  0  0  0
   10.1390    5.3691  -58.5338 H   0  0  0  0  0  0  0  0  0  0  0  0
   10.2068    6.5513  -59.9126 H   0  0  0  0  0  0  0  0  0  0  0  0
    9.4596    4.3264  -60.6495 H   0  0  0  0  0  0  0  0  0  0  0  0
   11.0454    4.8151  -61.3859 H   0  0  0  0  0  0  0  0  0  0  0  0
   10.4556    2.7142  -59.2987 H   0  0  0  0  0  0  0  0  0  0  0  0
   11.4428    2.6360  -60.8415 H   0  0  0  0  0  0  0  0  0  0  0  0
    8.9904    1.0193  -55.0806 H   0  0  0  0  0  0  0  0  0  0  0  0
    5.5572    0.6172  -54.6468 H   0  0  0  0  0  0  0  0  0  0  0  0
    5.8404   -0.4384  -56.1119 H   0  0  0  0  0  0  0  0  0  0  0  0
    8.1925   -0.5810  -55.0071 H   0  0  0  0  0  0  0  0  0  0  0  0
    5.6612   -2.2465  -54.6511 H   0  0  0  0  0  0  0  0  0  0  0  0
    7.1999   -2.7474  -55.3776 H   0  0  0  0  0  0  0  0  0  0  0  0
    6.2912   -3.1579  -52.6386 H   0  0  0  0  0  0  0  0  0  0  0  0
    7.8423   -3.6649  -53.3268 H   0  0  0  0  0  0  0  0  0  0  0  0
    7.7015   -1.7488  -51.3351 H   0  0  0  0  0  0  0  0  0  0  0  0
    9.6500   -0.9070  -52.2960 H   0  0  0  0  0  0  0  0  0  0  0  0
    6.2903   -0.1880  -52.6201 H   0  0  0  0  0  0  0  0  0  0  0  0
    7.8928    0.4897  -52.8062 H   0  0  0  0  0  0  0  0  0  0  0  0
    4.4094    2.0285  -56.5489 H   0  0  0  0  0  0  0  0  0  0  0  0
    4.8576    2.9479  -58.0256 H   0  0  0  0  0  0  0  0  0  0  0  0
    4.9388    1.1534  -58.0256 H   0  0  0  0  0  0  0  0  0  0  0  0
  1  2  1  0
  2  3  1  0
  3  4  1  0
  4  5  2  0
  4  6  1  0
  6  7  1  0
  7  8  1  0
  8  9  1  0
  9 10  1  0
 10 11  1  0
 11 12  1  0
 12 13  1  0
  3 14  2  0
 14 15  1  0
 15 16  1  0
 16 17  1  0
 17 18  1  0
 18 19  1  0
 19 20  1  0
 20 21  1  0
 20 22  1  0
 15 23  1  0
 23 24  1  0
 23  2  2  0
 13  8  1  0
 22 17  1  0
  1 25  1  0
  1 26  1  0
  1 27  1  0
  6 28  1  0
  7 29  1  0
  7 30  1  0
  8 31  1  0
  9 32  1  0
  9 33  1  0
 10 34  1  0
 10 35  1  0
 11 36  1  0
 11 37  1  0
 12 38  1  0
 12 39  1  0
 13 40  1  0
 13 41  1  0
 14 42  1  0
 16 43  1  0
 16 44  1  0
 17 45  1  6
 18 46  1  0
 18 47  1  0
 19 48  1  0
 19 49  1  0
 20 50  1  1
 21 51  1  0
 22 52  1  0
 22 53  1  0
 24 54  1  0
 24 55  1  0
 24 56  1  0
M  END
>  <meeko>  (167) 
{"is_sidechain": false}

$$$$

     RDKit          3D

 62 65  0  0  0  0  0  0  0  0999 V2000
   13.1060    4.1050  -59.1450 C   0  0  0  0  0  0  0  0  0  0  0  0
   11.6510    4.0180  -58.6680 C   0  0  2  0  0  0  0  0  0  0  0  0
   11.6120    3.5120  -57.2150 C   0  0  0  0  0  0  0  0  0  0  0  0
   10.1850    3.4310  -56.6560 C   0  0  0  0  0  0  0  0  0  0  0  0
    9.1260    3.1270  -57.7470 C   0  0  1  0  0  0  0  0  0  0  0  0
    7.9460    2.4750  -57.1510 N   0  0  0  0  0  0  0  0  0  0  0  0
    8.0100    1.3570  -56.3520 C   0  0  0  0  0  0  0  0  0  0  0  0
    9.0280    0.7370  -56.0730 O   0  0  0  0  0  0  0  0  0  0  0  0
    6.7500    0.9950  -55.8910 N   0  0  0  0  0  0  0  0  0  0  0  0
    6.6070   -0.1510  -55.0680 N   0  0  0  0  0  0  0  0  0  0  0  0
    6.4310    0.2190  -53.6560 C   0  0  0  0  0  0  0  0  0  0  0  0
    7.6990   -0.0410  -52.8360 C   0  0  0  0  0  0  0  0  0  0  0  0
    7.8160   -1.5000  -52.3810 C   0  0  0  0  0  0  0  0  0  0  0  0
    8.8630   -2.2940  -53.1280 C   0  0  0  0  0  0  0  0  0  0  0  0
   10.2080   -2.2330  -52.7470 C   0  0  0  0  0  0  0  0  0  0  0  0
   11.1790   -2.9440  -53.4550 C   0  0  0  0  0  0  0  0  0  0  0  0
   10.8210   -3.7270  -54.5620 C   0  0  0  0  0  0  0  0  0  0  0  0
   11.8550   -4.5240  -55.2960 C   0  0  0  0  0  0  0  0  0  0  0  0
   11.2290   -5.3440  -56.3540 N   0  0  0  0  0  0  0  0  0  0  0  0
    9.4720   -3.7950  -54.9370 C   0  0  0  0  0  0  0  0  0  0  0  0
    8.5040   -3.0840  -54.2270 C   0  0  0  0  0  0  0  0  0  0  0  0
    8.6280    4.4600  -58.4040 C   0  0  0  0  0  0  0  0  0  0  0  0
    9.6130    5.1130  -59.3960 C   0  0  2  0  0  0  0  0  0  0  0  0
   10.0150    4.1060  -60.4670 C   0  0  0  0  0  0  0  0  0  0  0  0
   10.8060    3.1040  -59.6220 C   0  0  2  0  0  0  0  0  0  0  0  0
    9.7840    2.2570  -58.8410 C   0  0  0  0  0  0  0  0  0  0  0  0
   10.9690    5.4080  -58.7570 C   0  0  0  0  0  0  0  0  0  0  0  0
   13.7758    4.1451  -58.2734 H   0  0  0  0  0  0  0  0  0  0  0  0
   13.3465    3.2196  -59.7519 H   0  0  0  0  0  0  0  0  0  0  0  0
   13.2393    5.0127  -59.7519 H   0  0  0  0  0  0  0  0  0  0  0  0
   12.0618    2.5088  -57.1792 H   0  0  0  0  0  0  0  0  0  0  0  0
   12.1714    4.2299  -56.5972 H   0  0  0  0  0  0  0  0  0  0  0  0
   10.1490    2.6329  -55.8999 H   0  0  0  0  0  0  0  0  0  0  0  0
    9.9428    4.4139  -56.2256 H   0  0  0  0  0  0  0  0  0  0  0  0
    7.1970    3.1030  -56.8930 H   0  0  0  0  0  0  0  0  0  0  0  0
    5.9320    1.3650  -56.3610 H   0  0  0  0  0  0  0  0  0  0  0  0
    5.7320   -0.5980  -55.3740 H   0  0  0  0  0  0  0  0  0  0  0  0
    6.1821    1.2888  -53.5969 H   0  0  0  0  0  0  0  0  0  0  0  0
    5.6223   -0.3993  -53.2393 H   0  0  0  0  0  0  0  0  0  0  0  0
    8.5751    0.2072  -53.4532 H   0  0  0  0  0  0  0  0  0  0  0  0
    7.6480    0.5868  -51.9342 H   0  0  0  0  0  0  0  0  0  0  0  0
    8.0724   -1.5094  -51.3114 H   0  0  0  0  0  0  0  0  0  0  0  0
    6.8466   -1.9770  -52.5879 H   0  0  0  0  0  0  0  0  0  0  0  0
   10.5028   -1.6199  -51.8826 H   0  0  0  0  0  0  0  0  0  0  0  0
   12.2322   -2.8896  -53.1423 H   0  0  0  0  0  0  0  0  0  0  0  0
   12.5820   -3.8373  -55.7541 H   0  0  0  0  0  0  0  0  0  0  0  0
   12.3585   -5.1925  -54.5821 H   0  0  0  0  0  0  0  0  0  0  0  0
   10.3610   -5.7870  -56.0310 H   0  0  0  0  0  0  0  0  0  0  0  0
   11.0120   -4.7650  -57.1750 H   0  0  0  0  0  0  0  0  0  0  0  0
   11.8740   -6.0790  -56.6670 H   0  0  0  0  0  0  0  0  0  0  0  0
    9.1746   -4.4131  -55.7969 H   0  0  0  0  0  0  0  0  0  0  0  0
    7.4493   -3.1446  -54.5333 H   0  0  0  0  0  0  0  0  0  0  0  0
    7.6941    4.2448  -58.9440 H   0  0  0  0  0  0  0  0  0  0  0  0
    8.5044    5.1782  -57.5800 H   0  0  0  0  0  0  0  0  0  0  0  0
    9.0947    6.0131  -59.7582 H   0  0  0  0  0  0  0  0  0  0  0  0
    9.1364    3.6384  -60.9354 H   0  0  0  0  0  0  0  0  0  0  0  0
   10.5724    4.5338  -61.3134 H   0  0  0  0  0  0  0  0  0  0  0  0
   11.4498    2.4142  -60.1875 H   0  0  0  0  0  0  0  0  0  0  0  0
    9.0107    1.8872  -59.5303 H   0  0  0  0  0  0  0  0  0  0  0  0
   10.2956    1.4030  -58.3731 H   0  0  0  0  0  0  0  0  0  0  0  0
   11.5571    6.0927  -59.3858 H   0  0  0  0  0  0  0  0  0  0  0  0
   10.8778    5.8988  -57.7768 H   0  0  0  0  0  0  0  0  0  0  0  0
  2  1  1  6
  2  3  1  0
  3  4  1  0
  4  5  1  0
  5  6  1  1
  6  7  1  0
  7  8  2  0
  7  9  1  0
  9 10  1  0
 10 11  1  0
 11 12  1  0
 12 13  1  0
 13 14  1  0
 14 15  1  0
 15 16  2  0
 16 17  1  0
 17 18  1  0
 18 19  1  0
 17 20  2  0
 20 21  1  0
  5 22  1  0
 22 23  1  0
 23 24  1  0
 24 25  1  0
 25 26  1  0
 23 27  1  0
 25  2  1  0
 27  2  1  0
 26  5  1  0
 21 14  2  0
  1 28  1  0
  1 29  1  0
  1 30  1  0
  3 31  1  0
  3 32  1  0
  4 33  1  0
  4 34  1  0
  6 35  1  0
  9 36  1  0
 10 37  1  0
 11 38  1  0
 11 39  1  0
 12 40  1  0
 12 41  1  0
 13 42  1  0
 13 43  1  0
 15 44  1  0
 16 45  1  0
 18 46  1  0
 18 47  1  0
 19 48  1  0
 19 49  1  0
 19 50  1  0
 20 51  1  0
 21 52  1  0
 22 53  1  0
 22 54  1  0
 23 55  1  6
 24 56  1  0
 24 57  1  0
 25 58  1  6
 26 59  1  0
 26 60  1  0
 27 61  1  0
 27 62  1  0
M  CHG  1  19   1
M  END
>  <meeko>  (168) 
{"is_sidechain": false}

$$$$

     RDKit          3D

 84 91  0  0  0  0  0  0  0  0999 V2000
    2.9150    0.4370  -62.1150 C   0  0  0  0  0  0  0  0  0  0  0  0
    3.3410    1.8630  -62.4190 C   0  0  0  0  0  0  0  0  0  0  0  0
    3.3940    2.6410  -61.2250 O   0  0  0  0  0  0  0  0  0  0  0  0
    4.1710    2.2100  -60.1870 C   0  0  0  0  0  0  0  0  0  0  0  0
    5.2850    1.3760  -60.2780 C   0  0  0  0  0  0  0  0  0  0  0  0
    5.9960    1.0230  -59.1250 C   0  0  0  0  0  0  0  0  0  0  0  0
    5.6070    1.5110  -57.8720 C   0  0  0  0  0  0  0  0  0  0  0  0
    6.3450    1.1260  -56.6690 C   0  0  0  0  0  0  0  0  0  0  0  0
    5.8870    0.2510  -55.6770 C   0  0  0  0  0  0  0  0  0  0  0  0
    4.5800   -0.4760  -55.6900 C   0  0  0  0  0  0  0  0  0  0  0  0
    6.8560    0.2330  -54.6240 C   0  0  0  0  0  0  0  0  0  0  0  0
    6.8950   -0.5110  -53.3640 C   0  0  0  0  0  0  0  0  0  0  0  0
    6.8650    0.0510  -52.2760 O   0  0  0  0  0  0  0  0  0  0  0  0
    7.0250   -1.8740  -53.5230 N   0  0  0  0  0  0  0  0  0  0  0  0
    7.2080   -2.8350  -52.4260 C   0  0  1  0  0  0  0  0  0  0  0  0
    6.6750   -4.2310  -52.8370 C   0  0  0  0  0  0  0  0  0  0  0  0
    7.3510   -5.3780  -52.0740 C   0  0  0  0  0  0  0  0  0  0  0  0
    7.7910   -4.9690  -50.6570 C   0  0  2  0  0  0  0  0  0  0  0  0
    8.4270   -6.1700  -49.9480 C   0  0  0  0  0  0  0  0  0  0  0  0
    6.5660   -4.4520  -49.8580 C   0  0  0  0  0  0  0  0  0  0  0  0
    6.7500   -2.9360  -49.8400 C   0  0  1  0  0  0  0  0  0  0  0  0
    8.2490   -2.8320  -49.5870 C   0  0  0  0  0  0  0  0  0  0  0  0
    8.7810   -3.7510  -50.6880 C   0  0  2  0  0  0  0  0  0  0  0  0
    8.6900   -2.9760  -52.0150 C   0  0  0  0  0  0  0  0  0  0  0  0
    6.4020   -2.2890  -51.1970 C   0  0  0  0  0  0  0  0  0  0  0  0
    7.8240    1.1460  -54.9890 C   0  0  0  0  0  0  0  0  0  0  0  0
    7.5750    1.6490  -56.2550 N   0  0  0  0  0  0  0  0  0  0  0  0
    8.4990    2.5400  -56.9130 C   0  0  0  0  0  0  0  0  0  0  0  0
    8.2290    3.8890  -57.1030 C   0  0  0  0  0  0  0  0  0  0  0  0
    9.1770    4.6910  -57.7510 C   0  0  0  0  0  0  0  0  0  0  0  0
   10.3780    4.1500  -58.2140 C   0  0  0  0  0  0  0  0  0  0  0  0
   11.3940    4.9680  -58.8920 C   0  0  0  0  0  0  0  0  0  0  0  0
   12.5560    5.4030  -58.1900 C   0  0  0  0  0  0  0  0  0  0  0  0
   13.5480    6.1840  -58.7990 C   0  0  0  0  0  0  0  0  0  0  0  0
   13.3480    6.5140  -60.1160 C   0  0  0  0  0  0  0  0  0  0  0  0
   14.1410    7.2640  -60.9770 N   0  0  0  0  0  0  0  0  0  0  0  0
   13.5140    7.3230  -62.2300 C   0  0  0  0  0  0  0  0  0  0  0  0
   13.9240    7.8950  -63.2230 O   0  0  0  0  0  0  0  0  0  0  0  0
   12.3200    6.5940  -62.1160 N   0  0  0  0  0  0  0  0  0  0  0  0
   12.2210    6.1000  -60.8200 C   0  0  0  0  0  0  0  0  0  0  0  0
   11.2340    5.3330  -60.2440 C   0  0  0  0  0  0  0  0  0  0  0  0
   10.5480    2.7870  -57.9990 C   0  0  0  0  0  0  0  0  0  0  0  0
    9.6510    1.9850  -57.3770 N   0  0  0  0  0  0  0  0  0  0  0  0
    4.4840    2.3380  -57.7800 C   0  0  0  0  0  0  0  0  0  0  0  0
    3.7780    2.6880  -58.9340 C   0  0  0  0  0  0  0  0  0  0  0  0
    2.8716    0.2917  -61.0255 H   0  0  0  0  0  0  0  0  0  0  0  0
    1.9219    0.2504  -62.5497 H   0  0  0  0  0  0  0  0  0  0  0  0
    3.6430   -0.2637  -62.5497 H   0  0  0  0  0  0  0  0  0  0  0  0
    4.3371    1.8501  -62.8856 H   0  0  0  0  0  0  0  0  0  0  0  0
    2.6046    2.3133  -63.1009 H   0  0  0  0  0  0  0  0  0  0  0  0
    5.6059    0.9945  -61.2586 H   0  0  0  0  0  0  0  0  0  0  0  0
    6.8676    0.3566  -59.2043 H   0  0  0  0  0  0  0  0  0  0  0  0
    4.2517   -0.6586  -54.6561 H   0  0  0  0  0  0  0  0  0  0  0  0
    3.8269    0.1329  -56.2117 H   0  0  0  0  0  0  0  0  0  0  0  0
    4.7001   -1.4369  -56.2117 H   0  0  0  0  0  0  0  0  0  0  0  0
    7.3190   -2.1720  -54.4430 H   0  0  0  0  0  0  0  0  0  0  0  0
    5.5938   -4.2663  -52.6376 H   0  0  0  0  0  0  0  0  0  0  0  0
    6.8996   -4.3682  -53.9051 H   0  0  0  0  0  0  0  0  0  0  0  0
    6.6412   -6.2146  -51.9946 H   0  0  0  0  0  0  0  0  0  0  0  0
    8.2541   -5.6632  -52.6336 H   0  0  0  0  0  0  0  0  0  0  0  0
    8.3546   -6.0334  -48.8589 H   0  0  0  0  0  0  0  0  0  0  0  0
    7.8977   -7.0896  -50.2381 H   0  0  0  0  0  0  0  0  0  0  0  0
    9.4851   -6.2489  -50.2381 H   0  0  0  0  0  0  0  0  0  0  0  0
    5.6270   -4.7260  -50.3612 H   0  0  0  0  0  0  0  0  0  0  0  0
    6.5066   -4.8834  -48.8479 H   0  0  0  0  0  0  0  0  0  0  0  0
    6.1063   -2.4262  -49.1081 H   0  0  0  0  0  0  0  0  0  0  0  0
    8.6109   -1.8004  -49.7088 H   0  0  0  0  0  0  0  0  0  0  0  0
    8.5625   -3.1066  -48.5690 H   0  0  0  0  0  0  0  0  0  0  0  0
    9.8231   -4.0808  -50.5650 H   0  0  0  0  0  0  0  0  0  0  0  0
    9.1322   -1.9769  -51.8876 H   0  0  0  0  0  0  0  0  0  0  0  0
    9.2380   -3.5214  -52.7974 H   0  0  0  0  0  0  0  0  0  0  0  0
    5.3323   -2.4582  -51.3898 H   0  0  0  0  0  0  0  0  0  0  0  0
    6.6705   -1.2263  -51.1050 H   0  0  0  0  0  0  0  0  0  0  0  0
    8.6783    1.4353  -54.3593 H   0  0  0  0  0  0  0  0  0  0  0  0
    7.2820    4.3224  -56.7488 H   0  0  0  0  0  0  0  0  0  0  0  0
    8.9725    5.7619  -57.8972 H   0  0  0  0  0  0  0  0  0  0  0  0
   12.6783    5.1162  -57.1351 H   0  0  0  0  0  0  0  0  0  0  0  0
   14.4413    6.5155  -58.2493 H   0  0  0  0  0  0  0  0  0  0  0  0
   15.0230    7.7030  -60.7720 H   0  0  0  0  0  0  0  0  0  0  0  0
   11.6680    6.4680  -62.8720 H   0  0  0  0  0  0  0  0  0  0  0  0
   10.3512    5.0159  -60.8186 H   0  0  0  0  0  0  0  0  0  0  0  0
   11.4791    2.3262  -58.3605 H   0  0  0  0  0  0  0  0  0  0  0  0
    4.1560    2.7133  -56.7994 H   0  0  0  0  0  0  0  0  0  0  0  0
    2.9017    3.3482  -58.8551 H   0  0  0  0  0  0  0  0  0  0  0  0
  1  2  1  0
  2  3  1  0
  3  4  1  0
  4  5  1  0
  5  6  2  0
  6  7  1  0
  7  8  1  0
  8  9  2  0
  9 10  1  0
  9 11  1  0
 11 12  1  0
 12 13  2  0
 12 14  1  0
 15 14  1  6
 15 16  1  0
 16 17  1  0
 17 18  1  0
 18 19  1  1
 18 20  1  0
 20 21  1  0
 21 22  1  0
 22 23  1  0
 23 24  1  0
 21 25  1  0
 11 26  2  0
 26 27  1  0
 27 28  1  0
 28 29  2  0
 29 30  1  0
 30 31  2  0
 31 32  1  0
 32 33  2  0
 33 34  1  0
 34 35  2  0
 35 36  1  0
 36 37  1  0
 37 38  2  0
 37 39  1  0
 39 40  1  0
 40 41  2  0
 31 42  1  0
 42 43  2  0
  7 44  2  0
 44 45  1  0
 45  4  2  0
 27  8  1  0
 43 28  1  0
 24 15  1  0
 41 32  1  0
 25 15  1  0
 40 35  1  0
 23 18  1  0
  1 46  1  0
  1 47  1  0
  1 48  1  0
  2 49  1  0
  2 50  1  0
  5 51  1  0
  6 52  1  0
 10 53  1  0
 10 54  1  0
 10 55  1  0
 14 56  1  0
 16 57  1  0
 16 58  1  0
 17 59  1  0
 17 60  1  0
 19 61  1  0
 19 62  1  0
 19 63  1  0
 20 64  1  0
 20 65  1  0
 21 66  1  1
 22 67  1  0
 22 68  1  0
 23 69  1  1
 24 70  1  0
 24 71  1  0
 25 72  1  0
 25 73  1  0
 26 74  1  0
 29 75  1  0
 30 76  1  0
 33 77  1  0
 34 78  1  0
 36 79  1  0
 39 80  1  0
 41 81  1  0
 42 82  1  0
 44 83  1  0
 45 84  1  0
M  END
>  <meeko>  (169) 
{"is_sidechain": false}

$$$$

     RDKit          3D

 84 91  0  0  0  0  0  0  0  0999 V2000
    3.3160    0.9820  -62.7300 C   0  0  0  0  0  0  0  0  0  0  0  0
    2.5880    1.5990  -61.5480 C   0  0  0  0  0  0  0  0  0  0  0  0
    3.4120    2.5600  -60.8900 O   0  0  0  0  0  0  0  0  0  0  0  0
    4.2260    2.1460  -59.8730 C   0  0  0  0  0  0  0  0  0  0  0  0
    5.3590    1.3430  -59.9930 C   0  0  0  0  0  0  0  0  0  0  0  0
    6.1040    1.0020  -58.8580 C   0  0  0  0  0  0  0  0  0  0  0  0
    5.7290    1.4680  -57.5940 C   0  0  0  0  0  0  0  0  0  0  0  0
    6.4900    1.0800  -56.4030 C   0  0  0  0  0  0  0  0  0  0  0  0
    6.0660    0.2090  -55.3980 C   0  0  0  0  0  0  0  0  0  0  0  0
    4.7580   -0.5140  -55.3720 C   0  0  0  0  0  0  0  0  0  0  0  0
    7.1170    0.1200  -54.4320 C   0  0  0  0  0  0  0  0  0  0  0  0
    7.2110   -0.6160  -53.1690 C   0  0  0  0  0  0  0  0  0  0  0  0
    7.1300   -0.0470  -52.0860 O   0  0  0  0  0  0  0  0  0  0  0  0
    7.3280   -1.9800  -53.3180 N   0  0  0  0  0  0  0  0  0  0  0  0
    7.3240   -2.9560  -52.2180 C   0  0  1  0  0  0  0  0  0  0  0  0
    7.0200   -4.3490  -52.8450 C   0  0  0  0  0  0  0  0  0  0  0  0
    7.5860   -5.5260  -52.0400 C   0  0  0  0  0  0  0  0  0  0  0  0
    7.6850   -5.2190  -50.5390 C   0  0  2  0  0  0  0  0  0  0  0  0
    8.2440   -6.4390  -49.7970 C   0  0  0  0  0  0  0  0  0  0  0  0
    6.2840   -4.8460  -49.9870 C   0  0  0  0  0  0  0  0  0  0  0  0
    6.3420   -3.3290  -49.8210 C   0  0  1  0  0  0  0  0  0  0  0  0
    7.7450   -3.1580  -49.2510 C   0  0  0  0  0  0  0  0  0  0  0  0
    8.5660   -3.9510  -50.2720 C   0  0  2  0  0  0  0  0  0  0  0  0
    8.7020   -3.0700  -51.5290 C   0  0  0  0  0  0  0  0  0  0  0  0
    6.2240   -2.5880  -51.1710 C   0  0  0  0  0  0  0  0  0  0  0  0
    8.1570    0.8870  -54.9270 C   0  0  0  0  0  0  0  0  0  0  0  0
    7.7930    1.5000  -56.1120 N   0  0  0  0  0  0  0  0  0  0  0  0
    8.6200    2.4030  -56.8740 C   0  0  0  0  0  0  0  0  0  0  0  0
    9.5890    1.9130  -57.7470 C   0  0  0  0  0  0  0  0  0  0  0  0
   10.3820    2.8140  -58.4680 C   0  0  0  0  0  0  0  0  0  0  0  0
   10.2100    4.1930  -58.3180 C   0  0  0  0  0  0  0  0  0  0  0  0
   11.0210    5.1670  -59.0640 C   0  0  0  0  0  0  0  0  0  0  0  0
   10.4800    6.4130  -59.4340 C   0  0  0  0  0  0  0  0  0  0  0  0
   11.2250    7.3670  -60.1450 C   0  0  0  0  0  0  0  0  0  0  0  0
   12.5470    7.0630  -60.4930 C   0  0  0  0  0  0  0  0  0  0  0  0
   13.4720    7.8160  -61.1780 N   0  0  0  0  0  0  0  0  0  0  0  0
   14.5330    7.0570  -61.2200 C   0  0  0  0  0  0  0  0  0  0  0  0
   15.6560    7.4220  -61.7990 O   0  0  0  0  0  0  0  0  0  0  0  0
   14.3600    5.8560  -60.6060 N   0  0  0  0  0  0  0  0  0  0  0  0
   13.0760    5.8280  -60.1240 C   0  0  0  0  0  0  0  0  0  0  0  0
   12.3520    4.8620  -59.4170 C   0  0  0  0  0  0  0  0  0  0  0  0
    9.2210    4.5840  -57.4230 C   0  0  0  0  0  0  0  0  0  0  0  0
    8.4370    3.7340  -56.7160 N   0  0  0  0  0  0  0  0  0  0  0  0
    4.5900    2.2690  -57.4730 C   0  0  0  0  0  0  0  0  0  0  0  0
    3.8500    2.6080  -58.6090 C   0  0  0  0  0  0  0  0  0  0  0  0
    4.1073    0.3114  -62.3638 H   0  0  0  0  0  0  0  0  0  0  0  0
    2.6032    0.4088  -63.3410 H   0  0  0  0  0  0  0  0  0  0  0  0
    3.7646    1.7791  -63.3410 H   0  0  0  0  0  0  0  0  0  0  0  0
    1.6732    2.0936  -61.9063 H   0  0  0  0  0  0  0  0  0  0  0  0
    2.3376    0.8013  -60.8331 H   0  0  0  0  0  0  0  0  0  0  0  0
    5.6687    0.9761  -60.9827 H   0  0  0  0  0  0  0  0  0  0  0  0
    6.9924    0.3617  -58.9613 H   0  0  0  0  0  0  0  0  0  0  0  0
    4.4529   -0.6826  -54.3287 H   0  0  0  0  0  0  0  0  0  0  0  0
    3.9948    0.0903  -55.8841 H   0  0  0  0  0  0  0  0  0  0  0  0
    4.8637   -1.4818  -55.8841 H   0  0  0  0  0  0  0  0  0  0  0  0
    7.0920   -2.3310  -54.2360 H   0  0  0  0  0  0  0  0  0  0  0  0
    5.9286   -4.4681  -52.9132 H   0  0  0  0  0  0  0  0  0  0  0  0
    7.5077   -4.3705  -53.8308 H   0  0  0  0  0  0  0  0  0  0  0  0
    6.9287   -6.3969  -52.1792 H   0  0  0  0  0  0  0  0  0  0  0  0
    8.6035   -5.7238  -52.4082 H   0  0  0  0  0  0  0  0  0  0  0  0
    8.1686   -6.2745  -48.7120 H   0  0  0  0  0  0  0  0  0  0  0  0
    7.6657   -7.3330  -50.0734 H   0  0  0  0  0  0  0  0  0  0  0  0
    9.2987   -6.5847  -50.0734 H   0  0  0  0  0  0  0  0  0  0  0  0
    5.4951   -5.1313  -50.6985 H   0  0  0  0  0  0  0  0  0  0  0  0
    6.0484   -5.3653  -49.0464 H   0  0  0  0  0  0  0  0  0  0  0  0
    5.5262   -2.9228  -49.2050 H   0  0  0  0  0  0  0  0  0  0  0  0
    8.0451   -2.1001  -49.2237 H   0  0  0  0  0  0  0  0  0  0  0  0
    7.8594   -3.4976  -48.2110 H   0  0  0  0  0  0  0  0  0  0  0  0
    9.5799   -4.2324  -49.9514 H   0  0  0  0  0  0  0  0  0  0  0  0
    9.0536   -2.0684  -51.2405 H   0  0  0  0  0  0  0  0  0  0  0  0
    9.4265   -3.5225  -52.2220 H   0  0  0  0  0  0  0  0  0  0  0  0
    5.2427   -2.8259  -51.6075 H   0  0  0  0  0  0  0  0  0  0  0  0
    6.3523   -1.5182  -50.9496 H   0  0  0  0  0  0  0  0  0  0  0  0
    9.1393    0.9945  -54.4438 H   0  0  0  0  0  0  0  0  0  0  0  0
    9.7297    0.8288  -57.8686 H   0  0  0  0  0  0  0  0  0  0  0  0
   11.1480    2.4328  -59.1594 H   0  0  0  0  0  0  0  0  0  0  0  0
    9.4412    6.6462  -59.1574 H   0  0  0  0  0  0  0  0  0  0  0  0
   10.7795    8.3335  -60.4231 H   0  0  0  0  0  0  0  0  0  0  0  0
   15.3360    8.0680  -62.4560 H   0  0  0  0  0  0  0  0  0  0  0  0
   15.0590    5.1320  -60.5310 H   0  0  0  0  0  0  0  0  0  0  0  0
   12.8055    3.8973  -59.1456 H   0  0  0  0  0  0  0  0  0  0  0  0
    9.0630    5.6629  -57.2778 H   0  0  0  0  0  0  0  0  0  0  0  0
    4.2760    2.6326  -56.4835 H   0  0  0  0  0  0  0  0  0  0  0  0
    2.9602    3.2466  -58.5068 H   0  0  0  0  0  0  0  0  0  0  0  0
  1  2  1  0
  2  3  1  0
  3  4  1  0
  4  5  1  0
  5  6  2  0
  6  7  1  0
  7  8  1  0
  8  9  2  0
  9 10  1  0
  9 11  1  0
 11 12  1  0
 12 13  2  0
 12 14  1  0
 15 14  1  6
 15 16  1  0
 16 17  1  0
 17 18  1  0
 18 19  1  1
 18 20  1  0
 20 21  1  0
 21 22  1  0
 22 23  1  0
 23 24  1  0
 21 25  1  0
 11 26  2  0
 26 27  1  0
 27 28  1  0
 28 29  2  0
 29 30  1  0
 30 31  2  0
 31 32  1  0
 32 33  2  0
 33 34  1  0
 34 35  2  0
 35 36  1  0
 36 37  2  0
 37 38  1  0
 37 39  1  0
 39 40  1  0
 40 41  2  0
 31 42  1  0
 42 43  2  0
  7 44  2  0
 44 45  1  0
 45  4  2  0
 27  8  1  0
 43 28  1  0
 24 15  1  0
 41 32  1  0
 25 15  1  0
 40 35  1  0
 23 18  1  0
  1 46  1  0
  1 47  1  0
  1 48  1  0
  2 49  1  0
  2 50  1  0
  5 51  1  0
  6 52  1  0
 10 53  1  0
 10 54  1  0
 10 55  1  0
 14 56  1  0
 16 57  1  0
 16 58  1  0
 17 59  1  0
 17 60  1  0
 19 61  1  0
 19 62  1  0
 19 63  1  0
 20 64  1  0
 20 65  1  0
 21 66  1  1
 22 67  1  0
 22 68  1  0
 23 69  1  1
 24 70  1  0
 24 71  1  0
 25 72  1  0
 25 73  1  0
 26 74  1  0
 29 75  1  0
 30 76  1  0
 33 77  1  0
 34 78  1  0
 38 79  1  0
 39 80  1  0
 41 81  1  0
 42 82  1  0
 44 83  1  0
 45 84  1  0
M  END
>  <meeko>  (170) 
{"is_sidechain": false}

$$$$

     RDKit          3D

 84 91  0  0  0  0  0  0  0  0999 V2000
    3.1390    1.3660  -63.1160 C   0  0  0  0  0  0  0  0  0  0  0  0
    2.9030    1.9630  -61.7400 C   0  0  0  0  0  0  0  0  0  0  0  0
    4.0650    2.6480  -61.2760 O   0  0  0  0  0  0  0  0  0  0  0  0
    4.5720    2.3320  -60.0470 C   0  0  0  0  0  0  0  0  0  0  0  0
    5.7010    1.5080  -60.0840 C   0  0  0  0  0  0  0  0  0  0  0  0
    6.3320    1.1060  -58.9040 C   0  0  0  0  0  0  0  0  0  0  0  0
    5.8420    1.5340  -57.6670 C   0  0  0  0  0  0  0  0  0  0  0  0
    6.4800    1.0900  -56.4250 C   0  0  0  0  0  0  0  0  0  0  0  0
    5.9130    0.2610  -55.4550 C   0  0  0  0  0  0  0  0  0  0  0  0
    4.5270   -0.2960  -55.4950 C   0  0  0  0  0  0  0  0  0  0  0  0
    6.8850    0.0780  -54.4220 C   0  0  0  0  0  0  0  0  0  0  0  0
    6.8480   -0.7100  -53.1870 C   0  0  0  0  0  0  0  0  0  0  0  0
    6.8100   -0.1780  -52.0830 O   0  0  0  0  0  0  0  0  0  0  0  0
    6.9200   -2.0720  -53.3800 N   0  0  0  0  0  0  0  0  0  0  0  0
    7.0320   -3.0510  -52.2900 C   0  0  1  0  0  0  0  0  0  0  0  0
    6.6050   -4.4600  -52.7800 C   0  0  0  0  0  0  0  0  0  0  0  0
    7.3120   -5.6030  -52.0410 C   0  0  0  0  0  0  0  0  0  0  0  0
    7.6920   -5.2280  -50.5990 C   0  0  2  0  0  0  0  0  0  0  0  0
    8.3660   -6.4220  -49.9140 C   0  0  0  0  0  0  0  0  0  0  0  0
    6.4250   -4.7980  -49.8130 C   0  0  0  0  0  0  0  0  0  0  0  0
    6.5350   -3.2760  -49.7300 C   0  0  1  0  0  0  0  0  0  0  0  0
    8.0240   -3.1160  -49.4410 C   0  0  0  0  0  0  0  0  0  0  0  0
    8.6220   -3.9670  -50.5650 C   0  0  2  0  0  0  0  0  0  0  0  0
    8.5150   -3.1450  -51.8610 C   0  0  0  0  0  0  0  0  0  0  0  0
    6.1770   -2.5910  -51.0660 C   0  0  0  0  0  0  0  0  0  0  0  0
    7.9700    0.8560  -54.7760 C   0  0  0  0  0  0  0  0  0  0  0  0
    7.7610    1.4650  -55.9990 N   0  0  0  0  0  0  0  0  0  0  0  0
    8.7040    2.3120  -56.6880 C   0  0  0  0  0  0  0  0  0  0  0  0
    8.4700    3.6800  -56.8100 C   0  0  0  0  0  0  0  0  0  0  0  0
    9.4080    4.4780  -57.4770 C   0  0  0  0  0  0  0  0  0  0  0  0
   10.5680    3.9170  -58.0170 C   0  0  0  0  0  0  0  0  0  0  0  0
   11.5740    4.7280  -58.7200 C   0  0  0  0  0  0  0  0  0  0  0  0
   12.8230    5.0020  -58.1260 C   0  0  0  0  0  0  0  0  0  0  0  0
   13.8100    5.7700  -58.7620 C   0  0  0  0  0  0  0  0  0  0  0  0
   13.4960    6.2590  -60.0280 C   0  0  0  0  0  0  0  0  0  0  0  0
   14.1940    7.0270  -60.9260 N   0  0  0  0  0  0  0  0  0  0  0  0
   13.3940    7.2030  -62.0110 C   0  0  0  0  0  0  0  0  0  0  0  0
   13.7500    7.8940  -63.0710 O   0  0  0  0  0  0  0  0  0  0  0  0
   12.2330    6.6170  -61.8980 N   0  0  0  0  0  0  0  0  0  0  0  0
   12.2770    6.0200  -60.6600 C   0  0  0  0  0  0  0  0  0  0  0  0
   11.3060    5.2480  -60.0030 C   0  0  0  0  0  0  0  0  0  0  0  0
   10.7090    2.5440  -57.8480 C   0  0  0  0  0  0  0  0  0  0  0  0
    9.8200    1.7490  -57.2040 N   0  0  0  0  0  0  0  0  0  0  0  0
    4.7080    2.3540  -57.6280 C   0  0  0  0  0  0  0  0  0  0  0  0
    4.0800    2.7550  -58.8130 C   0  0  0  0  0  0  0  0  0  0  0  0
    3.5415    0.3478  -63.0098 H   0  0  0  0  0  0  0  0  0  0  0  0
    2.1880    1.3287  -63.6675 H   0  0  0  0  0  0  0  0  0  0  0  0
    3.8585    1.9890  -63.6675 H   0  0  0  0  0  0  0  0  0  0  0  0
    2.0643    2.6727  -61.7944 H   0  0  0  0  0  0  0  0  0  0  0  0
    2.6719    1.1480  -61.0383 H   0  0  0  0  0  0  0  0  0  0  0  0
    6.0972    1.1722  -61.0537 H   0  0  0  0  0  0  0  0  0  0  0  0
    7.2153    0.4520  -58.9486 H   0  0  0  0  0  0  0  0  0  0  0  0
    4.1611   -0.4430  -54.4681 H   0  0  0  0  0  0  0  0  0  0  0  0
    3.8649    0.4059  -56.0232 H   0  0  0  0  0  0  0  0  0  0  0  0
    4.5347   -1.2609  -56.0232 H   0  0  0  0  0  0  0  0  0  0  0  0
    7.2240   -2.3670  -54.2970 H   0  0  0  0  0  0  0  0  0  0  0  0
    5.5204   -4.5669  -52.6310 H   0  0  0  0  0  0  0  0  0  0  0  0
    6.8889   -4.5346  -53.8401 H   0  0  0  0  0  0  0  0  0  0  0  0
    6.6402   -6.4736  -52.0134 H   0  0  0  0  0  0  0  0  0  0  0  0
    8.2424   -5.8260  -52.5838 H   0  0  0  0  0  0  0  0  0  0  0  0
    8.2994   -6.3040  -48.8224 H   0  0  0  0  0  0  0  0  0  0  0  0
    7.8590   -7.3510  -50.2140 H   0  0  0  0  0  0  0  0  0  0  0  0
    9.4233   -6.4680  -50.2140 H   0  0  0  0  0  0  0  0  0  0  0  0
    5.5126   -5.0946  -50.3510 H   0  0  0  0  0  0  0  0  0  0  0  0
    6.3629   -5.2710  -48.8218 H   0  0  0  0  0  0  0  0  0  0  0  0
    5.8558   -2.8242  -48.9921 H   0  0  0  0  0  0  0  0  0  0  0  0
    8.3410   -2.0653  -49.5151 H   0  0  0  0  0  0  0  0  0  0  0  0
    8.3283   -3.4173  -48.4278 H   0  0  0  0  0  0  0  0  0  0  0  0
    9.6763   -4.2526  -50.4348 H   0  0  0  0  0  0  0  0  0  0  0  0
    8.9115   -2.1337  -51.6877 H   0  0  0  0  0  0  0  0  0  0  0  0
    9.0965   -3.6353  -52.6556 H   0  0  0  0  0  0  0  0  0  0  0  0
    5.1208   -2.8043  -51.2873 H   0  0  0  0  0  0  0  0  0  0  0  0
    6.3850   -1.5195  -50.9292 H   0  0  0  0  0  0  0  0  0  0  0  0
    8.8781    0.9749  -54.1667 H   0  0  0  0  0  0  0  0  0  0  0  0
    7.5588    4.1283  -56.3872 H   0  0  0  0  0  0  0  0  0  0  0  0
    9.2294    5.5588  -57.5768 H   0  0  0  0  0  0  0  0  0  0  0  0
   13.0318    4.5977  -57.1245 H   0  0  0  0  0  0  0  0  0  0  0  0
   14.7803    5.9751  -58.2862 H   0  0  0  0  0  0  0  0  0  0  0  0
   15.1240    7.3980  -60.8190 H   0  0  0  0  0  0  0  0  0  0  0  0
   13.6280    7.2390  -63.7820 H   0  0  0  0  0  0  0  0  0  0  0  0
   10.3387    5.0493  -60.4877 H   0  0  0  0  0  0  0  0  0  0  0  0
   11.6077    2.0683  -58.2676 H   0  0  0  0  0  0  0  0  0  0  0  0
    4.3074    2.6857  -56.6587 H   0  0  0  0  0  0  0  0  0  0  0  0
    3.1947    3.4065  -58.7704 H   0  0  0  0  0  0  0  0  0  0  0  0
  1  2  1  0
  2  3  1  0
  3  4  1  0
  4  5  1  0
  5  6  2  0
  6  7  1  0
  7  8  1  0
  8  9  2  0
  9 10  1  0
  9 11  1  0
 11 12  1  0
 12 13  2  0
 12 14  1  0
 15 14  1  6
 15 16  1  0
 16 17  1  0
 17 18  1  0
 18 19  1  1
 18 20  1  0
 20 21  1  0
 21 22  1  0
 22 23  1  0
 23 24  1  0
 21 25  1  0
 11 26  2  0
 26 27  1  0
 27 28  1  0
 28 29  2  0
 29 30  1  0
 30 31  2  0
 31 32  1  0
 32 33  2  0
 33 34  1  0
 34 35  2  0
 35 36  1  0
 36 37  1  0
 37 38  1  0
 37 39  2  0
 39 40  1  0
 40 41  2  0
 31 42  1  0
 42 43  2  0
  7 44  2  0
 44 45  1  0
 45  4  2  0
 27  8  1  0
 43 28  1  0
 24 15  1  0
 41 32  1  0
 25 15  1  0
 40 35  1  0
 23 18  1  0
  1 46  1  0
  1 47  1  0
  1 48  1  0
  2 49  1  0
  2 50  1  0
  5 51  1  0
  6 52  1  0
 10 53  1  0
 10 54  1  0
 10 55  1  0
 14 56  1  0
 16 57  1  0
 16 58  1  0
 17 59  1  0
 17 60  1  0
 19 61  1  0
 19 62  1  0
 19 63  1  0
 20 64  1  0
 20 65  1  0
 21 66  1  1
 22 67  1  0
 22 68  1  0
 23 69  1  1
 24 70  1  0
 24 71  1  0
 25 72  1  0
 25 73  1  0
 26 74  1  0
 29 75  1  0
 30 76  1  0
 33 77  1  0
 34 78  1  0
 36 79  1  0
 38 80  1  0
 41 81  1  0
 42 82  1  0
 44 83  1  0
 45 84  1  0
M  END
>  <meeko>  (171) 
{"is_sidechain": false}

$$$$

     RDKit          3D

 35 37  0  0  0  0  0  0  0  0999 V2000
   11.4180    5.6780  -59.4360 C   0  0  0  0  0  0  0  0  0  0  0  0
   10.3610    4.5700  -59.5110 C   0  0  2  0  0  0  0  0  0  0  0  0
   10.1800    4.1240  -60.9700 C   0  0  0  0  0  0  0  0  0  0  0  0
    9.1360    3.0100  -61.1210 C   0  0  0  0  0  0  0  0  0  0  0  0
    8.0300    3.0380  -60.0230 C   0  0  1  0  0  0  0  0  0  0  0  0
    6.8340    2.4130  -60.6000 N   0  0  0  0  0  0  0  0  0  0  0  0
    5.6560    2.0410  -59.9690 C   0  0  0  0  0  0  0  0  0  0  0  0
    4.6650    1.2960  -60.7090 C   0  0  0  0  0  0  0  0  0  0  0  0
    3.8960    0.6910  -61.3340 N   0  0  0  0  0  0  0  0  0  0  0  0
    5.3540    2.3130  -58.7110 N   0  0  0  0  0  0  0  0  0  0  0  0
    5.0950    2.5410  -57.6230 N   0  0  0  0  0  0  0  0  0  0  0  0
    8.5000    2.2360  -58.7700 C   0  0  0  0  0  0  0  0  0  0  0  0
    9.5190    2.9810  -57.8800 C   0  0  2  0  0  0  0  0  0  0  0  0
    8.9850    4.3630  -57.5160 C   0  0  0  0  0  0  0  0  0  0  0  0
    9.0050    5.0480  -58.8860 C   0  0  2  0  0  0  0  0  0  0  0  0
    7.7910    4.5200  -59.6760 C   0  0  0  0  0  0  0  0  0  0  0  0
   10.7870    3.3580  -58.6430 C   0  0  0  0  0  0  0  0  0  0  0  0
   11.6358    5.9063  -58.3822 H   0  0  0  0  0  0  0  0  0  0  0  0
   12.3382    5.3414  -59.9360 H   0  0  0  0  0  0  0  0  0  0  0  0
   11.0384    6.5813  -59.9360 H   0  0  0  0  0  0  0  0  0  0  0  0
    9.8590    4.9909  -61.5662 H   0  0  0  0  0  0  0  0  0  0  0  0
   11.1444    3.7264  -61.3190 H   0  0  0  0  0  0  0  0  0  0  0  0
    8.6532    3.1167  -62.1036 H   0  0  0  0  0  0  0  0  0  0  0  0
    9.6684    2.0530  -61.0181 H   0  0  0  0  0  0  0  0  0  0  0  0
    6.9790    2.0160  -61.5300 H   0  0  0  0  0  0  0  0  0  0  0  0
    7.6154    2.0031  -58.1590 H   0  0  0  0  0  0  0  0  0  0  0  0
    9.0105    1.3372  -59.1463 H   0  0  0  0  0  0  0  0  0  0  0  0
    9.7005    2.3029  -57.0331 H   0  0  0  0  0  0  0  0  0  0  0  0
    7.9659    4.3081  -57.1056 H   0  0  0  0  0  0  0  0  0  0  0  0
    9.5620    4.8839  -56.7377 H   0  0  0  0  0  0  0  0  0  0  0  0
    8.9404    6.1460  -58.8692 H   0  0  0  0  0  0  0  0  0  0  0  0
    6.8821    4.6143  -59.0636 H   0  0  0  0  0  0  0  0  0  0  0  0
    7.6637    5.1040  -60.5995 H   0  0  0  0  0  0  0  0  0  0  0  0
   11.5917    3.6394  -57.9478 H   0  0  0  0  0  0  0  0  0  0  0  0
   11.1803    2.5255  -59.2450 H   0  0  0  0  0  0  0  0  0  0  0  0
  2  1  1  6
  2  3  1  0
  3  4  1  0
  4  5  1  0
  5  6  1  6
  6  7  1  0
  7  8  1  0
  8  9  3  0
  7 10  2  0
 10 11  2  0
  5 12  1  0
 12 13  1  0
 13 14  1  0
 14 15  1  0
 15 16  1  0
 13 17  1  0
 15  2  1  0
 17  2  1  0
 16  5  1  0
  1 18  1  0
  1 19  1  0
  1 20  1  0
  3 21  1  0
  3 22  1  0
  4 23  1  0
  4 24  1  0
  6 25  1  0
 12 26  1  0
 12 27  1  0
 13 28  1  1
 14 29  1  0
 14 30  1  0
 15 31  1  1
 16 32  1  0
 16 33  1  0
 17 34  1  0
 17 35  1  0
M  CHG  2  10   1  11  -1
M  END
>  <meeko>  (172) 
{"is_sidechain": false}

$$$$

     RDKit          3D

 35 37  0  0  0  0  0  0  0  0999 V2000
   13.4070    4.1450  -59.4720 C   0  0  0  0  0  0  0  0  0  0  0  0
   11.9800    4.0390  -58.9220 C   0  0  2  0  0  0  0  0  0  0  0  0
   12.0070    3.3570  -57.5400 C   0  0  0  0  0  0  0  0  0  0  0  0
   10.6130    3.2590  -56.9050 C   0  0  0  0  0  0  0  0  0  0  0  0
    9.5000    3.0990  -57.9640 C   0  0  1  0  0  0  0  0  0  0  0  0
    8.3130    2.4480  -57.3940 N   0  0  0  0  0  0  0  0  0  0  0  0
    7.2010    2.1570  -57.9540 C   0  0  0  0  0  0  0  0  0  0  0  0
    6.9600    2.4510  -59.3460 C   0  0  0  0  0  0  0  0  0  0  0  0
    6.6580    2.6330  -60.4510 N   0  0  0  0  0  0  0  0  0  0  0  0
    6.0710    1.4670  -57.1380 N   0  0  0  0  0  0  0  0  0  0  0  0
    6.2980    1.1620  -55.7370 N   0  0  0  0  0  0  0  0  0  0  0  0
    8.9960    4.5160  -58.4170 C   0  0  0  0  0  0  0  0  0  0  0  0
    9.9390    5.2700  -59.3790 C   0  0  2  0  0  0  0  0  0  0  0  0
   10.2440    4.3990  -60.5920 C   0  0  0  0  0  0  0  0  0  0  0  0
   11.0480    3.2770  -59.9310 C   0  0  2  0  0  0  0  0  0  0  0  0
   10.0460    2.3630  -59.2000 C   0  0  0  0  0  0  0  0  0  0  0  0
   11.3410    5.4490  -58.7990 C   0  0  0  0  0  0  0  0  0  0  0  0
   14.1194    4.1979  -58.6355 H   0  0  0  0  0  0  0  0  0  0  0  0
   13.6293    3.2609  -60.0876 H   0  0  0  0  0  0  0  0  0  0  0  0
   13.4963    5.0522  -60.0876 H   0  0  0  0  0  0  0  0  0  0  0  0
   12.4140    2.3416  -57.6557 H   0  0  0  0  0  0  0  0  0  0  0  0
   12.6338    3.9711  -56.8767 H   0  0  0  0  0  0  0  0  0  0  0  0
   10.5902    2.3886  -56.2327 H   0  0  0  0  0  0  0  0  0  0  0  0
   10.4253    4.1935  -56.3560 H   0  0  0  0  0  0  0  0  0  0  0  0
    5.1990    1.2460  -57.6160 H   0  0  0  0  0  0  0  0  0  0  0  0
    8.0266    4.3878  -58.9209 H   0  0  0  0  0  0  0  0  0  0  0  0
    8.9379    5.1267  -57.5039 H   0  0  0  0  0  0  0  0  0  0  0  0
    9.4275    6.2212  -59.5878 H   0  0  0  0  0  0  0  0  0  0  0  0
    9.3245    4.0185  -61.0608 H   0  0  0  0  0  0  0  0  0  0  0  0
   10.7653    4.9172  -61.4103 H   0  0  0  0  0  0  0  0  0  0  0  0
   11.6331    2.6491  -60.6191 H   0  0  0  0  0  0  0  0  0  0  0  0
    9.2152    2.1126  -59.8761 H   0  0  0  0  0  0  0  0  0  0  0  0
   10.5504    1.4371  -58.8864 H   0  0  0  0  0  0  0  0  0  0  0  0
   11.9124    6.1893  -59.3782 H   0  0  0  0  0  0  0  0  0  0  0  0
   11.3271    5.8191  -57.7632 H   0  0  0  0  0  0  0  0  0  0  0  0
  2  1  1  6
  2  3  1  0
  3  4  1  0
  4  5  1  0
  5  6  1  1
  6  7  2  0
  7  8  1  0
  8  9  3  0
  7 10  1  0
 10 11  2  0
  5 12  1  0
 12 13  1  0
 13 14  1  0
 14 15  1  0
 15 16  1  0
 13 17  1  0
 15  2  1  0
 17  2  1  0
 16  5  1  0
  1 18  1  0
  1 19  1  0
  1 20  1  0
  3 21  1  0
  3 22  1  0
  4 23  1  0
  4 24  1  0
 10 25  1  0
 12 26  1  0
 12 27  1  0
 13 28  1  6
 14 29  1  0
 14 30  1  0
 15 31  1  6
 16 32  1  0
 16 33  1  0
 17 34  1  0
 17 35  1  0
M  CHG  2  10   1  11  -1
M  END
>  <meeko>  (173) 
{"is_sidechain": false}

$$$$

     RDKit          3D

 35 37  0  0  0  0  0  0  0  0999 V2000
   13.4070    4.5080  -59.4820 C   0  0  0  0  0  0  0  0  0  0  0  0
   11.9930    4.3010  -58.9280 C   0  0  2  0  0  0  0  0  0  0  0  0
   12.0750    3.7670  -57.4850 C   0  0  0  0  0  0  0  0  0  0  0  0
   10.6900    3.5890  -56.8480 C   0  0  0  0  0  0  0  0  0  0  0  0
    9.6220    3.1910  -57.8860 C   0  0  1  0  0  0  0  0  0  0  0  0
    8.5230    2.4800  -57.2450 N   0  0  0  0  0  0  0  0  0  0  0  0
    7.3890    2.0920  -57.6730 C   0  0  0  0  0  0  0  0  0  0  0  0
    6.5950    1.5160  -56.6050 C   0  0  0  0  0  0  0  0  0  0  0  0
    5.8570    1.0400  -55.8480 N   0  0  0  0  0  0  0  0  0  0  0  0
    6.7340    2.1610  -59.0830 N   0  0  0  0  0  0  0  0  0  0  0  0
    7.5160    1.9690  -60.2860 N   0  0  0  0  0  0  0  0  0  0  0  0
    8.9660    4.4890  -58.4840 C   0  0  0  0  0  0  0  0  0  0  0  0
    9.8340    5.2450  -59.5130 C   0  0  2  0  0  0  0  0  0  0  0  0
   10.2510    4.2970  -60.6320 C   0  0  0  0  0  0  0  0  0  0  0  0
   11.1650    3.3430  -59.8590 C   0  0  2  0  0  0  0  0  0  0  0  0
   10.2570    2.4030  -59.0430 C   0  0  0  0  0  0  0  0  0  0  0  0
   11.2000    5.6360  -58.9500 C   0  0  0  0  0  0  0  0  0  0  0  0
   14.1162    4.6118  -58.6476 H   0  0  0  0  0  0  0  0  0  0  0  0
   13.6899    3.6417  -60.0980 H   0  0  0  0  0  0  0  0  0  0  0  0
   13.4297    5.4190  -60.0980 H   0  0  0  0  0  0  0  0  0  0  0  0
   12.5862    2.7931  -57.4972 H   0  0  0  0  0  0  0  0  0  0  0  0
   12.6281    4.5047  -56.8851 H   0  0  0  0  0  0  0  0  0  0  0  0
   10.7504    2.8023  -56.0815 H   0  0  0  0  0  0  0  0  0  0  0  0
   10.3928    4.5524  -56.4080 H   0  0  0  0  0  0  0  0  0  0  0  0
    5.7260    1.9990  -59.1000 H   0  0  0  0  0  0  0  0  0  0  0  0
    8.0262    4.2000  -58.9773 H   0  0  0  0  0  0  0  0  0  0  0  0
    8.8221    5.1778  -57.6385 H   0  0  0  0  0  0  0  0  0  0  0  0
    9.2235    6.1082  -59.8166 H   0  0  0  0  0  0  0  0  0  0  0  0
    9.3861    3.7715  -61.0631 H   0  0  0  0  0  0  0  0  0  0  0  0
   10.7233    4.7862  -61.4967 H   0  0  0  0  0  0  0  0  0  0  0  0
   11.8264    2.7186  -60.4776 H   0  0  0  0  0  0  0  0  0  0  0  0
    9.4653    2.0012  -59.6924 H   0  0  0  0  0  0  0  0  0  0  0  0
   10.8537    1.5715  -58.6398 H   0  0  0  0  0  0  0  0  0  0  0  0
   11.6941    6.3737  -59.5994 H   0  0  0  0  0  0  0  0  0  0  0  0
   11.1306    6.1038  -57.9568 H   0  0  0  0  0  0  0  0  0  0  0  0
  2  1  1  6
  2  3  1  0
  3  4  1  0
  4  5  1  0
  5  6  1  1
  6  7  2  0
  7  8  1  0
  8  9  3  0
  7 10  1  0
 10 11  2  0
  5 12  1  0
 12 13  1  0
 13 14  1  0
 14 15  1  0
 15 16  1  0
 13 17  1  0
 15  2  1  0
 17  2  1  0
 16  5  1  0
  1 18  1  0
  1 19  1  0
  1 20  1  0
  3 21  1  0
  3 22  1  0
  4 23  1  0
  4 24  1  0
 10 25  1  0
 12 26  1  0
 12 27  1  0
 13 28  1  6
 14 29  1  0
 14 30  1  0
 15 31  1  6
 16 32  1  0
 16 33  1  0
 17 34  1  0
 17 35  1  0
M  CHG  2  10   1  11  -1
M  END
>  <meeko>  (174) 
{"is_sidechain": false}

$$$$

     RDKit          3D

 66 71  0  0  0  0  0  0  0  0999 V2000
    6.4690   -0.0640  -53.4650 C   0  0  0  0  0  0  0  0  0  0  0  0
    7.7880   -0.5670  -53.9490 C   0  0  0  0  0  0  0  0  0  0  0  0
    8.5940   -0.0020  -55.0000 C   0  0  0  0  0  0  0  0  0  0  0  0
    8.3930    1.1910  -55.8260 C   0  0  0  0  0  0  0  0  0  0  0  0
    7.2750    1.6200  -56.0840 O   0  0  0  0  0  0  0  0  0  0  0  0
    9.5600    1.7310  -56.3220 N   0  0  0  0  0  0  0  0  0  0  0  0
    9.6420    2.8720  -57.2460 C   0  0  1  0  0  0  0  0  0  0  0  0
   10.8160    3.7780  -56.7710 C   0  0  0  0  0  0  0  0  0  0  0  0
   11.4630    4.5900  -57.9010 C   0  0  0  0  0  0  0  0  0  0  0  0
   10.4750    4.9230  -59.0280 C   0  0  2  0  0  0  0  0  0  0  0  0
   11.1840    5.7440  -60.1120 C   0  0  0  0  0  0  0  0  0  0  0  0
    9.2710    5.7140  -58.4520 C   0  0  0  0  0  0  0  0  0  0  0  0
    8.1440    4.6860  -58.4000 C   0  0  1  0  0  0  0  0  0  0  0  0
    8.3510    3.9670  -59.7280 C   0  0  0  0  0  0  0  0  0  0  0  0
    9.8410    3.6240  -59.6370 C   0  0  2  0  0  0  0  0  0  0  0  0
    9.9730    2.4200  -58.6860 C   0  0  0  0  0  0  0  0  0  0  0  0
    8.3080    3.6920  -57.2290 C   0  0  0  0  0  0  0  0  0  0  0  0
    9.6730   -0.8510  -55.1550 C   0  0  0  0  0  0  0  0  0  0  0  0
    9.6120   -1.8400  -54.2060 N   0  0  0  0  0  0  0  0  0  0  0  0
   10.5990   -2.9120  -54.0890 C   0  0  0  0  0  0  0  0  0  0  0  0
   10.9510   -3.4920  -55.4350 C   0  0  0  0  0  0  0  0  0  0  0  0
   10.4950   -4.7400  -55.7350 N   0  0  0  0  0  0  0  0  0  0  0  0
   10.8260   -5.2510  -56.9440 C   0  0  0  0  0  0  0  0  0  0  0  0
   11.5890   -4.5770  -57.8840 C   0  0  0  0  0  0  0  0  0  0  0  0
   12.0410   -3.3010  -57.5690 C   0  0  0  0  0  0  0  0  0  0  0  0
   11.7160   -2.7550  -56.3350 C   0  0  0  0  0  0  0  0  0  0  0  0
   12.1330   -1.5170  -56.0340 F   0  0  0  0  0  0  0  0  0  0  0  0
    8.4490   -1.6990  -53.4750 C   0  0  0  0  0  0  0  0  0  0  0  0
    8.0320   -2.6310  -52.4280 C   0  0  0  0  0  0  0  0  0  0  0  0
    8.5120   -2.4930  -51.1220 C   0  0  0  0  0  0  0  0  0  0  0  0
    8.1100   -3.3850  -50.1260 C   0  0  0  0  0  0  0  0  0  0  0  0
    7.2220   -4.4160  -50.4290 C   0  0  0  0  0  0  0  0  0  0  0  0
    6.7360   -4.5580  -51.7280 C   0  0  0  0  0  0  0  0  0  0  0  0
    7.1400   -3.6670  -52.7250 C   0  0  0  0  0  0  0  0  0  0  0  0
    6.4592   -0.0603  -52.3651 H   0  0  0  0  0  0  0  0  0  0  0  0
    6.3078    0.9587  -53.8366 H   0  0  0  0  0  0  0  0  0  0  0  0
    5.6678   -0.7197  -53.8366 H   0  0  0  0  0  0  0  0  0  0  0  0
   10.3730    1.1370  -56.2390 H   0  0  0  0  0  0  0  0  0  0  0  0
   10.4305    4.4790  -56.0160 H   0  0  0  0  0  0  0  0  0  0  0  0
   11.5931    3.1126  -56.3668 H   0  0  0  0  0  0  0  0  0  0  0  0
   11.8500    5.5306  -57.4821 H   0  0  0  0  0  0  0  0  0  0  0  0
   12.2679    3.9774  -58.3333 H   0  0  0  0  0  0  0  0  0  0  0  0
   11.8327    6.4951  -59.6376 H   0  0  0  0  0  0  0  0  0  0  0  0
   11.7937    5.0759  -60.7380 H   0  0  0  0  0  0  0  0  0  0  0  0
   10.4342    6.2499  -60.7380 H   0  0  0  0  0  0  0  0  0  0  0  0
    9.4991    6.0952  -57.4457 H   0  0  0  0  0  0  0  0  0  0  0  0
    9.0133    6.5941  -59.0595 H   0  0  0  0  0  0  0  0  0  0  0  0
    7.1504    5.1337  -58.2508 H   0  0  0  0  0  0  0  0  0  0  0  0
    7.7304    3.0616  -59.7996 H   0  0  0  0  0  0  0  0  0  0  0  0
    8.0717    4.5560  -60.6141 H   0  0  0  0  0  0  0  0  0  0  0  0
   10.3255    3.3528  -60.5866 H   0  0  0  0  0  0  0  0  0  0  0  0
    9.2727    1.6295  -58.9937 H   0  0  0  0  0  0  0  0  0  0  0  0
   11.0007    2.0297  -58.7240 H   0  0  0  0  0  0  0  0  0  0  0  0
    8.2682    4.2614  -56.2887 H   0  0  0  0  0  0  0  0  0  0  0  0
    7.4930    2.9598  -57.3277 H   0  0  0  0  0  0  0  0  0  0  0  0
   10.4577   -0.7499  -55.9192 H   0  0  0  0  0  0  0  0  0  0  0  0
   11.5109   -2.5084  -53.6247 H   0  0  0  0  0  0  0  0  0  0  0  0
   10.1653   -3.7129  -53.4722 H   0  0  0  0  0  0  0  0  0  0  0  0
   10.4683   -6.2605  -57.1950 H   0  0  0  0  0  0  0  0  0  0  0  0
   11.8303   -5.0390  -58.8527 H   0  0  0  0  0  0  0  0  0  0  0  0
   12.6482   -2.7315  -58.2880 H   0  0  0  0  0  0  0  0  0  0  0  0
    9.2094   -1.6780  -50.8782 H   0  0  0  0  0  0  0  0  0  0  0  0
    8.4943   -3.2741  -49.1013 H   0  0  0  0  0  0  0  0  0  0  0  0
    6.9048   -5.1174  -49.6433 H   0  0  0  0  0  0  0  0  0  0  0  0
    6.0349   -5.3711  -51.9676 H   0  0  0  0  0  0  0  0  0  0  0  0
    6.7548   -3.7805  -53.7491 H   0  0  0  0  0  0  0  0  0  0  0  0
  1  2  1  0
  2  3  1  0
  3  4  1  0
  4  5  2  0
  4  6  1  0
  7  6  1  1
  7  8  1  0
  8  9  1  0
  9 10  1  0
 10 11  1  6
 10 12  1  0
 12 13  1  0
 13 14  1  0
 14 15  1  0
 15 16  1  0
 13 17  1  0
  3 18  2  0
 18 19  1  0
 19 20  1  0
 20 21  1  0
 21 22  1  0
 22 23  2  0
 23 24  1  0
 24 25  2  0
 25 26  1  0
 26 27  1  0
 19 28  1  0
 28 29  1  0
 29 30  2  0
 30 31  1  0
 31 32  2  0
 32 33  1  0
 33 34  2  0
 28  2  2  0
 34 29  1  0
 16  7  1  0
 26 21  2  0
 17  7  1  0
 15 10  1  0
  1 35  1  0
  1 36  1  0
  1 37  1  0
  6 38  1  0
  8 39  1  0
  8 40  1  0
  9 41  1  0
  9 42  1  0
 11 43  1  0
 11 44  1  0
 11 45  1  0
 12 46  1  0
 12 47  1  0
 13 48  1  6
 14 49  1  0
 14 50  1  0
 15 51  1  6
 16 52  1  0
 16 53  1  0
 17 54  1  0
 17 55  1  0
 18 56  1  0
 20 57  1  0
 20 58  1  0
 23 59  1  0
 24 60  1  0
 25 61  1  0
 30 62  1  0
 31 63  1  0
 32 64  1  0
 33 65  1  0
 34 66  1  0
M  END
>  <meeko>  (175) 
{"is_sidechain": false}

$$$$

     RDKit          3D

 67 72  0  0  0  0  0  0  0  0999 V2000
    9.1270   -3.4980  -50.0980 C   0  0  0  0  0  0  0  0  0  0  0  0
    8.6550   -3.0610  -51.4890 C   0  0  2  0  0  0  0  0  0  0  0  0
    9.8700   -2.6880  -52.3550 C   0  0  0  0  0  0  0  0  0  0  0  0
    9.4740   -2.2650  -53.7760 C   0  0  0  0  0  0  0  0  0  0  0  0
    8.0670   -1.6170  -53.8560 C   0  0  1  0  0  0  0  0  0  0  0  0
    8.0120   -0.6560  -54.9640 N   0  0  0  0  0  0  0  0  0  0  0  0
    7.0040    0.2650  -55.1520 C   0  0  0  0  0  0  0  0  0  0  0  0
    6.0220    0.3530  -54.4230 O   0  0  0  0  0  0  0  0  0  0  0  0
    7.1920    1.1440  -56.2990 C   0  0  0  0  0  0  0  0  0  0  0  0
    6.2170    1.4450  -57.2340 C   0  0  0  0  0  0  0  0  0  0  0  0
    6.7400    2.2910  -58.1870 N   0  0  0  0  0  0  0  0  0  0  0  0
    6.0010    2.7820  -59.3570 C   0  0  0  0  0  0  0  0  0  0  0  0
    4.4970    2.9520  -59.0640 C   0  0  0  0  0  0  0  0  0  0  0  0
    3.6440    1.8790  -59.7330 C   0  0  0  0  0  0  0  0  0  0  0  0
    3.8400    1.8440  -61.2500 C   0  0  0  0  0  0  0  0  0  0  0  0
    5.2570    2.2100  -61.6980 C   0  0  0  0  0  0  0  0  0  0  0  0
    6.2890    1.9350  -60.6100 C   0  0  0  0  0  0  0  0  0  0  0  0
    8.0540    2.5840  -57.8620 C   0  0  0  0  0  0  0  0  0  0  0  0
    8.9320    3.4730  -58.6140 C   0  0  0  0  0  0  0  0  0  0  0  0
    9.1700    4.7760  -58.1600 C   0  0  0  0  0  0  0  0  0  0  0  0
   10.0120    5.6280  -58.8760 C   0  0  0  0  0  0  0  0  0  0  0  0
   10.6190    5.1840  -60.0510 C   0  0  0  0  0  0  0  0  0  0  0  0
   10.3790    3.8900  -60.5140 C   0  0  0  0  0  0  0  0  0  0  0  0
    9.5360    3.0380  -59.7990 C   0  0  0  0  0  0  0  0  0  0  0  0
    8.3300    1.8630  -56.7190 C   0  0  0  0  0  0  0  0  0  0  0  0
    9.5120    1.8600  -56.0900 F   0  0  0  0  0  0  0  0  0  0  0  0
    6.9520   -2.6980  -54.0240 C   0  0  0  0  0  0  0  0  0  0  0  0
    6.6220   -3.4960  -52.7430 C   0  0  2  0  0  0  0  0  0  0  0  0
    6.2820   -2.5430  -51.6040 C   0  0  0  0  0  0  0  0  0  0  0  0
    7.6400   -1.8710  -51.3850 C   0  0  2  0  0  0  0  0  0  0  0  0
    7.8330   -0.8590  -52.5280 C   0  0  0  0  0  0  0  0  0  0  0  0
    7.8510   -4.2000  -52.1700 C   0  0  0  0  0  0  0  0  0  0  0  0
    8.5492   -2.9630  -49.3299 H   0  0  0  0  0  0  0  0  0  0  0  0
    8.9751   -4.5814  -49.9828 H   0  0  0  0  0  0  0  0  0  0  0  0
   10.1955   -3.2633  -49.9828 H   0  0  0  0  0  0  0  0  0  0  0  0
   10.4024   -1.8539  -51.8746 H   0  0  0  0  0  0  0  0  0  0  0  0
   10.5066   -3.5812  -52.4384 H   0  0  0  0  0  0  0  0  0  0  0  0
   10.2140   -1.5383  -54.1425 H   0  0  0  0  0  0  0  0  0  0  0  0
    9.4471   -3.1768  -54.3907 H   0  0  0  0  0  0  0  0  0  0  0  0
    8.7970   -0.6230  -55.6040 H   0  0  0  0  0  0  0  0  0  0  0  0
    5.1841    1.0671  -57.2185 H   0  0  0  0  0  0  0  0  0  0  0  0
    6.3731    3.7922  -59.5827 H   0  0  0  0  0  0  0  0  0  0  0  0
    4.3417    2.8981  -57.9764 H   0  0  0  0  0  0  0  0  0  0  0  0
    4.1864    3.9258  -59.4705 H   0  0  0  0  0  0  0  0  0  0  0  0
    3.9195    0.8983  -59.3180 H   0  0  0  0  0  0  0  0  0  0  0  0
    2.5883    2.1165  -59.5354 H   0  0  0  0  0  0  0  0  0  0  0  0
    3.6155    0.8275  -61.6054 H   0  0  0  0  0  0  0  0  0  0  0  0
    3.1636    2.5984  -61.6781 H   0  0  0  0  0  0  0  0  0  0  0  0
    5.5125    1.6163  -62.5881 H   0  0  0  0  0  0  0  0  0  0  0  0
    5.2757    3.2873  -61.9195 H   0  0  0  0  0  0  0  0  0  0  0  0
    6.2539    0.8691  -60.3407 H   0  0  0  0  0  0  0  0  0  0  0  0
    7.2852    2.2002  -60.9937 H   0  0  0  0  0  0  0  0  0  0  0  0
    8.6912    5.1296  -57.2349 H   0  0  0  0  0  0  0  0  0  0  0  0
   10.1971    6.6500  -58.5138 H   0  0  0  0  0  0  0  0  0  0  0  0
   11.2868    5.8541  -60.6123 H   0  0  0  0  0  0  0  0  0  0  0  0
   10.8543    3.5412  -61.4427 H   0  0  0  0  0  0  0  0  0  0  0  0
    9.3454    2.0197  -60.1687 H   0  0  0  0  0  0  0  0  0  0  0  0
    6.0337   -2.1928  -54.3580 H   0  0  0  0  0  0  0  0  0  0  0  0
    7.3366   -3.4277  -54.7517 H   0  0  0  0  0  0  0  0  0  0  0  0
    5.8178   -4.1853  -53.0399 H   0  0  0  0  0  0  0  0  0  0  0  0
    5.5121   -1.8152  -51.9000 H   0  0  0  0  0  0  0  0  0  0  0  0
    5.8624   -3.0288  -50.7107 H   0  0  0  0  0  0  0  0  0  0  0  0
    7.7540   -1.3310  -50.4335 H   0  0  0  0  0  0  0  0  0  0  0  0
    6.9338   -0.2317  -52.6177 H   0  0  0  0  0  0  0  0  0  0  0  0
    8.7042   -0.2235  -52.3109 H   0  0  0  0  0  0  0  0  0  0  0  0
    7.5566   -4.9637  -51.4351 H   0  0  0  0  0  0  0  0  0  0  0  0
    8.4338   -4.7266  -52.9401 H   0  0  0  0  0  0  0  0  0  0  0  0
  2  1  1  1
  2  3  1  0
  3  4  1  0
  4  5  1  0
  5  6  1  6
  6  7  1  0
  7  8  2  0
  7  9  1  0
  9 10  2  0
 10 11  1  0
 11 12  1  0
 12 13  1  0
 13 14  1  0
 14 15  1  0
 15 16  1  0
 16 17  1  0
 11 18  1  0
 18 19  1  0
 19 20  2  0
 20 21  1  0
 21 22  2  0
 22 23  1  0
 23 24  2  0
 18 25  2  0
 25 26  1  0
  5 27  1  0
 27 28  1  0
 28 29  1  0
 29 30  1  0
 30 31  1  0
 28 32  1  0
 30  2  1  0
 32  2  1  0
 31  5  1  0
 25  9  1  0
 17 12  1  0
 24 19  1  0
  1 33  1  0
  1 34  1  0
  1 35  1  0
  3 36  1  0
  3 37  1  0
  4 38  1  0
  4 39  1  0
  6 40  1  0
 10 41  1  0
 12 42  1  0
 13 43  1  0
 13 44  1  0
 14 45  1  0
 14 46  1  0
 15 47  1  0
 15 48  1  0
 16 49  1  0
 16 50  1  0
 17 51  1  0
 17 52  1  0
 20 53  1  0
 21 54  1  0
 22 55  1  0
 23 56  1  0
 24 57  1  0
 27 58  1  0
 27 59  1  0
 28 60  1  6
 29 61  1  0
 29 62  1  0
 30 63  1  1
 31 64  1  0
 31 65  1  0
 32 66  1  0
 32 67  1  0
M  END
>  <meeko>  (176) 
{"is_sidechain": false}

$$$$

     RDKit          3D

 83 89  0  0  0  0  0  0  0  0999 V2000
    5.4400   -0.5100  -55.5260 C   0  0  0  0  0  0  0  0  0  0  0  0
    6.7030    0.2730  -55.6580 C   0  0  0  0  0  0  0  0  0  0  0  0
    7.8690    0.1860  -54.8190 C   0  0  0  0  0  0  0  0  0  0  0  0
    8.1350   -0.6150  -53.6200 C   0  0  0  0  0  0  0  0  0  0  0  0
    8.8540   -0.2070  -52.7150 O   0  0  0  0  0  0  0  0  0  0  0  0
    7.4630   -1.8180  -53.5850 N   0  0  0  0  0  0  0  0  0  0  0  0
    7.4890   -2.7650  -52.4630 C   0  0  1  0  0  0  0  0  0  0  0  0
    6.5650   -3.9790  -52.7510 C   0  0  0  0  0  0  0  0  0  0  0  0
    7.0000   -5.2500  -52.0100 C   0  0  0  0  0  0  0  0  0  0  0  0
    7.6750   -4.9460  -50.6620 C   0  0  2  0  0  0  0  0  0  0  0  0
    8.0450   -6.2580  -49.9620 C   0  0  0  0  0  0  0  0  0  0  0  0
    6.7140   -4.1120  -49.7740 C   0  0  0  0  0  0  0  0  0  0  0  0
    7.2820   -2.6960  -49.8430 C   0  0  1  0  0  0  0  0  0  0  0  0
    8.7750   -2.9830  -49.7360 C   0  0  0  0  0  0  0  0  0  0  0  0
    8.9380   -4.0320  -50.8400 C   0  0  2  0  0  0  0  0  0  0  0  0
    8.9170   -3.2860  -52.1870 C   0  0  0  0  0  0  0  0  0  0  0  0
    6.9760   -2.0040  -51.1900 C   0  0  0  0  0  0  0  0  0  0  0  0
    8.8090    1.0310  -55.3790 C   0  0  0  0  0  0  0  0  0  0  0  0
    8.2680    1.6550  -56.4710 N   0  0  0  0  0  0  0  0  0  0  0  0
    8.9750    2.6390  -57.2980 C   0  0  2  0  0  0  0  0  0  0  0  0
   10.1370    2.0210  -58.1050 C   0  0  0  0  0  0  0  0  0  0  0  0
   11.5100    2.4330  -57.5720 C   0  0  0  0  0  0  0  0  0  0  0  0
   11.6900    3.9590  -57.5590 C   0  0  1  0  0  0  0  0  0  0  0  0
   12.1160    4.4120  -58.8620 O   0  0  0  0  0  0  0  0  0  0  0  0
   11.3100    5.3150  -59.4780 C   0  0  0  0  0  0  0  0  0  0  0  0
   11.4930    6.5190  -59.5190 O   0  0  0  0  0  0  0  0  0  0  0  0
   10.1720    4.6080  -60.1120 C   0  0  0  0  0  0  0  0  0  0  0  0
   10.3690    3.5310  -60.9900 C   0  0  0  0  0  0  0  0  0  0  0  0
    9.2720    2.8780  -61.5620 C   0  0  0  0  0  0  0  0  0  0  0  0
    7.9760    3.2930  -61.2590 C   0  0  0  0  0  0  0  0  0  0  0  0
    7.7740    4.3620  -60.3860 C   0  0  0  0  0  0  0  0  0  0  0  0
    8.8690    5.0120  -59.8180 C   0  0  0  0  0  0  0  0  0  0  0  0
    8.6270    6.0450  -58.9990 F   0  0  0  0  0  0  0  0  0  0  0  0
   10.3940    4.7170  -57.2370 C   0  0  0  0  0  0  0  0  0  0  0  0
    9.4010    3.8600  -56.4620 C   0  0  0  0  0  0  0  0  0  0  0  0
    6.9710    1.2140  -56.6500 C   0  0  0  0  0  0  0  0  0  0  0  0
    6.0960    1.6760  -57.7260 C   0  0  0  0  0  0  0  0  0  0  0  0
    6.2210    1.1400  -59.0120 C   0  0  0  0  0  0  0  0  0  0  0  0
    5.3830    1.5780  -60.0380 C   0  0  0  0  0  0  0  0  0  0  0  0
    4.4190    2.5530  -59.7840 C   0  0  0  0  0  0  0  0  0  0  0  0
    4.2930    3.0930  -58.5040 C   0  0  0  0  0  0  0  0  0  0  0  0
    5.1300    2.6570  -57.4770 C   0  0  0  0  0  0  0  0  0  0  0  0
    5.2076   -0.6541  -54.4605 H   0  0  0  0  0  0  0  0  0  0  0  0
    4.6173    0.0367  -56.0101 H   0  0  0  0  0  0  0  0  0  0  0  0
    5.5638   -1.4900  -56.0101 H   0  0  0  0  0  0  0  0  0  0  0  0
    6.7260   -1.9230  -54.2680 H   0  0  0  0  0  0  0  0  0  0  0  0
    5.5419   -3.7233  -52.4382 H   0  0  0  0  0  0  0  0  0  0  0  0
    6.6232   -4.1894  -53.8291 H   0  0  0  0  0  0  0  0  0  0  0  0
    6.1119   -5.8727  -51.8270 H   0  0  0  0  0  0  0  0  0  0  0  0
    7.7357   -5.7691  -52.6418 H   0  0  0  0  0  0  0  0  0  0  0  0
    8.0049   -6.1160  -48.8719 H   0  0  0  0  0  0  0  0  0  0  0  0
    7.3334   -7.0437  -50.2558 H   0  0  0  0  0  0  0  0  0  0  0  0
    9.0623   -6.5561  -50.2558 H   0  0  0  0  0  0  0  0  0  0  0  0
    5.6890   -4.1419  -50.1721 H   0  0  0  0  0  0  0  0  0  0  0  0
    6.6515   -4.4932  -48.7441 H   0  0  0  0  0  0  0  0  0  0  0  0
    6.8682   -2.0216  -49.0788 H   0  0  0  0  0  0  0  0  0  0  0  0
    9.3766   -2.0845  -49.9377 H   0  0  0  0  0  0  0  0  0  0  0  0
    9.1084   -3.3103  -48.7402 H   0  0  0  0  0  0  0  0  0  0  0  0
    9.8662   -4.6209  -50.7994 H   0  0  0  0  0  0  0  0  0  0  0  0
    9.6159   -2.4375  -52.1475 H   0  0  0  0  0  0  0  0  0  0  0  0
    9.2196   -3.9722  -52.9917 H   0  0  0  0  0  0  0  0  0  0  0  0
    5.8849   -1.8937  -51.2759 H   0  0  0  0  0  0  0  0  0  0  0  0
    7.5140   -1.0448  -51.1699 H   0  0  0  0  0  0  0  0  0  0  0  0
    9.8329    1.1791  -55.0052 H   0  0  0  0  0  0  0  0  0  0  0  0
    8.2644    3.0001  -58.0561 H   0  0  0  0  0  0  0  0  0  0  0  0
   10.0551    0.9251  -58.0570 H   0  0  0  0  0  0  0  0  0  0  0  0
   10.0572    2.3898  -59.1382 H   0  0  0  0  0  0  0  0  0  0  0  0
   11.6204    2.0539  -56.5453 H   0  0  0  0  0  0  0  0  0  0  0  0
   12.2743    2.0071  -58.2387 H   0  0  0  0  0  0  0  0  0  0  0  0
   12.4340    4.1664  -56.7757 H   0  0  0  0  0  0  0  0  0  0  0  0
   11.3900    3.1990  -61.2293 H   0  0  0  0  0  0  0  0  0  0  0  0
    9.4322    2.0361  -62.2516 H   0  0  0  0  0  0  0  0  0  0  0  0
    7.1138    2.7781  -61.7078 H   0  0  0  0  0  0  0  0  0  0  0  0
    6.7524    4.6917  -60.1460 H   0  0  0  0  0  0  0  0  0  0  0  0
   10.6427    5.6030  -56.6343 H   0  0  0  0  0  0  0  0  0  0  0  0
    9.9232    4.9992  -58.1902 H   0  0  0  0  0  0  0  0  0  0  0  0
    9.8716    3.5141  -55.5298 H   0  0  0  0  0  0  0  0  0  0  0  0
    8.5103    4.4644  -56.2355 H   0  0  0  0  0  0  0  0  0  0  0  0
    6.9815    0.3716  -59.2148 H   0  0  0  0  0  0  0  0  0  0  0  0
    5.4829    1.1539  -61.0480 H   0  0  0  0  0  0  0  0  0  0  0  0
    3.7577    2.8964  -60.5932 H   0  0  0  0  0  0  0  0  0  0  0  0
    3.5332    3.8630  -58.3045 H   0  0  0  0  0  0  0  0  0  0  0  0
    5.0304    3.0855  -56.4688 H   0  0  0  0  0  0  0  0  0  0  0  0
  1  2  1  0
  2  3  1  0
  3  4  1  0
  4  5  2  0
  4  6  1  0
  7  6  1  6
  7  8  1  0
  8  9  1  0
  9 10  1  0
 10 11  1  1
 10 12  1  0
 12 13  1  0
 13 14  1  0
 14 15  1  0
 15 16  1  0
 13 17  1  0
  3 18  2  0
 18 19  1  0
 19 20  1  0
 20 21  1  0
 21 22  1  0
 22 23  1  0
 23 24  1  0
 24 25  1  0
 25 26  2  0
 25 27  1  0
 27 28  2  0
 28 29  1  0
 29 30  2  0
 30 31  1  0
 31 32  2  0
 32 33  1  0
 23 34  1  0
 34 35  1  0
 19 36  1  0
 36 37  1  0
 37 38  2  0
 38 39  1  0
 39 40  2  0
 40 41  1  0
 41 42  2  0
 36  2  2  0
 42 37  1  0
 16  7  1  0
 35 20  1  0
 17  7  1  0
 32 27  1  0
 15 10  1  0
  1 43  1  0
  1 44  1  0
  1 45  1  0
  6 46  1  0
  8 47  1  0
  8 48  1  0
  9 49  1  0
  9 50  1  0
 11 51  1  0
 11 52  1  0
 11 53  1  0
 12 54  1  0
 12 55  1  0
 13 56  1  1
 14 57  1  0
 14 58  1  0
 15 59  1  1
 16 60  1  0
 16 61  1  0
 17 62  1  0
 17 63  1  0
 18 64  1  0
 20 65  1  1
 21 66  1  0
 21 67  1  0
 22 68  1  0
 22 69  1  0
 23 70  1  6
 28 71  1  0
 29 72  1  0
 30 73  1  0
 31 74  1  0
 34 75  1  0
 34 76  1  0
 35 77  1  0
 35 78  1  0
 38 79  1  0
 39 80  1  0
 40 81  1  0
 41 82  1  0
 42 83  1  0
M  END
>  <meeko>  (177) 
{"is_sidechain": false}

$$$$
