
     RDKit          3D

 46 49  0  0  0  0  0  0  0  0999 V2000
    2.0683   -2.7728    0.1767 O   0  0  0  0  0  0  0  0  0  0  0  0
    1.7928   -1.6667    0.6364 C   0  0  0  0  0  0  0  0  0  0  0  0
    2.7432   -0.8731    1.2555 N   0  0  0  0  0  0  0  0  0  0  0  0
    4.1405   -1.2393    1.2561 C   0  0  0  0  0  0  0  0  0  0  0  0
    4.8909   -0.4677    0.2017 C   0  0  0  0  0  0  0  0  0  0  0  0
    5.6224    0.6809    0.5358 C   0  0  0  0  0  0  0  0  0  0  0  0
    6.2950    1.4027   -0.4522 C   0  0  0  0  0  0  0  0  0  0  0  0
    6.2377    0.9881   -1.7817 C   0  0  0  0  0  0  0  0  0  0  0  0
    5.5073   -0.1474   -2.1262 C   0  0  0  0  0  0  0  0  0  0  0  0
    4.8353   -0.8710   -1.1405 C   0  0  0  0  0  0  0  0  0  0  0  0
    0.4383   -1.0773    0.5641 C   0  0  0  0  0  0  0  0  0  0  0  0
   -0.0630    0.0737    1.2128 C   0  0  0  0  0  0  0  0  0  0  0  0
   -1.3723    0.2259    0.7930 C   0  0  0  0  0  0  0  0  0  0  0  0
   -2.2489    1.3567    1.0778 C   0  0  0  0  0  0  0  0  0  0  0  0
   -2.6395    2.2284    0.0528 C   0  0  0  0  0  0  0  0  0  0  0  0
   -3.4610    3.3218    0.3331 C   0  0  0  0  0  0  0  0  0  0  0  0
   -3.8880    3.5572    1.6392 C   0  0  0  0  0  0  0  0  0  0  0  0
   -3.4912    2.7035    2.6675 C   0  0  0  0  0  0  0  0  0  0  0  0
   -2.6695    1.6093    2.3897 C   0  0  0  0  0  0  0  0  0  0  0  0
   -1.6414   -0.8835   -0.0095 N   0  0  0  0  0  0  0  0  0  0  0  0
   -2.8631   -1.3346   -0.6062 C   0  0  0  0  0  0  0  0  0  0  0  0
   -2.8068   -2.3514   -1.5772 C   0  0  0  0  0  0  0  0  0  0  0  0
   -3.9716   -2.8242   -2.1870 C   0  0  0  0  0  0  0  0  0  0  0  0
   -5.2081   -2.2971   -1.8282 C   0  0  0  0  0  0  0  0  0  0  0  0
   -5.2802   -1.3051   -0.8535 C   0  0  0  0  0  0  0  0  0  0  0  0
   -4.1159   -0.8283   -0.2397 C   0  0  0  0  0  0  0  0  0  0  0  0
   -0.5144   -1.6202   -0.2056 N   0  0  0  0  0  0  0  0  0  0  0  0
    2.5291    0.0972    1.4241 H   0  0  0  0  0  0  0  0  0  0  0  0
    4.5338   -1.0042    2.2513 H   0  0  0  0  0  0  0  0  0  0  0  0
    4.2708   -2.3164    1.1042 H   0  0  0  0  0  0  0  0  0  0  0  0
    5.6769    1.0200    1.5676 H   0  0  0  0  0  0  0  0  0  0  0  0
    6.8644    2.2893   -0.1854 H   0  0  0  0  0  0  0  0  0  0  0  0
    6.7613    1.5503   -2.5505 H   0  0  0  0  0  0  0  0  0  0  0  0
    5.4581   -0.4707   -3.1629 H   0  0  0  0  0  0  0  0  0  0  0  0
    4.2620   -1.7537   -1.4227 H   0  0  0  0  0  0  0  0  0  0  0  0
    0.4626    0.7482    1.8736 H   0  0  0  0  0  0  0  0  0  0  0  0
   -2.3081    2.0615   -0.9701 H   0  0  0  0  0  0  0  0  0  0  0  0
   -3.7651    3.9910   -0.4679 H   0  0  0  0  0  0  0  0  0  0  0  0
   -4.5272    4.4095    1.8563 H   0  0  0  0  0  0  0  0  0  0  0  0
   -3.8208    2.8903    3.6864 H   0  0  0  0  0  0  0  0  0  0  0  0
   -2.3681    0.9512    3.2016 H   0  0  0  0  0  0  0  0  0  0  0  0
   -1.8540   -2.7852   -1.8790 H   0  0  0  0  0  0  0  0  0  0  0  0
   -3.9081   -3.6062   -2.9394 H   0  0  0  0  0  0  0  0  0  0  0  0
   -6.1151   -2.6662   -2.2996 H   0  0  0  0  0  0  0  0  0  0  0  0
   -6.2477   -0.9054   -0.5590 H   0  0  0  0  0  0  0  0  0  0  0  0
   -4.2418   -0.0891    0.5419 H   0  0  0  0  0  0  0  0  0  0  0  0
  1  2  2  0
  2  3  1  0
  3  4  1  0
  4  5  1  0
  5  6  2  0
  6  7  1  0
  7  8  2  0
  8  9  1  0
  9 10  2  0
  2 11  1  0
 11 12  1  0
 12 13  2  0
 13 14  1  0
 14 15  2  0
 15 16  1  0
 16 17  2  0
 17 18  1  0
 18 19  2  0
 13 20  1  0
 20 21  1  0
 21 22  2  0
 22 23  1  0
 23 24  2  0
 24 25  1  0
 25 26  2  0
 20 27  1  0
 10  5  1  0
 27 11  2  0
 19 14  1  0
 26 21  1  0
  3 28  1  0
  4 29  1  0
  4 30  1  0
  6 31  1  0
  7 32  1  0
  8 33  1  0
  9 34  1  0
 10 35  1  0
 12 36  1  0
 15 37  1  0
 16 38  1  0
 17 39  1  0
 18 40  1  0
 19 41  1  0
 22 42  1  0
 23 43  1  0
 24 44  1  0
 25 45  1  0
 26 46  1  0
M  END
>  <_SMILES>  (1) 
O=C(NCc1ccccc1)c1cc(-c2ccccc2)n(-c2ccccc2)n1

$$$$

     RDKit          3D

 49 52  0  0  0  0  0  0  0  0999 V2000
    1.7949   -2.5700   -1.1534 O   0  0  0  0  0  0  0  0  0  0  0  0
    1.5613   -1.3976   -0.8698 C   0  0  0  0  0  0  0  0  0  0  0  0
    2.5659   -0.4416   -0.8089 N   0  0  0  0  0  0  0  0  0  0  0  0
    3.9701   -0.8077   -0.9540 C   0  0  0  0  0  0  0  0  0  0  0  0
    4.7970    0.3953   -1.4264 C   0  0  0  0  0  0  0  0  0  0  0  0
    4.9929    1.4499   -0.3369 C   0  0  0  0  0  0  0  0  0  0  0  0
    5.5565    0.8430    0.9439 C   0  0  0  0  0  0  0  0  0  0  0  0
    4.7096   -0.3262    1.4361 C   0  0  0  0  0  0  0  0  0  0  0  0
    4.5332   -1.3884    0.3515 C   0  0  0  0  0  0  0  0  0  0  0  0
    0.2081   -0.8947   -0.5519 C   0  0  0  0  0  0  0  0  0  0  0  0
   -0.2426    0.4429   -0.4873 C   0  0  0  0  0  0  0  0  0  0  0  0
   -1.5742    0.3936   -0.1161 C   0  0  0  0  0  0  0  0  0  0  0  0
   -2.4235    1.5300    0.2246 C   0  0  0  0  0  0  0  0  0  0  0  0
   -2.8864    1.7034    1.5356 C   0  0  0  0  0  0  0  0  0  0  0  0
   -3.6808    2.8040    1.8624 C   0  0  0  0  0  0  0  0  0  0  0  0
   -4.0084    3.7429    0.8853 C   0  0  0  0  0  0  0  0  0  0  0  0
   -3.5391    3.5860   -0.4181 C   0  0  0  0  0  0  0  0  0  0  0  0
   -2.7444    2.4862   -0.7473 C   0  0  0  0  0  0  0  0  0  0  0  0
   -1.9021   -0.9623   -0.0724 N   0  0  0  0  0  0  0  0  0  0  0  0
   -3.1636   -1.6158    0.1101 C   0  0  0  0  0  0  0  0  0  0  0  0
   -3.1785   -2.9992    0.3669 C   0  0  0  0  0  0  0  0  0  0  0  0
   -4.3847   -3.6797    0.5515 C   0  0  0  0  0  0  0  0  0  0  0  0
   -5.5913   -2.9919    0.4711 C   0  0  0  0  0  0  0  0  0  0  0  0
   -5.5919   -1.6267    0.1961 C   0  0  0  0  0  0  0  0  0  0  0  0
   -4.3860   -0.9405    0.0102 C   0  0  0  0  0  0  0  0  0  0  0  0
   -0.7936   -1.7314   -0.2504 N   0  0  0  0  0  0  0  0  0  0  0  0
    2.3527    0.4291   -0.3455 H   0  0  0  0  0  0  0  0  0  0  0  0
    4.0228   -1.5847   -1.7268 H   0  0  0  0  0  0  0  0  0  0  0  0
    5.7840    0.0399   -1.7493 H   0  0  0  0  0  0  0  0  0  0  0  0
    4.3261    0.8601   -2.3010 H   0  0  0  0  0  0  0  0  0  0  0  0
    4.0377    1.9421   -0.1188 H   0  0  0  0  0  0  0  0  0  0  0  0
    5.6710    2.2299   -0.7017 H   0  0  0  0  0  0  0  0  0  0  0  0
    5.6121    1.6119    1.7227 H   0  0  0  0  0  0  0  0  0  0  0  0
    6.5821    0.4985    0.7624 H   0  0  0  0  0  0  0  0  0  0  0  0
    3.7281    0.0413    1.7591 H   0  0  0  0  0  0  0  0  0  0  0  0
    5.1837   -0.7769    2.3155 H   0  0  0  0  0  0  0  0  0  0  0  0
    3.8871   -2.1886    0.7311 H   0  0  0  0  0  0  0  0  0  0  0  0
    5.5099   -1.8439    0.1436 H   0  0  0  0  0  0  0  0  0  0  0  0
    0.3298    1.3455   -0.6485 H   0  0  0  0  0  0  0  0  0  0  0  0
   -2.6334    0.9826    2.3105 H   0  0  0  0  0  0  0  0  0  0  0  0
   -4.0419    2.9292    2.8802 H   0  0  0  0  0  0  0  0  0  0  0  0
   -4.6267    4.5998    1.1411 H   0  0  0  0  0  0  0  0  0  0  0  0
   -3.7912    4.3209   -1.1785 H   0  0  0  0  0  0  0  0  0  0  0  0
   -2.3859    2.3762   -1.7684 H   0  0  0  0  0  0  0  0  0  0  0  0
   -2.2505   -3.5661    0.4341 H   0  0  0  0  0  0  0  0  0  0  0  0
   -4.3766   -4.7476    0.7546 H   0  0  0  0  0  0  0  0  0  0  0  0
   -6.5302   -3.5209    0.6111 H   0  0  0  0  0  0  0  0  0  0  0  0
   -6.5351   -1.0918    0.1140 H   0  0  0  0  0  0  0  0  0  0  0  0
   -4.4541    0.1099   -0.2458 H   0  0  0  0  0  0  0  0  0  0  0  0
  1  2  2  0
  2  3  1  0
  3  4  1  0
  4  5  1  0
  5  6  1  0
  6  7  1  0
  7  8  1  0
  8  9  1  0
  2 10  1  0
 10 11  1  0
 11 12  2  0
 12 13  1  0
 13 14  2  0
 14 15  1  0
 15 16  2  0
 16 17  1  0
 17 18  2  0
 12 19  1  0
 19 20  1  0
 20 21  2  0
 21 22  1  0
 22 23  2  0
 23 24  1  0
 24 25  2  0
 19 26  1  0
  9  4  1  0
 26 10  2  0
 18 13  1  0
 25 20  1  0
  3 27  1  0
  4 28  1  0
  5 29  1  0
  5 30  1  0
  6 31  1  0
  6 32  1  0
  7 33  1  0
  7 34  1  0
  8 35  1  0
  8 36  1  0
  9 37  1  0
  9 38  1  0
 11 39  1  0
 14 40  1  0
 15 41  1  0
 16 42  1  0
 17 43  1  0
 18 44  1  0
 21 45  1  0
 22 46  1  0
 23 47  1  0
 24 48  1  0
 25 49  1  0
M  END
>  <_SMILES>  (2) 
O=C(NC1CCCCC1)c1cc(-c2ccccc2)n(-c2ccccc2)n1

$$$$

     RDKit          3D

 38 40  0  0  0  0  0  0  0  0999 V2000
    5.9973   -0.7059    0.5204 C   0  0  0  0  0  0  0  0  0  0  0  0
    5.3329   -0.5533   -0.8350 C   0  0  0  0  0  0  0  0  0  0  0  0
    3.9070   -0.6328   -0.6998 O   0  0  0  0  0  0  0  0  0  0  0  0
    3.2698    0.5442   -0.4050 C   0  0  0  0  0  0  0  0  0  0  0  0
    3.8509    1.6141   -0.2561 O   0  0  0  0  0  0  0  0  0  0  0  0
    1.8140    0.3631   -0.2886 C   0  0  0  0  0  0  0  0  0  0  0  0
    1.0825   -0.8372   -0.4231 C   0  0  0  0  0  0  0  0  0  0  0  0
   -0.2430   -0.5191   -0.1909 C   0  0  0  0  0  0  0  0  0  0  0  0
   -1.3532   -1.4578   -0.0645 C   0  0  0  0  0  0  0  0  0  0  0  0
   -2.0142   -1.6174    1.1607 C   0  0  0  0  0  0  0  0  0  0  0  0
   -3.0631   -2.5308    1.2820 C   0  0  0  0  0  0  0  0  0  0  0  0
   -3.4508   -3.2979    0.1844 C   0  0  0  0  0  0  0  0  0  0  0  0
   -2.7879   -3.1572   -1.0339 C   0  0  0  0  0  0  0  0  0  0  0  0
   -1.7386   -2.2443   -1.1575 C   0  0  0  0  0  0  0  0  0  0  0  0
   -0.2735    0.8668   -0.0257 N   0  0  0  0  0  0  0  0  0  0  0  0
   -1.3781    1.7706    0.0939 C   0  0  0  0  0  0  0  0  0  0  0  0
   -1.1315    3.0899    0.5161 C   0  0  0  0  0  0  0  0  0  0  0  0
   -2.1780    4.0064    0.6460 C   0  0  0  0  0  0  0  0  0  0  0  0
   -3.4811    3.6223    0.3454 C   0  0  0  0  0  0  0  0  0  0  0  0
   -3.7359    2.3257   -0.0941 C   0  0  0  0  0  0  0  0  0  0  0  0
   -2.6910    1.4039   -0.2258 C   0  0  0  0  0  0  0  0  0  0  0  0
    0.9891    1.3790    0.0016 N   0  0  0  0  0  0  0  0  0  0  0  0
    5.6849   -1.6401    0.9986 H   0  0  0  0  0  0  0  0  0  0  0  0
    7.0864   -0.7076    0.4204 H   0  0  0  0  0  0  0  0  0  0  0  0
    5.7097    0.1078    1.1936 H   0  0  0  0  0  0  0  0  0  0  0  0
    5.6376   -1.3783   -1.4874 H   0  0  0  0  0  0  0  0  0  0  0  0
    5.6374    0.3755   -1.3308 H   0  0  0  0  0  0  0  0  0  0  0  0
    1.4801   -1.8266   -0.6072 H   0  0  0  0  0  0  0  0  0  0  0  0
   -1.7174   -1.0322    2.0287 H   0  0  0  0  0  0  0  0  0  0  0  0
   -3.5747   -2.6457    2.2343 H   0  0  0  0  0  0  0  0  0  0  0  0
   -4.2666   -4.0101    0.2804 H   0  0  0  0  0  0  0  0  0  0  0  0
   -3.0863   -3.7602   -1.8877 H   0  0  0  0  0  0  0  0  0  0  0  0
   -1.2297   -2.1462   -2.1138 H   0  0  0  0  0  0  0  0  0  0  0  0
   -0.1225    3.4209    0.7591 H   0  0  0  0  0  0  0  0  0  0  0  0
   -1.9703    5.0198    0.9800 H   0  0  0  0  0  0  0  0  0  0  0  0
   -4.2954    4.3353    0.4435 H   0  0  0  0  0  0  0  0  0  0  0  0
   -4.7514    2.0299   -0.3470 H   0  0  0  0  0  0  0  0  0  0  0  0
   -2.9455    0.4254   -0.6154 H   0  0  0  0  0  0  0  0  0  0  0  0
  1  2  1  0
  2  3  1  0
  3  4  1  0
  4  5  2  0
  4  6  1  0
  6  7  1  0
  7  8  2  0
  8  9  1  0
  9 10  2  0
 10 11  1  0
 11 12  2  0
 12 13  1  0
 13 14  2  0
  8 15  1  0
 15 16  1  0
 16 17  2  0
 17 18  1  0
 18 19  2  0
 19 20  1  0
 20 21  2  0
 15 22  1  0
 22  6  2  0
 14  9  1  0
 21 16  1  0
  1 23  1  0
  1 24  1  0
  1 25  1  0
  2 26  1  0
  2 27  1  0
  7 28  1  0
 10 29  1  0
 11 30  1  0
 12 31  1  0
 13 32  1  0
 14 33  1  0
 17 34  1  0
 18 35  1  0
 19 36  1  0
 20 37  1  0
 21 38  1  0
M  END
>  <_SMILES>  (3) 
CCOC(=O)c1cc(-c2ccccc2)n(-c2ccccc2)n1

$$$$

     RDKit          3D

 52 55  0  0  0  0  0  0  0  0999 V2000
    2.0664   -1.3654    2.2057 O   0  0  0  0  0  0  0  0  0  0  0  0
    1.7452   -0.4981    1.3963 C   0  0  0  0  0  0  0  0  0  0  0  0
    2.6809    0.1410    0.5939 N   0  0  0  0  0  0  0  0  0  0  0  0
    4.0749   -0.2765    0.5788 C   0  0  0  0  0  0  0  0  0  0  0  0
    4.2752   -1.5102   -0.3058 C   0  0  0  0  0  0  0  0  0  0  0  0
    5.7176   -2.0197   -0.2554 C   0  0  0  0  0  0  0  0  0  0  0  0
    6.7448   -0.9245    0.0351 C   0  0  0  0  0  0  0  0  0  0  0  0
    6.2962    0.4271   -0.5016 C   0  0  0  0  0  0  0  0  0  0  0  0
    4.9746    0.8835    0.1219 C   0  0  0  0  0  0  0  0  0  0  0  0
    0.3482   -0.0639    1.1811 C   0  0  0  0  0  0  0  0  0  0  0  0
   -0.1210    1.1053    0.5201 C   0  0  0  0  0  0  0  0  0  0  0  0
   -1.4988    1.0600    0.5790 C   0  0  0  0  0  0  0  0  0  0  0  0
   -2.4831    2.0018    0.0712 C   0  0  0  0  0  0  0  0  0  0  0  0
   -2.8833    3.0913    0.8520 C   0  0  0  0  0  0  0  0  0  0  0  0
   -3.8319    3.9928    0.3655 C   0  0  0  0  0  0  0  0  0  0  0  0
   -4.3807    3.8114   -0.9036 C   0  0  0  0  0  0  0  0  0  0  0  0
   -3.9798    2.7315   -1.6890 C   0  0  0  0  0  0  0  0  0  0  0  0
   -3.0304    1.8302   -1.2046 C   0  0  0  0  0  0  0  0  0  0  0  0
   -1.7903   -0.1050    1.2474 N   0  0  0  0  0  0  0  0  0  0  0  0
   -3.1067   -0.6182    1.6169 C   0  0  0  0  0  0  0  0  0  0  0  0
   -3.7755   -1.3512    0.4792 C   0  0  0  0  0  0  0  0  0  0  0  0
   -4.9813   -0.8800   -0.0612 C   0  0  0  0  0  0  0  0  0  0  0  0
   -5.6023   -1.5607   -1.1098 C   0  0  0  0  0  0  0  0  0  0  0  0
   -5.0297   -2.7220   -1.6249 C   0  0  0  0  0  0  0  0  0  0  0  0
   -3.8365   -3.2050   -1.0919 C   0  0  0  0  0  0  0  0  0  0  0  0
   -3.2134   -2.5258   -0.0442 C   0  0  0  0  0  0  0  0  0  0  0  0
   -0.6913   -0.7858    1.6363 N   0  0  0  0  0  0  0  0  0  0  0  0
    2.3351    0.6511   -0.2059 H   0  0  0  0  0  0  0  0  0  0  0  0
    4.3502   -0.5444    1.6076 H   0  0  0  0  0  0  0  0  0  0  0  0
    3.5955   -2.3206   -0.0161 H   0  0  0  0  0  0  0  0  0  0  0  0
    4.0155   -1.2580   -1.3428 H   0  0  0  0  0  0  0  0  0  0  0  0
    5.8092   -2.7983    0.5117 H   0  0  0  0  0  0  0  0  0  0  0  0
    5.9517   -2.5045   -1.2110 H   0  0  0  0  0  0  0  0  0  0  0  0
    7.7121   -1.2038   -0.3976 H   0  0  0  0  0  0  0  0  0  0  0  0
    6.8988   -0.8478    1.1189 H   0  0  0  0  0  0  0  0  0  0  0  0
    6.1772    0.3580   -1.5904 H   0  0  0  0  0  0  0  0  0  0  0  0
    7.0683    1.1834   -0.3206 H   0  0  0  0  0  0  0  0  0  0  0  0
    4.4554    1.5242   -0.6026 H   0  0  0  0  0  0  0  0  0  0  0  0
    5.1796    1.5253    0.9886 H   0  0  0  0  0  0  0  0  0  0  0  0
    0.4641    1.8946    0.0705 H   0  0  0  0  0  0  0  0  0  0  0  0
   -2.4587    3.2443    1.8416 H   0  0  0  0  0  0  0  0  0  0  0  0
   -4.1406    4.8379    0.9756 H   0  0  0  0  0  0  0  0  0  0  0  0
   -5.1186    4.5142   -1.2822 H   0  0  0  0  0  0  0  0  0  0  0  0
   -4.4056    2.5895   -2.6790 H   0  0  0  0  0  0  0  0  0  0  0  0
   -2.7282    0.9879   -1.8239 H   0  0  0  0  0  0  0  0  0  0  0  0
   -2.9822   -1.2912    2.4738 H   0  0  0  0  0  0  0  0  0  0  0  0
   -3.7052    0.2323    1.9620 H   0  0  0  0  0  0  0  0  0  0  0  0
   -5.4425    0.0273    0.3245 H   0  0  0  0  0  0  0  0  0  0  0  0
   -6.5340   -1.1848   -1.5244 H   0  0  0  0  0  0  0  0  0  0  0  0
   -5.5143   -3.2526   -2.4401 H   0  0  0  0  0  0  0  0  0  0  0  0
   -3.3895   -4.1124   -1.4899 H   0  0  0  0  0  0  0  0  0  0  0  0
   -2.2810   -2.9160    0.3631 H   0  0  0  0  0  0  0  0  0  0  0  0
  1  2  2  0
  2  3  1  0
  3  4  1  0
  4  5  1  0
  5  6  1  0
  6  7  1  0
  7  8  1  0
  8  9  1  0
  2 10  1  0
 10 11  1  0
 11 12  2  0
 12 13  1  0
 13 14  2  0
 14 15  1  0
 15 16  2  0
 16 17  1  0
 17 18  2  0
 12 19  1  0
 19 20  1  0
 20 21  1  0
 21 22  2  0
 22 23  1  0
 23 24  2  0
 24 25  1  0
 25 26  2  0
 19 27  1  0
  9  4  1  0
 27 10  2  0
 18 13  1  0
 26 21  1  0
  3 28  1  0
  4 29  1  0
  5 30  1  0
  5 31  1  0
  6 32  1  0
  6 33  1  0
  7 34  1  0
  7 35  1  0
  8 36  1  0
  8 37  1  0
  9 38  1  0
  9 39  1  0
 11 40  1  0
 14 41  1  0
 15 42  1  0
 16 43  1  0
 17 44  1  0
 18 45  1  0
 20 46  1  0
 20 47  1  0
 22 48  1  0
 23 49  1  0
 24 50  1  0
 25 51  1  0
 26 52  1  0
M  END
>  <_SMILES>  (4) 
O=C(NC1CCCCC1)c1cc(-c2ccccc2)n(Cc2ccccc2)n1

$$$$

     RDKit          3D

 49 52  0  0  0  0  0  0  0  0999 V2000
    2.5199   -1.3298   -2.1843 O   0  0  0  0  0  0  0  0  0  0  0  0
    2.1454   -0.3813   -1.4976 C   0  0  0  0  0  0  0  0  0  0  0  0
    2.9457    0.7279   -1.2836 N   0  0  0  0  0  0  0  0  0  0  0  0
    4.3178    0.7626   -1.7320 C   0  0  0  0  0  0  0  0  0  0  0  0
    5.2570    0.4798   -0.5882 C   0  0  0  0  0  0  0  0  0  0  0  0
    5.8952    1.5258    0.0934 C   0  0  0  0  0  0  0  0  0  0  0  0
    6.7461    1.2547    1.1666 C   0  0  0  0  0  0  0  0  0  0  0  0
    6.9620   -0.0613    1.5723 C   0  0  0  0  0  0  0  0  0  0  0  0
    6.3267   -1.1081    0.9072 C   0  0  0  0  0  0  0  0  0  0  0  0
    5.4767   -0.8397   -0.1663 C   0  0  0  0  0  0  0  0  0  0  0  0
    0.8255   -0.3361   -0.8305 C   0  0  0  0  0  0  0  0  0  0  0  0
    0.1954    0.7610   -0.1791 C   0  0  0  0  0  0  0  0  0  0  0  0
   -1.0201    0.2967    0.2805 C   0  0  0  0  0  0  0  0  0  0  0  0
   -2.0672    0.9924    1.0109 C   0  0  0  0  0  0  0  0  0  0  0  0
   -3.0347    1.7305    0.3212 C   0  0  0  0  0  0  0  0  0  0  0  0
   -4.0452    2.3915    1.0214 C   0  0  0  0  0  0  0  0  0  0  0  0
   -4.0889    2.3231    2.4133 C   0  0  0  0  0  0  0  0  0  0  0  0
   -3.1222    1.5957    3.1068 C   0  0  0  0  0  0  0  0  0  0  0  0
   -2.1118    0.9326    2.4078 C   0  0  0  0  0  0  0  0  0  0  0  0
   -1.0814   -1.0125   -0.1321 N   0  0  0  0  0  0  0  0  0  0  0  0
   -2.1626   -1.9690    0.0872 C   0  0  0  0  0  0  0  0  0  0  0  0
   -3.2949   -1.7847   -0.8939 C   0  0  0  0  0  0  0  0  0  0  0  0
   -4.5683   -1.3989   -0.4497 C   0  0  0  0  0  0  0  0  0  0  0  0
   -5.6149   -1.2312   -1.3580 C   0  0  0  0  0  0  0  0  0  0  0  0
   -5.4023   -1.4521   -2.7173 C   0  0  0  0  0  0  0  0  0  0  0  0
   -4.1436   -1.8410   -3.1707 C   0  0  0  0  0  0  0  0  0  0  0  0
   -3.0955   -2.0085   -2.2648 C   0  0  0  0  0  0  0  0  0  0  0  0
    0.0321   -1.4213   -0.7759 N   0  0  0  0  0  0  0  0  0  0  0  0
    2.6852    1.3807   -0.5614 H   0  0  0  0  0  0  0  0  0  0  0  0
    4.4993    1.7656   -2.1339 H   0  0  0  0  0  0  0  0  0  0  0  0
    4.4888    0.0525   -2.5486 H   0  0  0  0  0  0  0  0  0  0  0  0
    5.7371    2.5586   -0.2083 H   0  0  0  0  0  0  0  0  0  0  0  0
    7.2416    2.0702    1.6872 H   0  0  0  0  0  0  0  0  0  0  0  0
    7.6245   -0.2718    2.4076 H   0  0  0  0  0  0  0  0  0  0  0  0
    6.4904   -2.1349    1.2239 H   0  0  0  0  0  0  0  0  0  0  0  0
    4.9800   -1.6655   -0.6748 H   0  0  0  0  0  0  0  0  0  0  0  0
    0.5657    1.7688   -0.0602 H   0  0  0  0  0  0  0  0  0  0  0  0
   -3.0141    1.7833   -0.7656 H   0  0  0  0  0  0  0  0  0  0  0  0
   -4.7980    2.9581    0.4792 H   0  0  0  0  0  0  0  0  0  0  0  0
   -4.8752    2.8399    2.9579 H   0  0  0  0  0  0  0  0  0  0  0  0
   -3.1534    1.5473    4.1923 H   0  0  0  0  0  0  0  0  0  0  0  0
   -1.3599    0.3724    2.9589 H   0  0  0  0  0  0  0  0  0  0  0  0
   -1.7480   -2.9801   -0.0052 H   0  0  0  0  0  0  0  0  0  0  0  0
   -2.4977   -1.8544    1.1239 H   0  0  0  0  0  0  0  0  0  0  0  0
   -4.7531   -1.2155    0.6070 H   0  0  0  0  0  0  0  0  0  0  0  0
   -6.5967   -0.9273   -1.0044 H   0  0  0  0  0  0  0  0  0  0  0  0
   -6.2175   -1.3220   -3.4241 H   0  0  0  0  0  0  0  0  0  0  0  0
   -3.9752   -2.0142   -4.2305 H   0  0  0  0  0  0  0  0  0  0  0  0
   -2.1156   -2.3105   -2.6343 H   0  0  0  0  0  0  0  0  0  0  0  0
  1  2  2  0
  2  3  1  0
  3  4  1  0
  4  5  1  0
  5  6  2  0
  6  7  1  0
  7  8  2  0
  8  9  1  0
  9 10  2  0
  2 11  1  0
 11 12  1  0
 12 13  2  0
 13 14  1  0
 14 15  2  0
 15 16  1  0
 16 17  2  0
 17 18  1  0
 18 19  2  0
 13 20  1  0
 20 21  1  0
 21 22  1  0
 22 23  2  0
 23 24  1  0
 24 25  2  0
 25 26  1  0
 26 27  2  0
 20 28  1  0
 10  5  1  0
 28 11  2  0
 19 14  1  0
 27 22  1  0
  3 29  1  0
  4 30  1  0
  4 31  1  0
  6 32  1  0
  7 33  1  0
  8 34  1  0
  9 35  1  0
 10 36  1  0
 12 37  1  0
 15 38  1  0
 16 39  1  0
 17 40  1  0
 18 41  1  0
 19 42  1  0
 21 43  1  0
 21 44  1  0
 23 45  1  0
 24 46  1  0
 25 47  1  0
 26 48  1  0
 27 49  1  0
M  END
>  <_SMILES>  (5) 
O=C(NCc1ccccc1)c1cc(-c2ccccc2)n(Cc2ccccc2)n1

$$$$

     RDKit          3D

 45 47  0  0  0  0  0  0  0  0999 V2000
    7.1739    0.6715    1.0083 C   0  0  0  0  0  0  0  0  0  0  0  0
    6.4332    0.0412   -0.1602 C   0  0  0  0  0  0  0  0  0  0  0  0
    4.9261    0.0038    0.0869 C   0  0  0  0  0  0  0  0  0  0  0  0
    4.1867   -0.6318   -1.0885 C   0  0  0  0  0  0  0  0  0  0  0  0
    2.7606   -0.7006   -0.8470 N   0  0  0  0  0  0  0  0  0  0  0  0
    1.9349    0.3887   -1.0823 C   0  0  0  0  0  0  0  0  0  0  0  0
    2.3649    1.4347   -1.5633 O   0  0  0  0  0  0  0  0  0  0  0  0
    0.5204    0.1945   -0.6973 C   0  0  0  0  0  0  0  0  0  0  0  0
   -0.1506   -1.0063   -0.3732 C   0  0  0  0  0  0  0  0  0  0  0  0
   -1.4686   -0.6681   -0.1235 C   0  0  0  0  0  0  0  0  0  0  0  0
   -2.5748   -1.5933    0.0982 C   0  0  0  0  0  0  0  0  0  0  0  0
   -3.5946   -1.7223   -0.8538 C   0  0  0  0  0  0  0  0  0  0  0  0
   -4.6406   -2.6238   -0.6477 C   0  0  0  0  0  0  0  0  0  0  0  0
   -4.6686   -3.4086    0.5042 C   0  0  0  0  0  0  0  0  0  0  0  0
   -3.6496   -3.2973    1.4492 C   0  0  0  0  0  0  0  0  0  0  0  0
   -2.6024   -2.3966    1.2452 C   0  0  0  0  0  0  0  0  0  0  0  0
   -1.5255    0.7226   -0.2218 N   0  0  0  0  0  0  0  0  0  0  0  0
   -2.5895    1.6390    0.0608 C   0  0  0  0  0  0  0  0  0  0  0  0
   -2.4640    2.9739   -0.3660 C   0  0  0  0  0  0  0  0  0  0  0  0
   -3.4752    3.9042   -0.1125 C   0  0  0  0  0  0  0  0  0  0  0  0
   -4.6188    3.5178    0.5793 C   0  0  0  0  0  0  0  0  0  0  0  0
   -4.7467    2.2047    1.0252 C   0  0  0  0  0  0  0  0  0  0  0  0
   -3.7364    1.2691    0.7737 C   0  0  0  0  0  0  0  0  0  0  0  0
   -0.3347    1.2245   -0.6474 N   0  0  0  0  0  0  0  0  0  0  0  0
    7.0065    0.1054    1.9302 H   0  0  0  0  0  0  0  0  0  0  0  0
    8.2502    0.6879    0.8104 H   0  0  0  0  0  0  0  0  0  0  0  0
    6.8430    1.7020    1.1727 H   0  0  0  0  0  0  0  0  0  0  0  0
    6.8101   -0.9760   -0.3183 H   0  0  0  0  0  0  0  0  0  0  0  0
    6.6469    0.6119   -1.0714 H   0  0  0  0  0  0  0  0  0  0  0  0
    4.7137   -0.5624    1.0025 H   0  0  0  0  0  0  0  0  0  0  0  0
    4.5538    1.0218    0.2556 H   0  0  0  0  0  0  0  0  0  0  0  0
    4.5324   -1.6585   -1.2486 H   0  0  0  0  0  0  0  0  0  0  0  0
    4.3680   -0.0641   -2.0079 H   0  0  0  0  0  0  0  0  0  0  0  0
    2.4092   -1.4762   -0.3064 H   0  0  0  0  0  0  0  0  0  0  0  0
    0.2443   -2.0123   -0.3854 H   0  0  0  0  0  0  0  0  0  0  0  0
   -3.5821   -1.1219   -1.7613 H   0  0  0  0  0  0  0  0  0  0  0  0
   -5.4315   -2.7149   -1.3879 H   0  0  0  0  0  0  0  0  0  0  0  0
   -5.4833   -4.1108    0.6630 H   0  0  0  0  0  0  0  0  0  0  0  0
   -3.6700   -3.9131    2.3448 H   0  0  0  0  0  0  0  0  0  0  0  0
   -1.8147   -2.3199    1.9911 H   0  0  0  0  0  0  0  0  0  0  0  0
   -1.5810    3.3068   -0.9106 H   0  0  0  0  0  0  0  0  0  0  0  0
   -3.3640    4.9295   -0.4558 H   0  0  0  0  0  0  0  0  0  0  0  0
   -5.4048    4.2412    0.7791 H   0  0  0  0  0  0  0  0  0  0  0  0
   -5.6323    1.9061    1.5812 H   0  0  0  0  0  0  0  0  0  0  0  0
   -3.8746    0.2761    1.1838 H   0  0  0  0  0  0  0  0  0  0  0  0
  1  2  1  0
  2  3  1  0
  3  4  1  0
  4  5  1  0
  5  6  1  0
  6  7  2  0
  6  8  1  0
  8  9  1  0
  9 10  2  0
 10 11  1  0
 11 12  2  0
 12 13  1  0
 13 14  2  0
 14 15  1  0
 15 16  2  0
 10 17  1  0
 17 18  1  0
 18 19  2  0
 19 20  1  0
 20 21  2  0
 21 22  1  0
 22 23  2  0
 17 24  1  0
 24  8  2  0
 16 11  1  0
 23 18  1  0
  1 25  1  0
  1 26  1  0
  1 27  1  0
  2 28  1  0
  2 29  1  0
  3 30  1  0
  3 31  1  0
  4 32  1  0
  4 33  1  0
  5 34  1  0
  9 35  1  0
 12 36  1  0
 13 37  1  0
 14 38  1  0
 15 39  1  0
 16 40  1  0
 19 41  1  0
 20 42  1  0
 21 43  1  0
 22 44  1  0
 23 45  1  0
M  END
>  <_SMILES>  (6) 
CCCCNC(=O)c1cc(-c2ccccc2)n(-c2ccccc2)n1

$$$$

     RDKit          3D

 43 46  0  0  0  0  0  0  0  0999 V2000
    2.6006    1.1940    1.9923 O   0  0  0  0  0  0  0  0  0  0  0  0
    2.2539    0.6306    0.9588 C   0  0  0  0  0  0  0  0  0  0  0  0
    3.1145    0.2278   -0.0553 N   0  0  0  0  0  0  0  0  0  0  0  0
    4.5219    0.3237   -0.0824 C   0  0  0  0  0  0  0  0  0  0  0  0
    5.2985    0.7872    0.9808 C   0  0  0  0  0  0  0  0  0  0  0  0
    6.6921    0.8433    0.8699 C   0  0  0  0  0  0  0  0  0  0  0  0
    7.3213    0.4347   -0.3031 C   0  0  0  0  0  0  0  0  0  0  0  0
    6.5575   -0.0321   -1.3686 C   0  0  0  0  0  0  0  0  0  0  0  0
    5.1655   -0.0881   -1.2580 C   0  0  0  0  0  0  0  0  0  0  0  0
    0.8276    0.3300    0.6798 C   0  0  0  0  0  0  0  0  0  0  0  0
    0.2794   -0.6069   -0.2259 C   0  0  0  0  0  0  0  0  0  0  0  0
   -1.0957   -0.4832   -0.1388 C   0  0  0  0  0  0  0  0  0  0  0  0
   -2.0818   -1.1386   -0.9913 C   0  0  0  0  0  0  0  0  0  0  0  0
   -2.2230   -2.5318   -0.9630 C   0  0  0  0  0  0  0  0  0  0  0  0
   -3.1506   -3.1627   -1.7943 C   0  0  0  0  0  0  0  0  0  0  0  0
   -3.9339   -2.4074   -2.6658 C   0  0  0  0  0  0  0  0  0  0  0  0
   -3.7889   -1.0217   -2.7112 C   0  0  0  0  0  0  0  0  0  0  0  0
   -2.8622   -0.3884   -1.8809 C   0  0  0  0  0  0  0  0  0  0  0  0
   -1.3268    0.4405    0.8814 N   0  0  0  0  0  0  0  0  0  0  0  0
   -2.5441    0.8573    1.5108 C   0  0  0  0  0  0  0  0  0  0  0  0
   -2.5215    1.9911    2.3438 C   0  0  0  0  0  0  0  0  0  0  0  0
   -3.6838    2.4357    2.9791 C   0  0  0  0  0  0  0  0  0  0  0  0
   -4.8805    1.7488    2.8011 C   0  0  0  0  0  0  0  0  0  0  0  0
   -4.9123    0.6126    1.9966 C   0  0  0  0  0  0  0  0  0  0  0  0
   -3.7504    0.1633    1.3580 C   0  0  0  0  0  0  0  0  0  0  0  0
   -0.1563    0.9881    1.3074 N   0  0  0  0  0  0  0  0  0  0  0  0
    2.6883   -0.1210   -0.9008 H   0  0  0  0  0  0  0  0  0  0  0  0
    4.8553    1.1131    1.9167 H   0  0  0  0  0  0  0  0  0  0  0  0
    7.2829    1.2085    1.7065 H   0  0  0  0  0  0  0  0  0  0  0  0
    8.4041    0.4809   -0.3845 H   0  0  0  0  0  0  0  0  0  0  0  0
    7.0442   -0.3521   -2.2862 H   0  0  0  0  0  0  0  0  0  0  0  0
    4.5956   -0.4564   -2.1069 H   0  0  0  0  0  0  0  0  0  0  0  0
    0.8034   -1.2745   -0.8954 H   0  0  0  0  0  0  0  0  0  0  0  0
   -1.6196   -3.1338   -0.2872 H   0  0  0  0  0  0  0  0  0  0  0  0
   -3.2615   -4.2437   -1.7623 H   0  0  0  0  0  0  0  0  0  0  0  0
   -4.6558   -2.8995   -3.3130 H   0  0  0  0  0  0  0  0  0  0  0  0
   -4.3959   -0.4332   -3.3946 H   0  0  0  0  0  0  0  0  0  0  0  0
   -2.7559    0.6933   -1.9324 H   0  0  0  0  0  0  0  0  0  0  0  0
   -1.6000    2.5496    2.5048 H   0  0  0  0  0  0  0  0  0  0  0  0
   -3.6486    3.3169    3.6146 H   0  0  0  0  0  0  0  0  0  0  0  0
   -5.7843    2.0917    3.2976 H   0  0  0  0  0  0  0  0  0  0  0  0
   -5.8429    0.0639    1.8721 H   0  0  0  0  0  0  0  0  0  0  0  0
   -3.8300   -0.7513    0.7831 H   0  0  0  0  0  0  0  0  0  0  0  0
  1  2  2  0
  2  3  1  0
  3  4  1  0
  4  5  2  0
  5  6  1  0
  6  7  2  0
  7  8  1  0
  8  9  2  0
  2 10  1  0
 10 11  1  0
 11 12  2  0
 12 13  1  0
 13 14  2  0
 14 15  1  0
 15 16  2  0
 16 17  1  0
 17 18  2  0
 12 19  1  0
 19 20  1  0
 20 21  2  0
 21 22  1  0
 22 23  2  0
 23 24  1  0
 24 25  2  0
 19 26  1  0
  9  4  1  0
 26 10  2  0
 18 13  1  0
 25 20  1  0
  3 27  1  0
  5 28  1  0
  6 29  1  0
  7 30  1  0
  8 31  1  0
  9 32  1  0
 11 33  1  0
 14 34  1  0
 15 35  1  0
 16 36  1  0
 17 37  1  0
 18 38  1  0
 21 39  1  0
 22 40  1  0
 23 41  1  0
 24 42  1  0
 25 43  1  0
M  END
>  <_SMILES>  (7) 
O=C(Nc1ccccc1)c1cc(-c2ccccc2)n(-c2ccccc2)n1

$$$$

     RDKit          3D

 46 49  0  0  0  0  0  0  0  0999 V2000
    2.3832   -2.6595    0.2592 O   0  0  0  0  0  0  0  0  0  0  0  0
    1.8354   -1.6915    0.7776 C   0  0  0  0  0  0  0  0  0  0  0  0
    2.4233   -0.8951    1.7323 N   0  0  0  0  0  0  0  0  0  0  0  0
    3.8070   -1.0139    2.1057 C   0  0  0  0  0  0  0  0  0  0  0  0
    4.6760   -0.1004    1.2798 C   0  0  0  0  0  0  0  0  0  0  0  0
    5.3070   -0.6172    0.1336 C   0  0  0  0  0  0  0  0  0  0  0  0
    6.1080    0.1939   -0.6722 C   0  0  0  0  0  0  0  0  0  0  0  0
    6.2846    1.5367   -0.3511 C   0  0  0  0  0  0  0  0  0  0  0  0
    5.6536    2.0700    0.7721 C   0  0  0  0  0  0  0  0  0  0  0  0
    4.8497    1.2595    1.5805 C   0  0  0  0  0  0  0  0  0  0  0  0
    4.0783    1.9988    2.9391 Cl  0  0  0  0  0  0  0  0  0  0  0  0
    0.4752   -1.2591    0.4235 C   0  0  0  0  0  0  0  0  0  0  0  0
   -0.4015   -1.8770   -0.4868 C   0  0  0  0  0  0  0  0  0  0  0  0
   -1.5684   -1.1356   -0.4651 C   0  0  0  0  0  0  0  0  0  0  0  0
   -2.8267   -1.4741   -1.1236 C   0  0  0  0  0  0  0  0  0  0  0  0
   -3.9722   -1.7594   -0.3684 C   0  0  0  0  0  0  0  0  0  0  0  0
   -5.1684   -2.0998   -1.0030 C   0  0  0  0  0  0  0  0  0  0  0  0
   -5.2254   -2.1686   -2.3941 C   0  0  0  0  0  0  0  0  0  0  0  0
   -4.0863   -1.9030   -3.1526 C   0  0  0  0  0  0  0  0  0  0  0  0
   -2.8890   -1.5623   -2.5201 C   0  0  0  0  0  0  0  0  0  0  0  0
   -1.3103   -0.0484    0.3730 N   0  0  0  0  0  0  0  0  0  0  0  0
   -2.0850    1.1245    0.6466 C   0  0  0  0  0  0  0  0  0  0  0  0
   -3.1618    1.5186   -0.1567 C   0  0  0  0  0  0  0  0  0  0  0  0
   -3.8865    2.6763    0.1485 C   0  0  0  0  0  0  0  0  0  0  0  0
   -3.5381    3.4564    1.2482 C   0  0  0  0  0  0  0  0  0  0  0  0
   -2.4568    3.0877    2.0426 C   0  0  0  0  0  0  0  0  0  0  0  0
   -1.7301    1.9329    1.7419 C   0  0  0  0  0  0  0  0  0  0  0  0
   -0.0952   -0.1808    0.9849 N   0  0  0  0  0  0  0  0  0  0  0  0
    1.8970   -0.0662    1.9946 H   0  0  0  0  0  0  0  0  0  0  0  0
    3.8925   -0.7846    3.1727 H   0  0  0  0  0  0  0  0  0  0  0  0
    4.1326   -2.0546    1.9896 H   0  0  0  0  0  0  0  0  0  0  0  0
    5.1661   -1.6622   -0.1418 H   0  0  0  0  0  0  0  0  0  0  0  0
    6.5881   -0.2240   -1.5538 H   0  0  0  0  0  0  0  0  0  0  0  0
    6.9059    2.1701   -0.9791 H   0  0  0  0  0  0  0  0  0  0  0  0
    5.7872    3.1224    1.0099 H   0  0  0  0  0  0  0  0  0  0  0  0
   -0.2214   -2.7870   -1.0440 H   0  0  0  0  0  0  0  0  0  0  0  0
   -3.9411   -1.7205    0.7184 H   0  0  0  0  0  0  0  0  0  0  0  0
   -6.0539   -2.3161   -0.4108 H   0  0  0  0  0  0  0  0  0  0  0  0
   -6.1565   -2.4367   -2.8872 H   0  0  0  0  0  0  0  0  0  0  0  0
   -4.1286   -1.9649   -4.2371 H   0  0  0  0  0  0  0  0  0  0  0  0
   -2.0073   -1.3610   -3.1246 H   0  0  0  0  0  0  0  0  0  0  0  0
   -3.4510    0.9785   -1.0509 H   0  0  0  0  0  0  0  0  0  0  0  0
   -4.7200    2.9733   -0.4838 H   0  0  0  0  0  0  0  0  0  0  0  0
   -4.1027    4.3558    1.4795 H   0  0  0  0  0  0  0  0  0  0  0  0
   -2.1749    3.6978    2.8970 H   0  0  0  0  0  0  0  0  0  0  0  0
   -0.8916    1.6705    2.3845 H   0  0  0  0  0  0  0  0  0  0  0  0
  1  2  2  0
  2  3  1  0
  3  4  1  0
  4  5  1  0
  5  6  2  0
  6  7  1  0
  7  8  2  0
  8  9  1  0
  9 10  2  0
 10 11  1  0
  2 12  1  0
 12 13  1  0
 13 14  2  0
 14 15  1  0
 15 16  2  0
 16 17  1  0
 17 18  2  0
 18 19  1  0
 19 20  2  0
 14 21  1  0
 21 22  1  0
 22 23  2  0
 23 24  1  0
 24 25  2  0
 25 26  1  0
 26 27  2  0
 21 28  1  0
 10  5  1  0
 28 12  2  0
 20 15  1  0
 27 22  1  0
  3 29  1  0
  4 30  1  0
  4 31  1  0
  6 32  1  0
  7 33  1  0
  8 34  1  0
  9 35  1  0
 13 36  1  0
 16 37  1  0
 17 38  1  0
 18 39  1  0
 19 40  1  0
 20 41  1  0
 23 42  1  0
 24 43  1  0
 25 44  1  0
 26 45  1  0
 27 46  1  0
M  END
>  <_SMILES>  (8) 
O=C(NCc1ccccc1Cl)c1cc(-c2ccccc2)n(-c2ccccc2)n1

$$$$

     RDKit          3D

 60 65  0  0  0  0  0  0  0  0999 V2000
    0.9986   -0.7375    2.5645 O   0  0  0  0  0  0  0  0  0  0  0  0
    0.8336   -0.4683    1.3767 C   0  0  0  0  0  0  0  0  0  0  0  0
    1.8658   -0.5611    0.4526 N   0  0  0  0  0  0  0  0  0  0  0  0
    3.2280   -0.8597    0.8704 C   0  0  1  0  0  0  0  0  0  0  0  0
    4.0765   -1.4279   -0.2922 C   0  0  2  0  0  0  0  0  0  0  0  0
    5.4391   -1.8733    0.2768 C   0  0  0  0  0  0  0  0  0  0  0  0
    6.1703   -0.6716    0.9044 C   0  0  1  0  0  0  0  0  0  0  0  0
    6.3957    0.4012   -0.1747 C   0  0  0  0  0  0  0  0  0  0  0  0
    5.0449    0.8587   -0.7512 C   0  0  1  0  0  0  0  0  0  0  0  0
    4.3269   -0.3524   -1.3685 C   0  0  0  0  0  0  0  0  0  0  0  0
    4.1817    1.4401    0.3811 C   0  0  0  0  0  0  0  0  0  0  0  0
    3.9423    0.3761    1.4705 C   0  0  2  0  0  0  0  0  0  0  0  0
    5.3060   -0.0752    2.0302 C   0  0  0  0  0  0  0  0  0  0  0  0
   -0.4563   -0.0068    0.8195 C   0  0  0  0  0  0  0  0  0  0  0  0
   -0.8520    0.0765   -0.5448 C   0  0  0  0  0  0  0  0  0  0  0  0
   -2.1413    0.5685   -0.5477 C   0  0  0  0  0  0  0  0  0  0  0  0
   -3.0311    0.8436   -1.6643 C   0  0  0  0  0  0  0  0  0  0  0  0
   -3.7577   -0.1948   -2.2563 C   0  0  0  0  0  0  0  0  0  0  0  0
   -4.6193    0.0692   -3.3222 C   0  0  0  0  0  0  0  0  0  0  0  0
   -4.7530    1.3703   -3.8052 C   0  0  0  0  0  0  0  0  0  0  0  0
   -4.0250    2.4083   -3.2246 C   0  0  0  0  0  0  0  0  0  0  0  0
   -3.1642    2.1462   -2.1573 C   0  0  0  0  0  0  0  0  0  0  0  0
   -2.4702    0.7146    0.7787 N   0  0  0  0  0  0  0  0  0  0  0  0
   -3.7359    1.1779    1.3402 C   0  0  0  0  0  0  0  0  0  0  0  0
   -4.7826    0.0905    1.3569 C   0  0  0  0  0  0  0  0  0  0  0  0
   -4.6178   -1.0457    2.1638 C   0  0  0  0  0  0  0  0  0  0  0  0
   -5.5860   -2.0504    2.1804 C   0  0  0  0  0  0  0  0  0  0  0  0
   -6.7300   -1.9299    1.3943 C   0  0  0  0  0  0  0  0  0  0  0  0
   -6.9075   -0.8050    0.5913 C   0  0  0  0  0  0  0  0  0  0  0  0
   -5.9409    0.2018    0.5735 C   0  0  0  0  0  0  0  0  0  0  0  0
   -1.4564    0.4106    1.6162 N   0  0  0  0  0  0  0  0  0  0  0  0
    1.7276   -0.1146   -0.4411 H   0  0  0  0  0  0  0  0  0  0  0  0
    3.1503   -1.6294    1.6504 H   0  0  0  0  0  0  0  0  0  0  0  0
    3.5683   -2.2868   -0.7462 H   0  0  0  0  0  0  0  0  0  0  0  0
    6.0531   -2.3100   -0.5205 H   0  0  0  0  0  0  0  0  0  0  0  0
    5.2931   -2.6573    1.0301 H   0  0  0  0  0  0  0  0  0  0  0  0
    7.1346   -0.9962    1.3106 H   0  0  0  0  0  0  0  0  0  0  0  0
    7.0287   -0.0002   -0.9756 H   0  0  0  0  0  0  0  0  0  0  0  0
    6.9300    1.2580    0.2539 H   0  0  0  0  0  0  0  0  0  0  0  0
    5.2113    1.6218   -1.5196 H   0  0  0  0  0  0  0  0  0  0  0  0
    4.9372   -0.7735   -2.1774 H   0  0  0  0  0  0  0  0  0  0  0  0
    3.3835   -0.0359   -1.8273 H   0  0  0  0  0  0  0  0  0  0  0  0
    3.2261    1.7975   -0.0205 H   0  0  0  0  0  0  0  0  0  0  0  0
    4.6828    2.3124    0.8192 H   0  0  0  0  0  0  0  0  0  0  0  0
    3.3439    0.8128    2.2783 H   0  0  0  0  0  0  0  0  0  0  0  0
    5.1583   -0.8192    2.8226 H   0  0  0  0  0  0  0  0  0  0  0  0
    5.8232    0.7772    2.4876 H   0  0  0  0  0  0  0  0  0  0  0  0
   -0.2819   -0.1962   -1.4211 H   0  0  0  0  0  0  0  0  0  0  0  0
   -3.6675   -1.2121   -1.8806 H   0  0  0  0  0  0  0  0  0  0  0  0
   -5.1864   -0.7410   -3.7733 H   0  0  0  0  0  0  0  0  0  0  0  0
   -5.4229    1.5746   -4.6367 H   0  0  0  0  0  0  0  0  0  0  0  0
   -4.1255    3.4216   -3.6054 H   0  0  0  0  0  0  0  0  0  0  0  0
   -2.5970    2.9624   -1.7159 H   0  0  0  0  0  0  0  0  0  0  0  0
   -4.0578    2.0462    0.7550 H   0  0  0  0  0  0  0  0  0  0  0  0
   -3.5476    1.5323    2.3608 H   0  0  0  0  0  0  0  0  0  0  0  0
   -3.7260   -1.1554    2.7808 H   0  0  0  0  0  0  0  0  0  0  0  0
   -5.4447   -2.9272    2.8071 H   0  0  0  0  0  0  0  0  0  0  0  0
   -7.4830   -2.7135    1.4080 H   0  0  0  0  0  0  0  0  0  0  0  0
   -7.7992   -0.7118   -0.0231 H   0  0  0  0  0  0  0  0  0  0  0  0
   -6.0949    1.0690   -0.0657 H   0  0  0  0  0  0  0  0  0  0  0  0
  1  2  2  0
  2  3  1  0
  3  4  1  0
  4  5  1  0
  5  6  1  0
  6  7  1  0
  7  8  1  0
  8  9  1  0
  9 10  1  0
  9 11  1  0
 11 12  1  0
 12 13  1  0
  2 14  1  0
 14 15  1  0
 15 16  2  0
 16 17  1  0
 17 18  2  0
 18 19  1  0
 19 20  2  0
 20 21  1  0
 21 22  2  0
 16 23  1  0
 23 24  1  0
 24 25  1  0
 25 26  2  0
 26 27  1  0
 27 28  2  0
 28 29  1  0
 29 30  2  0
 23 31  1  0
 12  4  1  0
 31 14  2  0
 10  5  1  0
 22 17  1  0
 30 25  1  0
 13  7  1  0
  3 32  1  0
  4 33  1  1
  5 34  1  6
  6 35  1  0
  6 36  1  0
  7 37  1  1
  8 38  1  0
  8 39  1  0
  9 40  1  6
 10 41  1  0
 10 42  1  0
 11 43  1  0
 11 44  1  0
 12 45  1  1
 13 46  1  0
 13 47  1  0
 15 48  1  0
 18 49  1  0
 19 50  1  0
 20 51  1  0
 21 52  1  0
 22 53  1  0
 24 54  1  0
 24 55  1  0
 26 56  1  0
 27 57  1  0
 28 58  1  0
 29 59  1  0
 30 60  1  0
M  END
>  <_SMILES>  (9) 
O=C(N[C@H]1[C@@H]2C[C@H]3C[C@@H](C2)C[C@@H]1C3)c1cc(-c2ccccc2)n(Cc2ccccc2)n1

$$$$

     RDKit          3D

 55 58  0  0  0  0  0  0  0  0999 V2000
    1.6640    1.0353   -2.9180 O   0  0  0  0  0  0  0  0  0  0  0  0
    1.3889    0.7977   -1.7463 C   0  0  0  0  0  0  0  0  0  0  0  0
    2.1898    1.1473   -0.6792 N   0  0  0  0  0  0  0  0  0  0  0  0
    3.5374    1.6650   -0.8366 C   0  0  0  0  0  0  0  0  0  0  0  0
    4.5143    0.5276   -1.1969 C   0  0  0  0  0  0  0  0  0  0  0  0
    5.9448    0.7301   -0.7038 C   0  0  0  0  0  0  0  0  0  0  0  0
    6.1532    0.5305    0.8037 C   0  0  0  0  0  0  0  0  0  0  0  0
    4.8963    0.5000    1.6705 C   0  0  0  0  0  0  0  0  0  0  0  0
    4.0962    1.7981    1.7019 C   0  0  0  0  0  0  0  0  0  0  0  0
    3.9274    2.5278    0.3709 C   0  0  0  0  0  0  0  0  0  0  0  0
    0.1668    0.0877   -1.3369 C   0  0  0  0  0  0  0  0  0  0  0  0
   -0.8744   -0.3714   -2.1785 C   0  0  0  0  0  0  0  0  0  0  0  0
   -1.7965   -0.9763   -1.3503 C   0  0  0  0  0  0  0  0  0  0  0  0
   -3.0579   -1.6214   -1.6781 C   0  0  0  0  0  0  0  0  0  0  0  0
   -3.0866   -2.9764   -2.0244 C   0  0  0  0  0  0  0  0  0  0  0  0
   -4.2991   -3.5972   -2.3304 C   0  0  0  0  0  0  0  0  0  0  0  0
   -5.4860   -2.8659   -2.2959 C   0  0  0  0  0  0  0  0  0  0  0  0
   -5.4620   -1.5130   -1.9601 C   0  0  0  0  0  0  0  0  0  0  0  0
   -4.2503   -0.8906   -1.6554 C   0  0  0  0  0  0  0  0  0  0  0  0
   -1.2847   -0.8430   -0.0799 N   0  0  0  0  0  0  0  0  0  0  0  0
   -1.8580   -1.3449    1.1666 C   0  0  0  0  0  0  0  0  0  0  0  0
   -2.9195   -0.4271    1.7226 C   0  0  0  0  0  0  0  0  0  0  0  0
   -2.6058    0.8855    2.1075 C   0  0  0  0  0  0  0  0  0  0  0  0
   -3.5900    1.7271    2.6276 C   0  0  0  0  0  0  0  0  0  0  0  0
   -4.8963    1.2659    2.7747 C   0  0  0  0  0  0  0  0  0  0  0  0
   -5.2200   -0.0373    2.4035 C   0  0  0  0  0  0  0  0  0  0  0  0
   -4.2372   -0.8812    1.8834 C   0  0  0  0  0  0  0  0  0  0  0  0
   -0.0787   -0.2236   -0.0472 N   0  0  0  0  0  0  0  0  0  0  0  0
    1.8864    0.7570    0.2098 H   0  0  0  0  0  0  0  0  0  0  0  0
    3.5104    2.3432   -1.7007 H   0  0  0  0  0  0  0  0  0  0  0  0
    4.1397   -0.4431   -0.8482 H   0  0  0  0  0  0  0  0  0  0  0  0
    4.5359    0.4393   -2.2917 H   0  0  0  0  0  0  0  0  0  0  0  0
    6.5992    0.0242   -1.2314 H   0  0  0  0  0  0  0  0  0  0  0  0
    6.3013    1.7245   -0.9990 H   0  0  0  0  0  0  0  0  0  0  0  0
    6.6756   -0.4243    0.9482 H   0  0  0  0  0  0  0  0  0  0  0  0
    6.8399    1.3012    1.1750 H   0  0  0  0  0  0  0  0  0  0  0  0
    5.1896    0.2570    2.7000 H   0  0  0  0  0  0  0  0  0  0  0  0
    4.2460   -0.3255    1.3587 H   0  0  0  0  0  0  0  0  0  0  0  0
    4.5768    2.4906    2.4049 H   0  0  0  0  0  0  0  0  0  0  0  0
    3.1078    1.5834    2.1271 H   0  0  0  0  0  0  0  0  0  0  0  0
    4.8550    3.0682    0.1447 H   0  0  0  0  0  0  0  0  0  0  0  0
    3.1688    3.3099    0.5104 H   0  0  0  0  0  0  0  0  0  0  0  0
   -0.9342   -0.2678   -3.2536 H   0  0  0  0  0  0  0  0  0  0  0  0
   -2.1659   -3.5540   -2.0620 H   0  0  0  0  0  0  0  0  0  0  0  0
   -4.3169   -4.6498   -2.6013 H   0  0  0  0  0  0  0  0  0  0  0  0
   -6.4294   -3.3489   -2.5377 H   0  0  0  0  0  0  0  0  0  0  0  0
   -6.3853   -0.9399   -1.9378 H   0  0  0  0  0  0  0  0  0  0  0  0
   -4.2426    0.1658   -1.3939 H   0  0  0  0  0  0  0  0  0  0  0  0
   -1.0445   -1.4573    1.8933 H   0  0  0  0  0  0  0  0  0  0  0  0
   -2.2495   -2.3484    0.9661 H   0  0  0  0  0  0  0  0  0  0  0  0
   -1.5900    1.2626    1.9975 H   0  0  0  0  0  0  0  0  0  0  0  0
   -3.3361    2.7438    2.9169 H   0  0  0  0  0  0  0  0  0  0  0  0
   -5.6622    1.9227    3.1789 H   0  0  0  0  0  0  0  0  0  0  0  0
   -6.2393   -0.3971    2.5174 H   0  0  0  0  0  0  0  0  0  0  0  0
   -4.5126   -1.8936    1.5934 H   0  0  0  0  0  0  0  0  0  0  0  0
  1  2  2  0
  2  3  1  0
  3  4  1  0
  4  5  1  0
  5  6  1  0
  6  7  1  0
  7  8  1  0
  8  9  1  0
  9 10  1  0
  2 11  1  0
 11 12  1  0
 12 13  2  0
 13 14  1  0
 14 15  2  0
 15 16  1  0
 16 17  2  0
 17 18  1  0
 18 19  2  0
 13 20  1  0
 20 21  1  0
 21 22  1  0
 22 23  2  0
 23 24  1  0
 24 25  2  0
 25 26  1  0
 26 27  2  0
 20 28  1  0
 10  4  1  0
 28 11  2  0
 19 14  1  0
 27 22  1  0
  3 29  1  0
  4 30  1  0
  5 31  1  0
  5 32  1  0
  6 33  1  0
  6 34  1  0
  7 35  1  0
  7 36  1  0
  8 37  1  0
  8 38  1  0
  9 39  1  0
  9 40  1  0
 10 41  1  0
 10 42  1  0
 12 43  1  0
 15 44  1  0
 16 45  1  0
 17 46  1  0
 18 47  1  0
 19 48  1  0
 21 49  1  0
 21 50  1  0
 23 51  1  0
 24 52  1  0
 25 53  1  0
 26 54  1  0
 27 55  1  0
M  END
>  <_SMILES>  (10) 
O=C(NC1CCCCCC1)c1cc(-c2ccccc2)n(Cc2ccccc2)n1

$$$$

     RDKit          3D

 43 46  0  0  0  0  0  0  0  0999 V2000
    3.8346   -1.7692   -0.9702 O   0  0  0  0  0  0  0  0  0  0  0  0
    3.2727   -0.9691   -0.2279 C   0  0  0  0  0  0  0  0  0  0  0  0
    3.9234    0.0116    0.4949 N   0  0  0  0  0  0  0  0  0  0  0  0
    5.3291    0.2226    0.4555 C   0  0  0  0  0  0  0  0  0  0  0  0
    5.9465    1.4069    1.1473 C   0  0  0  0  0  0  0  0  0  0  0  0
    5.9075    1.3513   -0.3515 C   0  0  0  0  0  0  0  0  0  0  0  0
    1.8175   -0.9624   -0.0130 C   0  0  0  0  0  0  0  0  0  0  0  0
    0.8662   -1.8312   -0.5998 C   0  0  0  0  0  0  0  0  0  0  0  0
   -0.3607   -1.4479   -0.1003 C   0  0  0  0  0  0  0  0  0  0  0  0
   -1.6827   -1.9945   -0.3616 C   0  0  0  0  0  0  0  0  0  0  0  0
   -2.4493   -1.5056   -1.4245 C   0  0  0  0  0  0  0  0  0  0  0  0
   -3.7227   -2.0226   -1.6686 C   0  0  0  0  0  0  0  0  0  0  0  0
   -4.2320   -3.0347   -0.8561 C   0  0  0  0  0  0  0  0  0  0  0  0
   -3.4684   -3.5332    0.1988 C   0  0  0  0  0  0  0  0  0  0  0  0
   -2.1951   -3.0161    0.4451 C   0  0  0  0  0  0  0  0  0  0  0  0
   -0.0979   -0.3795    0.7263 N   0  0  0  0  0  0  0  0  0  0  0  0
   -1.0550    0.3839    1.5233 C   0  0  0  0  0  0  0  0  0  0  0  0
   -1.7701    1.4347    0.7097 C   0  0  0  0  0  0  0  0  0  0  0  0
   -1.0629    2.5009    0.1331 C   0  0  0  0  0  0  0  0  0  0  0  0
   -1.7293    3.4729   -0.6143 C   0  0  0  0  0  0  0  0  0  0  0  0
   -3.1091    3.3936   -0.7902 C   0  0  0  0  0  0  0  0  0  0  0  0
   -3.8242    2.3436   -0.2183 C   0  0  0  0  0  0  0  0  0  0  0  0
   -3.1601    1.3705    0.5302 C   0  0  0  0  0  0  0  0  0  0  0  0
    1.2220   -0.0799    0.8160 N   0  0  0  0  0  0  0  0  0  0  0  0
    3.3215    0.5914    1.0737 H   0  0  0  0  0  0  0  0  0  0  0  0
    5.9006   -0.7036    0.4790 H   0  0  0  0  0  0  0  0  0  0  0  0
    6.9031    1.2625    1.6360 H   0  0  0  0  0  0  0  0  0  0  0  0
    5.2978    2.1183    1.6438 H   0  0  0  0  0  0  0  0  0  0  0  0
    6.8336    1.1638   -0.8824 H   0  0  0  0  0  0  0  0  0  0  0  0
    5.2252    2.0136   -0.8710 H   0  0  0  0  0  0  0  0  0  0  0  0
    1.0630   -2.6347   -1.2969 H   0  0  0  0  0  0  0  0  0  0  0  0
   -2.0619   -0.7141   -2.0630 H   0  0  0  0  0  0  0  0  0  0  0  0
   -4.3146   -1.6361   -2.4943 H   0  0  0  0  0  0  0  0  0  0  0  0
   -5.2220   -3.4400   -1.0498 H   0  0  0  0  0  0  0  0  0  0  0  0
   -3.8619   -4.3290    0.8261 H   0  0  0  0  0  0  0  0  0  0  0  0
   -1.6045   -3.4182    1.2651 H   0  0  0  0  0  0  0  0  0  0  0  0
   -0.5086    0.8578    2.3477 H   0  0  0  0  0  0  0  0  0  0  0  0
   -1.7532   -0.3314    1.9720 H   0  0  0  0  0  0  0  0  0  0  0  0
    0.0162    2.5762    0.2587 H   0  0  0  0  0  0  0  0  0  0  0  0
   -1.1703    4.2914   -1.0606 H   0  0  0  0  0  0  0  0  0  0  0  0
   -3.6268    4.1505   -1.3736 H   0  0  0  0  0  0  0  0  0  0  0  0
   -4.9005    2.2807   -0.3567 H   0  0  0  0  0  0  0  0  0  0  0  0
   -3.7366    0.5546    0.9623 H   0  0  0  0  0  0  0  0  0  0  0  0
  1  2  2  0
  2  3  1  0
  3  4  1  0
  4  5  1  0
  5  6  1  0
  2  7  1  0
  7  8  1  0
  8  9  2  0
  9 10  1  0
 10 11  2  0
 11 12  1  0
 12 13  2  0
 13 14  1  0
 14 15  2  0
  9 16  1  0
 16 17  1  0
 17 18  1  0
 18 19  2  0
 19 20  1  0
 20 21  2  0
 21 22  1  0
 22 23  2  0
 16 24  1  0
  6  4  1  0
 24  7  2  0
 15 10  1  0
 23 18  1  0
  3 25  1  0
  4 26  1  0
  5 27  1  0
  5 28  1  0
  6 29  1  0
  6 30  1  0
  8 31  1  0
 11 32  1  0
 12 33  1  0
 13 34  1  0
 14 35  1  0
 15 36  1  0
 17 37  1  0
 17 38  1  0
 19 39  1  0
 20 40  1  0
 21 41  1  0
 22 42  1  0
 23 43  1  0
M  END
>  <_SMILES>  (11) 
O=C(NC1CC1)c1cc(-c2ccccc2)n(Cc2ccccc2)n1

$$$$

     RDKit          3D

 49 52  0  0  0  0  0  0  0  0999 V2000
    2.5358    1.7936    1.2294 O   0  0  0  0  0  0  0  0  0  0  0  0
    2.0567    0.8080    0.6766 C   0  0  0  0  0  0  0  0  0  0  0  0
    2.7565   -0.0465   -0.1677 N   0  0  0  0  0  0  0  0  0  0  0  0
    4.1242    0.0051   -0.5078 C   0  0  0  0  0  0  0  0  0  0  0  0
    4.5836   -0.9307   -1.4435 C   0  0  0  0  0  0  0  0  0  0  0  0
    5.9266   -0.9534   -1.8350 C   0  0  0  0  0  0  0  0  0  0  0  0
    6.8393   -0.0350   -1.3005 C   0  0  0  0  0  0  0  0  0  0  0  0
    8.2930   -0.0708   -1.7033 C   0  0  0  0  0  0  0  0  0  0  0  0
    8.4776   -0.4775   -2.9910 F   0  0  0  0  0  0  0  0  0  0  0  0
    8.9098    1.1396   -1.6053 F   0  0  0  0  0  0  0  0  0  0  0  0
    9.0214   -0.9266   -0.9347 F   0  0  0  0  0  0  0  0  0  0  0  0
    6.3799    0.8920   -0.3559 C   0  0  0  0  0  0  0  0  0  0  0  0
    5.0348    0.9126    0.0343 C   0  0  0  0  0  0  0  0  0  0  0  0
    0.6315    0.4319    0.8491 C   0  0  0  0  0  0  0  0  0  0  0  0
    0.0136   -0.8316    0.6307 C   0  0  0  0  0  0  0  0  0  0  0  0
   -1.3234   -0.6691    0.9312 C   0  0  0  0  0  0  0  0  0  0  0  0
   -2.4092   -1.6352    0.8920 C   0  0  0  0  0  0  0  0  0  0  0  0
   -3.1950   -1.7661   -0.2578 C   0  0  0  0  0  0  0  0  0  0  0  0
   -4.2405   -2.6903   -0.2927 C   0  0  0  0  0  0  0  0  0  0  0  0
   -4.5002   -3.4918    0.8181 C   0  0  0  0  0  0  0  0  0  0  0  0
   -3.7146   -3.3719    1.9640 C   0  0  0  0  0  0  0  0  0  0  0  0
   -2.6695   -2.4470    2.0011 C   0  0  0  0  0  0  0  0  0  0  0  0
   -1.4501    0.6482    1.3016 N   0  0  0  0  0  0  0  0  0  0  0  0
   -2.6547    1.3376    1.7567 C   0  0  0  0  0  0  0  0  0  0  0  0
   -3.5203    1.7948    0.6076 C   0  0  0  0  0  0  0  0  0  0  0  0
   -3.0497    2.7492   -0.3072 C   0  0  0  0  0  0  0  0  0  0  0  0
   -3.8535    3.1744   -1.3657 C   0  0  0  0  0  0  0  0  0  0  0  0
   -5.1373    2.6553   -1.5192 C   0  0  0  0  0  0  0  0  0  0  0  0
   -5.6196    1.7124   -0.6137 C   0  0  0  0  0  0  0  0  0  0  0  0
   -4.8177    1.2861    0.4464 C   0  0  0  0  0  0  0  0  0  0  0  0
   -0.2805    1.3219    1.2795 N   0  0  0  0  0  0  0  0  0  0  0  0
    2.2139   -0.7529   -0.6428 H   0  0  0  0  0  0  0  0  0  0  0  0
    3.9051   -1.6571   -1.8845 H   0  0  0  0  0  0  0  0  0  0  0  0
    6.2575   -1.6926   -2.5634 H   0  0  0  0  0  0  0  0  0  0  0  0
    7.0672    1.6123    0.0868 H   0  0  0  0  0  0  0  0  0  0  0  0
    4.7368    1.6535    0.7705 H   0  0  0  0  0  0  0  0  0  0  0  0
    0.4752   -1.7563    0.3152 H   0  0  0  0  0  0  0  0  0  0  0  0
   -3.0048   -1.1417   -1.1285 H   0  0  0  0  0  0  0  0  0  0  0  0
   -4.8516   -2.7832   -1.1869 H   0  0  0  0  0  0  0  0  0  0  0  0
   -5.3136   -4.2127    0.7896 H   0  0  0  0  0  0  0  0  0  0  0  0
   -3.9144   -4.0005    2.8281 H   0  0  0  0  0  0  0  0  0  0  0  0
   -2.0610   -2.3644    2.8989 H   0  0  0  0  0  0  0  0  0  0  0  0
   -3.1909    0.6545    2.4249 H   0  0  0  0  0  0  0  0  0  0  0  0
   -2.3466    2.2001    2.3599 H   0  0  0  0  0  0  0  0  0  0  0  0
   -2.0483    3.1654   -0.1993 H   0  0  0  0  0  0  0  0  0  0  0  0
   -3.4765    3.9128   -2.0688 H   0  0  0  0  0  0  0  0  0  0  0  0
   -5.7628    2.9884   -2.3432 H   0  0  0  0  0  0  0  0  0  0  0  0
   -6.6219    1.3090   -0.7322 H   0  0  0  0  0  0  0  0  0  0  0  0
   -5.2117    0.5463    1.1406 H   0  0  0  0  0  0  0  0  0  0  0  0
  1  2  2  0
  2  3  1  0
  3  4  1  0
  4  5  1  0
  5  6  2  0
  6  7  1  0
  7  8  1  0
  8  9  1  0
  8 10  1  0
  8 11  1  0
  7 12  2  0
 12 13  1  0
  2 14  1  0
 14 15  1  0
 15 16  2  0
 16 17  1  0
 17 18  2  0
 18 19  1  0
 19 20  2  0
 20 21  1  0
 21 22  2  0
 16 23  1  0
 23 24  1  0
 24 25  1  0
 25 26  2  0
 26 27  1  0
 27 28  2  0
 28 29  1  0
 29 30  2  0
 23 31  1  0
 13  4  2  0
 31 14  2  0
 22 17  1  0
 30 25  1  0
  3 32  1  0
  5 33  1  0
  6 34  1  0
 12 35  1  0
 13 36  1  0
 15 37  1  0
 18 38  1  0
 19 39  1  0
 20 40  1  0
 21 41  1  0
 22 42  1  0
 24 43  1  0
 24 44  1  0
 26 45  1  0
 27 46  1  0
 28 47  1  0
 29 48  1  0
 30 49  1  0
M  END
>  <_SMILES>  (12) 
O=C(Nc1ccc(C(F)(F)F)cc1)c1cc(-c2ccccc2)n(Cc2ccccc2)n1

$$$$

     RDKit          3D

 48 50  0  0  0  0  0  0  0  0999 V2000
    4.8953   -1.8317    0.9568 C   0  0  0  0  0  0  0  0  0  0  0  0
    4.7706   -0.6233    0.0162 C   0  0  0  0  0  0  0  0  0  0  0  0
    5.4554    0.5857    0.6814 C   0  0  0  0  0  0  0  0  0  0  0  0
    5.4927   -0.9069   -1.3114 C   0  0  0  0  0  0  0  0  0  0  0  0
    3.3593   -0.2755   -0.2051 N   0  0  0  0  0  0  0  0  0  0  0  0
    2.4297   -1.1059   -0.8155 C   0  0  0  0  0  0  0  0  0  0  0  0
    2.7255   -2.1997   -1.2879 O   0  0  0  0  0  0  0  0  0  0  0  0
    1.0496   -0.5704   -0.8323 C   0  0  0  0  0  0  0  0  0  0  0  0
    0.6200    0.7717   -0.6349 C   0  0  0  0  0  0  0  0  0  0  0  0
   -0.7553    0.7613   -0.7455 C   0  0  0  0  0  0  0  0  0  0  0  0
   -1.7053    1.8569   -0.6411 C   0  0  0  0  0  0  0  0  0  0  0  0
   -2.0180    2.6271   -1.7661 C   0  0  0  0  0  0  0  0  0  0  0  0
   -2.9337    3.6762   -1.6661 C   0  0  0  0  0  0  0  0  0  0  0  0
   -3.5367    3.9620   -0.4416 C   0  0  0  0  0  0  0  0  0  0  0  0
   -3.2229    3.2023    0.6846 C   0  0  0  0  0  0  0  0  0  0  0  0
   -2.3065    2.1540    0.5865 C   0  0  0  0  0  0  0  0  0  0  0  0
   -1.0845   -0.5503   -0.9910 N   0  0  0  0  0  0  0  0  0  0  0  0
   -2.4124   -1.1087   -1.2312 C   0  0  0  0  0  0  0  0  0  0  0  0
   -3.1597   -1.3809    0.0520 C   0  0  0  0  0  0  0  0  0  0  0  0
   -4.3573   -0.7078    0.3357 C   0  0  0  0  0  0  0  0  0  0  0  0
   -5.0509   -0.9634    1.5199 C   0  0  0  0  0  0  0  0  0  0  0  0
   -4.5598   -1.8981    2.4292 C   0  0  0  0  0  0  0  0  0  0  0  0
   -3.3756   -2.5794    2.1557 C   0  0  0  0  0  0  0  0  0  0  0  0
   -2.6801   -2.3250    0.9730 C   0  0  0  0  0  0  0  0  0  0  0  0
   -0.0103   -1.3643   -1.0675 N   0  0  0  0  0  0  0  0  0  0  0  0
    4.3679   -1.6511    1.9005 H   0  0  0  0  0  0  0  0  0  0  0  0
    5.9445   -2.0431    1.1924 H   0  0  0  0  0  0  0  0  0  0  0  0
    4.4706   -2.7391    0.5153 H   0  0  0  0  0  0  0  0  0  0  0  0
    4.9830    0.8296    1.6403 H   0  0  0  0  0  0  0  0  0  0  0  0
    5.3832    1.4776    0.0479 H   0  0  0  0  0  0  0  0  0  0  0  0
    6.5171    0.3917    0.8709 H   0  0  0  0  0  0  0  0  0  0  0  0
    5.1145   -1.8079   -1.8039 H   0  0  0  0  0  0  0  0  0  0  0  0
    5.3675   -0.0735   -2.0123 H   0  0  0  0  0  0  0  0  0  0  0  0
    6.5671   -1.0544   -1.1525 H   0  0  0  0  0  0  0  0  0  0  0  0
    2.9885    0.4892    0.3403 H   0  0  0  0  0  0  0  0  0  0  0  0
    1.2297    1.6451   -0.4529 H   0  0  0  0  0  0  0  0  0  0  0  0
   -1.5507    2.4151   -2.7251 H   0  0  0  0  0  0  0  0  0  0  0  0
   -3.1745    4.2720   -2.5428 H   0  0  0  0  0  0  0  0  0  0  0  0
   -4.2490    4.7796   -0.3641 H   0  0  0  0  0  0  0  0  0  0  0  0
   -3.6911    3.4246    1.6401 H   0  0  0  0  0  0  0  0  0  0  0  0
   -2.0724    1.5641    1.4705 H   0  0  0  0  0  0  0  0  0  0  0  0
   -2.9518   -0.4061   -1.8761 H   0  0  0  0  0  0  0  0  0  0  0  0
   -2.2935   -2.0391   -1.7995 H   0  0  0  0  0  0  0  0  0  0  0  0
   -4.7554    0.0287   -0.3596 H   0  0  0  0  0  0  0  0  0  0  0  0
   -5.9756   -0.4332    1.7324 H   0  0  0  0  0  0  0  0  0  0  0  0
   -5.1010   -2.0981    3.3502 H   0  0  0  0  0  0  0  0  0  0  0  0
   -2.9921   -3.3113    2.8620 H   0  0  0  0  0  0  0  0  0  0  0  0
   -1.7557   -2.8662    0.7723 H   0  0  0  0  0  0  0  0  0  0  0  0
  1  2  1  0
  2  3  1  0
  2  4  1  0
  2  5  1  0
  5  6  1  0
  6  7  2  0
  6  8  1  0
  8  9  1  0
  9 10  2  0
 10 11  1  0
 11 12  2  0
 12 13  1  0
 13 14  2  0
 14 15  1  0
 15 16  2  0
 10 17  1  0
 17 18  1  0
 18 19  1  0
 19 20  2  0
 20 21  1  0
 21 22  2  0
 22 23  1  0
 23 24  2  0
 17 25  1  0
 25  8  2  0
 16 11  1  0
 24 19  1  0
  1 26  1  0
  1 27  1  0
  1 28  1  0
  3 29  1  0
  3 30  1  0
  3 31  1  0
  4 32  1  0
  4 33  1  0
  4 34  1  0
  5 35  1  0
  9 36  1  0
 12 37  1  0
 13 38  1  0
 14 39  1  0
 15 40  1  0
 16 41  1  0
 18 42  1  0
 18 43  1  0
 20 44  1  0
 21 45  1  0
 22 46  1  0
 23 47  1  0
 24 48  1  0
M  END
>  <_SMILES>  (13) 
CC(C)(C)NC(=O)c1cc(-c2ccccc2)n(Cc2ccccc2)n1

$$$$

     RDKit          3D

 49 52  0  0  0  0  0  0  0  0999 V2000
   -1.9861   -2.2180    2.6131 O   0  0  0  0  0  0  0  0  0  0  0  0
   -1.8560   -1.2439    1.8785 C   0  0  0  0  0  0  0  0  0  0  0  0
   -2.7595   -0.2044    1.8115 N   0  0  0  0  0  0  0  0  0  0  0  0
   -4.0449   -0.2424    2.4766 C   0  0  0  0  0  0  0  0  0  0  0  0
   -4.6656    1.1475    2.5703 C   0  0  0  0  0  0  0  0  0  0  0  0
   -5.3361    1.3728    1.2161 C   0  0  0  0  0  0  0  0  0  0  0  0
   -5.5605   -0.0140    0.6128 C   0  0  0  0  0  0  0  0  0  0  0  0
   -5.0819   -1.0128    1.6627 C   0  0  0  0  0  0  0  0  0  0  0  0
   -0.7190   -1.0767    0.9598 C   0  0  0  0  0  0  0  0  0  0  0  0
    0.3897   -1.9438    0.8101 C   0  0  0  0  0  0  0  0  0  0  0  0
    1.1863   -1.3806   -0.1646 C   0  0  0  0  0  0  0  0  0  0  0  0
    2.4477   -1.8469   -0.7181 C   0  0  0  0  0  0  0  0  0  0  0  0
    2.4570   -2.7315   -1.8017 C   0  0  0  0  0  0  0  0  0  0  0  0
    3.6684   -3.1717   -2.3382 C   0  0  0  0  0  0  0  0  0  0  0  0
    4.8741   -2.7335   -1.7916 C   0  0  0  0  0  0  0  0  0  0  0  0
    4.8706   -1.8589   -0.7058 C   0  0  0  0  0  0  0  0  0  0  0  0
    3.6602   -1.4191   -0.1674 C   0  0  0  0  0  0  0  0  0  0  0  0
    0.5417   -0.2226   -0.5349 N   0  0  0  0  0  0  0  0  0  0  0  0
    0.9503    0.7325   -1.5621 C   0  0  0  0  0  0  0  0  0  0  0  0
    1.9844    1.7107   -1.0602 C   0  0  0  0  0  0  0  0  0  0  0  0
    1.6898    2.5925   -0.0091 C   0  0  0  0  0  0  0  0  0  0  0  0
    2.6477    3.4997    0.4460 C   0  0  0  0  0  0  0  0  0  0  0  0
    3.9078    3.5402   -0.1467 C   0  0  0  0  0  0  0  0  0  0  0  0
    4.2112    2.6752   -1.1960 C   0  0  0  0  0  0  0  0  0  0  0  0
    3.2547    1.7674   -1.6533 C   0  0  0  0  0  0  0  0  0  0  0  0
   -0.6326   -0.0283    0.1148 N   0  0  0  0  0  0  0  0  0  0  0  0
   -2.5755    0.4614    1.0646 H   0  0  0  0  0  0  0  0  0  0  0  0
   -3.9077   -0.6903    3.4666 H   0  0  0  0  0  0  0  0  0  0  0  0
   -5.4320    1.1561    3.3552 H   0  0  0  0  0  0  0  0  0  0  0  0
   -3.9391    1.9327    2.8023 H   0  0  0  0  0  0  0  0  0  0  0  0
   -4.6884    1.9649    0.5594 H   0  0  0  0  0  0  0  0  0  0  0  0
   -6.2763    1.9224    1.3289 H   0  0  0  0  0  0  0  0  0  0  0  0
   -4.9718   -0.1174   -0.3062 H   0  0  0  0  0  0  0  0  0  0  0  0
   -6.6099   -0.1806    0.3499 H   0  0  0  0  0  0  0  0  0  0  0  0
   -4.6911   -1.9275    1.2063 H   0  0  0  0  0  0  0  0  0  0  0  0
   -5.9248   -1.2906    2.3075 H   0  0  0  0  0  0  0  0  0  0  0  0
    0.5738   -2.8622    1.3513 H   0  0  0  0  0  0  0  0  0  0  0  0
    1.5223   -3.0856   -2.2305 H   0  0  0  0  0  0  0  0  0  0  0  0
    3.6713   -3.8610   -3.1788 H   0  0  0  0  0  0  0  0  0  0  0  0
    5.8172   -3.0793   -2.2074 H   0  0  0  0  0  0  0  0  0  0  0  0
    5.8093   -1.5203   -0.2750 H   0  0  0  0  0  0  0  0  0  0  0  0
    3.6685   -0.7358    0.6795 H   0  0  0  0  0  0  0  0  0  0  0  0
    1.3154    0.1553   -2.4189 H   0  0  0  0  0  0  0  0  0  0  0  0
    0.0571    1.2735   -1.8972 H   0  0  0  0  0  0  0  0  0  0  0  0
    0.7103    2.5728    0.4666 H   0  0  0  0  0  0  0  0  0  0  0  0
    2.4096    4.1739    1.2648 H   0  0  0  0  0  0  0  0  0  0  0  0
    4.6533    4.2463    0.2094 H   0  0  0  0  0  0  0  0  0  0  0  0
    5.1946    2.7062   -1.6580 H   0  0  0  0  0  0  0  0  0  0  0  0
    3.5144    1.0960   -2.4697 H   0  0  0  0  0  0  0  0  0  0  0  0
  1  2  2  0
  2  3  1  0
  3  4  1  0
  4  5  1  0
  5  6  1  0
  6  7  1  0
  7  8  1  0
  2  9  1  0
  9 10  1  0
 10 11  2  0
 11 12  1  0
 12 13  2  0
 13 14  1  0
 14 15  2  0
 15 16  1  0
 16 17  2  0
 11 18  1  0
 18 19  1  0
 19 20  1  0
 20 21  2  0
 21 22  1  0
 22 23  2  0
 23 24  1  0
 24 25  2  0
 18 26  1  0
  8  4  1  0
 26  9  2  0
 17 12  1  0
 25 20  1  0
  3 27  1  0
  4 28  1  0
  5 29  1  0
  5 30  1  0
  6 31  1  0
  6 32  1  0
  7 33  1  0
  7 34  1  0
  8 35  1  0
  8 36  1  0
 10 37  1  0
 13 38  1  0
 14 39  1  0
 15 40  1  0
 16 41  1  0
 17 42  1  0
 19 43  1  0
 19 44  1  0
 21 45  1  0
 22 46  1  0
 23 47  1  0
 24 48  1  0
 25 49  1  0
M  END
>  <_SMILES>  (14) 
O=C(NC1CCCC1)c1cc(-c2ccccc2)n(Cc2ccccc2)n1

$$$$

     RDKit          3D

 60 65  0  0  0  0  0  0  0  0999 V2000
    1.3355    1.9783   -1.4265 O   0  0  0  0  0  0  0  0  0  0  0  0
    0.9885    1.1381   -0.6041 C   0  0  0  0  0  0  0  0  0  0  0  0
    1.8143    0.1717   -0.0728 N   0  0  0  0  0  0  0  0  0  0  0  0
    3.2261   -0.0237   -0.3842 C   0  0  2  0  0  0  0  0  0  0  0  0
    3.7515   -1.2264    0.4440 C   0  0  0  0  0  0  0  0  0  0  0  0
    5.2397   -1.4836    0.1586 C   0  0  1  0  0  0  0  0  0  0  0  0
    5.4212   -1.7859   -1.3371 C   0  0  0  0  0  0  0  0  0  0  0  0
    4.9303   -0.5958   -2.1764 C   0  0  2  0  0  0  0  0  0  0  0  0
    5.7366    0.6585   -1.7984 C   0  0  0  0  0  0  0  0  0  0  0  0
    5.5603    0.9702   -0.3025 C   0  0  2  0  0  0  0  0  0  0  0  0
    6.0475   -0.2290    0.5261 C   0  0  0  0  0  0  0  0  0  0  0  0
    4.0702    1.2194   -0.0093 C   0  0  0  0  0  0  0  0  0  0  0  0
    3.4401   -0.3470   -1.8837 C   0  0  0  0  0  0  0  0  0  0  0  0
   -0.3841    1.0639   -0.0756 C   0  0  0  0  0  0  0  0  0  0  0  0
   -1.4729    1.9036   -0.4117 C   0  0  0  0  0  0  0  0  0  0  0  0
   -2.5448    1.4550    0.3309 C   0  0  0  0  0  0  0  0  0  0  0  0
   -3.9112    1.9500    0.3836 C   0  0  0  0  0  0  0  0  0  0  0  0
   -4.2589    2.9634    1.2830 C   0  0  0  0  0  0  0  0  0  0  0  0
   -5.5730    3.4316    1.3392 C   0  0  0  0  0  0  0  0  0  0  0  0
   -6.5428    2.8924    0.4946 C   0  0  0  0  0  0  0  0  0  0  0  0
   -6.1997    1.8884   -0.4099 C   0  0  0  0  0  0  0  0  0  0  0  0
   -4.8860    1.4203   -0.4683 C   0  0  0  0  0  0  0  0  0  0  0  0
   -2.0658    0.3821    1.0472 N   0  0  0  0  0  0  0  0  0  0  0  0
   -2.7921   -0.4349    2.0163 C   0  0  0  0  0  0  0  0  0  0  0  0
   -3.6263   -1.5054    1.3556 C   0  0  0  0  0  0  0  0  0  0  0  0
   -5.0208   -1.5146    1.5092 C   0  0  0  0  0  0  0  0  0  0  0  0
   -5.7945   -2.5066    0.9044 C   0  0  0  0  0  0  0  0  0  0  0  0
   -5.1840   -3.5030    0.1457 C   0  0  0  0  0  0  0  0  0  0  0  0
   -3.7994   -3.5098   -0.0088 C   0  0  0  0  0  0  0  0  0  0  0  0
   -3.0238   -2.5188    0.5945 C   0  0  0  0  0  0  0  0  0  0  0  0
   -0.7487    0.1376    0.8355 N   0  0  0  0  0  0  0  0  0  0  0  0
    1.3526   -0.4352    0.6014 H   0  0  0  0  0  0  0  0  0  0  0  0
    3.1690   -2.1280    0.2115 H   0  0  0  0  0  0  0  0  0  0  0  0
    3.6077   -1.0377    1.5164 H   0  0  0  0  0  0  0  0  0  0  0  0
    5.5888   -2.3353    0.7530 H   0  0  0  0  0  0  0  0  0  0  0  0
    4.8632   -2.6908   -1.6073 H   0  0  0  0  0  0  0  0  0  0  0  0
    6.4776   -1.9869   -1.5534 H   0  0  0  0  0  0  0  0  0  0  0  0
    5.0653   -0.8148   -3.2415 H   0  0  0  0  0  0  0  0  0  0  0  0
    5.4049    1.5130   -2.4010 H   0  0  0  0  0  0  0  0  0  0  0  0
    6.7985    0.5024   -2.0250 H   0  0  0  0  0  0  0  0  0  0  0  0
    6.1418    1.8610   -0.0396 H   0  0  0  0  0  0  0  0  0  0  0  0
    5.9401   -0.0137    1.5963 H   0  0  0  0  0  0  0  0  0  0  0  0
    7.1147   -0.4031    0.3419 H   0  0  0  0  0  0  0  0  0  0  0  0
    3.9340    1.4619    1.0529 H   0  0  0  0  0  0  0  0  0  0  0  0
    3.7380    2.1012   -0.5700 H   0  0  0  0  0  0  0  0  0  0  0  0
    2.8514   -1.2293   -2.1674 H   0  0  0  0  0  0  0  0  0  0  0  0
    3.0841    0.4752   -2.5158 H   0  0  0  0  0  0  0  0  0  0  0  0
   -1.4641    2.7305   -1.1091 H   0  0  0  0  0  0  0  0  0  0  0  0
   -3.5086    3.3965    1.9404 H   0  0  0  0  0  0  0  0  0  0  0  0
   -5.8387    4.2210    2.0377 H   0  0  0  0  0  0  0  0  0  0  0  0
   -7.5651    3.2597    0.5362 H   0  0  0  0  0  0  0  0  0  0  0  0
   -6.9530    1.4704   -1.0726 H   0  0  0  0  0  0  0  0  0  0  0  0
   -4.6288    0.6354   -1.1768 H   0  0  0  0  0  0  0  0  0  0  0  0
   -2.0588   -0.8957    2.6891 H   0  0  0  0  0  0  0  0  0  0  0  0
   -3.4026    0.2424    2.6237 H   0  0  0  0  0  0  0  0  0  0  0  0
   -5.5182   -0.7415    2.0919 H   0  0  0  0  0  0  0  0  0  0  0  0
   -6.8748   -2.5004    1.0242 H   0  0  0  0  0  0  0  0  0  0  0  0
   -5.7871   -4.2746   -0.3256 H   0  0  0  0  0  0  0  0  0  0  0  0
   -3.3219   -4.2865   -0.6007 H   0  0  0  0  0  0  0  0  0  0  0  0
   -1.9430   -2.5376    0.4620 H   0  0  0  0  0  0  0  0  0  0  0  0
  1  2  2  0
  2  3  1  0
  4  3  1  6
  4  5  1  0
  5  6  1  0
  6  7  1  0
  7  8  1  0
  8  9  1  0
  9 10  1  0
 10 11  1  0
 10 12  1  0
  8 13  1  0
  2 14  1  0
 14 15  1  0
 15 16  2  0
 16 17  1  0
 17 18  2  0
 18 19  1  0
 19 20  2  0
 20 21  1  0
 21 22  2  0
 16 23  1  0
 23 24  1  0
 24 25  1  0
 25 26  2  0
 26 27  1  0
 27 28  2  0
 28 29  1  0
 29 30  2  0
 23 31  1  0
 12  4  1  0
 31 14  2  0
 13  4  1  0
 22 17  1  0
 30 25  1  0
 11  6  1  0
  3 32  1  0
  5 33  1  0
  5 34  1  0
  6 35  1  1
  7 36  1  0
  7 37  1  0
  8 38  1  6
  9 39  1  0
  9 40  1  0
 10 41  1  1
 11 42  1  0
 11 43  1  0
 12 44  1  0
 12 45  1  0
 13 46  1  0
 13 47  1  0
 15 48  1  0
 18 49  1  0
 19 50  1  0
 20 51  1  0
 21 52  1  0
 22 53  1  0
 24 54  1  0
 24 55  1  0
 26 56  1  0
 27 57  1  0
 28 58  1  0
 29 59  1  0
 30 60  1  0
M  END
>  <_SMILES>  (15) 
O=C(N[C@]12C[C@H]3C[C@H](C[C@H](C3)C1)C2)c1cc(-c2ccccc2)n(Cc2ccccc2)n1

$$$$

     RDKit          3D

 50 54  0  0  0  0  0  0  0  0999 V2000
    4.4147   -2.8561   -0.0806 C   0  0  0  0  0  0  0  0  0  0  0  0
    3.3473   -1.8835   -0.0192 N   0  0  0  0  0  0  0  0  0  0  0  0
    2.0820   -2.3227    0.0937 N   0  0  0  0  0  0  0  0  0  0  0  0
    1.3336   -1.2105    0.1992 C   0  0  0  0  0  0  0  0  0  0  0  0
   -0.1361   -1.2759    0.3630 C   0  0  0  0  0  0  0  0  0  0  0  0
   -0.7224   -2.2934    0.7206 O   0  0  0  0  0  0  0  0  0  0  0  0
   -0.7977   -0.0937    0.0624 N   0  0  0  0  0  0  0  0  0  0  0  0
   -2.2551    0.0674    0.0633 C   0  0  2  0  0  0  0  0  0  0  0  0
   -2.9320   -0.8426   -0.9912 C   0  0  0  0  0  0  0  0  0  0  0  0
   -4.4532   -0.6098   -1.0105 C   0  0  1  0  0  0  0  0  0  0  0  0
   -5.0304   -0.9134    0.3827 C   0  0  0  0  0  0  0  0  0  0  0  0
   -4.3937    0.0123    1.4334 C   0  0  2  0  0  0  0  0  0  0  0  0
   -4.6801    1.4751    1.0612 C   0  0  0  0  0  0  0  0  0  0  0  0
   -4.0968    1.7861   -0.3255 C   0  0  2  0  0  0  0  0  0  0  0  0
   -4.7384    0.8574   -1.3682 C   0  0  0  0  0  0  0  0  0  0  0  0
   -2.5795    1.5429   -0.2998 C   0  0  0  0  0  0  0  0  0  0  0  0
   -2.8721   -0.2192    1.4561 C   0  0  0  0  0  0  0  0  0  0  0  0
    2.1655   -0.0575    0.1340 C   0  0  0  0  0  0  0  0  0  0  0  0
    3.4576   -0.5151   -0.0377 C   0  0  0  0  0  0  0  0  0  0  0  0
    4.7035    0.2303   -0.1694 C   0  0  0  0  0  0  0  0  0  0  0  0
    5.1114    1.1009    0.8482 C   0  0  0  0  0  0  0  0  0  0  0  0
    6.3022    1.8203    0.7274 C   0  0  0  0  0  0  0  0  0  0  0  0
    7.0897    1.6797   -0.4141 C   0  0  0  0  0  0  0  0  0  0  0  0
    6.6865    0.8228   -1.4368 C   0  0  0  0  0  0  0  0  0  0  0  0
    5.4964    0.1020   -1.3165 C   0  0  0  0  0  0  0  0  0  0  0  0
    4.6808   -3.0035   -1.1299 H   0  0  0  0  0  0  0  0  0  0  0  0
    5.2708   -2.4893    0.4906 H   0  0  0  0  0  0  0  0  0  0  0  0
    4.0694   -3.7977    0.3552 H   0  0  0  0  0  0  0  0  0  0  0  0
   -0.2628    0.6072   -0.4294 H   0  0  0  0  0  0  0  0  0  0  0  0
   -2.7348   -1.9002   -0.7802 H   0  0  0  0  0  0  0  0  0  0  0  0
   -2.5114   -0.6448   -1.9859 H   0  0  0  0  0  0  0  0  0  0  0  0
   -4.9172   -1.2676   -1.7540 H   0  0  0  0  0  0  0  0  0  0  0  0
   -4.8444   -1.9621    0.6450 H   0  0  0  0  0  0  0  0  0  0  0  0
   -6.1187   -0.7757    0.3742 H   0  0  0  0  0  0  0  0  0  0  0  0
   -4.8144   -0.2058    2.4214 H   0  0  0  0  0  0  0  0  0  0  0  0
   -5.7618    1.6577    1.0627 H   0  0  0  0  0  0  0  0  0  0  0  0
   -4.2430    2.1456    1.8113 H   0  0  0  0  0  0  0  0  0  0  0  0
   -4.2999    2.8308   -0.5862 H   0  0  0  0  0  0  0  0  0  0  0  0
   -4.3431    1.0837   -2.3661 H   0  0  0  0  0  0  0  0  0  0  0  0
   -5.8210    1.0299   -1.4081 H   0  0  0  0  0  0  0  0  0  0  0  0
   -2.1506    1.7936   -1.2794 H   0  0  0  0  0  0  0  0  0  0  0  0
   -2.1072    2.2216    0.4231 H   0  0  0  0  0  0  0  0  0  0  0  0
   -2.4071    0.4247    2.2141 H   0  0  0  0  0  0  0  0  0  0  0  0
   -2.6784   -1.2508    1.7704 H   0  0  0  0  0  0  0  0  0  0  0  0
    1.8683    0.9791    0.2033 H   0  0  0  0  0  0  0  0  0  0  0  0
    4.5094    1.2174    1.7466 H   0  0  0  0  0  0  0  0  0  0  0  0
    6.6147    2.4901    1.5246 H   0  0  0  0  0  0  0  0  0  0  0  0
    8.0158    2.2413   -0.5082 H   0  0  0  0  0  0  0  0  0  0  0  0
    7.2960    0.7197   -2.3310 H   0  0  0  0  0  0  0  0  0  0  0  0
    5.1877   -0.5488   -2.1313 H   0  0  0  0  0  0  0  0  0  0  0  0
  1  2  1  0
  2  3  1  0
  3  4  2  0
  4  5  1  0
  5  6  2  0
  5  7  1  0
  8  7  1  1
  8  9  1  0
  9 10  1  0
 10 11  1  0
 11 12  1  0
 12 13  1  0
 13 14  1  0
 14 15  1  0
 14 16  1  0
 12 17  1  0
  4 18  1  0
 18 19  2  0
 19 20  1  0
 20 21  2  0
 21 22  1  0
 22 23  2  0
 23 24  1  0
 24 25  2  0
 19  2  1  0
 25 20  1  0
 16  8  1  0
 17  8  1  0
 15 10  1  0
  1 26  1  0
  1 27  1  0
  1 28  1  0
  7 29  1  0
  9 30  1  0
  9 31  1  0
 10 32  1  6
 11 33  1  0
 11 34  1  0
 12 35  1  1
 13 36  1  0
 13 37  1  0
 14 38  1  6
 15 39  1  0
 15 40  1  0
 16 41  1  0
 16 42  1  0
 17 43  1  0
 17 44  1  0
 18 45  1  0
 21 46  1  0
 22 47  1  0
 23 48  1  0
 24 49  1  0
 25 50  1  0
M  END
>  <_SMILES>  (16) 
Cn1nc(C(=O)N[C@]23C[C@H]4C[C@H](C[C@H](C4)C2)C3)cc1-c1ccccc1

$$$$

     RDKit          3D

 53 57  0  0  0  0  0  0  0  0999 V2000
    3.7563   -0.2561   -2.6686 C   0  0  0  0  0  0  0  0  0  0  0  0
    2.8007    0.1012   -1.5930 C   0  0  0  0  0  0  0  0  0  0  0  0
    1.4660   -0.2092   -1.4399 C   0  0  0  0  0  0  0  0  0  0  0  0
    1.0569    0.3833   -0.2119 C   0  0  0  0  0  0  0  0  0  0  0  0
   -0.2772    0.3490    0.4300 C   0  0  0  0  0  0  0  0  0  0  0  0
   -0.4561    0.6355    1.6105 O   0  0  0  0  0  0  0  0  0  0  0  0
   -1.3125   -0.0180   -0.4179 N   0  0  0  0  0  0  0  0  0  0  0  0
   -2.7289   -0.0448   -0.0400 C   0  0  2  0  0  0  0  0  0  0  0  0
   -3.2448    1.3634    0.3463 C   0  0  0  0  0  0  0  0  0  0  0  0
   -4.7465    1.3169    0.6802 C   0  0  1  0  0  0  0  0  0  0  0  0
   -5.5257    0.8258   -0.5500 C   0  0  0  0  0  0  0  0  0  0  0  0
   -5.0506   -0.5812   -0.9450 C   0  0  2  0  0  0  0  0  0  0  0  0
   -5.2849   -1.5458    0.2275 C   0  0  0  0  0  0  0  0  0  0  0  0
   -4.5035   -1.0693    1.4615 C   0  0  2  0  0  0  0  0  0  0  0  0
   -4.9763    0.3426    1.8482 C   0  0  0  0  0  0  0  0  0  0  0  0
   -3.0014   -1.0264    1.1283 C   0  0  0  0  0  0  0  0  0  0  0  0
   -3.5484   -0.5342   -1.2660 C   0  0  0  0  0  0  0  0  0  0  0  0
    2.0927    1.0275    0.3543 N   0  0  0  0  0  0  0  0  0  0  0  0
    3.1341    0.8266   -0.4766 N   0  0  0  0  0  0  0  0  0  0  0  0
    4.4279    1.4152   -0.1380 C   0  0  0  0  0  0  0  0  0  0  0  0
    5.4239    0.3848    0.3367 C   0  0  0  0  0  0  0  0  0  0  0  0
    5.1535   -0.4069    1.4638 C   0  0  0  0  0  0  0  0  0  0  0  0
    6.0814   -1.3493    1.9086 C   0  0  0  0  0  0  0  0  0  0  0  0
    7.2926   -1.5060    1.2383 C   0  0  0  0  0  0  0  0  0  0  0  0
    7.5788   -0.7188    0.1247 C   0  0  0  0  0  0  0  0  0  0  0  0
    6.6519    0.2246   -0.3228 C   0  0  0  0  0  0  0  0  0  0  0  0
    4.4798   -0.9957   -2.3126 H   0  0  0  0  0  0  0  0  0  0  0  0
    3.2302   -0.6895   -3.5256 H   0  0  0  0  0  0  0  0  0  0  0  0
    4.2987    0.6248   -3.0251 H   0  0  0  0  0  0  0  0  0  0  0  0
    0.8734   -0.8058   -2.1184 H   0  0  0  0  0  0  0  0  0  0  0  0
   -1.1032   -0.0290   -1.4052 H   0  0  0  0  0  0  0  0  0  0  0  0
   -2.6982    1.7570    1.2114 H   0  0  0  0  0  0  0  0  0  0  0  0
   -3.0668    2.0690   -0.4758 H   0  0  0  0  0  0  0  0  0  0  0  0
   -5.0926    2.3180    0.9606 H   0  0  0  0  0  0  0  0  0  0  0  0
   -5.3809    1.5196   -1.3872 H   0  0  0  0  0  0  0  0  0  0  0  0
   -6.6006    0.8108   -0.3314 H   0  0  0  0  0  0  0  0  0  0  0  0
   -5.6065   -0.9259   -1.8240 H   0  0  0  0  0  0  0  0  0  0  0  0
   -6.3555   -1.6010    0.4596 H   0  0  0  0  0  0  0  0  0  0  0  0
   -4.9667   -2.5582   -0.0500 H   0  0  0  0  0  0  0  0  0  0  0  0
   -4.6763   -1.7581    2.2959 H   0  0  0  0  0  0  0  0  0  0  0  0
   -4.4349    0.6889    2.7372 H   0  0  0  0  0  0  0  0  0  0  0  0
   -6.0408    0.3207    2.1124 H   0  0  0  0  0  0  0  0  0  0  0  0
   -2.4499   -0.7331    2.0286 H   0  0  0  0  0  0  0  0  0  0  0  0
   -2.6476   -2.0321    0.8660 H   0  0  0  0  0  0  0  0  0  0  0  0
   -3.3766    0.1297   -2.1241 H   0  0  0  0  0  0  0  0  0  0  0  0
   -3.2040   -1.5298   -1.5765 H   0  0  0  0  0  0  0  0  0  0  0  0
    4.2700    2.1685    0.6430 H   0  0  0  0  0  0  0  0  0  0  0  0
    4.7806    1.9412   -1.0322 H   0  0  0  0  0  0  0  0  0  0  0  0
    4.2117   -0.2940    2.0011 H   0  0  0  0  0  0  0  0  0  0  0  0
    5.8573   -1.9592    2.7801 H   0  0  0  0  0  0  0  0  0  0  0  0
    8.0147   -2.2396    1.5871 H   0  0  0  0  0  0  0  0  0  0  0  0
    8.5267   -0.8384   -0.3936 H   0  0  0  0  0  0  0  0  0  0  0  0
    6.8980    0.8323   -1.1907 H   0  0  0  0  0  0  0  0  0  0  0  0
  1  2  1  0
  2  3  2  0
  3  4  1  0
  4  5  1  0
  5  6  2  0
  5  7  1  0
  8  7  1  6
  8  9  1  0
  9 10  1  0
 10 11  1  0
 11 12  1  0
 12 13  1  0
 13 14  1  0
 14 15  1  0
 14 16  1  0
 12 17  1  0
  4 18  2  0
 18 19  1  0
 19 20  1  0
 20 21  1  0
 21 22  2  0
 22 23  1  0
 23 24  2  0
 24 25  1  0
 25 26  2  0
 19  2  1  0
 26 21  1  0
 16  8  1  0
 17  8  1  0
 15 10  1  0
  1 27  1  0
  1 28  1  0
  1 29  1  0
  3 30  1  0
  7 31  1  0
  9 32  1  0
  9 33  1  0
 10 34  1  1
 11 35  1  0
 11 36  1  0
 12 37  1  6
 13 38  1  0
 13 39  1  0
 14 40  1  1
 15 41  1  0
 15 42  1  0
 16 43  1  0
 16 44  1  0
 17 45  1  0
 17 46  1  0
 20 47  1  0
 20 48  1  0
 22 49  1  0
 23 50  1  0
 24 51  1  0
 25 52  1  0
 26 53  1  0
M  END
>  <_SMILES>  (17) 
Cc1cc(C(=O)N[C@]23C[C@H]4C[C@H](C[C@H](C4)C2)C3)nn1Cc1ccccc1

$$$$

     RDKit          3D

 50 54  0  0  0  0  0  0  0  0999 V2000
    3.7907   -2.0708   -0.8033 C   0  0  0  0  0  0  0  0  0  0  0  0
    3.0594   -0.8463   -0.5666 N   0  0  0  0  0  0  0  0  0  0  0  0
    1.7221   -0.9137   -0.3977 N   0  0  0  0  0  0  0  0  0  0  0  0
    1.3407    0.3739   -0.2714 C   0  0  0  0  0  0  0  0  0  0  0  0
   -0.0685    0.7563   -0.0812 C   0  0  0  0  0  0  0  0  0  0  0  0
   -0.4258    1.9237    0.0295 O   0  0  0  0  0  0  0  0  0  0  0  0
   -0.9136   -0.3309   -0.0452 N   0  0  0  0  0  0  0  0  0  0  0  0
   -2.3615   -0.2933    0.1300 C   0  0  2  0  0  0  0  0  0  0  0  0
   -3.0543    0.4889   -1.0133 C   0  0  0  0  0  0  0  0  0  0  0  0
   -4.5823    0.4732   -0.8313 C   0  0  1  0  0  0  0  0  0  0  0  0
   -5.0814   -0.9802   -0.8508 C   0  0  0  0  0  0  0  0  0  0  0  0
   -4.4249   -1.7758    0.2884 C   0  0  2  0  0  0  0  0  0  0  0  0
   -4.7845   -1.1280    1.6347 C   0  0  0  0  0  0  0  0  0  0  0  0
   -4.2837    0.3245    1.6686 C   0  0  2  0  0  0  0  0  0  0  0  0
   -4.9376    1.1135    0.5214 C   0  0  0  0  0  0  0  0  0  0  0  0
   -2.7555    0.3402    1.4873 C   0  0  0  0  0  0  0  0  0  0  0  0
   -2.8988   -1.7490    0.1076 C   0  0  0  0  0  0  0  0  0  0  0  0
    2.4569    1.2414   -0.3475 C   0  0  0  0  0  0  0  0  0  0  0  0
    3.5635    0.4320   -0.5133 C   0  0  0  0  0  0  0  0  0  0  0  0
    4.9701    0.7938   -0.6431 C   0  0  0  0  0  0  0  0  0  0  0  0
    5.9216    0.3116    0.2673 C   0  0  0  0  0  0  0  0  0  0  0  0
    7.2656    0.6679    0.1366 C   0  0  0  0  0  0  0  0  0  0  0  0
    7.6542    1.5093   -0.8991 C   0  0  0  0  0  0  0  0  0  0  0  0
    8.9434    1.8497   -1.0236 F   0  0  0  0  0  0  0  0  0  0  0  0
    6.7242    2.0055   -1.8046 C   0  0  0  0  0  0  0  0  0  0  0  0
    5.3799    1.6507   -1.6745 C   0  0  0  0  0  0  0  0  0  0  0  0
    4.2198   -2.3998    0.1460 H   0  0  0  0  0  0  0  0  0  0  0  0
    4.5736   -1.8870   -1.5427 H   0  0  0  0  0  0  0  0  0  0  0  0
    3.1045   -2.8301   -1.1883 H   0  0  0  0  0  0  0  0  0  0  0  0
   -0.4368   -1.2237   -0.1538 H   0  0  0  0  0  0  0  0  0  0  0  0
   -2.7893    0.0512   -1.9847 H   0  0  0  0  0  0  0  0  0  0  0  0
   -2.7082    1.5290   -1.0411 H   0  0  0  0  0  0  0  0  0  0  0  0
   -5.0561    1.0369   -1.6428 H   0  0  0  0  0  0  0  0  0  0  0  0
   -4.8465   -1.4444   -1.8165 H   0  0  0  0  0  0  0  0  0  0  0  0
   -6.1728   -1.0033   -0.7435 H   0  0  0  0  0  0  0  0  0  0  0  0
   -4.7818   -2.8116    0.2694 H   0  0  0  0  0  0  0  0  0  0  0  0
   -5.8708   -1.1536    1.7848 H   0  0  0  0  0  0  0  0  0  0  0  0
   -4.3359   -1.6986    2.4573 H   0  0  0  0  0  0  0  0  0  0  0  0
   -4.5457    0.7829    2.6287 H   0  0  0  0  0  0  0  0  0  0  0  0
   -6.0266    1.1301    0.6525 H   0  0  0  0  0  0  0  0  0  0  0  0
   -4.5985    2.1565    0.5429 H   0  0  0  0  0  0  0  0  0  0  0  0
   -2.2760   -0.2043    2.3114 H   0  0  0  0  0  0  0  0  0  0  0  0
   -2.3980    1.3746    1.5544 H   0  0  0  0  0  0  0  0  0  0  0  0
   -2.6298   -2.2360   -0.8393 H   0  0  0  0  0  0  0  0  0  0  0  0
   -2.4219   -2.3396    0.9013 H   0  0  0  0  0  0  0  0  0  0  0  0
    2.4430    2.3205   -0.2717 H   0  0  0  0  0  0  0  0  0  0  0  0
    5.6219   -0.3287    1.0938 H   0  0  0  0  0  0  0  0  0  0  0  0
    8.0081    0.3024    0.8387 H   0  0  0  0  0  0  0  0  0  0  0  0
    7.0489    2.6657   -2.6024 H   0  0  0  0  0  0  0  0  0  0  0  0
    4.6552    2.0428   -2.3852 H   0  0  0  0  0  0  0  0  0  0  0  0
  1  2  1  0
  2  3  1  0
  3  4  2  0
  4  5  1  0
  5  6  2  0
  5  7  1  0
  8  7  1  6
  8  9  1  0
  9 10  1  0
 10 11  1  0
 11 12  1  0
 12 13  1  0
 13 14  1  0
 14 15  1  0
 14 16  1  0
 12 17  1  0
  4 18  1  0
 18 19  2  0
 19 20  1  0
 20 21  1  0
 21 22  2  0
 22 23  1  0
 23 24  1  0
 23 25  2  0
 25 26  1  0
 19  2  1  0
 26 20  2  0
 16  8  1  0
 17  8  1  0
 15 10  1  0
  1 27  1  0
  1 28  1  0
  1 29  1  0
  7 30  1  0
  9 31  1  0
  9 32  1  0
 10 33  1  6
 11 34  1  0
 11 35  1  0
 12 36  1  1
 13 37  1  0
 13 38  1  0
 14 39  1  1
 15 40  1  0
 15 41  1  0
 16 42  1  0
 16 43  1  0
 17 44  1  0
 17 45  1  0
 18 46  1  0
 21 47  1  0
 22 48  1  0
 25 49  1  0
 26 50  1  0
M  END
>  <_SMILES>  (18) 
Cn1nc(C(=O)N[C@]23C[C@H]4C[C@H](C[C@H](C4)C2)C3)cc1-c1ccc(F)cc1

$$$$

     RDKit          3D

 54 59  0  0  0  0  0  0  0  0999 V2000
   -0.7968   -1.8898   -0.9875 O   0  0  0  0  0  0  0  0  0  0  0  0
   -0.4135   -0.8261   -0.5145 C   0  0  0  0  0  0  0  0  0  0  0  0
   -1.2407    0.1657   -0.0358 N   0  0  0  0  0  0  0  0  0  0  0  0
   -2.6992    0.1323   -0.0051 C   0  0  2  0  0  0  0  0  0  0  0  0
   -3.2097    1.4595    0.6164 C   0  0  0  0  0  0  0  0  0  0  0  0
   -4.7453    1.4850    0.6765 C   0  0  1  0  0  0  0  0  0  0  0  0
   -5.3077    1.3476   -0.7471 C   0  0  0  0  0  0  0  0  0  0  0  0
   -4.8350    0.0260   -1.3729 C   0  0  2  0  0  0  0  0  0  0  0  0
   -5.3216   -1.1482   -0.5066 C   0  0  0  0  0  0  0  0  0  0  0  0
   -4.7626   -1.0203    0.9208 C   0  0  2  0  0  0  0  0  0  0  0  0
   -5.2358    0.3074    1.5334 C   0  0  0  0  0  0  0  0  0  0  0  0
   -3.2248   -1.0357    0.8656 C   0  0  0  0  0  0  0  0  0  0  0  0
   -3.2971    0.0108   -1.4286 C   0  0  0  0  0  0  0  0  0  0  0  0
    1.0126   -0.4804   -0.4003 C   0  0  0  0  0  0  0  0  0  0  0  0
    2.1176   -1.2722   -0.8008 C   0  0  0  0  0  0  0  0  0  0  0  0
    3.2474   -0.5309   -0.5104 C   0  0  0  0  0  0  0  0  0  0  0  0
    4.6546   -0.8584   -0.7116 C   0  0  0  0  0  0  0  0  0  0  0  0
    5.1856   -2.0304   -0.1582 C   0  0  0  0  0  0  0  0  0  0  0  0
    6.5304   -2.3566   -0.3465 C   0  0  0  0  0  0  0  0  0  0  0  0
    7.3532   -1.5180   -1.0960 C   0  0  0  0  0  0  0  0  0  0  0  0
    6.8318   -0.3559   -1.6614 C   0  0  0  0  0  0  0  0  0  0  0  0
    5.4870   -0.0286   -1.4731 C   0  0  0  0  0  0  0  0  0  0  0  0
    2.7641    0.6158    0.0735 N   0  0  0  0  0  0  0  0  0  0  0  0
    3.5989    1.7119    0.6240 C   0  0  0  0  0  0  0  0  0  0  0  0
    4.5455    1.5066    1.7842 C   0  0  0  0  0  0  0  0  0  0  0  0
    3.3113    2.3358    1.9714 C   0  0  0  0  0  0  0  0  0  0  0  0
    1.4220    0.6912    0.1260 N   0  0  0  0  0  0  0  0  0  0  0  0
   -0.7443    0.9800    0.3207 H   0  0  0  0  0  0  0  0  0  0  0  0
   -2.8482    2.3147    0.0296 H   0  0  0  0  0  0  0  0  0  0  0  0
   -2.7979    1.5861    1.6267 H   0  0  0  0  0  0  0  0  0  0  0  0
   -5.0830    2.4293    1.1179 H   0  0  0  0  0  0  0  0  0  0  0  0
   -4.9788    2.1932   -1.3636 H   0  0  0  0  0  0  0  0  0  0  0  0
   -6.4039    1.3795   -0.7218 H   0  0  0  0  0  0  0  0  0  0  0  0
   -5.2416   -0.0689   -2.3860 H   0  0  0  0  0  0  0  0  0  0  0  0
   -5.0021   -2.0991   -0.9504 H   0  0  0  0  0  0  0  0  0  0  0  0
   -6.4181   -1.1626   -0.4786 H   0  0  0  0  0  0  0  0  0  0  0  0
   -5.1180   -1.8566    1.5331 H   0  0  0  0  0  0  0  0  0  0  0  0
   -4.8552    0.4045    2.5575 H   0  0  0  0  0  0  0  0  0  0  0  0
   -6.3307    0.3213    1.5980 H   0  0  0  0  0  0  0  0  0  0  0  0
   -2.8909   -2.0013    0.4674 H   0  0  0  0  0  0  0  0  0  0  0  0
   -2.8139   -0.9641    1.8812 H   0  0  0  0  0  0  0  0  0  0  0  0
   -2.9381    0.8340   -2.0604 H   0  0  0  0  0  0  0  0  0  0  0  0
   -2.9660   -0.9149   -1.9141 H   0  0  0  0  0  0  0  0  0  0  0  0
    2.0803   -2.2522   -1.2578 H   0  0  0  0  0  0  0  0  0  0  0  0
    4.5572   -2.6952    0.4304 H   0  0  0  0  0  0  0  0  0  0  0  0
    6.9342   -3.2663    0.0905 H   0  0  0  0  0  0  0  0  0  0  0  0
    8.3993   -1.7736   -1.2446 H   0  0  0  0  0  0  0  0  0  0  0  0
    7.4706    0.2933   -2.2548 H   0  0  0  0  0  0  0  0  0  0  0  0
    5.0949    0.8727   -1.9377 H   0  0  0  0  0  0  0  0  0  0  0  0
    3.9127    2.3971   -0.1570 H   0  0  0  0  0  0  0  0  0  0  0  0
    4.5774    0.5331    2.2609 H   0  0  0  0  0  0  0  0  0  0  0  0
    5.5035    2.0121    1.7476 H   0  0  0  0  0  0  0  0  0  0  0  0
    2.5044    1.9215    2.5660 H   0  0  0  0  0  0  0  0  0  0  0  0
    3.4238    3.4095    2.0641 H   0  0  0  0  0  0  0  0  0  0  0  0
  1  2  2  0
  2  3  1  0
  4  3  1  6
  4  5  1  0
  5  6  1  0
  6  7  1  0
  7  8  1  0
  8  9  1  0
  9 10  1  0
 10 11  1  0
 10 12  1  0
  8 13  1  0
  2 14  1  0
 14 15  1  0
 15 16  2  0
 16 17  1  0
 17 18  2  0
 18 19  1  0
 19 20  2  0
 20 21  1  0
 21 22  2  0
 16 23  1  0
 23 24  1  0
 24 25  1  0
 25 26  1  0
 23 27  1  0
 12  4  1  0
 27 14  2  0
 13  4  1  0
 22 17  1  0
 26 24  1  0
 11  6  1  0
  3 28  1  0
  5 29  1  0
  5 30  1  0
  6 31  1  1
  7 32  1  0
  7 33  1  0
  8 34  1  6
  9 35  1  0
  9 36  1  0
 10 37  1  1
 11 38  1  0
 11 39  1  0
 12 40  1  0
 12 41  1  0
 13 42  1  0
 13 43  1  0
 15 44  1  0
 18 45  1  0
 19 46  1  0
 20 47  1  0
 21 48  1  0
 22 49  1  0
 24 50  1  0
 25 51  1  0
 25 52  1  0
 26 53  1  0
 26 54  1  0
M  END
>  <_SMILES>  (19) 
O=C(N[C@]12C[C@H]3C[C@H](C[C@H](C3)C1)C2)c1cc(-c2ccccc2)n(C2CC2)n1

$$$$

     RDKit          3D

 40 43  0  0  0  0  0  0  0  0999 V2000
    1.2929   -1.0774    1.7179 O   0  0  0  0  0  0  0  0  0  0  0  0
    1.6809   -0.4706    0.7276 C   0  0  0  0  0  0  0  0  0  0  0  0
    0.8522    0.0689   -0.2361 N   0  0  0  0  0  0  0  0  0  0  0  0
   -0.6140    0.0320   -0.1834 C   0  0  2  0  0  0  0  0  0  0  0  0
   -1.1572   -1.4192   -0.1455 C   0  0  0  0  0  0  0  0  0  0  0  0
   -2.6963   -1.4220   -0.1432 C   0  0  1  0  0  0  0  0  0  0  0  0
   -3.2015   -0.6465    1.0856 C   0  0  0  0  0  0  0  0  0  0  0  0
   -2.6992    0.8067    1.0383 C   0  0  2  0  0  0  0  0  0  0  0  0
   -3.2101    1.4776   -0.2466 C   0  0  0  0  0  0  0  0  0  0  0  0
   -2.7011    0.7109   -1.4775 C   0  0  2  0  0  0  0  0  0  0  0  0
   -3.2081   -0.7382   -1.4203 C   0  0  0  0  0  0  0  0  0  0  0  0
   -1.1643    0.7077   -1.4692 C   0  0  0  0  0  0  0  0  0  0  0  0
   -1.1602    0.8118    1.0377 C   0  0  0  0  0  0  0  0  0  0  0  0
    3.1394   -0.2401    0.5305 C   0  0  0  0  0  0  0  0  0  0  0  0
    3.9606   -0.1562    1.6617 C   0  0  0  0  0  0  0  0  0  0  0  0
    5.3321    0.0599    1.5186 C   0  0  0  0  0  0  0  0  0  0  0  0
    5.8891    0.1826    0.2460 C   0  0  0  0  0  0  0  0  0  0  0  0
    5.0791    0.0818   -0.8854 C   0  0  0  0  0  0  0  0  0  0  0  0
    3.7058   -0.1333   -0.7468 C   0  0  0  0  0  0  0  0  0  0  0  0
    1.2638    0.7511   -0.8587 H   0  0  0  0  0  0  0  0  0  0  0  0
   -0.8027   -1.9507    0.7449 H   0  0  0  0  0  0  0  0  0  0  0  0
   -0.7833   -1.9845   -1.0093 H   0  0  0  0  0  0  0  0  0  0  0  0
   -3.0630   -2.4539   -0.1051 H   0  0  0  0  0  0  0  0  0  0  0  0
   -4.2980   -0.6620    1.1122 H   0  0  0  0  0  0  0  0  0  0  0  0
   -2.8540   -1.1334    2.0050 H   0  0  0  0  0  0  0  0  0  0  0  0
   -3.0692    1.3541    1.9124 H   0  0  0  0  0  0  0  0  0  0  0  0
   -2.8697    2.5196   -0.2864 H   0  0  0  0  0  0  0  0  0  0  0  0
   -4.3068    1.5008   -0.2468 H   0  0  0  0  0  0  0  0  0  0  0  0
   -3.0655    1.1943   -2.3908 H   0  0  0  0  0  0  0  0  0  0  0  0
   -4.3047   -0.7530   -1.4401 H   0  0  0  0  0  0  0  0  0  0  0  0
   -2.8662   -1.2906   -2.3042 H   0  0  0  0  0  0  0  0  0  0  0  0
   -0.7893    0.1854   -2.3597 H   0  0  0  0  0  0  0  0  0  0  0  0
   -0.7942    1.7393   -1.5416 H   0  0  0  0  0  0  0  0  0  0  0  0
   -0.7903    1.8453    1.0217 H   0  0  0  0  0  0  0  0  0  0  0  0
   -0.8000    0.3720    1.9754 H   0  0  0  0  0  0  0  0  0  0  0  0
    3.5308   -0.2583    2.6564 H   0  0  0  0  0  0  0  0  0  0  0  0
    5.9650    0.1270    2.4001 H   0  0  0  0  0  0  0  0  0  0  0  0
    6.9585    0.3461    0.1361 H   0  0  0  0  0  0  0  0  0  0  0  0
    5.5206    0.1596   -1.8760 H   0  0  0  0  0  0  0  0  0  0  0  0
    3.0983   -0.2448   -1.6403 H   0  0  0  0  0  0  0  0  0  0  0  0
  1  2  2  0
  2  3  1  0
  4  3  1  6
  4  5  1  0
  5  6  1  0
  6  7  1  0
  7  8  1  0
  8  9  1  0
  9 10  1  0
 10 11  1  0
 10 12  1  0
  8 13  1  0
  2 14  1  0
 14 15  2  0
 15 16  1  0
 16 17  2  0
 17 18  1  0
 18 19  2  0
 12  4  1  0
 19 14  1  0
 13  4  1  0
 11  6  1  0
  3 20  1  0
  5 21  1  0
  5 22  1  0
  6 23  1  1
  7 24  1  0
  7 25  1  0
  8 26  1  1
  9 27  1  0
  9 28  1  0
 10 29  1  6
 11 30  1  0
 11 31  1  0
 12 32  1  0
 12 33  1  0
 13 34  1  0
 13 35  1  0
 15 36  1  0
 16 37  1  0
 17 38  1  0
 18 39  1  0
 19 40  1  0
M  END
>  <_SMILES>  (20) 
O=C(N[C@]12C[C@H]3C[C@H](C[C@H](C3)C1)C2)c1ccccc1

$$$$

     RDKit          3D

 40 43  0  0  0  0  0  0  0  0999 V2000
    1.3740    0.8068    1.6439 O   0  0  0  0  0  0  0  0  0  0  0  0
    1.7025    0.2684    0.5946 C   0  0  0  0  0  0  0  0  0  0  0  0
    0.8204   -0.2162   -0.3500 N   0  0  0  0  0  0  0  0  0  0  0  0
   -0.6406   -0.1132   -0.2482 C   0  0  2  0  0  0  0  0  0  0  0  0
   -1.1090    1.3627   -0.2463 C   0  0  0  0  0  0  0  0  0  0  0  0
   -2.6452    1.4424   -0.1969 C   0  0  1  0  0  0  0  0  0  0  0  0
   -3.2306    0.7386   -1.4315 C   0  0  0  0  0  0  0  0  0  0  0  0
   -2.7998   -0.7365   -1.4486 C   0  0  2  0  0  0  0  0  0  0  0  0
   -3.3075   -1.4301   -0.1752 C   0  0  0  0  0  0  0  0  0  0  0  0
   -2.7218   -0.7397    1.0661 C   0  0  2  0  0  0  0  0  0  0  0  0
   -3.1488    0.7381    1.0745 C   0  0  0  0  0  0  0  0  0  0  0  0
   -1.1856   -0.8222    1.0177 C   0  0  0  0  0  0  0  0  0  0  0  0
   -1.2653   -0.8130   -1.4862 C   0  0  0  0  0  0  0  0  0  0  0  0
    3.1485    0.1431    0.2583 C   0  0  0  0  0  0  0  0  0  0  0  0
    4.0379    1.0965    0.7724 C   0  0  0  0  0  0  0  0  0  0  0  0
    5.4026    1.0139    0.4838 C   0  0  0  0  0  0  0  0  0  0  0  0
    5.8792   -0.0278   -0.3101 C   0  0  0  0  0  0  0  0  0  0  0  0
    7.5588   -0.1321   -0.6660 Cl  0  0  0  0  0  0  0  0  0  0  0  0
    5.0047   -0.9916   -0.8124 C   0  0  0  0  0  0  0  0  0  0  0  0
    3.6383   -0.9106   -0.5259 C   0  0  0  0  0  0  0  0  0  0  0  0
    1.1936   -0.4072   -1.2700 H   0  0  0  0  0  0  0  0  0  0  0  0
   -0.6943    1.9034    0.6127 H   0  0  0  0  0  0  0  0  0  0  0  0
   -0.7370    1.8778   -1.1417 H   0  0  0  0  0  0  0  0  0  0  0  0
   -2.9595    2.4921   -0.1870 H   0  0  0  0  0  0  0  0  0  0  0  0
   -2.8894    1.2397   -2.3457 H   0  0  0  0  0  0  0  0  0  0  0  0
   -4.3252    0.8092   -1.4193 H   0  0  0  0  0  0  0  0  0  0  0  0
   -3.2171   -1.2332   -2.3315 H   0  0  0  0  0  0  0  0  0  0  0  0
   -4.4034   -1.3963   -0.1412 H   0  0  0  0  0  0  0  0  0  0  0  0
   -3.0218   -2.4891   -0.1853 H   0  0  0  0  0  0  0  0  0  0  0  0
   -3.0892   -1.2355    1.9716 H   0  0  0  0  0  0  0  0  0  0  0  0
   -4.2418    0.8108    1.1337 H   0  0  0  0  0  0  0  0  0  0  0  0
   -2.7480    1.2391    1.9642 H   0  0  0  0  0  0  0  0  0  0  0  0
   -0.8668   -1.8727    1.0283 H   0  0  0  0  0  0  0  0  0  0  0  0
   -0.7797   -0.3698    1.9296 H   0  0  0  0  0  0  0  0  0  0  0  0
   -0.9468   -1.8634   -1.5262 H   0  0  0  0  0  0  0  0  0  0  0  0
   -0.8966   -0.3465   -2.4097 H   0  0  0  0  0  0  0  0  0  0  0  0
    3.6674    1.9063    1.3989 H   0  0  0  0  0  0  0  0  0  0  0  0
    6.0839    1.7602    0.8843 H   0  0  0  0  0  0  0  0  0  0  0  0
    5.3820   -1.8124   -1.4173 H   0  0  0  0  0  0  0  0  0  0  0  0
    2.9770   -1.6898   -0.8949 H   0  0  0  0  0  0  0  0  0  0  0  0
  1  2  2  0
  2  3  1  0
  4  3  1  6
  4  5  1  0
  5  6  1  0
  6  7  1  0
  7  8  1  0
  8  9  1  0
  9 10  1  0
 10 11  1  0
 10 12  1  0
  8 13  1  0
  2 14  1  0
 14 15  1  0
 15 16  2  0
 16 17  1  0
 17 18  1  0
 17 19  2  0
 19 20  1  0
 12  4  1  0
 20 14  2  0
 13  4  1  0
 11  6  1  0
  3 21  1  0
  5 22  1  0
  5 23  1  0
  6 24  1  1
  7 25  1  0
  7 26  1  0
  8 27  1  6
  9 28  1  0
  9 29  1  0
 10 30  1  1
 11 31  1  0
 11 32  1  0
 12 33  1  0
 12 34  1  0
 13 35  1  0
 13 36  1  0
 15 37  1  0
 16 38  1  0
 19 39  1  0
 20 40  1  0
M  END
>  <_SMILES>  (21) 
O=C(N[C@]12C[C@H]3C[C@H](C[C@H](C3)C1)C2)c1ccc(Cl)cc1

$$$$

     RDKit          3D

 40 43  0  0  0  0  0  0  0  0999 V2000
    1.2211   -1.5197   -1.1392 O   0  0  0  0  0  0  0  0  0  0  0  0
    1.6243   -0.4733   -0.6478 C   0  0  0  0  0  0  0  0  0  0  0  0
    0.8186    0.4787   -0.0563 N   0  0  0  0  0  0  0  0  0  0  0  0
   -0.6344    0.3480    0.1071 C   0  0  2  0  0  0  0  0  0  0  0  0
   -1.0000   -0.8479    1.0203 C   0  0  0  0  0  0  0  0  0  0  0  0
   -2.5236   -0.9284    1.2219 C   0  0  1  0  0  0  0  0  0  0  0  0
   -3.0182    0.3683    1.8823 C   0  0  0  0  0  0  0  0  0  0  0  0
   -2.6883    1.5727    0.9865 C   0  0  2  0  0  0  0  0  0  0  0  0
   -3.3762    1.3976   -0.3760 C   0  0  0  0  0  0  0  0  0  0  0  0
   -2.8830    0.1078   -1.0497 C   0  0  2  0  0  0  0  0  0  0  0  0
   -3.2080   -1.0938   -0.1458 C   0  0  0  0  0  0  0  0  0  0  0  0
   -1.3596    0.1900   -1.2537 C   0  0  0  0  0  0  0  0  0  0  0  0
   -1.1674    1.6438    0.7775 C   0  0  0  0  0  0  0  0  0  0  0  0
    3.0864   -0.1875   -0.6319 C   0  0  0  0  0  0  0  0  0  0  0  0
    3.9772   -1.2688   -0.6035 C   0  0  0  0  0  0  0  0  0  0  0  0
    5.3562   -1.0451   -0.5900 C   0  0  0  0  0  0  0  0  0  0  0  0
    5.8432    0.2607   -0.6156 C   0  0  0  0  0  0  0  0  0  0  0  0
    7.7086    0.5662   -0.5996 Br  0  0  0  0  0  0  0  0  0  0  0  0
    4.9660    1.3443   -0.6616 C   0  0  0  0  0  0  0  0  0  0  0  0
    3.5857    1.1217   -0.6740 C   0  0  0  0  0  0  0  0  0  0  0  0
    1.2759    1.1665    0.5268 H   0  0  0  0  0  0  0  0  0  0  0  0
   -0.6451   -1.7916    0.5894 H   0  0  0  0  0  0  0  0  0  0  0  0
   -0.4995   -0.7472    1.9923 H   0  0  0  0  0  0  0  0  0  0  0  0
   -2.7658   -1.7841    1.8621 H   0  0  0  0  0  0  0  0  0  0  0  0
   -2.5473    0.4917    2.8653 H   0  0  0  0  0  0  0  0  0  0  0  0
   -4.1004    0.3131    2.0524 H   0  0  0  0  0  0  0  0  0  0  0  0
   -3.0402    2.4947    1.4624 H   0  0  0  0  0  0  0  0  0  0  0  0
   -3.1630    2.2612   -1.0179 H   0  0  0  0  0  0  0  0  0  0  0  0
   -4.4646    1.3596   -0.2446 H   0  0  0  0  0  0  0  0  0  0  0  0
   -3.3786   -0.0146   -2.0192 H   0  0  0  0  0  0  0  0  0  0  0  0
   -4.2936   -1.1780   -0.0125 H   0  0  0  0  0  0  0  0  0  0  0  0
   -2.8729   -2.0231   -0.6226 H   0  0  0  0  0  0  0  0  0  0  0  0
   -1.0252   -0.7128   -1.7772 H   0  0  0  0  0  0  0  0  0  0  0  0
   -1.1152    1.0344   -1.9115 H   0  0  0  0  0  0  0  0  0  0  0  0
   -0.6705    1.8005    1.7444 H   0  0  0  0  0  0  0  0  0  0  0  0
   -0.9178    2.5176    0.1606 H   0  0  0  0  0  0  0  0  0  0  0  0
    3.5964   -2.2887   -0.5909 H   0  0  0  0  0  0  0  0  0  0  0  0
    6.0359   -1.8930   -0.5643 H   0  0  0  0  0  0  0  0  0  0  0  0
    5.3462    2.3622   -0.6990 H   0  0  0  0  0  0  0  0  0  0  0  0
    2.9166    1.9747   -0.7468 H   0  0  0  0  0  0  0  0  0  0  0  0
  1  2  2  0
  2  3  1  0
  4  3  1  6
  4  5  1  0
  5  6  1  0
  6  7  1  0
  7  8  1  0
  8  9  1  0
  9 10  1  0
 10 11  1  0
 10 12  1  0
  8 13  1  0
  2 14  1  0
 14 15  1  0
 15 16  2  0
 16 17  1  0
 17 18  1  0
 17 19  2  0
 19 20  1  0
 12  4  1  0
 20 14  2  0
 13  4  1  0
 11  6  1  0
  3 21  1  0
  5 22  1  0
  5 23  1  0
  6 24  1  1
  7 25  1  0
  7 26  1  0
  8 27  1  1
  9 28  1  0
  9 29  1  0
 10 30  1  6
 11 31  1  0
 11 32  1  0
 12 33  1  0
 12 34  1  0
 13 35  1  0
 13 36  1  0
 15 37  1  0
 16 38  1  0
 19 39  1  0
 20 40  1  0
M  END
>  <_SMILES>  (22) 
O=C(N[C@]12C[C@H]3C[C@H](C[C@H](C3)C1)C2)c1ccc(Br)cc1

$$$$

     RDKit          3D

 43 46  0  0  0  0  0  0  0  0999 V2000
    6.8289    0.1805    0.1806 C   0  0  0  0  0  0  0  0  0  0  0  0
    5.3498    0.2565   -0.0609 C   0  0  0  0  0  0  0  0  0  0  0  0
    4.7882    1.3924   -0.6564 C   0  0  0  0  0  0  0  0  0  0  0  0
    3.4165    1.4506   -0.9141 C   0  0  0  0  0  0  0  0  0  0  0  0
    2.5905    0.3725   -0.5787 C   0  0  0  0  0  0  0  0  0  0  0  0
    1.1332    0.4759   -0.8698 C   0  0  0  0  0  0  0  0  0  0  0  0
    0.7497    1.1760   -1.7984 O   0  0  0  0  0  0  0  0  0  0  0  0
    0.3001   -0.2203   -0.0166 N   0  0  0  0  0  0  0  0  0  0  0  0
   -1.1658   -0.1801   -0.0737 C   0  0  2  0  0  0  0  0  0  0  0  0
   -1.7081    1.2437    0.2029 C   0  0  0  0  0  0  0  0  0  0  0  0
   -3.2470    1.2473    0.1943 C   0  0  1  0  0  0  0  0  0  0  0  0
   -3.7476    0.7603   -1.1762 C   0  0  0  0  0  0  0  0  0  0  0  0
   -3.2465   -0.6688   -1.4462 C   0  0  2  0  0  0  0  0  0  0  0  0
   -3.7639   -1.6048   -0.3431 C   0  0  0  0  0  0  0  0  0  0  0  0
   -3.2586   -1.1284    1.0273 C   0  0  2  0  0  0  0  0  0  0  0  0
   -3.7636    0.2994    1.2883 C   0  0  0  0  0  0  0  0  0  0  0  0
   -1.7218   -1.1269    1.0249 C   0  0  0  0  0  0  0  0  0  0  0  0
   -1.7074   -0.6750   -1.4391 C   0  0  0  0  0  0  0  0  0  0  0  0
    3.1516   -0.7782   -0.0119 C   0  0  0  0  0  0  0  0  0  0  0  0
    4.5249   -0.8338    0.2436 C   0  0  0  0  0  0  0  0  0  0  0  0
    7.2417    1.1729    0.3903 H   0  0  0  0  0  0  0  0  0  0  0  0
    7.3308   -0.2334   -0.6994 H   0  0  0  0  0  0  0  0  0  0  0  0
    7.0510   -0.4528    1.0460 H   0  0  0  0  0  0  0  0  0  0  0  0
    5.4149    2.2393   -0.9279 H   0  0  0  0  0  0  0  0  0  0  0  0
    2.9924    2.3387   -1.3788 H   0  0  0  0  0  0  0  0  0  0  0  0
    0.7088   -0.5506    0.8473 H   0  0  0  0  0  0  0  0  0  0  0  0
   -1.3438    1.9537   -0.5492 H   0  0  0  0  0  0  0  0  0  0  0  0
   -1.3392    1.6064    1.1713 H   0  0  0  0  0  0  0  0  0  0  0  0
   -3.6141    2.2625    0.3824 H   0  0  0  0  0  0  0  0  0  0  0  0
   -4.8441    0.7829   -1.2031 H   0  0  0  0  0  0  0  0  0  0  0  0
   -3.3961    1.4362   -1.9654 H   0  0  0  0  0  0  0  0  0  0  0  0
   -3.6119   -1.0104   -2.4211 H   0  0  0  0  0  0  0  0  0  0  0  0
   -3.4249   -2.6307   -0.5322 H   0  0  0  0  0  0  0  0  0  0  0  0
   -4.8606   -1.6250   -0.3522 H   0  0  0  0  0  0  0  0  0  0  0  0
   -3.6270   -1.7998    1.8109 H   0  0  0  0  0  0  0  0  0  0  0  0
   -3.4244    0.6432    2.2731 H   0  0  0  0  0  0  0  0  0  0  0  0
   -4.8603    0.3114    1.3073 H   0  0  0  0  0  0  0  0  0  0  0  0
   -1.3530   -0.8173    2.0121 H   0  0  0  0  0  0  0  0  0  0  0  0
   -1.3497   -2.1480    0.8662 H   0  0  0  0  0  0  0  0  0  0  0  0
   -1.3489   -0.0425   -2.2591 H   0  0  0  0  0  0  0  0  0  0  0  0
   -1.3363   -1.6870   -1.6476 H   0  0  0  0  0  0  0  0  0  0  0  0
    2.5413   -1.6499    0.2063 H   0  0  0  0  0  0  0  0  0  0  0  0
    4.9503   -1.7385    0.6733 H   0  0  0  0  0  0  0  0  0  0  0  0
  1  2  1  0
  2  3  1  0
  3  4  2  0
  4  5  1  0
  5  6  1  0
  6  7  2  0
  6  8  1  0
  9  8  1  6
  9 10  1  0
 10 11  1  0
 11 12  1  0
 12 13  1  0
 13 14  1  0
 14 15  1  0
 15 16  1  0
 15 17  1  0
 13 18  1  0
  5 19  2  0
 19 20  1  0
 20  2  2  0
 17  9  1  0
 18  9  1  0
 16 11  1  0
  1 21  1  0
  1 22  1  0
  1 23  1  0
  3 24  1  0
  4 25  1  0
  8 26  1  0
 10 27  1  0
 10 28  1  0
 11 29  1  1
 12 30  1  0
 12 31  1  0
 13 32  1  6
 14 33  1  0
 14 34  1  0
 15 35  1  1
 16 36  1  0
 16 37  1  0
 17 38  1  0
 17 39  1  0
 18 40  1  0
 18 41  1  0
 19 42  1  0
 20 43  1  0
M  END
>  <_SMILES>  (23) 
Cc1ccc(C(=O)N[C@]23C[C@H]4C[C@H](C[C@H](C4)C2)C3)cc1

$$$$

     RDKit          3D

 40 43  0  0  0  0  0  0  0  0999 V2000
    1.4746    0.7108    1.6482 O   0  0  0  0  0  0  0  0  0  0  0  0
    1.7479    0.2594    0.5435 C   0  0  0  0  0  0  0  0  0  0  0  0
    0.8186   -0.1782   -0.3786 N   0  0  0  0  0  0  0  0  0  0  0  0
   -0.6348   -0.1218   -0.1800 C   0  0  2  0  0  0  0  0  0  0  0  0
   -1.0832   -0.9355    1.0607 C   0  0  0  0  0  0  0  0  0  0  0  0
   -2.6146   -0.8977    1.2093 C   0  0  1  0  0  0  0  0  0  0  0  0
   -3.0726    0.5637    1.3540 C   0  0  0  0  0  0  0  0  0  0  0  0
   -2.6659    1.3721    0.1101 C   0  0  2  0  0  0  0  0  0  0  0  0
   -3.3125    0.7451   -1.1352 C   0  0  0  0  0  0  0  0  0  0  0  0
   -2.8514   -0.7129   -1.2886 C   0  0  2  0  0  0  0  0  0  0  0  0
   -3.2623   -1.5109   -0.0417 C   0  0  0  0  0  0  0  0  0  0  0  0
   -1.3211   -0.7457   -1.4260 C   0  0  0  0  0  0  0  0  0  0  0  0
   -1.1346    1.3371   -0.0393 C   0  0  0  0  0  0  0  0  0  0  0  0
    3.1722    0.1976    0.1102 C   0  0  0  0  0  0  0  0  0  0  0  0
    4.0710    1.1362    0.6384 C   0  0  0  0  0  0  0  0  0  0  0  0
    5.4147    1.1104    0.2601 C   0  0  0  0  0  0  0  0  0  0  0  0
    5.8551    0.1418   -0.6346 C   0  0  0  0  0  0  0  0  0  0  0  0
    7.1440    0.1153   -0.9967 F   0  0  0  0  0  0  0  0  0  0  0  0
    4.9796   -0.8066   -1.1541 C   0  0  0  0  0  0  0  0  0  0  0  0
    3.6337   -0.7843   -0.7794 C   0  0  0  0  0  0  0  0  0  0  0  0
    1.1373   -0.2916   -1.3314 H   0  0  0  0  0  0  0  0  0  0  0  0
   -0.6305   -0.5403    1.9771 H   0  0  0  0  0  0  0  0  0  0  0  0
   -0.7413   -1.9752    0.9733 H   0  0  0  0  0  0  0  0  0  0  0  0
   -2.9131   -1.4679    2.0961 H   0  0  0  0  0  0  0  0  0  0  0  0
   -2.6275    1.0089    2.2523 H   0  0  0  0  0  0  0  0  0  0  0  0
   -4.1610    0.6028    1.4855 H   0  0  0  0  0  0  0  0  0  0  0  0
   -3.0020    2.4095    0.2175 H   0  0  0  0  0  0  0  0  0  0  0  0
   -3.0409    1.3205   -2.0287 H   0  0  0  0  0  0  0  0  0  0  0  0
   -4.4055    0.7855   -1.0506 H   0  0  0  0  0  0  0  0  0  0  0  0
   -3.3126   -1.1548   -2.1789 H   0  0  0  0  0  0  0  0  0  0  0  0
   -2.9546   -2.5584   -0.1482 H   0  0  0  0  0  0  0  0  0  0  0  0
   -4.3543   -1.5088    0.0619 H   0  0  0  0  0  0  0  0  0  0  0  0
   -0.9827   -1.7815   -1.5636 H   0  0  0  0  0  0  0  0  0  0  0  0
   -1.0218   -0.2034   -2.3330 H   0  0  0  0  0  0  0  0  0  0  0  0
   -0.6784    1.8244    0.8306 H   0  0  0  0  0  0  0  0  0  0  0  0
   -0.8313    1.9259   -0.9149 H   0  0  0  0  0  0  0  0  0  0  0  0
    3.7230    1.8881    1.3445 H   0  0  0  0  0  0  0  0  0  0  0  0
    6.1172    1.8344    0.6607 H   0  0  0  0  0  0  0  0  0  0  0  0
    5.3540   -1.5623   -1.8379 H   0  0  0  0  0  0  0  0  0  0  0  0
    2.9677   -1.5521   -1.1631 H   0  0  0  0  0  0  0  0  0  0  0  0
  1  2  2  0
  2  3  1  0
  4  3  1  6
  4  5  1  0
  5  6  1  0
  6  7  1  0
  7  8  1  0
  8  9  1  0
  9 10  1  0
 10 11  1  0
 10 12  1  0
  8 13  1  0
  2 14  1  0
 14 15  1  0
 15 16  2  0
 16 17  1  0
 17 18  1  0
 17 19  2  0
 19 20  1  0
 12  4  1  0
 20 14  2  0
 13  4  1  0
 11  6  1  0
  3 21  1  0
  5 22  1  0
  5 23  1  0
  6 24  1  1
  7 25  1  0
  7 26  1  0
  8 27  1  1
  9 28  1  0
  9 29  1  0
 10 30  1  6
 11 31  1  0
 11 32  1  0
 12 33  1  0
 12 34  1  0
 13 35  1  0
 13 36  1  0
 15 37  1  0
 16 38  1  0
 19 39  1  0
 20 40  1  0
M  END
>  <_SMILES>  (24) 
O=C(N[C@]12C[C@H]3C[C@H](C[C@H](C3)C1)C2)c1ccc(F)cc1

$$$$

     RDKit          3D

 43 46  0  0  0  0  0  0  0  0999 V2000
    0.5407    1.9301    1.7926 O   0  0  0  0  0  0  0  0  0  0  0  0
    1.0238    0.8290    1.5455 C   0  0  0  0  0  0  0  0  0  0  0  0
    2.3823    0.4176    2.0933 C   0  0  0  0  0  0  0  0  0  0  0  0
    3.3368   -0.0947    1.0395 C   0  0  0  0  0  0  0  0  0  0  0  0
    3.7420    0.7376   -0.0138 C   0  0  0  0  0  0  0  0  0  0  0  0
    4.6123    0.2622   -0.9952 C   0  0  0  0  0  0  0  0  0  0  0  0
    5.0893   -1.0455   -0.9310 C   0  0  0  0  0  0  0  0  0  0  0  0
    4.6991   -1.8785    0.1160 C   0  0  0  0  0  0  0  0  0  0  0  0
    3.8281   -1.4062    1.0989 C   0  0  0  0  0  0  0  0  0  0  0  0
    0.3866   -0.1515    0.8098 N   0  0  0  0  0  0  0  0  0  0  0  0
   -0.8871    0.0304    0.1062 C   0  0  2  0  0  0  0  0  0  0  0  0
   -0.7777    1.1164   -0.9921 C   0  0  0  0  0  0  0  0  0  0  0  0
   -2.1069    1.2483   -1.7562 C   0  0  1  0  0  0  0  0  0  0  0  0
   -2.4467   -0.0955   -2.4203 C   0  0  0  0  0  0  0  0  0  0  0  0
   -2.5836   -1.1903   -1.3504 C   0  0  2  0  0  0  0  0  0  0  0  0
   -3.7020   -0.8068   -0.3693 C   0  0  0  0  0  0  0  0  0  0  0  0
   -3.3687    0.5318    0.3072 C   0  0  2  0  0  0  0  0  0  0  0  0
   -3.2249    1.6225   -0.7681 C   0  0  0  0  0  0  0  0  0  0  0  0
   -2.0404    0.3988    1.0736 C   0  0  0  0  0  0  0  0  0  0  0  0
   -1.2587   -1.3118   -0.5812 C   0  0  0  0  0  0  0  0  0  0  0  0
    2.2124   -0.3374    2.8702 H   0  0  0  0  0  0  0  0  0  0  0  0
    2.8391    1.2838    2.5872 H   0  0  0  0  0  0  0  0  0  0  0  0
    3.3799    1.7627   -0.0763 H   0  0  0  0  0  0  0  0  0  0  0  0
    4.9205    0.9142   -1.8086 H   0  0  0  0  0  0  0  0  0  0  0  0
    5.7699   -1.4135   -1.6944 H   0  0  0  0  0  0  0  0  0  0  0  0
    5.0780   -2.8961    0.1690 H   0  0  0  0  0  0  0  0  0  0  0  0
    3.5397   -2.0694    1.9116 H   0  0  0  0  0  0  0  0  0  0  0  0
    0.9755   -0.9108    0.4874 H   0  0  0  0  0  0  0  0  0  0  0  0
   -0.5162    2.0879   -0.5556 H   0  0  0  0  0  0  0  0  0  0  0  0
    0.0316    0.8665   -1.6908 H   0  0  0  0  0  0  0  0  0  0  0  0
   -2.0157    2.0260   -2.5228 H   0  0  0  0  0  0  0  0  0  0  0  0
   -1.6630   -0.3679   -3.1377 H   0  0  0  0  0  0  0  0  0  0  0  0
   -3.3813   -0.0073   -2.9879 H   0  0  0  0  0  0  0  0  0  0  0  0
   -2.8232   -2.1466   -1.8286 H   0  0  0  0  0  0  0  0  0  0  0  0
   -4.6580   -0.7303   -0.9017 H   0  0  0  0  0  0  0  0  0  0  0  0
   -3.8215   -1.5906    0.3887 H   0  0  0  0  0  0  0  0  0  0  0  0
   -4.1703    0.8028    1.0033 H   0  0  0  0  0  0  0  0  0  0  0  0
   -4.1733    1.7443   -1.3057 H   0  0  0  0  0  0  0  0  0  0  0  0
   -3.0005    2.5870   -0.2961 H   0  0  0  0  0  0  0  0  0  0  0  0
   -2.1348   -0.3653    1.8562 H   0  0  0  0  0  0  0  0  0  0  0  0
   -1.8368    1.3433    1.5906 H   0  0  0  0  0  0  0  0  0  0  0  0
   -1.3363   -2.1107    0.1685 H   0  0  0  0  0  0  0  0  0  0  0  0
   -0.4601   -1.6166   -1.2709 H   0  0  0  0  0  0  0  0  0  0  0  0
  1  2  2  0
  2  3  1  0
  3  4  1  0
  4  5  2  0
  5  6  1  0
  6  7  2  0
  7  8  1  0
  8  9  2  0
  2 10  1  0
 11 10  1  1
 11 12  1  0
 12 13  1  0
 13 14  1  0
 14 15  1  0
 15 16  1  0
 16 17  1  0
 17 18  1  0
 17 19  1  0
 15 20  1  0
  9  4  1  0
 19 11  1  0
 20 11  1  0
 18 13  1  0
  3 21  1  0
  3 22  1  0
  5 23  1  0
  6 24  1  0
  7 25  1  0
  8 26  1  0
  9 27  1  0
 10 28  1  0
 12 29  1  0
 12 30  1  0
 13 31  1  6
 14 32  1  0
 14 33  1  0
 15 34  1  6
 16 35  1  0
 16 36  1  0
 17 37  1  1
 18 38  1  0
 18 39  1  0
 19 40  1  0
 19 41  1  0
 20 42  1  0
 20 43  1  0
M  END
>  <_SMILES>  (25) 
O=C(Cc1ccccc1)N[C@]12C[C@H]3C[C@H](C[C@H](C3)C1)C2

$$$$

     RDKit          3D

 33 35  0  0  0  0  0  0  0  0999 V2000
    4.2751    0.6977    0.3730 C   0  0  0  0  0  0  0  0  0  0  0  0
    2.8382    0.9364   -0.0101 C   0  0  0  0  0  0  0  0  0  0  0  0
    2.5053    1.9068   -0.6802 O   0  0  0  0  0  0  0  0  0  0  0  0
    1.9778   -0.0393    0.4419 N   0  0  0  0  0  0  0  0  0  0  0  0
    0.5363   -0.0757    0.1707 C   0  0  2  0  0  0  0  0  0  0  0  0
   -0.1868    1.1771    0.7266 C   0  0  0  0  0  0  0  0  0  0  0  0
   -1.7018    1.0863    0.4713 C   0  0  1  0  0  0  0  0  0  0  0  0
   -1.9540    0.9713   -1.0418 C   0  0  0  0  0  0  0  0  0  0  0  0
   -1.2718   -0.2901   -1.5982 C   0  0  2  0  0  0  0  0  0  0  0  0
   -1.8344   -1.5281   -0.8821 C   0  0  0  0  0  0  0  0  0  0  0  0
   -1.5774   -1.4221    0.6292 C   0  0  2  0  0  0  0  0  0  0  0  0
   -2.2622   -0.1595    1.1749 C   0  0  0  0  0  0  0  0  0  0  0  0
   -0.0640   -1.3217    0.8774 C   0  0  0  0  0  0  0  0  0  0  0  0
    0.2436   -0.2005   -1.3451 C   0  0  0  0  0  0  0  0  0  0  0  0
    4.3529    0.0598    1.2579 H   0  0  0  0  0  0  0  0  0  0  0  0
    4.7948    0.2219   -0.4625 H   0  0  0  0  0  0  0  0  0  0  0  0
    4.7491    1.6560    0.6037 H   0  0  0  0  0  0  0  0  0  0  0  0
    2.3856   -0.8491    0.8908 H   0  0  0  0  0  0  0  0  0  0  0  0
    0.1968    2.0921    0.2606 H   0  0  0  0  0  0  0  0  0  0  0  0
    0.0056    1.2771    1.8029 H   0  0  0  0  0  0  0  0  0  0  0  0
   -2.1957    1.9834    0.8610 H   0  0  0  0  0  0  0  0  0  0  0  0
   -3.0323    0.9306   -1.2388 H   0  0  0  0  0  0  0  0  0  0  0  0
   -1.5703    1.8620   -1.5545 H   0  0  0  0  0  0  0  0  0  0  0  0
   -1.4616   -0.3686   -2.6746 H   0  0  0  0  0  0  0  0  0  0  0  0
   -1.3656   -2.4366   -1.2797 H   0  0  0  0  0  0  0  0  0  0  0  0
   -2.9109   -1.6153   -1.0741 H   0  0  0  0  0  0  0  0  0  0  0  0
   -1.9776   -2.3077    1.1353 H   0  0  0  0  0  0  0  0  0  0  0  0
   -2.1012   -0.0832    2.2572 H   0  0  0  0  0  0  0  0  0  0  0  0
   -3.3460   -0.2232    1.0180 H   0  0  0  0  0  0  0  0  0  0  0  0
    0.4299   -2.2342    0.5171 H   0  0  0  0  0  0  0  0  0  0  0  0
    0.1320   -1.2739    1.9570 H   0  0  0  0  0  0  0  0  0  0  0  0
    0.6474    0.6586   -1.8937 H   0  0  0  0  0  0  0  0  0  0  0  0
    0.7437   -1.0883   -1.7541 H   0  0  0  0  0  0  0  0  0  0  0  0
  1  2  1  0
  2  3  2  0
  2  4  1  0
  5  4  1  6
  5  6  1  0
  6  7  1  0
  7  8  1  0
  8  9  1  0
  9 10  1  0
 10 11  1  0
 11 12  1  0
 11 13  1  0
  9 14  1  0
 13  5  1  0
 14  5  1  0
 12  7  1  0
  1 15  1  0
  1 16  1  0
  1 17  1  0
  4 18  1  0
  6 19  1  0
  6 20  1  0
  7 21  1  1
  8 22  1  0
  8 23  1  0
  9 24  1  6
 10 25  1  0
 10 26  1  0
 11 27  1  1
 12 28  1  0
 12 29  1  0
 13 30  1  0
 13 31  1  0
 14 32  1  0
 14 33  1  0
M  END
>  <_SMILES>  (26) 
CC(=O)N[C@]12C[C@H]3C[C@H](C[C@H](C3)C1)C2

$$$$

     RDKit          3D

 46 49  0  0  0  0  0  0  0  0999 V2000
    0.9235   -1.6072   -0.6531 O   0  0  0  0  0  0  0  0  0  0  0  0
    1.1653   -0.4396   -0.3707 C   0  0  0  0  0  0  0  0  0  0  0  0
    0.1961    0.5015   -0.0851 N   0  0  0  0  0  0  0  0  0  0  0  0
   -1.2486    0.2487   -0.0946 C   0  0  2  0  0  0  0  0  0  0  0  0
   -1.7469   -0.1689   -1.5002 C   0  0  0  0  0  0  0  0  0  0  0  0
   -3.2719   -0.3761   -1.4941 C   0  0  1  0  0  0  0  0  0  0  0  0
   -3.6308   -1.4681   -0.4718 C   0  0  0  0  0  0  0  0  0  0  0  0
   -3.1741   -1.0472    0.9355 C   0  0  2  0  0  0  0  0  0  0  0  0
   -3.8648    0.2705    1.3199 C   0  0  0  0  0  0  0  0  0  0  0  0
   -3.5021    1.3673    0.3069 C   0  0  2  0  0  0  0  0  0  0  0  0
   -3.9618    0.9379   -1.0952 C   0  0  0  0  0  0  0  0  0  0  0  0
   -1.9776    1.5622    0.2996 C   0  0  0  0  0  0  0  0  0  0  0  0
   -1.6490   -0.8405    0.9321 C   0  0  0  0  0  0  0  0  0  0  0  0
    2.5855    0.1238   -0.3071 C   0  0  0  0  0  0  0  0  0  0  0  0
    3.6140   -0.8984   -0.8004 C   0  0  0  0  0  0  0  0  0  0  0  0
    5.0298   -0.3198   -0.8268 C   0  0  0  0  0  0  0  0  0  0  0  0
    5.2957    0.6954    0.2852 C   0  0  0  0  0  0  0  0  0  0  0  0
    4.3937    0.4672    1.4894 C   0  0  0  0  0  0  0  0  0  0  0  0
    2.9156    0.6053    1.1184 C   0  0  0  0  0  0  0  0  0  0  0  0
    0.4995    1.4586    0.0391 H   0  0  0  0  0  0  0  0  0  0  0  0
   -1.2621   -1.0958   -1.8285 H   0  0  0  0  0  0  0  0  0  0  0  0
   -1.4769    0.5968   -2.2393 H   0  0  0  0  0  0  0  0  0  0  0  0
   -3.6065   -0.6801   -2.4923 H   0  0  0  0  0  0  0  0  0  0  0  0
   -4.7138   -1.6427   -0.4764 H   0  0  0  0  0  0  0  0  0  0  0  0
   -3.1546   -2.4155   -0.7527 H   0  0  0  0  0  0  0  0  0  0  0  0
   -3.4387   -1.8269    1.6584 H   0  0  0  0  0  0  0  0  0  0  0  0
   -4.9524    0.1298    1.3469 H   0  0  0  0  0  0  0  0  0  0  0  0
   -3.5580    0.5745    2.3282 H   0  0  0  0  0  0  0  0  0  0  0  0
   -3.9940    2.3057    0.5860 H   0  0  0  0  0  0  0  0  0  0  0  0
   -5.0510    0.8088   -1.1093 H   0  0  0  0  0  0  0  0  0  0  0  0
   -3.7248    1.7223   -1.8244 H   0  0  0  0  0  0  0  0  0  0  0  0
   -1.6423    1.8967    1.2906 H   0  0  0  0  0  0  0  0  0  0  0  0
   -1.7120    2.3659   -0.4003 H   0  0  0  0  0  0  0  0  0  0  0  0
   -1.3078   -0.5560    1.9361 H   0  0  0  0  0  0  0  0  0  0  0  0
   -1.1625   -1.7956    0.7027 H   0  0  0  0  0  0  0  0  0  0  0  0
    2.6165    0.9844   -0.9902 H   0  0  0  0  0  0  0  0  0  0  0  0
    3.3528   -1.2618   -1.8019 H   0  0  0  0  0  0  0  0  0  0  0  0
    3.5974   -1.7803   -0.1458 H   0  0  0  0  0  0  0  0  0  0  0  0
    5.2167    0.1612   -1.7946 H   0  0  0  0  0  0  0  0  0  0  0  0
    5.7472   -1.1462   -0.7539 H   0  0  0  0  0  0  0  0  0  0  0  0
    6.3491    0.6470    0.5837 H   0  0  0  0  0  0  0  0  0  0  0  0
    5.1281    1.7086   -0.1015 H   0  0  0  0  0  0  0  0  0  0  0  0
    4.6392    1.1776    2.2870 H   0  0  0  0  0  0  0  0  0  0  0  0
    4.5771   -0.5354    1.8959 H   0  0  0  0  0  0  0  0  0  0  0  0
    2.6260    1.6611    1.2020 H   0  0  0  0  0  0  0  0  0  0  0  0
    2.3160    0.0720    1.8669 H   0  0  0  0  0  0  0  0  0  0  0  0
  1  2  2  0
  2  3  1  0
  4  3  1  6
  4  5  1  0
  5  6  1  0
  6  7  1  0
  7  8  1  0
  8  9  1  0
  9 10  1  0
 10 11  1  0
 10 12  1  0
  8 13  1  0
  2 14  1  0
 14 15  1  0
 15 16  1  0
 16 17  1  0
 17 18  1  0
 18 19  1  0
 12  4  1  0
 19 14  1  0
 13  4  1  0
 11  6  1  0
  3 20  1  0
  5 21  1  0
  5 22  1  0
  6 23  1  6
  7 24  1  0
  7 25  1  0
  8 26  1  1
  9 27  1  0
  9 28  1  0
 10 29  1  1
 11 30  1  0
 11 31  1  0
 12 32  1  0
 12 33  1  0
 13 34  1  0
 13 35  1  0
 14 36  1  0
 15 37  1  0
 15 38  1  0
 16 39  1  0
 16 40  1  0
 17 41  1  0
 17 42  1  0
 18 43  1  0
 18 44  1  0
 19 45  1  0
 19 46  1  0
M  END
>  <_SMILES>  (27) 
O=C(N[C@]12C[C@H]3C[C@H](C[C@H](C3)C1)C2)C1CCCCC1

$$$$

     RDKit          3D

 50 54  0  0  0  0  0  0  0  0999 V2000
   -0.6443    2.0704   -0.2588 O   0  0  0  0  0  0  0  0  0  0  0  0
   -0.2048    0.9284   -0.2172 C   0  0  0  0  0  0  0  0  0  0  0  0
   -0.9834   -0.2112   -0.1817 N   0  0  0  0  0  0  0  0  0  0  0  0
   -2.4506   -0.2113   -0.1415 C   0  0  2  0  0  0  0  0  0  0  0  0
   -2.9376   -1.6862   -0.1507 C   0  0  0  0  0  0  0  0  0  0  0  0
   -4.4719   -1.7619   -0.1025 C   0  0  1  0  0  0  0  0  0  0  0  0
   -4.9704   -1.0735    1.1779 C   0  0  0  0  0  0  0  0  0  0  0  0
   -4.5225    0.3966    1.1922 C   0  0  2  0  0  0  0  0  0  0  0  0
   -5.0965    1.1135   -0.0418 C   0  0  0  0  0  0  0  0  0  0  0  0
   -4.6022    0.4310   -1.3287 C   0  0  2  0  0  0  0  0  0  0  0  0
   -5.0506   -1.0386   -1.3280 C   0  0  0  0  0  0  0  0  0  0  0  0
   -3.0652    0.4947   -1.3770 C   0  0  0  0  0  0  0  0  0  0  0  0
   -2.9855    0.4608    1.1469 C   0  0  0  0  0  0  0  0  0  0  0  0
    1.2676    0.7097   -0.1590 C   0  0  0  0  0  0  0  0  0  0  0  0
    2.0666    1.6969    0.4254 C   0  0  0  0  0  0  0  0  0  0  0  0
    3.4533    1.5289    0.4979 C   0  0  0  0  0  0  0  0  0  0  0  0
    4.0717    0.3785   -0.0189 C   0  0  0  0  0  0  0  0  0  0  0  0
    5.5317    0.2043    0.0548 C   0  0  0  0  0  0  0  0  0  0  0  0
    6.4039    1.1876   -0.4416 C   0  0  0  0  0  0  0  0  0  0  0  0
    7.7900    1.0227   -0.3732 C   0  0  0  0  0  0  0  0  0  0  0  0
    8.3280   -0.1293    0.1945 C   0  0  0  0  0  0  0  0  0  0  0  0
    7.4816   -1.1161    0.6932 C   0  0  0  0  0  0  0  0  0  0  0  0
    6.0956   -0.9503    0.6230 C   0  0  0  0  0  0  0  0  0  0  0  0
    3.2566   -0.5969   -0.6184 C   0  0  0  0  0  0  0  0  0  0  0  0
    1.8682   -0.4348   -0.6939 C   0  0  0  0  0  0  0  0  0  0  0  0
   -0.5252   -1.0671    0.1007 H   0  0  0  0  0  0  0  0  0  0  0  0
   -2.5157   -2.2285    0.7062 H   0  0  0  0  0  0  0  0  0  0  0  0
   -2.5686   -2.1995   -1.0488 H   0  0  0  0  0  0  0  0  0  0  0  0
   -4.7911   -2.8101   -0.1069 H   0  0  0  0  0  0  0  0  0  0  0  0
   -6.0643   -1.1325    1.2335 H   0  0  0  0  0  0  0  0  0  0  0  0
   -4.5783   -1.5935    2.0606 H   0  0  0  0  0  0  0  0  0  0  0  0
   -4.8848    0.8838    2.1044 H   0  0  0  0  0  0  0  0  0  0  0  0
   -4.7943    2.1680   -0.0369 H   0  0  0  0  0  0  0  0  0  0  0  0
   -6.1928    1.0965   -0.0073 H   0  0  0  0  0  0  0  0  0  0  0  0
   -5.0199    0.9435   -2.2026 H   0  0  0  0  0  0  0  0  0  0  0  0
   -6.1459   -1.0966   -1.3152 H   0  0  0  0  0  0  0  0  0  0  0  0
   -4.7163   -1.5331   -2.2483 H   0  0  0  0  0  0  0  0  0  0  0  0
   -2.7575    1.5454   -1.4254 H   0  0  0  0  0  0  0  0  0  0  0  0
   -2.7000    0.0253   -2.2999 H   0  0  0  0  0  0  0  0  0  0  0  0
   -2.5648   -0.0331    2.0327 H   0  0  0  0  0  0  0  0  0  0  0  0
   -2.6687    1.5091    1.2014 H   0  0  0  0  0  0  0  0  0  0  0  0
    1.6118    2.5992    0.8299 H   0  0  0  0  0  0  0  0  0  0  0  0
    4.0511    2.3060    0.9712 H   0  0  0  0  0  0  0  0  0  0  0  0
    6.0053    2.0909   -0.8994 H   0  0  0  0  0  0  0  0  0  0  0  0
    8.4474    1.7941   -0.7659 H   0  0  0  0  0  0  0  0  0  0  0  0
    9.4059   -0.2575    0.2486 H   0  0  0  0  0  0  0  0  0  0  0  0
    7.8983   -2.0149    1.1402 H   0  0  0  0  0  0  0  0  0  0  0  0
    5.4535   -1.7289    1.0295 H   0  0  0  0  0  0  0  0  0  0  0  0
    3.7069   -1.4870   -1.0550 H   0  0  0  0  0  0  0  0  0  0  0  0
    1.2788   -1.1934   -1.2008 H   0  0  0  0  0  0  0  0  0  0  0  0
  1  2  2  0
  2  3  1  0
  4  3  1  6
  4  5  1  0
  5  6  1  0
  6  7  1  0
  7  8  1  0
  8  9  1  0
  9 10  1  0
 10 11  1  0
 10 12  1  0
  8 13  1  0
  2 14  1  0
 14 15  1  0
 15 16  2  0
 16 17  1  0
 17 18  1  0
 18 19  2  0
 19 20  1  0
 20 21  2  0
 21 22  1  0
 22 23  2  0
 17 24  2  0
 24 25  1  0
 12  4  1  0
 25 14  2  0
 13  4  1  0
 23 18  1  0
 11  6  1  0
  3 26  1  0
  5 27  1  0
  5 28  1  0
  6 29  1  1
  7 30  1  0
  7 31  1  0
  8 32  1  1
  9 33  1  0
  9 34  1  0
 10 35  1  6
 11 36  1  0
 11 37  1  0
 12 38  1  0
 12 39  1  0
 13 40  1  0
 13 41  1  0
 15 42  1  0
 16 43  1  0
 19 44  1  0
 20 45  1  0
 21 46  1  0
 22 47  1  0
 23 48  1  0
 24 49  1  0
 25 50  1  0
M  END
>  <_SMILES>  (28) 
O=C(N[C@]12C[C@H]3C[C@H](C[C@H](C3)C1)C2)c1ccc(-c2ccccc2)cc1

$$$$

     RDKit          3D

 42 44  0  0  0  0  0  0  0  0999 V2000
   -1.4967    1.5292   -1.6107 O   0  0  0  0  0  0  0  0  0  0  0  0
   -1.0614    0.6409   -0.8869 C   0  0  0  0  0  0  0  0  0  0  0  0
   -1.8626   -0.2759   -0.2370 N   0  0  0  0  0  0  0  0  0  0  0  0
   -3.3155   -0.1869   -0.2758 C   0  0  0  0  0  0  0  0  0  0  0  0
   -3.9495   -1.5722   -0.0681 C   0  0  0  0  0  0  0  0  0  0  0  0
   -5.3723   -1.5182    0.4947 C   0  0  0  0  0  0  0  0  0  0  0  0
   -6.0851   -0.2249    0.1267 C   0  0  0  0  0  0  0  0  0  0  0  0
   -5.3483    1.0021    0.6660 C   0  0  0  0  0  0  0  0  0  0  0  0
   -3.8320    0.8150    0.7601 C   0  0  0  0  0  0  0  0  0  0  0  0
    0.4074    0.4910   -0.6956 C   0  0  0  0  0  0  0  0  0  0  0  0
    0.9588   -0.0134    0.4865 C   0  0  0  0  0  0  0  0  0  0  0  0
    2.3480   -0.1302    0.6169 C   0  0  0  0  0  0  0  0  0  0  0  0
    3.2124    0.2605   -0.4200 C   0  0  0  0  0  0  0  0  0  0  0  0
    4.6724    0.1382   -0.2755 C   0  0  0  0  0  0  0  0  0  0  0  0
    5.5150    1.2439   -0.4790 C   0  0  0  0  0  0  0  0  0  0  0  0
    6.9010    1.1291   -0.3409 C   0  0  0  0  0  0  0  0  0  0  0  0
    7.4685   -0.0952    0.0023 C   0  0  0  0  0  0  0  0  0  0  0  0
    6.6517   -1.2040    0.2079 C   0  0  0  0  0  0  0  0  0  0  0  0
    5.2657   -1.0874    0.0705 C   0  0  0  0  0  0  0  0  0  0  0  0
    2.6424    0.7809   -1.5932 C   0  0  0  0  0  0  0  0  0  0  0  0
    1.2555    0.9001   -1.7295 C   0  0  0  0  0  0  0  0  0  0  0  0
   -1.4407   -0.9996    0.3268 H   0  0  0  0  0  0  0  0  0  0  0  0
   -3.5960    0.1776   -1.2731 H   0  0  0  0  0  0  0  0  0  0  0  0
   -3.3387   -2.1903    0.6025 H   0  0  0  0  0  0  0  0  0  0  0  0
   -3.9546   -2.0990   -1.0311 H   0  0  0  0  0  0  0  0  0  0  0  0
   -5.3317   -1.6052    1.5879 H   0  0  0  0  0  0  0  0  0  0  0  0
   -5.9426   -2.3822    0.1351 H   0  0  0  0  0  0  0  0  0  0  0  0
   -7.1120   -0.2342    0.5090 H   0  0  0  0  0  0  0  0  0  0  0  0
   -6.1599   -0.1538   -0.9658 H   0  0  0  0  0  0  0  0  0  0  0  0
   -5.5767    1.8593    0.0211 H   0  0  0  0  0  0  0  0  0  0  0  0
   -5.7323    1.2584    1.6609 H   0  0  0  0  0  0  0  0  0  0  0  0
   -3.3399    1.7887    0.6483 H   0  0  0  0  0  0  0  0  0  0  0  0
   -3.5716    0.4616    1.7669 H   0  0  0  0  0  0  0  0  0  0  0  0
    0.3319   -0.2891    1.3288 H   0  0  0  0  0  0  0  0  0  0  0  0
    2.7586   -0.5105    1.5509 H   0  0  0  0  0  0  0  0  0  0  0  0
    5.0923    2.2129   -0.7374 H   0  0  0  0  0  0  0  0  0  0  0  0
    7.5351    1.9975   -0.4998 H   0  0  0  0  0  0  0  0  0  0  0  0
    8.5463   -0.1851    0.1089 H   0  0  0  0  0  0  0  0  0  0  0  0
    7.0918   -2.1621    0.4721 H   0  0  0  0  0  0  0  0  0  0  0  0
    4.6478   -1.9697    0.2240 H   0  0  0  0  0  0  0  0  0  0  0  0
    3.2788    1.0926   -2.4196 H   0  0  0  0  0  0  0  0  0  0  0  0
    0.8386    1.3094   -2.6479 H   0  0  0  0  0  0  0  0  0  0  0  0
  1  2  2  0
  2  3  1  0
  3  4  1  0
  4  5  1  0
  5  6  1  0
  6  7  1  0
  7  8  1  0
  8  9  1  0
  2 10  1  0
 10 11  1  0
 11 12  2  0
 12 13  1  0
 13 14  1  0
 14 15  2  0
 15 16  1  0
 16 17  2  0
 17 18  1  0
 18 19  2  0
 13 20  2  0
 20 21  1  0
  9  4  1  0
 21 10  2  0
 19 14  1  0
  3 22  1  0
  4 23  1  0
  5 24  1  0
  5 25  1  0
  6 26  1  0
  6 27  1  0
  7 28  1  0
  7 29  1  0
  8 30  1  0
  8 31  1  0
  9 32  1  0
  9 33  1  0
 11 34  1  0
 12 35  1  0
 15 36  1  0
 16 37  1  0
 17 38  1  0
 18 39  1  0
 19 40  1  0
 20 41  1  0
 21 42  1  0
M  END
>  <_SMILES>  (29) 
O=C(NC1CCCCC1)c1ccc(-c2ccccc2)cc1

$$$$

     RDKit          3D

 39 41  0  0  0  0  0  0  0  0999 V2000
   -1.6406   -1.5194    2.2052 O   0  0  0  0  0  0  0  0  0  0  0  0
   -1.3586   -1.3309    1.0273 C   0  0  0  0  0  0  0  0  0  0  0  0
   -2.2777   -1.3854    0.0013 N   0  0  0  0  0  0  0  0  0  0  0  0
   -3.6892   -1.5590    0.2641 C   0  0  0  0  0  0  0  0  0  0  0  0
   -4.4118   -0.2384    0.1943 C   0  0  0  0  0  0  0  0  0  0  0  0
   -5.0985    0.1450   -0.9664 C   0  0  0  0  0  0  0  0  0  0  0  0
   -5.7470    1.3798   -1.0287 C   0  0  0  0  0  0  0  0  0  0  0  0
   -5.7102    2.2445    0.0640 C   0  0  0  0  0  0  0  0  0  0  0  0
   -5.0237    1.8773    1.2198 C   0  0  0  0  0  0  0  0  0  0  0  0
   -4.3755    0.6434    1.2843 C   0  0  0  0  0  0  0  0  0  0  0  0
    0.0377   -0.9839    0.6416 C   0  0  0  0  0  0  0  0  0  0  0  0
    0.8534   -0.3556    1.5877 C   0  0  0  0  0  0  0  0  0  0  0  0
    2.1703   -0.0110    1.2656 C   0  0  0  0  0  0  0  0  0  0  0  0
    2.7040   -0.2959   -0.0018 C   0  0  0  0  0  0  0  0  0  0  0  0
    4.0902    0.0670   -0.3392 C   0  0  0  0  0  0  0  0  0  0  0  0
    4.9937   -0.8943   -0.8223 C   0  0  0  0  0  0  0  0  0  0  0  0
    6.3097   -0.5498   -1.1429 C   0  0  0  0  0  0  0  0  0  0  0  0
    6.7445    0.7638   -0.9863 C   0  0  0  0  0  0  0  0  0  0  0  0
    5.8653    1.7322   -0.5088 C   0  0  0  0  0  0  0  0  0  0  0  0
    4.5499    1.3859   -0.1876 C   0  0  0  0  0  0  0  0  0  0  0  0
    1.8778   -0.9438   -0.9358 C   0  0  0  0  0  0  0  0  0  0  0  0
    0.5582   -1.2888   -0.6203 C   0  0  0  0  0  0  0  0  0  0  0  0
   -2.0332   -0.9774   -0.8894 H   0  0  0  0  0  0  0  0  0  0  0  0
   -4.0760   -2.2452   -0.4974 H   0  0  0  0  0  0  0  0  0  0  0  0
   -3.8533   -2.0316    1.2390 H   0  0  0  0  0  0  0  0  0  0  0  0
   -5.1355   -0.5164   -1.8288 H   0  0  0  0  0  0  0  0  0  0  0  0
   -6.2814    1.6683   -1.9301 H   0  0  0  0  0  0  0  0  0  0  0  0
   -6.2152    3.2056    0.0149 H   0  0  0  0  0  0  0  0  0  0  0  0
   -4.9902    2.5514    2.0717 H   0  0  0  0  0  0  0  0  0  0  0  0
   -3.8350    0.3680    2.1892 H   0  0  0  0  0  0  0  0  0  0  0  0
    0.4667   -0.1310    2.5799 H   0  0  0  0  0  0  0  0  0  0  0  0
    2.7860    0.4717    2.0226 H   0  0  0  0  0  0  0  0  0  0  0  0
    4.6793   -1.9294   -0.9401 H   0  0  0  0  0  0  0  0  0  0  0  0
    6.9946   -1.3092   -1.5109 H   0  0  0  0  0  0  0  0  0  0  0  0
    7.7678    1.0322   -1.2349 H   0  0  0  0  0  0  0  0  0  0  0  0
    6.2006    2.7589   -0.3868 H   0  0  0  0  0  0  0  0  0  0  0  0
    3.8772    2.1608    0.1746 H   0  0  0  0  0  0  0  0  0  0  0  0
    2.2612   -1.1823   -1.9266 H   0  0  0  0  0  0  0  0  0  0  0  0
   -0.0356   -1.8147   -1.3620 H   0  0  0  0  0  0  0  0  0  0  0  0
  1  2  2  0
  2  3  1  0
  3  4  1  0
  4  5  1  0
  5  6  2  0
  6  7  1  0
  7  8  2  0
  8  9  1  0
  9 10  2  0
  2 11  1  0
 11 12  1  0
 12 13  2  0
 13 14  1  0
 14 15  1  0
 15 16  2  0
 16 17  1  0
 17 18  2  0
 18 19  1  0
 19 20  2  0
 14 21  2  0
 21 22  1  0
 10  5  1  0
 22 11  2  0
 20 15  1  0
  3 23  1  0
  4 24  1  0
  4 25  1  0
  6 26  1  0
  7 27  1  0
  8 28  1  0
  9 29  1  0
 10 30  1  0
 12 31  1  0
 13 32  1  0
 16 33  1  0
 17 34  1  0
 18 35  1  0
 19 36  1  0
 20 37  1  0
 21 38  1  0
 22 39  1  0
M  END
>  <_SMILES>  (30) 
O=C(NCc1ccccc1)c1ccc(-c2ccccc2)cc1

$$$$

     RDKit          3D

 50 54  0  0  0  0  0  0  0  0999 V2000
   -0.6424    1.3111   -2.6224 O   0  0  0  0  0  0  0  0  0  0  0  0
   -0.4784    0.6438   -1.6031 C   0  0  0  0  0  0  0  0  0  0  0  0
    0.9095    0.5082   -1.1063 C   0  0  0  0  0  0  0  0  0  0  0  0
    1.6444    1.6630   -0.8337 C   0  0  0  0  0  0  0  0  0  0  0  0
    2.9627    1.5548   -0.3820 C   0  0  0  0  0  0  0  0  0  0  0  0
    3.5701    0.2979   -0.2107 C   0  0  0  0  0  0  0  0  0  0  0  0
    4.9597    0.1873    0.2631 C   0  0  0  0  0  0  0  0  0  0  0  0
    6.0022    0.8699   -0.3857 C   0  0  0  0  0  0  0  0  0  0  0  0
    7.3216    0.7650    0.0629 C   0  0  0  0  0  0  0  0  0  0  0  0
    7.6209   -0.0246    1.1700 C   0  0  0  0  0  0  0  0  0  0  0  0
    6.6027   -0.7096    1.8281 C   0  0  0  0  0  0  0  0  0  0  0  0
    5.2839   -0.6045    1.3775 C   0  0  0  0  0  0  0  0  0  0  0  0
    2.8179   -0.8508   -0.5161 C   0  0  0  0  0  0  0  0  0  0  0  0
    1.4992   -0.7503   -0.9691 C   0  0  0  0  0  0  0  0  0  0  0  0
   -1.5216    0.0135   -0.9017 N   0  0  0  0  0  0  0  0  0  0  0  0
   -1.3422   -0.4595    0.4715 C   0  0  0  0  0  0  0  0  0  0  0  0
   -2.5671   -0.5126    1.3956 C   0  0  2  0  0  0  0  0  0  0  0  0
   -3.4802   -1.7019    1.0803 C   0  0  0  0  0  0  0  0  0  0  0  0
   -4.4142   -1.4395   -0.0991 C   0  0  1  0  0  0  0  0  0  0  0  0
   -5.2572   -0.1965    0.1936 C   0  0  0  0  0  0  0  0  0  0  0  0
   -4.3429    1.0239    0.3231 C   0  0  1  0  0  0  0  0  0  0  0  0
   -3.3378    0.8154    1.4656 C   0  0  0  0  0  0  0  0  0  0  0  0
   -3.6491    1.2732   -1.0188 C   0  0  0  0  0  0  0  0  0  0  0  0
   -2.8560    0.0580   -1.5169 C   0  0  2  0  0  0  0  0  0  0  0  0
   -3.6356   -1.2628   -1.4079 C   0  0  0  0  0  0  0  0  0  0  0  0
    1.1939    2.6428   -0.9733 H   0  0  0  0  0  0  0  0  0  0  0  0
    3.5172    2.4646   -0.1588 H   0  0  0  0  0  0  0  0  0  0  0  0
    5.7927    1.4832   -1.2601 H   0  0  0  0  0  0  0  0  0  0  0  0
    8.1142    1.2985   -0.4556 H   0  0  0  0  0  0  0  0  0  0  0  0
    8.6468   -0.1062    1.5193 H   0  0  0  0  0  0  0  0  0  0  0  0
    6.8326   -1.3246    2.6942 H   0  0  0  0  0  0  0  0  0  0  0  0
    4.5027   -1.1398    1.9134 H   0  0  0  0  0  0  0  0  0  0  0  0
    3.2687   -1.8374   -0.4229 H   0  0  0  0  0  0  0  0  0  0  0  0
    0.9458   -1.6488   -1.2283 H   0  0  0  0  0  0  0  0  0  0  0  0
   -0.8970   -1.4593    0.4063 H   0  0  0  0  0  0  0  0  0  0  0  0
   -0.5978    0.1835    0.9564 H   0  0  0  0  0  0  0  0  0  0  0  0
   -2.1597   -0.6987    2.3998 H   0  0  0  0  0  0  0  0  0  0  0  0
   -2.8869   -2.6070    0.9015 H   0  0  0  0  0  0  0  0  0  0  0  0
   -4.0923   -1.9140    1.9675 H   0  0  0  0  0  0  0  0  0  0  0  0
   -5.0815   -2.3036   -0.2068 H   0  0  0  0  0  0  0  0  0  0  0  0
   -5.8305   -0.3370    1.1183 H   0  0  0  0  0  0  0  0  0  0  0  0
   -5.9886   -0.0395   -0.6089 H   0  0  0  0  0  0  0  0  0  0  0  0
   -4.9557    1.9028    0.5592 H   0  0  0  0  0  0  0  0  0  0  0  0
   -3.8996    0.8278    2.4097 H   0  0  0  0  0  0  0  0  0  0  0  0
   -2.6396    1.6598    1.5182 H   0  0  0  0  0  0  0  0  0  0  0  0
   -4.4200    1.5121   -1.7637 H   0  0  0  0  0  0  0  0  0  0  0  0
   -3.0040    2.1579   -0.9500 H   0  0  0  0  0  0  0  0  0  0  0  0
   -2.6964    0.2117   -2.5923 H   0  0  0  0  0  0  0  0  0  0  0  0
   -4.3679   -1.2844   -2.2269 H   0  0  0  0  0  0  0  0  0  0  0  0
   -2.9673   -2.1169   -1.5738 H   0  0  0  0  0  0  0  0  0  0  0  0
  1  2  2  0
  2  3  1  0
  3  4  1  0
  4  5  2  0
  5  6  1  0
  6  7  1  0
  7  8  2  0
  8  9  1  0
  9 10  2  0
 10 11  1  0
 11 12  2  0
  6 13  2  0
 13 14  1  0
  2 15  1  0
 15 16  1  0
 16 17  1  0
 17 18  1  0
 18 19  1  0
 19 20  1  0
 20 21  1  0
 21 22  1  0
 21 23  1  0
 23 24  1  0
 24 25  1  0
 14  3  2  0
 24 15  1  0
 12  7  1  0
 22 17  1  0
 25 19  1  0
  4 26  1  0
  5 27  1  0
  8 28  1  0
  9 29  1  0
 10 30  1  0
 11 31  1  0
 12 32  1  0
 13 33  1  0
 14 34  1  0
 16 35  1  0
 16 36  1  0
 17 37  1  1
 18 38  1  0
 18 39  1  0
 19 40  1  6
 20 41  1  0
 20 42  1  0
 21 43  1  1
 22 44  1  0
 22 45  1  0
 23 46  1  0
 23 47  1  0
 24 48  1  6
 25 49  1  0
 25 50  1  0
M  END
>  <_SMILES>  (31) 
O=C(c1ccc(-c2ccccc2)cc1)N1C[C@@H]2C[C@H]3C[C@@H](C2)C[C@@H]1C3

$$$$

     RDKit          3D

 45 47  0  0  0  0  0  0  0  0999 V2000
   -0.8477   -2.7688   -0.4427 O   0  0  0  0  0  0  0  0  0  0  0  0
   -0.6206   -1.5647   -0.4719 C   0  0  0  0  0  0  0  0  0  0  0  0
   -1.5731   -0.6148   -0.7792 N   0  0  0  0  0  0  0  0  0  0  0  0
   -2.9736   -0.9666   -0.9878 C   0  0  0  0  0  0  0  0  0  0  0  0
   -3.6715   -1.2179    0.3644 C   0  0  0  0  0  0  0  0  0  0  0  0
   -5.1619   -0.8885    0.3884 C   0  0  0  0  0  0  0  0  0  0  0  0
   -5.5016    0.6079    0.4131 C   0  0  0  0  0  0  0  0  0  0  0  0
   -4.3714    1.5720    0.0594 C   0  0  0  0  0  0  0  0  0  0  0  0
   -3.8436    1.4597   -1.3668 C   0  0  0  0  0  0  0  0  0  0  0  0
   -3.6562    0.0472   -1.9169 C   0  0  0  0  0  0  0  0  0  0  0  0
    0.7520   -1.0596   -0.1946 C   0  0  0  0  0  0  0  0  0  0  0  0
    0.9833    0.1923    0.3845 C   0  0  0  0  0  0  0  0  0  0  0  0
    2.2942    0.6192    0.6286 C   0  0  0  0  0  0  0  0  0  0  0  0
    3.3959   -0.1933    0.3106 C   0  0  0  0  0  0  0  0  0  0  0  0
    4.7718    0.2599    0.5726 C   0  0  0  0  0  0  0  0  0  0  0  0
    5.6592   -0.5215    1.3314 C   0  0  0  0  0  0  0  0  0  0  0  0
    6.9653   -0.0916    1.5817 C   0  0  0  0  0  0  0  0  0  0  0  0
    7.4068    1.1281    1.0757 C   0  0  0  0  0  0  0  0  0  0  0  0
    6.5439    1.9180    0.3204 C   0  0  0  0  0  0  0  0  0  0  0  0
    5.2377    1.4872    0.0720 C   0  0  0  0  0  0  0  0  0  0  0  0
    3.1446   -1.4543   -0.2542 C   0  0  0  0  0  0  0  0  0  0  0  0
    1.8374   -1.8865   -0.5005 C   0  0  0  0  0  0  0  0  0  0  0  0
   -1.3139    0.3602   -0.8161 H   0  0  0  0  0  0  0  0  0  0  0  0
   -2.9774   -1.9231   -1.5287 H   0  0  0  0  0  0  0  0  0  0  0  0
   -3.1639   -0.6848    1.1781 H   0  0  0  0  0  0  0  0  0  0  0  0
   -3.5497   -2.2814    0.6113 H   0  0  0  0  0  0  0  0  0  0  0  0
   -5.6616   -1.3686   -0.4618 H   0  0  0  0  0  0  0  0  0  0  0  0
   -5.6074   -1.3504    1.2790 H   0  0  0  0  0  0  0  0  0  0  0  0
   -5.8434    0.8593    1.4257 H   0  0  0  0  0  0  0  0  0  0  0  0
   -6.3622    0.7902   -0.2424 H   0  0  0  0  0  0  0  0  0  0  0  0
   -4.7306    2.5984    0.2088 H   0  0  0  0  0  0  0  0  0  0  0  0
   -3.5434    1.4554    0.7682 H   0  0  0  0  0  0  0  0  0  0  0  0
   -2.8920    2.0026   -1.4254 H   0  0  0  0  0  0  0  0  0  0  0  0
   -4.5292    1.9923   -2.0386 H   0  0  0  0  0  0  0  0  0  0  0  0
   -4.6348   -0.3445   -2.2211 H   0  0  0  0  0  0  0  0  0  0  0  0
   -3.0780    0.1229   -2.8478 H   0  0  0  0  0  0  0  0  0  0  0  0
    0.1618    0.8357    0.6841 H   0  0  0  0  0  0  0  0  0  0  0  0
    2.4531    1.5905    1.0944 H   0  0  0  0  0  0  0  0  0  0  0  0
    5.3320   -1.4732    1.7458 H   0  0  0  0  0  0  0  0  0  0  0  0
    7.6351   -0.7098    2.1738 H   0  0  0  0  0  0  0  0  0  0  0  0
    8.4226    1.4624    1.2693 H   0  0  0  0  0  0  0  0  0  0  0  0
    6.8866    2.8689   -0.0792 H   0  0  0  0  0  0  0  0  0  0  0  0
    4.5846    2.1149   -0.5308 H   0  0  0  0  0  0  0  0  0  0  0  0
    3.9719   -2.1117   -0.5161 H   0  0  0  0  0  0  0  0  0  0  0  0
    1.6689   -2.8696   -0.9362 H   0  0  0  0  0  0  0  0  0  0  0  0
  1  2  2  0
  2  3  1  0
  3  4  1  0
  4  5  1  0
  5  6  1  0
  6  7  1  0
  7  8  1  0
  8  9  1  0
  9 10  1  0
  2 11  1  0
 11 12  1  0
 12 13  2  0
 13 14  1  0
 14 15  1  0
 15 16  2  0
 16 17  1  0
 17 18  2  0
 18 19  1  0
 19 20  2  0
 14 21  2  0
 21 22  1  0
 10  4  1  0
 22 11  2  0
 20 15  1  0
  3 23  1  0
  4 24  1  0
  5 25  1  0
  5 26  1  0
  6 27  1  0
  6 28  1  0
  7 29  1  0
  7 30  1  0
  8 31  1  0
  8 32  1  0
  9 33  1  0
  9 34  1  0
 10 35  1  0
 10 36  1  0
 12 37  1  0
 13 38  1  0
 16 39  1  0
 17 40  1  0
 18 41  1  0
 19 42  1  0
 20 43  1  0
 21 44  1  0
 22 45  1  0
M  END
>  <_SMILES>  (32) 
O=C(NC1CCCCCC1)c1ccc(-c2ccccc2)cc1

$$$$

     RDKit          3D

 50 54  0  0  0  0  0  0  0  0999 V2000
   -0.1477   -1.8392   -1.8442 O   0  0  0  0  0  0  0  0  0  0  0  0
   -0.0141   -1.1422   -0.8452 C   0  0  0  0  0  0  0  0  0  0  0  0
   -1.0719   -0.6518   -0.1072 N   0  0  0  0  0  0  0  0  0  0  0  0
   -2.4553   -0.9045   -0.4883 C   0  0  1  0  0  0  0  0  0  0  0  0
   -3.4300   -0.6586    0.6888 C   0  0  2  0  0  0  0  0  0  0  0  0
   -4.8412   -1.1011    0.2530 C   0  0  0  0  0  0  0  0  0  0  0  0
   -5.3002   -0.2820   -0.9675 C   0  0  1  0  0  0  0  0  0  0  0  0
   -5.3270    1.2097   -0.5930 C   0  0  0  0  0  0  0  0  0  0  0  0
   -3.9243    1.6683   -0.1587 C   0  0  1  0  0  0  0  0  0  0  0  0
   -3.4778    0.8385    1.0557 C   0  0  0  0  0  0  0  0  0  0  0  0
   -2.9369    1.4451   -1.3161 C   0  0  0  0  0  0  0  0  0  0  0  0
   -2.8947   -0.0467   -1.7013 C   0  0  2  0  0  0  0  0  0  0  0  0
   -4.3086   -0.4900   -2.1261 C   0  0  0  0  0  0  0  0  0  0  0  0
    1.3473   -0.8095   -0.3437 C   0  0  0  0  0  0  0  0  0  0  0  0
    2.3903   -1.7027   -0.6061 C   0  0  0  0  0  0  0  0  0  0  0  0
    3.6850   -1.4261   -0.1548 C   0  0  0  0  0  0  0  0  0  0  0  0
    3.9675   -0.2496    0.5584 C   0  0  0  0  0  0  0  0  0  0  0  0
    5.3311    0.0424    1.0301 C   0  0  0  0  0  0  0  0  0  0  0  0
    5.5824    0.3388    2.3803 C   0  0  0  0  0  0  0  0  0  0  0  0
    6.8768    0.6161    2.8287 C   0  0  0  0  0  0  0  0  0  0  0  0
    7.9428    0.6028    1.9329 C   0  0  0  0  0  0  0  0  0  0  0  0
    7.7158    0.3119    0.5902 C   0  0  0  0  0  0  0  0  0  0  0  0
    6.4211    0.0337    0.1437 C   0  0  0  0  0  0  0  0  0  0  0  0
    2.9119    0.6465    0.7992 C   0  0  0  0  0  0  0  0  0  0  0  0
    1.6139    0.3754    0.3502 C   0  0  0  0  0  0  0  0  0  0  0  0
   -0.8883   -0.2180    0.7862 H   0  0  0  0  0  0  0  0  0  0  0  0
   -2.5057   -1.9648   -0.7713 H   0  0  0  0  0  0  0  0  0  0  0  0
   -3.1171   -1.2386    1.5652 H   0  0  0  0  0  0  0  0  0  0  0  0
   -4.8399   -2.1701    0.0073 H   0  0  0  0  0  0  0  0  0  0  0  0
   -5.5480   -0.9666    1.0810 H   0  0  0  0  0  0  0  0  0  0  0  0
   -6.3013   -0.6045   -1.2744 H   0  0  0  0  0  0  0  0  0  0  0  0
   -5.6678    1.8053   -1.4488 H   0  0  0  0  0  0  0  0  0  0  0  0
   -6.0450    1.3794    0.2188 H   0  0  0  0  0  0  0  0  0  0  0  0
   -3.9494    2.7308    0.1075 H   0  0  0  0  0  0  0  0  0  0  0  0
   -4.1747    0.9937    1.8889 H   0  0  0  0  0  0  0  0  0  0  0  0
   -2.4971    1.1830    1.4036 H   0  0  0  0  0  0  0  0  0  0  0  0
   -3.2405    2.0436   -2.1840 H   0  0  0  0  0  0  0  0  0  0  0  0
   -1.9373    1.7934   -1.0295 H   0  0  0  0  0  0  0  0  0  0  0  0
   -2.2050   -0.1830   -2.5418 H   0  0  0  0  0  0  0  0  0  0  0  0
   -4.6325    0.0835   -3.0033 H   0  0  0  0  0  0  0  0  0  0  0  0
   -4.2967   -1.5456   -2.4238 H   0  0  0  0  0  0  0  0  0  0  0  0
    2.1977   -2.6198   -1.1597 H   0  0  0  0  0  0  0  0  0  0  0  0
    4.4760   -2.1456   -0.3593 H   0  0  0  0  0  0  0  0  0  0  0  0
    4.7664    0.3431    3.1000 H   0  0  0  0  0  0  0  0  0  0  0  0
    7.0512    0.8391    3.8780 H   0  0  0  0  0  0  0  0  0  0  0  0
    8.9496    0.8184    2.2807 H   0  0  0  0  0  0  0  0  0  0  0  0
    8.5450    0.3031   -0.1125 H   0  0  0  0  0  0  0  0  0  0  0  0
    6.2652   -0.1803   -0.9120 H   0  0  0  0  0  0  0  0  0  0  0  0
    3.1026    1.5814    1.3236 H   0  0  0  0  0  0  0  0  0  0  0  0
    0.8364    1.1137    0.5225 H   0  0  0  0  0  0  0  0  0  0  0  0
  1  2  2  0
  2  3  1  0
  3  4  1  0
  4  5  1  0
  5  6  1  0
  6  7  1  0
  7  8  1  0
  8  9  1  0
  9 10  1  0
  9 11  1  0
 11 12  1  0
 12 13  1  0
  2 14  1  0
 14 15  1  0
 15 16  2  0
 16 17  1  0
 17 18  1  0
 18 19  2  0
 19 20  1  0
 20 21  2  0
 21 22  1  0
 22 23  2  0
 17 24  2  0
 24 25  1  0
 12  4  1  0
 25 14  2  0
 10  5  1  0
 23 18  1  0
 13  7  1  0
  3 26  1  0
  4 27  1  6
  5 28  1  1
  6 29  1  0
  6 30  1  0
  7 31  1  6
  8 32  1  0
  8 33  1  0
  9 34  1  1
 10 35  1  0
 10 36  1  0
 11 37  1  0
 11 38  1  0
 12 39  1  6
 13 40  1  0
 13 41  1  0
 15 42  1  0
 16 43  1  0
 19 44  1  0
 20 45  1  0
 21 46  1  0
 22 47  1  0
 23 48  1  0
 24 49  1  0
 25 50  1  0
M  END
>  <_SMILES>  (33) 
O=C(N[C@H]1[C@@H]2C[C@H]3C[C@@H](C2)C[C@@H]1C3)c1ccc(-c2ccccc2)cc1

$$$$

     RDKit          3D

 49 53  0  0  0  0  0  0  0  0999 V2000
   -0.3069   -2.0950    0.5259 O   0  0  0  0  0  0  0  0  0  0  0  0
    0.0404   -0.9314    0.3693 C   0  0  0  0  0  0  0  0  0  0  0  0
   -0.8262    0.1326    0.2175 N   0  0  0  0  0  0  0  0  0  0  0  0
   -2.2884    0.0105    0.1772 C   0  0  2  0  0  0  0  0  0  0  0  0
   -2.8920    1.4348    0.0361 C   0  0  0  0  0  0  0  0  0  0  0  0
   -4.4269    1.3816   -0.0200 C   0  0  1  0  0  0  0  0  0  0  0  0
   -4.8580    0.5290   -1.2237 C   0  0  0  0  0  0  0  0  0  0  0  0
   -4.2938   -0.8942   -1.0881 C   0  0  2  0  0  0  0  0  0  0  0  0
   -4.8189   -1.5260    0.2124 C   0  0  0  0  0  0  0  0  0  0  0  0
   -4.3917   -0.6788    1.4232 C   0  0  2  0  0  0  0  0  0  0  0  0
   -4.9561    0.7422    1.2728 C   0  0  0  0  0  0  0  0  0  0  0  0
   -2.8549   -0.6135    1.4780 C   0  0  0  0  0  0  0  0  0  0  0  0
   -2.7570   -0.8296   -1.0362 C   0  0  0  0  0  0  0  0  0  0  0  0
    1.4914   -0.6033    0.2919 C   0  0  0  0  0  0  0  0  0  0  0  0
    2.3722   -1.5796   -0.1827 C   0  0  0  0  0  0  0  0  0  0  0  0
    3.7426   -1.3118   -0.2682 C   0  0  0  0  0  0  0  0  0  0  0  0
    4.2641   -0.0685    0.1268 C   0  0  0  0  0  0  0  0  0  0  0  0
    5.7045    0.2118    0.0401 C   0  0  0  0  0  0  0  0  0  0  0  0
    6.1986    1.3552   -0.6012 C   0  0  0  0  0  0  0  0  0  0  0  0
    7.5715    1.5890   -0.6671 C   0  0  0  0  0  0  0  0  0  0  0  0
    8.4234    0.6668   -0.0851 C   0  0  0  0  0  0  0  0  0  0  0  0
    7.9994   -0.4475    0.5446 N   0  0  0  0  0  0  0  0  0  0  0  0
    6.6587   -0.6452    0.5919 C   0  0  0  0  0  0  0  0  0  0  0  0
    3.3674    0.8969    0.6170 C   0  0  0  0  0  0  0  0  0  0  0  0
    1.9949    0.6344    0.7048 C   0  0  0  0  0  0  0  0  0  0  0  0
   -0.4362    0.9901   -0.1496 H   0  0  0  0  0  0  0  0  0  0  0  0
   -2.5727    2.0646    0.8773 H   0  0  0  0  0  0  0  0  0  0  0  0
   -2.5076    1.9195   -0.8716 H   0  0  0  0  0  0  0  0  0  0  0  0
   -4.8290    2.3957   -0.1223 H   0  0  0  0  0  0  0  0  0  0  0  0
   -5.9527    0.4939   -1.2851 H   0  0  0  0  0  0  0  0  0  0  0  0
   -4.5014    0.9866   -2.1546 H   0  0  0  0  0  0  0  0  0  0  0  0
   -4.6084   -1.4990   -1.9460 H   0  0  0  0  0  0  0  0  0  0  0  0
   -4.4334   -2.5478    0.3150 H   0  0  0  0  0  0  0  0  0  0  0  0
   -5.9128   -1.6008    0.1762 H   0  0  0  0  0  0  0  0  0  0  0  0
   -4.7744   -1.1320    2.3446 H   0  0  0  0  0  0  0  0  0  0  0  0
   -6.0524    0.7103    1.2539 H   0  0  0  0  0  0  0  0  0  0  0  0
   -4.6702    1.3529    2.1380 H   0  0  0  0  0  0  0  0  0  0  0  0
   -2.4647   -1.6257    1.6333 H   0  0  0  0  0  0  0  0  0  0  0  0
   -2.5362   -0.0250    2.3484 H   0  0  0  0  0  0  0  0  0  0  0  0
   -2.3699   -0.3959   -1.9675 H   0  0  0  0  0  0  0  0  0  0  0  0
   -2.3570   -1.8492   -0.9836 H   0  0  0  0  0  0  0  0  0  0  0  0
    1.9936   -2.5525   -0.4915 H   0  0  0  0  0  0  0  0  0  0  0  0
    4.4006   -2.0874   -0.6575 H   0  0  0  0  0  0  0  0  0  0  0  0
    5.5180    2.0647   -1.0658 H   0  0  0  0  0  0  0  0  0  0  0  0
    7.9654    2.4680   -1.1648 H   0  0  0  0  0  0  0  0  0  0  0  0
    9.5007    0.8035   -0.1113 H   0  0  0  0  0  0  0  0  0  0  0  0
    6.3619   -1.5492    1.1189 H   0  0  0  0  0  0  0  0  0  0  0  0
    3.7386    1.8615    0.9600 H   0  0  0  0  0  0  0  0  0  0  0  0
    1.3420    1.3929    1.1275 H   0  0  0  0  0  0  0  0  0  0  0  0
  1  2  2  0
  2  3  1  0
  4  3  1  1
  4  5  1  0
  5  6  1  0
  6  7  1  0
  7  8  1  0
  8  9  1  0
  9 10  1  0
 10 11  1  0
 10 12  1  0
  8 13  1  0
  2 14  1  0
 14 15  1  0
 15 16  2  0
 16 17  1  0
 17 18  1  0
 18 19  1  0
 19 20  2  0
 20 21  1  0
 21 22  2  0
 22 23  1  0
 17 24  2  0
 24 25  1  0
 12  4  1  0
 25 14  2  0
 13  4  1  0
 23 18  2  0
 11  6  1  0
  3 26  1  0
  5 27  1  0
  5 28  1  0
  6 29  1  6
  7 30  1  0
  7 31  1  0
  8 32  1  6
  9 33  1  0
  9 34  1  0
 10 35  1  1
 11 36  1  0
 11 37  1  0
 12 38  1  0
 12 39  1  0
 13 40  1  0
 13 41  1  0
 15 42  1  0
 16 43  1  0
 19 44  1  0
 20 45  1  0
 21 46  1  0
 23 47  1  0
 24 48  1  0
 25 49  1  0
M  END
>  <_SMILES>  (34) 
O=C(N[C@]12C[C@H]3C[C@H](C[C@H](C3)C1)C2)c1ccc(-c2cccnc2)cc1

$$$$

     RDKit          3D

 27 29  0  0  0  0  0  0  0  0999 V2000
    2.7006    0.7268   -0.4129 O   0  0  0  0  0  0  0  0  0  0  0  0
    1.3455    0.3601   -0.1975 C   0  0  2  0  0  0  0  0  0  0  0  0
    0.4214    1.5499   -0.5136 C   0  0  0  0  0  0  0  0  0  0  0  0
   -1.0442    1.1565   -0.2668 C   0  0  1  0  0  0  0  0  0  0  0  0
   -1.4051   -0.0374   -1.1692 C   0  0  0  0  0  0  0  0  0  0  0  0
   -0.4905   -1.2353   -0.8558 C   0  0  2  0  0  0  0  0  0  0  0  0
   -0.6648   -1.6309    0.6214 C   0  0  0  0  0  0  0  0  0  0  0  0
   -0.2985   -0.4468    1.5340 C   0  0  2  0  0  0  0  0  0  0  0  0
   -1.2150    0.7456    1.2066 C   0  0  0  0  0  0  0  0  0  0  0  0
    1.1628   -0.0449    1.2755 C   0  0  0  0  0  0  0  0  0  0  0  0
    0.9724   -0.8300   -1.0996 C   0  0  0  0  0  0  0  0  0  0  0  0
    2.7973    0.9792   -1.3469 H   0  0  0  0  0  0  0  0  0  0  0  0
    0.5608    1.8714   -1.5539 H   0  0  0  0  0  0  0  0  0  0  0  0
    0.6961    2.4153    0.1033 H   0  0  0  0  0  0  0  0  0  0  0  0
   -1.6996    2.0046   -0.4939 H   0  0  0  0  0  0  0  0  0  0  0  0
   -2.4544   -0.3180   -1.0160 H   0  0  0  0  0  0  0  0  0  0  0  0
   -1.3017    0.2462   -2.2238 H   0  0  0  0  0  0  0  0  0  0  0  0
   -0.7537   -2.0815   -1.5000 H   0  0  0  0  0  0  0  0  0  0  0  0
   -1.7012   -1.9391    0.8064 H   0  0  0  0  0  0  0  0  0  0  0  0
   -0.0292   -2.4938    0.8551 H   0  0  0  0  0  0  0  0  0  0  0  0
   -0.4245   -0.7344    2.5836 H   0  0  0  0  0  0  0  0  0  0  0  0
   -0.9751    1.5925    1.8613 H   0  0  0  0  0  0  0  0  0  0  0  0
   -2.2608    0.4782    1.4017 H   0  0  0  0  0  0  0  0  0  0  0  0
    1.8381   -0.8734    1.5258 H   0  0  0  0  0  0  0  0  0  0  0  0
    1.4545    0.7837    1.9338 H   0  0  0  0  0  0  0  0  0  0  0  0
    1.1255   -0.5679   -2.1545 H   0  0  0  0  0  0  0  0  0  0  0  0
    1.6433   -1.6765   -0.9042 H   0  0  0  0  0  0  0  0  0  0  0  0
  2  1  1  1
  2  3  1  0
  3  4  1  0
  4  5  1  0
  5  6  1  0
  6  7  1  0
  7  8  1  0
  8  9  1  0
  8 10  1  0
  6 11  1  0
 10  2  1  0
 11  2  1  0
  9  4  1  0
  1 12  1  0
  3 13  1  0
  3 14  1  0
  4 15  1  6
  5 16  1  0
  5 17  1  0
  6 18  1  6
  7 19  1  0
  7 20  1  0
  8 21  1  1
  9 22  1  0
  9 23  1  0
 10 24  1  0
 10 25  1  0
 11 26  1  0
 11 27  1  0
M  END
>  <_SMILES>  (35) 
O[C@]12C[C@H]3C[C@H](C[C@H](C3)C1)C2

$$$$

     RDKit          3D

 32 34  0  0  0  0  0  0  0  0999 V2000
    4.1875   -0.7518    0.3685 C   0  0  0  0  0  0  0  0  0  0  0  0
    2.7606   -0.7822    0.4162 O   0  0  0  0  0  0  0  0  0  0  0  0
    2.1606    0.3054   -0.1468 C   0  0  0  0  0  0  0  0  0  0  0  0
    2.7646    1.2408   -0.6558 O   0  0  0  0  0  0  0  0  0  0  0  0
    0.6398    0.1974   -0.0559 C   0  0  2  0  0  0  0  0  0  0  0  0
    0.1917    0.1191    1.4218 C   0  0  0  0  0  0  0  0  0  0  0  0
   -1.3408    0.0142    1.5128 C   0  0  1  0  0  0  0  0  0  0  0  0
   -1.9738    1.2544    0.8613 C   0  0  0  0  0  0  0  0  0  0  0  0
   -1.5552    1.3445   -0.6152 C   0  0  2  0  0  0  0  0  0  0  0  0
   -2.0228    0.0804   -1.3545 C   0  0  0  0  0  0  0  0  0  0  0  0
   -1.3901   -1.1668   -0.7161 C   0  0  2  0  0  0  0  0  0  0  0  0
   -1.8070   -1.2457    0.7628 C   0  0  0  0  0  0  0  0  0  0  0  0
    0.1424   -1.0607   -0.8048 C   0  0  0  0  0  0  0  0  0  0  0  0
   -0.0228    1.4409   -0.7001 C   0  0  0  0  0  0  0  0  0  0  0  0
    4.5615   -1.6631    0.8431 H   0  0  0  0  0  0  0  0  0  0  0  0
    4.5714    0.1101    0.9233 H   0  0  0  0  0  0  0  0  0  0  0  0
    4.5362   -0.7336   -0.6688 H   0  0  0  0  0  0  0  0  0  0  0  0
    0.6449   -0.7484    1.9187 H   0  0  0  0  0  0  0  0  0  0  0  0
    0.5411    1.0033    1.9709 H   0  0  0  0  0  0  0  0  0  0  0  0
   -1.6450   -0.0472    2.5637 H   0  0  0  0  0  0  0  0  0  0  0  0
   -1.6605    2.1596    1.3958 H   0  0  0  0  0  0  0  0  0  0  0  0
   -3.0668    1.2014    0.9382 H   0  0  0  0  0  0  0  0  0  0  0  0
   -2.0078    2.2304   -1.0745 H   0  0  0  0  0  0  0  0  0  0  0  0
   -3.1166    0.0070   -1.3160 H   0  0  0  0  0  0  0  0  0  0  0  0
   -1.7448    0.1411   -2.4139 H   0  0  0  0  0  0  0  0  0  0  0  0
   -1.7292   -2.0648   -1.2444 H   0  0  0  0  0  0  0  0  0  0  0  0
   -1.3733   -2.1400    1.2270 H   0  0  0  0  0  0  0  0  0  0  0  0
   -2.8968   -1.3442    0.8391 H   0  0  0  0  0  0  0  0  0  0  0  0
    0.5940   -1.9672   -0.3817 H   0  0  0  0  0  0  0  0  0  0  0  0
    0.4564   -1.0244   -1.8562 H   0  0  0  0  0  0  0  0  0  0  0  0
    0.2832    1.5339   -1.7506 H   0  0  0  0  0  0  0  0  0  0  0  0
    0.3176    2.3563   -0.1983 H   0  0  0  0  0  0  0  0  0  0  0  0
  1  2  1  0
  2  3  1  0
  3  4  2  0
  5  3  1  1
  5  6  1  0
  6  7  1  0
  7  8  1  0
  8  9  1  0
  9 10  1  0
 10 11  1  0
 11 12  1  0
 11 13  1  0
  9 14  1  0
 13  5  1  0
 14  5  1  0
 12  7  1  0
  1 15  1  0
  1 16  1  0
  1 17  1  0
  6 18  1  0
  6 19  1  0
  7 20  1  1
  8 21  1  0
  8 22  1  0
  9 23  1  6
 10 24  1  0
 10 25  1  0
 11 26  1  6
 12 27  1  0
 12 28  1  0
 13 29  1  0
 13 30  1  0
 14 31  1  0
 14 32  1  0
M  END
>  <_SMILES>  (36) 
COC(=O)[C@]12C[C@H]3C[C@H](C[C@H](C3)C1)C2

$$$$

     RDKit          3D

 44 47  0  0  0  0  0  0  0  0999 V2000
    7.1580   -0.0695   -0.8931 C   0  0  0  0  0  0  0  0  0  0  0  0
    6.5151    0.4398    0.2684 O   0  0  0  0  0  0  0  0  0  0  0  0
    5.1496    0.5040    0.2445 C   0  0  0  0  0  0  0  0  0  0  0  0
    4.5711    1.0363    1.3999 C   0  0  0  0  0  0  0  0  0  0  0  0
    3.1840    1.1601    1.5105 C   0  0  0  0  0  0  0  0  0  0  0  0
    2.3587    0.7381    0.4643 C   0  0  0  0  0  0  0  0  0  0  0  0
    0.8843    0.8840    0.6165 C   0  0  0  0  0  0  0  0  0  0  0  0
    0.4352    1.7816    1.3176 O   0  0  0  0  0  0  0  0  0  0  0  0
    0.1176   -0.0589   -0.0390 N   0  0  0  0  0  0  0  0  0  0  0  0
   -1.3446   -0.1466    0.0539 C   0  0  2  0  0  0  0  0  0  0  0  0
   -1.8065   -0.4532    1.4997 C   0  0  0  0  0  0  0  0  0  0  0  0
   -3.3376   -0.5973    1.5592 C   0  0  1  0  0  0  0  0  0  0  0  0
   -3.9890    0.7090    1.0741 C   0  0  0  0  0  0  0  0  0  0  0  0
   -3.5676    1.0048   -0.3755 C   0  0  2  0  0  0  0  0  0  0  0  0
   -4.0049   -0.1587   -1.2785 C   0  0  0  0  0  0  0  0  0  0  0  0
   -3.3492   -1.4646   -0.8042 C   0  0  2  0  0  0  0  0  0  0  0  0
   -3.7754   -1.7519    0.6441 C   0  0  0  0  0  0  0  0  0  0  0  0
   -1.8211   -1.3097   -0.8587 C   0  0  0  0  0  0  0  0  0  0  0  0
   -2.0366    1.1504   -0.4376 C   0  0  0  0  0  0  0  0  0  0  0  0
    2.9349    0.2186   -0.7016 C   0  0  0  0  0  0  0  0  0  0  0  0
    4.3267    0.0992   -0.8080 C   0  0  0  0  0  0  0  0  0  0  0  0
    6.9519    0.5587   -1.7660 H   0  0  0  0  0  0  0  0  0  0  0  0
    6.8721   -1.1102   -1.0780 H   0  0  0  0  0  0  0  0  0  0  0  0
    8.2374   -0.0476   -0.7146 H   0  0  0  0  0  0  0  0  0  0  0  0
    5.2063    1.3626    2.2203 H   0  0  0  0  0  0  0  0  0  0  0  0
    2.7505    1.5841    2.4141 H   0  0  0  0  0  0  0  0  0  0  0  0
    0.5978   -0.8851   -0.3690 H   0  0  0  0  0  0  0  0  0  0  0  0
   -1.4943    0.3423    2.1868 H   0  0  0  0  0  0  0  0  0  0  0  0
   -1.3305   -1.3745    1.8605 H   0  0  0  0  0  0  0  0  0  0  0  0
   -3.6483   -0.8048    2.5893 H   0  0  0  0  0  0  0  0  0  0  0  0
   -5.0812    0.6273    1.1362 H   0  0  0  0  0  0  0  0  0  0  0  0
   -3.6944    1.5397    1.7271 H   0  0  0  0  0  0  0  0  0  0  0  0
   -4.0401    1.9332   -0.7155 H   0  0  0  0  0  0  0  0  0  0  0  0
   -5.0971   -0.2587   -1.2590 H   0  0  0  0  0  0  0  0  0  0  0  0
   -3.7226    0.0470   -2.3184 H   0  0  0  0  0  0  0  0  0  0  0  0
   -3.6609   -2.2913   -1.4522 H   0  0  0  0  0  0  0  0  0  0  0  0
   -3.3278   -2.6927    0.9873 H   0  0  0  0  0  0  0  0  0  0  0  0
   -4.8636   -1.8794    0.6962 H   0  0  0  0  0  0  0  0  0  0  0  0
   -1.3452   -2.2505   -0.5507 H   0  0  0  0  0  0  0  0  0  0  0  0
   -1.5026   -1.1310   -1.8945 H   0  0  0  0  0  0  0  0  0  0  0  0
   -1.7398    2.0118    0.1714 H   0  0  0  0  0  0  0  0  0  0  0  0
   -1.7238    1.3786   -1.4649 H   0  0  0  0  0  0  0  0  0  0  0  0
    2.3179   -0.0705   -1.5479 H   0  0  0  0  0  0  0  0  0  0  0  0
    4.7353   -0.3042   -1.7288 H   0  0  0  0  0  0  0  0  0  0  0  0
  1  2  1  0
  2  3  1  0
  3  4  1  0
  4  5  2  0
  5  6  1  0
  6  7  1  0
  7  8  2  0
  7  9  1  0
 10  9  1  1
 10 11  1  0
 11 12  1  0
 12 13  1  0
 13 14  1  0
 14 15  1  0
 15 16  1  0
 16 17  1  0
 16 18  1  0
 14 19  1  0
  6 20  2  0
 20 21  1  0
 21  3  2  0
 18 10  1  0
 19 10  1  0
 17 12  1  0
  1 22  1  0
  1 23  1  0
  1 24  1  0
  4 25  1  0
  5 26  1  0
  9 27  1  0
 11 28  1  0
 11 29  1  0
 12 30  1  1
 13 31  1  0
 13 32  1  0
 14 33  1  6
 15 34  1  0
 15 35  1  0
 16 36  1  6
 17 37  1  0
 17 38  1  0
 18 39  1  0
 18 40  1  0
 19 41  1  0
 19 42  1  0
 20 43  1  0
 21 44  1  0
M  END
>  <_SMILES>  (37) 
COc1ccc(C(=O)N[C@]23C[C@H]4C[C@H](C[C@H](C4)C2)C3)cc1

$$$$

     RDKit          3D

 44 46  0  0  0  0  0  0  0  0999 V2000
    3.5200   -2.1867   -1.2645 C   0  0  0  0  0  0  0  0  0  0  0  0
    2.5070   -1.2284   -0.7000 C   0  0  0  0  0  0  0  0  0  0  0  0
    1.1635   -1.3452   -1.0819 C   0  0  0  0  0  0  0  0  0  0  0  0
    0.2361   -0.4536   -0.5570 C   0  0  0  0  0  0  0  0  0  0  0  0
   -1.2086   -0.5631   -0.9448 C   0  0  0  0  0  0  0  0  0  0  0  0
   -1.6107   -1.4567   -1.6806 O   0  0  0  0  0  0  0  0  0  0  0  0
   -2.0158    0.4107   -0.3925 N   0  0  0  0  0  0  0  0  0  0  0  0
   -3.4627    0.3803   -0.4925 C   0  0  0  0  0  0  0  0  0  0  0  0
   -4.0472    1.7784   -0.2934 C   0  0  0  0  0  0  0  0  0  0  0  0
   -5.5640    1.7968   -0.4955 C   0  0  0  0  0  0  0  0  0  0  0  0
   -6.2440    0.4712   -0.1492 C   0  0  0  0  0  0  0  0  0  0  0  0
   -5.4906   -0.2843    0.9363 C   0  0  0  0  0  0  0  0  0  0  0  0
   -4.0594   -0.6220    0.5110 C   0  0  0  0  0  0  0  0  0  0  0  0
    0.5497    0.5404    0.3181 N   0  0  0  0  0  0  0  0  0  0  0  0
    1.8550    0.6330    0.6642 C   0  0  0  0  0  0  0  0  0  0  0  0
    2.8731   -0.2059    0.1974 C   0  0  0  0  0  0  0  0  0  0  0  0
    4.2524    0.0034    0.6477 C   0  0  0  0  0  0  0  0  0  0  0  0
    5.1558    0.7446   -0.1292 C   0  0  0  0  0  0  0  0  0  0  0  0
    6.4680    0.9483    0.3031 C   0  0  0  0  0  0  0  0  0  0  0  0
    6.8926    0.4147    1.5181 C   0  0  0  0  0  0  0  0  0  0  0  0
    6.0071   -0.3223    2.3017 C   0  0  0  0  0  0  0  0  0  0  0  0
    4.6947   -0.5261    1.8697 C   0  0  0  0  0  0  0  0  0  0  0  0
    3.0403   -2.9662   -1.8662 H   0  0  0  0  0  0  0  0  0  0  0  0
    4.2263   -1.6565   -1.9109 H   0  0  0  0  0  0  0  0  0  0  0  0
    4.0652   -2.6892   -0.4593 H   0  0  0  0  0  0  0  0  0  0  0  0
    0.8393   -2.1165   -1.7750 H   0  0  0  0  0  0  0  0  0  0  0  0
   -1.5626    1.0076    0.2962 H   0  0  0  0  0  0  0  0  0  0  0  0
   -3.7106    0.0418   -1.5074 H   0  0  0  0  0  0  0  0  0  0  0  0
   -3.5792    2.4968   -0.9778 H   0  0  0  0  0  0  0  0  0  0  0  0
   -3.8123    2.1313    0.7199 H   0  0  0  0  0  0  0  0  0  0  0  0
   -5.7965    2.0486   -1.5374 H   0  0  0  0  0  0  0  0  0  0  0  0
   -5.9892    2.6029    0.1147 H   0  0  0  0  0  0  0  0  0  0  0  0
   -7.2770    0.6591    0.1647 H   0  0  0  0  0  0  0  0  0  0  0  0
   -6.3007   -0.1545   -1.0490 H   0  0  0  0  0  0  0  0  0  0  0  0
   -6.0230   -1.2057    1.1978 H   0  0  0  0  0  0  0  0  0  0  0  0
   -5.4629    0.3286    1.8462 H   0  0  0  0  0  0  0  0  0  0  0  0
   -4.0386   -1.6226    0.0602 H   0  0  0  0  0  0  0  0  0  0  0  0
   -3.4372   -0.6905    1.4128 H   0  0  0  0  0  0  0  0  0  0  0  0
    2.0805    1.4396    1.3596 H   0  0  0  0  0  0  0  0  0  0  0  0
    4.8393    1.1682   -1.0805 H   0  0  0  0  0  0  0  0  0  0  0  0
    7.1580    1.5236   -0.3090 H   0  0  0  0  0  0  0  0  0  0  0  0
    7.9142    0.5730    1.8543 H   0  0  0  0  0  0  0  0  0  0  0  0
    6.3377   -0.7399    3.2493 H   0  0  0  0  0  0  0  0  0  0  0  0
    4.0166   -1.1071    2.4919 H   0  0  0  0  0  0  0  0  0  0  0  0
  1  2  1  0
  2  3  1  0
  3  4  2  0
  4  5  1  0
  5  6  2  0
  5  7  1  0
  7  8  1  0
  8  9  1  0
  9 10  1  0
 10 11  1  0
 11 12  1  0
 12 13  1  0
  4 14  1  0
 14 15  2  0
 15 16  1  0
 16 17  1  0
 17 18  2  0
 18 19  1  0
 19 20  2  0
 20 21  1  0
 21 22  2  0
 16  2  2  0
 22 17  1  0
 13  8  1  0
  1 23  1  0
  1 24  1  0
  1 25  1  0
  3 26  1  0
  7 27  1  0
  8 28  1  0
  9 29  1  0
  9 30  1  0
 10 31  1  0
 10 32  1  0
 11 33  1  0
 11 34  1  0
 12 35  1  0
 12 36  1  0
 13 37  1  0
 13 38  1  0
 15 39  1  0
 18 40  1  0
 19 41  1  0
 20 42  1  0
 21 43  1  0
 22 44  1  0
M  END
>  <_SMILES>  (38) 
Cc1cc(C(=O)NC2CCCCC2)ncc1-c1ccccc1

$$$$

     RDKit          3D

 41 43  0  0  0  0  0  0  0  0999 V2000
    3.0056   -2.4087    0.6248 C   0  0  0  0  0  0  0  0  0  0  0  0
    2.0307   -1.4163    0.0523 C   0  0  0  0  0  0  0  0  0  0  0  0
    0.7323   -1.8361   -0.2685 C   0  0  0  0  0  0  0  0  0  0  0  0
   -0.1609   -0.9127   -0.7978 C   0  0  0  0  0  0  0  0  0  0  0  0
   -1.5582   -1.3362   -1.1409 C   0  0  0  0  0  0  0  0  0  0  0  0
   -1.9459   -2.4835   -0.9518 O   0  0  0  0  0  0  0  0  0  0  0  0
   -2.3377   -0.3289   -1.6647 N   0  0  0  0  0  0  0  0  0  0  0  0
   -3.7516   -0.4740   -1.8970 C   0  0  0  0  0  0  0  0  0  0  0  0
   -4.5476    0.1174   -0.7627 C   0  0  0  0  0  0  0  0  0  0  0  0
   -5.0403    1.4278   -0.8379 C   0  0  0  0  0  0  0  0  0  0  0  0
   -5.7612    1.9744    0.2255 C   0  0  0  0  0  0  0  0  0  0  0  0
   -5.9897    1.2205    1.3755 C   0  0  0  0  0  0  0  0  0  0  0  0
   -5.4951   -0.0792    1.4658 C   0  0  0  0  0  0  0  0  0  0  0  0
   -4.7749   -0.6274    0.4037 C   0  0  0  0  0  0  0  0  0  0  0  0
    0.1464    0.3922   -1.0310 N   0  0  0  0  0  0  0  0  0  0  0  0
    1.4083    0.7679   -0.7168 C   0  0  0  0  0  0  0  0  0  0  0  0
    2.3894   -0.0741   -0.1814 C   0  0  0  0  0  0  0  0  0  0  0  0
    3.7239    0.4575    0.1113 C   0  0  0  0  0  0  0  0  0  0  0  0
    3.9697    1.1595    1.3014 C   0  0  0  0  0  0  0  0  0  0  0  0
    5.2394    1.6709    1.5783 C   0  0  0  0  0  0  0  0  0  0  0  0
    6.2784    1.4885    0.6681 C   0  0  0  0  0  0  0  0  0  0  0  0
    6.0499    0.7954   -0.5187 C   0  0  0  0  0  0  0  0  0  0  0  0
    4.7804    0.2837   -0.7959 C   0  0  0  0  0  0  0  0  0  0  0  0
    3.8169   -2.5975   -0.0851 H   0  0  0  0  0  0  0  0  0  0  0  0
    3.4214   -2.0405    1.5681 H   0  0  0  0  0  0  0  0  0  0  0  0
    2.5205   -3.3674    0.8381 H   0  0  0  0  0  0  0  0  0  0  0  0
    0.4164   -2.8631   -0.1079 H   0  0  0  0  0  0  0  0  0  0  0  0
   -1.9237    0.5989   -1.6583 H   0  0  0  0  0  0  0  0  0  0  0  0
   -3.9831    0.0416   -2.8355 H   0  0  0  0  0  0  0  0  0  0  0  0
   -4.0134   -1.5294   -2.0336 H   0  0  0  0  0  0  0  0  0  0  0  0
   -4.8651    2.0308   -1.7258 H   0  0  0  0  0  0  0  0  0  0  0  0
   -6.1426    2.9898    0.1579 H   0  0  0  0  0  0  0  0  0  0  0  0
   -6.5497    1.6471    2.2033 H   0  0  0  0  0  0  0  0  0  0  0  0
   -5.6661   -0.6665    2.3640 H   0  0  0  0  0  0  0  0  0  0  0  0
   -4.3831   -1.6402    0.4871 H   0  0  0  0  0  0  0  0  0  0  0  0
    1.6293    1.8149   -0.9171 H   0  0  0  0  0  0  0  0  0  0  0  0
    3.1699    1.3075    2.0246 H   0  0  0  0  0  0  0  0  0  0  0  0
    5.4168    2.2107    2.5051 H   0  0  0  0  0  0  0  0  0  0  0  0
    7.2668    1.8865    0.8840 H   0  0  0  0  0  0  0  0  0  0  0  0
    6.8597    0.6528   -1.2298 H   0  0  0  0  0  0  0  0  0  0  0  0
    4.6178   -0.2546   -1.7277 H   0  0  0  0  0  0  0  0  0  0  0  0
  1  2  1  0
  2  3  1  0
  3  4  2  0
  4  5  1  0
  5  6  2  0
  5  7  1  0
  7  8  1  0
  8  9  1  0
  9 10  2  0
 10 11  1  0
 11 12  2  0
 12 13  1  0
 13 14  2  0
  4 15  1  0
 15 16  2  0
 16 17  1  0
 17 18  1  0
 18 19  2  0
 19 20  1  0
 20 21  2  0
 21 22  1  0
 22 23  2  0
 17  2  2  0
 23 18  1  0
 14  9  1  0
  1 24  1  0
  1 25  1  0
  1 26  1  0
  3 27  1  0
  7 28  1  0
  8 29  1  0
  8 30  1  0
 10 31  1  0
 11 32  1  0
 12 33  1  0
 13 34  1  0
 14 35  1  0
 16 36  1  0
 19 37  1  0
 20 38  1  0
 21 39  1  0
 22 40  1  0
 23 41  1  0
M  END
>  <_SMILES>  (39) 
Cc1cc(C(=O)NCc2ccccc2)ncc1-c1ccccc1

$$$$

     RDKit          3D

 52 56  0  0  0  0  0  0  0  0999 V2000
    4.5056   -1.6524    1.8854 C   0  0  0  0  0  0  0  0  0  0  0  0
    3.3817   -1.0753    1.0688 C   0  0  0  0  0  0  0  0  0  0  0  0
    2.0709   -1.5161    1.2970 C   0  0  0  0  0  0  0  0  0  0  0  0
    1.0396   -0.9767    0.5384 C   0  0  0  0  0  0  0  0  0  0  0  0
   -0.3721   -1.4290    0.7657 C   0  0  0  0  0  0  0  0  0  0  0  0
   -0.6560   -2.2334    1.6453 O   0  0  0  0  0  0  0  0  0  0  0  0
   -1.2914   -0.8499   -0.0854 N   0  0  0  0  0  0  0  0  0  0  0  0
   -2.7247   -1.0056    0.0842 C   0  0  1  0  0  0  0  0  0  0  0  0
   -3.2817   -0.0957    1.2059 C   0  0  2  0  0  0  0  0  0  0  0  0
   -4.7668   -0.4466    1.4242 C   0  0  0  0  0  0  0  0  0  0  0  0
   -5.5633   -0.2113    0.1280 C   0  0  1  0  0  0  0  0  0  0  0  0
   -5.4458    1.2701   -0.2693 C   0  0  0  0  0  0  0  0  0  0  0  0
   -3.9697    1.6372   -0.4991 C   0  0  1  0  0  0  0  0  0  0  0  0
   -3.1779    1.3864    0.7953 C   0  0  0  0  0  0  0  0  0  0  0  0
   -3.4019    0.7542   -1.6223 C   0  0  0  0  0  0  0  0  0  0  0  0
   -3.4958   -0.7337   -1.2285 C   0  0  2  0  0  0  0  0  0  0  0  0
   -4.9801   -1.0843   -0.9991 C   0  0  0  0  0  0  0  0  0  0  0  0
    1.2185   -0.0292   -0.4221 N   0  0  0  0  0  0  0  0  0  0  0  0
    2.4935    0.3815   -0.6166 C   0  0  0  0  0  0  0  0  0  0  0  0
    3.6077   -0.0913    0.0860 C   0  0  0  0  0  0  0  0  0  0  0  0
    4.9393    0.4416   -0.2178 C   0  0  0  0  0  0  0  0  0  0  0  0
    5.5021    1.4578    0.5695 C   0  0  0  0  0  0  0  0  0  0  0  0
    6.7682    1.9689    0.2758 C   0  0  0  0  0  0  0  0  0  0  0  0
    7.4864    1.4714   -0.8094 C   0  0  0  0  0  0  0  0  0  0  0  0
    6.9406    0.4636   -1.6017 C   0  0  0  0  0  0  0  0  0  0  0  0
    5.6745   -0.0476   -1.3084 C   0  0  0  0  0  0  0  0  0  0  0  0
    4.9260   -0.8884    2.5467 H   0  0  0  0  0  0  0  0  0  0  0  0
    4.1588   -2.4810    2.5123 H   0  0  0  0  0  0  0  0  0  0  0  0
    5.2920   -2.0477    1.2345 H   0  0  0  0  0  0  0  0  0  0  0  0
    1.8517   -2.2680    2.0501 H   0  0  0  0  0  0  0  0  0  0  0  0
   -0.9159   -0.1141   -0.6791 H   0  0  0  0  0  0  0  0  0  0  0  0
   -2.8861   -2.0525    0.3755 H   0  0  0  0  0  0  0  0  0  0  0  0
   -2.7287   -0.2536    2.1391 H   0  0  0  0  0  0  0  0  0  0  0  0
   -4.8625   -1.4935    1.7374 H   0  0  0  0  0  0  0  0  0  0  0  0
   -5.1807    0.1661    2.2345 H   0  0  0  0  0  0  0  0  0  0  0  0
   -6.6160   -0.4690    0.2886 H   0  0  0  0  0  0  0  0  0  0  0  0
   -6.0259    1.4608   -1.1806 H   0  0  0  0  0  0  0  0  0  0  0  0
   -5.8719    1.9046    0.5176 H   0  0  0  0  0  0  0  0  0  0  0  0
   -3.8919    2.6927   -0.7825 H   0  0  0  0  0  0  0  0  0  0  0  0
   -2.1283    1.6712    0.6547 H   0  0  0  0  0  0  0  0  0  0  0  0
   -3.5697    2.0219    1.5993 H   0  0  0  0  0  0  0  0  0  0  0  0
   -2.3635    1.0348   -1.8313 H   0  0  0  0  0  0  0  0  0  0  0  0
   -3.9616    0.9277   -2.5501 H   0  0  0  0  0  0  0  0  0  0  0  0
   -3.0922   -1.3517   -2.0392 H   0  0  0  0  0  0  0  0  0  0  0  0
   -5.5487   -0.9296   -1.9244 H   0  0  0  0  0  0  0  0  0  0  0  0
   -5.0792   -2.1455   -0.7396 H   0  0  0  0  0  0  0  0  0  0  0  0
    2.6092    1.1417   -1.3871 H   0  0  0  0  0  0  0  0  0  0  0  0
    4.9535    1.8576    1.4202 H   0  0  0  0  0  0  0  0  0  0  0  0
    7.1930    2.7554    0.8945 H   0  0  0  0  0  0  0  0  0  0  0  0
    8.4721    1.8690   -1.0377 H   0  0  0  0  0  0  0  0  0  0  0  0
    7.5007    0.0740   -2.4480 H   0  0  0  0  0  0  0  0  0  0  0  0
    5.2643   -0.8374   -1.9350 H   0  0  0  0  0  0  0  0  0  0  0  0
  1  2  1  0
  2  3  1  0
  3  4  2  0
  4  5  1  0
  5  6  2  0
  5  7  1  0
  7  8  1  0
  8  9  1  0
  9 10  1  0
 10 11  1  0
 11 12  1  0
 12 13  1  0
 13 14  1  0
 13 15  1  0
 15 16  1  0
 16 17  1  0
  4 18  1  0
 18 19  2  0
 19 20  1  0
 20 21  1  0
 21 22  2  0
 22 23  1  0
 23 24  2  0
 24 25  1  0
 25 26  2  0
 20  2  2  0
 26 21  1  0
 16  8  1  0
 14  9  1  0
 17 11  1  0
  1 27  1  0
  1 28  1  0
  1 29  1  0
  3 30  1  0
  7 31  1  0
  8 32  1  1
  9 33  1  1
 10 34  1  0
 10 35  1  0
 11 36  1  1
 12 37  1  0
 12 38  1  0
 13 39  1  6
 14 40  1  0
 14 41  1  0
 15 42  1  0
 15 43  1  0
 16 44  1  6
 17 45  1  0
 17 46  1  0
 19 47  1  0
 22 48  1  0
 23 49  1  0
 24 50  1  0
 25 51  1  0
 26 52  1  0
M  END
>  <_SMILES>  (40) 
Cc1cc(C(=O)N[C@H]2[C@@H]3C[C@H]4C[C@@H](C3)C[C@@H]2C4)ncc1-c1ccccc1

$$$$

     RDKit          3D

 49 53  0  0  0  0  0  0  0  0999 V2000
   -0.3274   -0.8764   -2.3327 O   0  0  0  0  0  0  0  0  0  0  0  0
   -0.0198   -0.4310   -1.2341 C   0  0  0  0  0  0  0  0  0  0  0  0
   -0.9128   -0.0293   -0.2633 N   0  0  0  0  0  0  0  0  0  0  0  0
   -2.3695   -0.0592   -0.3704 C   0  0  2  0  0  0  0  0  0  0  0  0
   -2.9726    0.4821    0.9531 C   0  0  0  0  0  0  0  0  0  0  0  0
   -4.5087    0.4757    0.9016 C   0  0  1  0  0  0  0  0  0  0  0  0
   -4.9776    1.3610   -0.2637 C   0  0  0  0  0  0  0  0  0  0  0  0
   -4.4121    0.8269   -1.5892 C   0  0  2  0  0  0  0  0  0  0  0  0
   -4.8997   -0.6161   -1.8040 C   0  0  0  0  0  0  0  0  0  0  0  0
   -4.4340   -1.5108   -0.6427 C   0  0  2  0  0  0  0  0  0  0  0  0
   -4.9994   -0.9632    0.6773 C   0  0  0  0  0  0  0  0  0  0  0  0
   -2.8963   -1.5004   -0.5807 C   0  0  0  0  0  0  0  0  0  0  0  0
   -2.8744    0.8379   -1.5274 C   0  0  0  0  0  0  0  0  0  0  0  0
    1.4183   -0.2773   -0.8348 C   0  0  0  0  0  0  0  0  0  0  0  0
    2.4257   -0.6429   -1.7159 C   0  0  0  0  0  0  0  0  0  0  0  0
    3.7492   -0.4847   -1.3056 C   0  0  0  0  0  0  0  0  0  0  0  0
    4.0416    0.0304   -0.0351 C   0  0  0  0  0  0  0  0  0  0  0  0
    5.4250    0.2085    0.4280 C   0  0  0  0  0  0  0  0  0  0  0  0
    5.8530   -0.3236    1.6563 C   0  0  0  0  0  0  0  0  0  0  0  0
    7.1684   -0.1527    2.0967 C   0  0  0  0  0  0  0  0  0  0  0  0
    8.0790    0.5543    1.3162 C   0  0  0  0  0  0  0  0  0  0  0  0
    7.6763    1.0893    0.0956 C   0  0  0  0  0  0  0  0  0  0  0  0
    6.3611    0.9168   -0.3445 C   0  0  0  0  0  0  0  0  0  0  0  0
    2.9475    0.3668    0.7673 C   0  0  0  0  0  0  0  0  0  0  0  0
    1.6471    0.2285    0.4097 N   0  0  0  0  0  0  0  0  0  0  0  0
   -0.4800    0.3195    0.5898 H   0  0  0  0  0  0  0  0  0  0  0  0
   -2.6282   -0.1252    1.8010 H   0  0  0  0  0  0  0  0  0  0  0  0
   -2.6131    1.5026    1.1420 H   0  0  0  0  0  0  0  0  0  0  0  0
   -4.9123    0.8612    1.8445 H   0  0  0  0  0  0  0  0  0  0  0  0
   -4.6484    2.3953   -0.1052 H   0  0  0  0  0  0  0  0  0  0  0  0
   -6.0737    1.3783   -0.3037 H   0  0  0  0  0  0  0  0  0  0  0  0
   -4.7524    1.4591   -2.4170 H   0  0  0  0  0  0  0  0  0  0  0  0
   -4.5137   -1.0045   -2.7545 H   0  0  0  0  0  0  0  0  0  0  0  0
   -5.9943   -0.6341   -1.8739 H   0  0  0  0  0  0  0  0  0  0  0  0
   -4.7897   -2.5352   -0.7998 H   0  0  0  0  0  0  0  0  0  0  0  0
   -6.0959   -0.9859    0.6534 H   0  0  0  0  0  0  0  0  0  0  0  0
   -4.6859   -1.6011    1.5128 H   0  0  0  0  0  0  0  0  0  0  0  0
   -2.4983   -1.9310   -1.5072 H   0  0  0  0  0  0  0  0  0  0  0  0
   -2.5509   -2.1511    0.2334 H   0  0  0  0  0  0  0  0  0  0  0  0
   -2.4754    0.4962   -2.4899 H   0  0  0  0  0  0  0  0  0  0  0  0
   -2.5133    1.8661   -1.3931 H   0  0  0  0  0  0  0  0  0  0  0  0
    2.1890   -1.0443   -2.6961 H   0  0  0  0  0  0  0  0  0  0  0  0
    4.5511   -0.7782   -1.9799 H   0  0  0  0  0  0  0  0  0  0  0  0
    5.1656   -0.8929    2.2794 H   0  0  0  0  0  0  0  0  0  0  0  0
    7.4815   -0.5757    3.0480 H   0  0  0  0  0  0  0  0  0  0  0  0
    9.1021    0.6874    1.6584 H   0  0  0  0  0  0  0  0  0  0  0  0
    8.3845    1.6436   -0.5152 H   0  0  0  0  0  0  0  0  0  0  0  0
    6.0683    1.3540   -1.2973 H   0  0  0  0  0  0  0  0  0  0  0  0
    3.0954    0.7849    1.7611 H   0  0  0  0  0  0  0  0  0  0  0  0
  1  2  2  0
  2  3  1  0
  4  3  1  1
  4  5  1  0
  5  6  1  0
  6  7  1  0
  7  8  1  0
  8  9  1  0
  9 10  1  0
 10 11  1  0
 10 12  1  0
  8 13  1  0
  2 14  1  0
 14 15  2  0
 15 16  1  0
 16 17  2  0
 17 18  1  0
 18 19  2  0
 19 20  1  0
 20 21  2  0
 21 22  1  0
 22 23  2  0
 17 24  1  0
 24 25  2  0
 12  4  1  0
 25 14  1  0
 13  4  1  0
 23 18  1  0
 11  6  1  0
  3 26  1  0
  5 27  1  0
  5 28  1  0
  6 29  1  1
  7 30  1  0
  7 31  1  0
  8 32  1  6
  9 33  1  0
  9 34  1  0
 10 35  1  6
 11 36  1  0
 11 37  1  0
 12 38  1  0
 12 39  1  0
 13 40  1  0
 13 41  1  0
 15 42  1  0
 16 43  1  0
 19 44  1  0
 20 45  1  0
 21 46  1  0
 22 47  1  0
 23 48  1  0
 24 49  1  0
M  END
>  <_SMILES>  (41) 
O=C(N[C@]12C[C@H]3C[C@H](C[C@H](C3)C1)C2)c1ccc(-c2ccccc2)cn1

$$$$

     RDKit          3D

 44 46  0  0  0  0  0  0  0  0999 V2000
    4.2811   -1.7784    0.0525 C   0  0  0  0  0  0  0  0  0  0  0  0
    4.4977   -0.2933    0.1778 C   0  0  0  0  0  0  0  0  0  0  0  0
    5.7839    0.1842    0.4808 C   0  0  0  0  0  0  0  0  0  0  0  0
    6.0271    1.5514    0.6089 C   0  0  0  0  0  0  0  0  0  0  0  0
    4.9891    2.4604    0.4384 C   0  0  0  0  0  0  0  0  0  0  0  0
    3.7062    2.0014    0.1402 C   0  0  0  0  0  0  0  0  0  0  0  0
    3.4389    0.6265    0.0048 C   0  0  0  0  0  0  0  0  0  0  0  0
    2.0676    0.1944   -0.3017 C   0  0  0  0  0  0  0  0  0  0  0  0
    1.1941   -0.1368    0.7403 C   0  0  0  0  0  0  0  0  0  0  0  0
   -0.0876   -0.5417    0.5824 N   0  0  0  0  0  0  0  0  0  0  0  0
   -0.5331   -0.6181   -0.7010 C   0  0  0  0  0  0  0  0  0  0  0  0
   -1.9552   -1.0585   -0.8837 C   0  0  0  0  0  0  0  0  0  0  0  0
   -2.4633   -1.1428   -1.9959 O   0  0  0  0  0  0  0  0  0  0  0  0
   -2.6118   -1.3393    0.2939 N   0  0  0  0  0  0  0  0  0  0  0  0
   -4.0255   -1.6065    0.3569 C   0  0  0  0  0  0  0  0  0  0  0  0
   -4.7908   -0.3701    0.7511 C   0  0  0  0  0  0  0  0  0  0  0  0
   -5.1286    0.5889   -0.2149 C   0  0  0  0  0  0  0  0  0  0  0  0
   -5.8208    1.7456    0.1461 C   0  0  0  0  0  0  0  0  0  0  0  0
   -6.1764    1.9585    1.4766 C   0  0  0  0  0  0  0  0  0  0  0  0
   -5.8369    1.0176    2.4474 C   0  0  0  0  0  0  0  0  0  0  0  0
   -5.1440   -0.1400    2.0882 C   0  0  0  0  0  0  0  0  0  0  0  0
    0.2442   -0.3099   -1.8108 C   0  0  0  0  0  0  0  0  0  0  0  0
    1.5694    0.1026   -1.6165 C   0  0  0  0  0  0  0  0  0  0  0  0
    2.4184    0.4457   -2.8099 C   0  0  0  0  0  0  0  0  0  0  0  0
    5.2210   -2.3307    0.1583 H   0  0  0  0  0  0  0  0  0  0  0  0
    3.6017   -2.1313    0.8347 H   0  0  0  0  0  0  0  0  0  0  0  0
    3.8691   -2.0256   -0.9309 H   0  0  0  0  0  0  0  0  0  0  0  0
    6.6098   -0.5108    0.6192 H   0  0  0  0  0  0  0  0  0  0  0  0
    7.0280    1.9055    0.8424 H   0  0  0  0  0  0  0  0  0  0  0  0
    5.1759    3.5265    0.5379 H   0  0  0  0  0  0  0  0  0  0  0  0
    2.9048    2.7271    0.0108 H   0  0  0  0  0  0  0  0  0  0  0  0
    1.5252   -0.0801    1.7757 H   0  0  0  0  0  0  0  0  0  0  0  0
   -2.1059   -1.1147    1.1460 H   0  0  0  0  0  0  0  0  0  0  0  0
   -4.3891   -1.9866   -0.6045 H   0  0  0  0  0  0  0  0  0  0  0  0
   -4.1753   -2.4003    1.0970 H   0  0  0  0  0  0  0  0  0  0  0  0
   -4.8455    0.4358   -1.2554 H   0  0  0  0  0  0  0  0  0  0  0  0
   -6.0783    2.4809   -0.6115 H   0  0  0  0  0  0  0  0  0  0  0  0
   -6.7145    2.8599    1.7572 H   0  0  0  0  0  0  0  0  0  0  0  0
   -6.1098    1.1869    3.4857 H   0  0  0  0  0  0  0  0  0  0  0  0
   -4.8809   -0.8614    2.8582 H   0  0  0  0  0  0  0  0  0  0  0  0
   -0.1805   -0.3904   -2.8075 H   0  0  0  0  0  0  0  0  0  0  0  0
    1.8865    0.2515   -3.7476 H   0  0  0  0  0  0  0  0  0  0  0  0
    2.6849    1.5071   -2.7950 H   0  0  0  0  0  0  0  0  0  0  0  0
    3.3293   -0.1610   -2.8222 H   0  0  0  0  0  0  0  0  0  0  0  0
  1  2  1  0
  2  3  2  0
  3  4  1  0
  4  5  2  0
  5  6  1  0
  6  7  2  0
  7  8  1  0
  8  9  1  0
  9 10  2  0
 10 11  1  0
 11 12  1  0
 12 13  2  0
 12 14  1  0
 14 15  1  0
 15 16  1  0
 16 17  2  0
 17 18  1  0
 18 19  2  0
 19 20  1  0
 20 21  2  0
 11 22  2  0
 22 23  1  0
 23 24  1  0
  7  2  1  0
 23  8  2  0
 21 16  1  0
  1 25  1  0
  1 26  1  0
  1 27  1  0
  3 28  1  0
  4 29  1  0
  5 30  1  0
  6 31  1  0
  9 32  1  0
 14 33  1  0
 15 34  1  0
 15 35  1  0
 17 36  1  0
 18 37  1  0
 19 38  1  0
 20 39  1  0
 21 40  1  0
 22 41  1  0
 24 42  1  0
 24 43  1  0
 24 44  1  0
M  END
>  <_SMILES>  (42) 
Cc1ccccc1-c1cnc(C(=O)NCc2ccccc2)cc1C

$$$$

     RDKit          3D

 47 49  0  0  0  0  0  0  0  0999 V2000
    3.9539   -1.8589    1.6987 C   0  0  0  0  0  0  0  0  0  0  0  0
    2.9294   -1.0967    0.9034 C   0  0  0  0  0  0  0  0  0  0  0  0
    1.5680   -1.3670    1.0988 C   0  0  0  0  0  0  0  0  0  0  0  0
    0.6297   -0.6595    0.3575 C   0  0  0  0  0  0  0  0  0  0  0  0
   -0.8332   -0.9256    0.5539 C   0  0  0  0  0  0  0  0  0  0  0  0
   -1.2340   -1.7232    1.3935 O   0  0  0  0  0  0  0  0  0  0  0  0
   -1.6557   -0.1914   -0.2764 N   0  0  0  0  0  0  0  0  0  0  0  0
   -3.1061   -0.1593   -0.1334 C   0  0  0  0  0  0  0  0  0  0  0  0
   -3.4796    0.8076    0.9995 C   0  0  0  0  0  0  0  0  0  0  0  0
   -4.9186    1.3145    1.0443 C   0  0  0  0  0  0  0  0  0  0  0  0
   -5.9827    0.2859    0.6781 C   0  0  0  0  0  0  0  0  0  0  0  0
   -6.2435    0.2199   -0.8250 C   0  0  0  0  0  0  0  0  0  0  0  0
   -5.1402   -0.4349   -1.6479 C   0  0  0  0  0  0  0  0  0  0  0  0
   -3.7481    0.1758   -1.4849 C   0  0  0  0  0  0  0  0  0  0  0  0
    0.9490    0.2945   -0.5591 N   0  0  0  0  0  0  0  0  0  0  0  0
    2.2709    0.5300   -0.7309 C   0  0  0  0  0  0  0  0  0  0  0  0
    3.3008   -0.1220   -0.0436 C   0  0  0  0  0  0  0  0  0  0  0  0
    4.6971    0.2236   -0.3262 C   0  0  0  0  0  0  0  0  0  0  0  0
    5.2997    1.3305    0.2910 C   0  0  0  0  0  0  0  0  0  0  0  0
    6.6282    1.6633    0.0179 C   0  0  0  0  0  0  0  0  0  0  0  0
    7.3699    0.8947   -0.8769 C   0  0  0  0  0  0  0  0  0  0  0  0
    6.7852   -0.2063   -1.4990 C   0  0  0  0  0  0  0  0  0  0  0  0
    5.4567   -0.5395   -1.2260 C   0  0  0  0  0  0  0  0  0  0  0  0
    3.4800   -2.5020    2.4482 H   0  0  0  0  0  0  0  0  0  0  0  0
    4.6153   -1.1708    2.2347 H   0  0  0  0  0  0  0  0  0  0  0  0
    4.5475   -2.4998    1.0393 H   0  0  0  0  0  0  0  0  0  0  0  0
    1.2386   -2.1138    1.8158 H   0  0  0  0  0  0  0  0  0  0  0  0
   -1.1835    0.5174   -0.8337 H   0  0  0  0  0  0  0  0  0  0  0  0
   -3.4105   -1.1708    0.1649 H   0  0  0  0  0  0  0  0  0  0  0  0
   -2.8205    1.6863    0.9711 H   0  0  0  0  0  0  0  0  0  0  0  0
   -3.2546    0.3142    1.9550 H   0  0  0  0  0  0  0  0  0  0  0  0
   -5.0153    2.1979    0.4008 H   0  0  0  0  0  0  0  0  0  0  0  0
   -5.1110    1.6709    2.0645 H   0  0  0  0  0  0  0  0  0  0  0  0
   -6.9216    0.5910    1.1578 H   0  0  0  0  0  0  0  0  0  0  0  0
   -5.7359   -0.7033    1.0799 H   0  0  0  0  0  0  0  0  0  0  0  0
   -6.4340    1.2292   -1.2109 H   0  0  0  0  0  0  0  0  0  0  0  0
   -7.1686   -0.3468   -0.9901 H   0  0  0  0  0  0  0  0  0  0  0  0
   -5.1011   -1.5066   -1.4162 H   0  0  0  0  0  0  0  0  0  0  0  0
   -5.4245   -0.3649   -2.7055 H   0  0  0  0  0  0  0  0  0  0  0  0
   -3.7724    1.2590   -1.6542 H   0  0  0  0  0  0  0  0  0  0  0  0
   -3.1250   -0.2412   -2.2880 H   0  0  0  0  0  0  0  0  0  0  0  0
    2.4998    1.2922   -1.4736 H   0  0  0  0  0  0  0  0  0  0  0  0
    4.7353    1.9390    0.9951 H   0  0  0  0  0  0  0  0  0  0  0  0
    7.0839    2.5219    0.5046 H   0  0  0  0  0  0  0  0  0  0  0  0
    8.4041    1.1537   -1.0891 H   0  0  0  0  0  0  0  0  0  0  0  0
    7.3629   -0.8066   -2.1974 H   0  0  0  0  0  0  0  0  0  0  0  0
    5.0144   -1.4023   -1.7203 H   0  0  0  0  0  0  0  0  0  0  0  0
  1  2  1  0
  2  3  1  0
  3  4  2  0
  4  5  1  0
  5  6  2  0
  5  7  1  0
  7  8  1  0
  8  9  1  0
  9 10  1  0
 10 11  1  0
 11 12  1  0
 12 13  1  0
 13 14  1  0
  4 15  1  0
 15 16  2  0
 16 17  1  0
 17 18  1  0
 18 19  2  0
 19 20  1  0
 20 21  2  0
 21 22  1  0
 22 23  2  0
 17  2  2  0
 23 18  1  0
 14  8  1  0
  1 24  1  0
  1 25  1  0
  1 26  1  0
  3 27  1  0
  7 28  1  0
  8 29  1  0
  9 30  1  0
  9 31  1  0
 10 32  1  0
 10 33  1  0
 11 34  1  0
 11 35  1  0
 12 36  1  0
 12 37  1  0
 13 38  1  0
 13 39  1  0
 14 40  1  0
 14 41  1  0
 16 42  1  0
 19 43  1  0
 20 44  1  0
 21 45  1  0
 22 46  1  0
 23 47  1  0
M  END
>  <_SMILES>  (43) 
Cc1cc(C(=O)NC2CCCCCC2)ncc1-c1ccccc1

$$$$

     RDKit          3D

 40 41  0  0  0  0  0  0  0  0999 V2000
    2.4859   -0.7429   -2.4764 C   0  0  0  0  0  0  0  0  0  0  0  0
    1.5849   -0.4148   -1.3173 C   0  0  0  0  0  0  0  0  0  0  0  0
    0.1979   -0.3750   -1.5155 C   0  0  0  0  0  0  0  0  0  0  0  0
   -0.6263   -0.0726   -0.4385 C   0  0  0  0  0  0  0  0  0  0  0  0
   -2.1147   -0.0211   -0.6250 C   0  0  0  0  0  0  0  0  0  0  0  0
   -2.6249   -0.2421   -1.7163 O   0  0  0  0  0  0  0  0  0  0  0  0
   -2.8093    0.2900    0.5253 N   0  0  0  0  0  0  0  0  0  0  0  0
   -4.2642    0.4101    0.6490 C   0  0  0  0  0  0  0  0  0  0  0  0
   -4.9529   -0.9208    0.3094 C   0  0  0  0  0  0  0  0  0  0  0  0
   -4.5920    0.7705    2.1089 C   0  0  0  0  0  0  0  0  0  0  0  0
   -4.7995    1.5270   -0.2603 C   0  0  0  0  0  0  0  0  0  0  0  0
   -0.1695    0.1893    0.8167 N   0  0  0  0  0  0  0  0  0  0  0  0
    1.1734    0.1381    0.9796 C   0  0  0  0  0  0  0  0  0  0  0  0
    2.0963   -0.1561   -0.0303 C   0  0  0  0  0  0  0  0  0  0  0  0
    3.5291   -0.1844    0.2789 C   0  0  0  0  0  0  0  0  0  0  0  0
    4.1794   -1.3968    0.5555 C   0  0  0  0  0  0  0  0  0  0  0  0
    5.5430   -1.4223    0.8557 C   0  0  0  0  0  0  0  0  0  0  0  0
    6.2729   -0.2358    0.8844 C   0  0  0  0  0  0  0  0  0  0  0  0
    5.6414    0.9762    0.6135 C   0  0  0  0  0  0  0  0  0  0  0  0
    4.2776    1.0021    0.3135 C   0  0  0  0  0  0  0  0  0  0  0  0
    2.9781   -1.7069   -2.3144 H   0  0  0  0  0  0  0  0  0  0  0  0
    1.9225   -0.8109   -3.4133 H   0  0  0  0  0  0  0  0  0  0  0  0
    3.2418    0.0374   -2.6100 H   0  0  0  0  0  0  0  0  0  0  0  0
   -0.2381   -0.5736   -2.4906 H   0  0  0  0  0  0  0  0  0  0  0  0
   -2.2225    0.4416    1.3436 H   0  0  0  0  0  0  0  0  0  0  0  0
   -4.8015   -1.2037   -0.7373 H   0  0  0  0  0  0  0  0  0  0  0  0
   -4.5596   -1.7359    0.9278 H   0  0  0  0  0  0  0  0  0  0  0  0
   -6.0341   -0.8613    0.4785 H   0  0  0  0  0  0  0  0  0  0  0  0
   -4.1180    1.7159    2.3980 H   0  0  0  0  0  0  0  0  0  0  0  0
   -4.2257    0.0000    2.7975 H   0  0  0  0  0  0  0  0  0  0  0  0
   -5.6717    0.8744    2.2638 H   0  0  0  0  0  0  0  0  0  0  0  0
   -4.2952    2.4780   -0.0533 H   0  0  0  0  0  0  0  0  0  0  0  0
   -5.8749    1.6768   -0.1121 H   0  0  0  0  0  0  0  0  0  0  0  0
   -4.6449    1.3003   -1.3202 H   0  0  0  0  0  0  0  0  0  0  0  0
    1.5125    0.3464    1.9929 H   0  0  0  0  0  0  0  0  0  0  0  0
    3.6231   -2.3321    0.5375 H   0  0  0  0  0  0  0  0  0  0  0  0
    6.0347   -2.3685    1.0670 H   0  0  0  0  0  0  0  0  0  0  0  0
    7.3345   -0.2558    1.1175 H   0  0  0  0  0  0  0  0  0  0  0  0
    6.2102    1.9023    0.6346 H   0  0  0  0  0  0  0  0  0  0  0  0
    3.8003    1.9568    0.1007 H   0  0  0  0  0  0  0  0  0  0  0  0
  1  2  1  0
  2  3  1  0
  3  4  2  0
  4  5  1  0
  5  6  2  0
  5  7  1  0
  7  8  1  0
  8  9  1  0
  8 10  1  0
  8 11  1  0
  4 12  1  0
 12 13  2  0
 13 14  1  0
 14 15  1  0
 15 16  2  0
 16 17  1  0
 17 18  2  0
 18 19  1  0
 19 20  2  0
 14  2  2  0
 20 15  1  0
  1 21  1  0
  1 22  1  0
  1 23  1  0
  3 24  1  0
  7 25  1  0
  9 26  1  0
  9 27  1  0
  9 28  1  0
 10 29  1  0
 10 30  1  0
 10 31  1  0
 11 32  1  0
 11 33  1  0
 11 34  1  0
 13 35  1  0
 16 36  1  0
 17 37  1  0
 18 38  1  0
 19 39  1  0
 20 40  1  0
M  END
>  <_SMILES>  (44) 
Cc1cc(C(=O)NC(C)(C)C)ncc1-c1ccccc1

$$$$

     RDKit          3D

 35 37  0  0  0  0  0  0  0  0999 V2000
   -1.9433    1.8502    1.7705 C   0  0  0  0  0  0  0  0  0  0  0  0
   -0.9875    1.0625    0.9166 C   0  0  0  0  0  0  0  0  0  0  0  0
    0.3874    1.3190    1.0091 C   0  0  0  0  0  0  0  0  0  0  0  0
    1.2627    0.5852    0.2178 C   0  0  0  0  0  0  0  0  0  0  0  0
    2.7366    0.8426    0.2967 C   0  0  0  0  0  0  0  0  0  0  0  0
    3.1996    1.6964    1.0452 O   0  0  0  0  0  0  0  0  0  0  0  0
    3.4876    0.0406   -0.5407 N   0  0  0  0  0  0  0  0  0  0  0  0
    4.9067    0.1028   -0.6216 C   0  0  0  0  0  0  0  0  0  0  0  0
    5.7544   -0.9257    0.0736 C   0  0  0  0  0  0  0  0  0  0  0  0
    5.6748   -0.9107   -1.4245 C   0  0  0  0  0  0  0  0  0  0  0  0
    0.8677   -0.3830   -0.6532 N   0  0  0  0  0  0  0  0  0  0  0  0
   -0.4650   -0.6130   -0.7173 C   0  0  0  0  0  0  0  0  0  0  0  0
   -1.4354    0.0624    0.0311 C   0  0  0  0  0  0  0  0  0  0  0  0
   -2.8504   -0.2860   -0.1283 C   0  0  0  0  0  0  0  0  0  0  0  0
   -3.4767   -1.1692    0.7644 C   0  0  0  0  0  0  0  0  0  0  0  0
   -4.8232   -1.5052    0.6084 C   0  0  0  0  0  0  0  0  0  0  0  0
   -5.5597   -0.9634   -0.4429 C   0  0  0  0  0  0  0  0  0  0  0  0
   -4.9518   -0.0863   -1.3387 C   0  0  0  0  0  0  0  0  0  0  0  0
   -3.6053    0.2498   -1.1831 C   0  0  0  0  0  0  0  0  0  0  0  0
   -2.7119    2.3245    1.1519 H   0  0  0  0  0  0  0  0  0  0  0  0
   -1.4276    2.6492    2.3141 H   0  0  0  0  0  0  0  0  0  0  0  0
   -2.4182    1.1982    2.5103 H   0  0  0  0  0  0  0  0  0  0  0  0
    0.7748    2.0777    1.6836 H   0  0  0  0  0  0  0  0  0  0  0  0
    2.9648   -0.6204   -1.1106 H   0  0  0  0  0  0  0  0  0  0  0  0
    5.2884    1.1221   -0.6345 H   0  0  0  0  0  0  0  0  0  0  0  0
    6.6695   -0.5844    0.5430 H   0  0  0  0  0  0  0  0  0  0  0  0
    5.2548   -1.7265    0.6057 H   0  0  0  0  0  0  0  0  0  0  0  0
    5.1315   -1.7123   -1.9099 H   0  0  0  0  0  0  0  0  0  0  0  0
    6.5414   -0.5641   -1.9756 H   0  0  0  0  0  0  0  0  0  0  0  0
   -0.7543   -1.3951   -1.4172 H   0  0  0  0  0  0  0  0  0  0  0  0
   -2.9151   -1.6012    1.5906 H   0  0  0  0  0  0  0  0  0  0  0  0
   -5.2965   -2.1897    1.3078 H   0  0  0  0  0  0  0  0  0  0  0  0
   -6.6080   -1.2246   -0.5640 H   0  0  0  0  0  0  0  0  0  0  0  0
   -5.5260    0.3379   -2.1586 H   0  0  0  0  0  0  0  0  0  0  0  0
   -3.1467    0.9395   -1.8893 H   0  0  0  0  0  0  0  0  0  0  0  0
  1  2  1  0
  2  3  1  0
  3  4  2  0
  4  5  1  0
  5  6  2  0
  5  7  1  0
  7  8  1  0
  8  9  1  0
  9 10  1  0
  4 11  1  0
 11 12  2  0
 12 13  1  0
 13 14  1  0
 14 15  2  0
 15 16  1  0
 16 17  2  0
 17 18  1  0
 18 19  2  0
 13  2  2  0
 19 14  1  0
 10  8  1  0
  1 20  1  0
  1 21  1  0
  1 22  1  0
  3 23  1  0
  7 24  1  0
  8 25  1  0
  9 26  1  0
  9 27  1  0
 10 28  1  0
 10 29  1  0
 12 30  1  0
 15 31  1  0
 16 32  1  0
 17 33  1  0
 18 34  1  0
 19 35  1  0
M  END
>  <_SMILES>  (45) 
Cc1cc(C(=O)NC2CC2)ncc1-c1ccccc1

$$$$

     RDKit          3D

 52 56  0  0  0  0  0  0  0  0999 V2000
    4.3224   -2.5847    0.2540 C   0  0  0  0  0  0  0  0  0  0  0  0
    3.3364   -1.4591    0.0990 C   0  0  0  0  0  0  0  0  0  0  0  0
    1.9643   -1.7308    0.1897 C   0  0  0  0  0  0  0  0  0  0  0  0
    1.0614   -0.6844    0.0469 C   0  0  0  0  0  0  0  0  0  0  0  0
   -0.4132   -0.9492    0.1373 C   0  0  0  0  0  0  0  0  0  0  0  0
   -0.8432   -2.0785    0.3364 O   0  0  0  0  0  0  0  0  0  0  0  0
   -1.1913    0.1779   -0.0227 N   0  0  0  0  0  0  0  0  0  0  0  0
   -2.6508    0.2274    0.0167 C   0  0  2  0  0  0  0  0  0  0  0  0
   -3.1008    1.6951   -0.2101 C   0  0  0  0  0  0  0  0  0  0  0  0
   -4.6331    1.8125   -0.1795 C   0  0  1  0  0  0  0  0  0  0  0  0
   -5.2285    0.9275   -1.2857 C   0  0  0  0  0  0  0  0  0  0  0  0
   -4.8160   -0.5365   -1.0657 C   0  0  2  0  0  0  0  0  0  0  0  0
   -5.3266   -1.0067    0.3070 C   0  0  0  0  0  0  0  0  0  0  0  0
   -4.7349   -0.1273    1.4217 C   0  0  2  0  0  0  0  0  0  0  0  0
   -5.1479    1.3344    1.1873 C   0  0  0  0  0  0  0  0  0  0  0  0
   -3.1999   -0.2337    1.3895 C   0  0  0  0  0  0  0  0  0  0  0  0
   -3.2810   -0.6430   -1.0986 C   0  0  0  0  0  0  0  0  0  0  0  0
    1.4263    0.6078   -0.1763 N   0  0  0  0  0  0  0  0  0  0  0  0
    2.7574    0.8412   -0.2535 C   0  0  0  0  0  0  0  0  0  0  0  0
    3.7544   -0.1324   -0.1245 C   0  0  0  0  0  0  0  0  0  0  0  0
    5.1652    0.2531   -0.2239 C   0  0  0  0  0  0  0  0  0  0  0  0
    5.9271    0.4904    0.9304 C   0  0  0  0  0  0  0  0  0  0  0  0
    7.2695    0.8632    0.8348 C   0  0  0  0  0  0  0  0  0  0  0  0
    7.8664    1.0048   -0.4162 C   0  0  0  0  0  0  0  0  0  0  0  0
    7.1229    0.7743   -1.5718 C   0  0  0  0  0  0  0  0  0  0  0  0
    5.7803    0.4016   -1.4765 C   0  0  0  0  0  0  0  0  0  0  0  0
    3.8155   -3.5537    0.3171 H   0  0  0  0  0  0  0  0  0  0  0  0
    4.9063   -2.4552    1.1705 H   0  0  0  0  0  0  0  0  0  0  0  0
    4.9962   -2.6282   -0.6076 H   0  0  0  0  0  0  0  0  0  0  0  0
    1.5998   -2.7388    0.3667 H   0  0  0  0  0  0  0  0  0  0  0  0
   -0.6646    1.0351   -0.1792 H   0  0  0  0  0  0  0  0  0  0  0  0
   -2.7209    2.0618   -1.1732 H   0  0  0  0  0  0  0  0  0  0  0  0
   -2.6645    2.3468    0.5588 H   0  0  0  0  0  0  0  0  0  0  0  0
   -4.9278    2.8553   -0.3414 H   0  0  0  0  0  0  0  0  0  0  0  0
   -6.3221    1.0128   -1.2860 H   0  0  0  0  0  0  0  0  0  0  0  0
   -4.8821    1.2710   -2.2682 H   0  0  0  0  0  0  0  0  0  0  0  0
   -5.2460   -1.1636   -1.8546 H   0  0  0  0  0  0  0  0  0  0  0  0
   -5.0503   -2.0556    0.4705 H   0  0  0  0  0  0  0  0  0  0  0  0
   -6.4222   -0.9582    0.3347 H   0  0  0  0  0  0  0  0  0  0  0  0
   -5.1075   -0.4644    2.3954 H   0  0  0  0  0  0  0  0  0  0  0  0
   -6.2401    1.4267    1.2296 H   0  0  0  0  0  0  0  0  0  0  0  0
   -4.7435    1.9706    1.9841 H   0  0  0  0  0  0  0  0  0  0  0  0
   -2.7663    0.3755    2.1934 H   0  0  0  0  0  0  0  0  0  0  0  0
   -2.9089   -1.2698    1.5991 H   0  0  0  0  0  0  0  0  0  0  0  0
   -2.9057   -0.3277   -2.0810 H   0  0  0  0  0  0  0  0  0  0  0  0
   -2.9931   -1.6948   -0.9836 H   0  0  0  0  0  0  0  0  0  0  0  0
    3.0229    1.8825   -0.4275 H   0  0  0  0  0  0  0  0  0  0  0  0
    5.4753    0.3844    1.9149 H   0  0  0  0  0  0  0  0  0  0  0  0
    7.8486    1.0429    1.7370 H   0  0  0  0  0  0  0  0  0  0  0  0
    8.9115    1.2945   -0.4906 H   0  0  0  0  0  0  0  0  0  0  0  0
    7.5880    0.8834   -2.5483 H   0  0  0  0  0  0  0  0  0  0  0  0
    5.2147    0.2217   -2.3888 H   0  0  0  0  0  0  0  0  0  0  0  0
  1  2  1  0
  2  3  1  0
  3  4  2  0
  4  5  1  0
  5  6  2  0
  5  7  1  0
  8  7  1  1
  8  9  1  0
  9 10  1  0
 10 11  1  0
 11 12  1  0
 12 13  1  0
 13 14  1  0
 14 15  1  0
 14 16  1  0
 12 17  1  0
  4 18  1  0
 18 19  2  0
 19 20  1  0
 20 21  1  0
 21 22  2  0
 22 23  1  0
 23 24  2  0
 24 25  1  0
 25 26  2  0
 20  2  2  0
 26 21  1  0
 16  8  1  0
 17  8  1  0
 15 10  1  0
  1 27  1  0
  1 28  1  0
  1 29  1  0
  3 30  1  0
  7 31  1  0
  9 32  1  0
  9 33  1  0
 10 34  1  6
 11 35  1  0
 11 36  1  0
 12 37  1  6
 13 38  1  0
 13 39  1  0
 14 40  1  1
 15 41  1  0
 15 42  1  0
 16 43  1  0
 16 44  1  0
 17 45  1  0
 17 46  1  0
 19 47  1  0
 22 48  1  0
 23 49  1  0
 24 50  1  0
 25 51  1  0
 26 52  1  0
M  END
>  <_SMILES>  (46) 
Cc1cc(C(=O)N[C@]23C[C@H]4C[C@H](C[C@H](C4)C2)C3)ncc1-c1ccccc1

$$$$

     RDKit          3D

 49 53  0  0  0  0  0  0  0  0999 V2000
    0.6568   -0.3126   -2.2801 O   0  0  0  0  0  0  0  0  0  0  0  0
    0.1820   -0.1605   -1.1620 C   0  0  0  0  0  0  0  0  0  0  0  0
    0.9123    0.0147   -0.0061 N   0  0  0  0  0  0  0  0  0  0  0  0
    2.3703    0.0512    0.0901 C   0  0  2  0  0  0  0  0  0  0  0  0
    2.7612    0.2676    1.5763 C   0  0  0  0  0  0  0  0  0  0  0  0
    4.2884    0.3152    1.7429 C   0  0  1  0  0  0  0  0  0  0  0  0
    4.8904   -1.0110    1.2528 C   0  0  0  0  0  0  0  0  0  0  0  0
    4.5367   -1.2332   -0.2262 C   0  0  2  0  0  0  0  0  0  0  0  0
    5.0953   -0.0689   -1.0619 C   0  0  0  0  0  0  0  0  0  0  0  0
    4.4973    1.2637   -0.5794 C   0  0  2  0  0  0  0  0  0  0  0  0
    4.8513    1.4715    0.9016 C   0  0  0  0  0  0  0  0  0  0  0  0
    2.9670    1.2180   -0.7352 C   0  0  0  0  0  0  0  0  0  0  0  0
    3.0063   -1.2797   -0.3819 C   0  0  0  0  0  0  0  0  0  0  0  0
   -1.3023   -0.1515   -0.9502 C   0  0  0  0  0  0  0  0  0  0  0  0
   -2.1540   -0.3179   -2.0273 C   0  0  0  0  0  0  0  0  0  0  0  0
   -3.5241   -0.3026   -1.7787 C   0  0  0  0  0  0  0  0  0  0  0  0
   -4.5795   -0.5311   -3.1314 Cl  0  0  0  0  0  0  0  0  0  0  0  0
   -4.0205   -0.1227   -0.4786 C   0  0  0  0  0  0  0  0  0  0  0  0
   -5.4478   -0.0924   -0.1414 C   0  0  0  0  0  0  0  0  0  0  0  0
   -6.0528   -1.1782    0.5118 C   0  0  0  0  0  0  0  0  0  0  0  0
   -7.4085   -1.1453    0.8464 C   0  0  0  0  0  0  0  0  0  0  0  0
   -8.1770   -0.0261    0.5345 C   0  0  0  0  0  0  0  0  0  0  0  0
   -7.5923    1.0602   -0.1123 C   0  0  0  0  0  0  0  0  0  0  0  0
   -6.2366    1.0280   -0.4470 C   0  0  0  0  0  0  0  0  0  0  0  0
   -3.0656    0.0339    0.5263 C   0  0  0  0  0  0  0  0  0  0  0  0
   -1.7260    0.0246    0.3317 N   0  0  0  0  0  0  0  0  0  0  0  0
    0.3541    0.1285    0.8374 H   0  0  0  0  0  0  0  0  0  0  0  0
    2.3189    1.2005    1.9509 H   0  0  0  0  0  0  0  0  0  0  0  0
    2.3463   -0.5381    2.1968 H   0  0  0  0  0  0  0  0  0  0  0  0
    4.5411    0.4685    2.7980 H   0  0  0  0  0  0  0  0  0  0  0  0
    4.5094   -1.8425    1.8584 H   0  0  0  0  0  0  0  0  0  0  0  0
    5.9799   -0.9977    1.3798 H   0  0  0  0  0  0  0  0  0  0  0  0
    4.9713   -2.1779   -0.5717 H   0  0  0  0  0  0  0  0  0  0  0  0
    4.8611   -0.2226   -2.1225 H   0  0  0  0  0  0  0  0  0  0  0  0
    6.1887   -0.0398   -0.9783 H   0  0  0  0  0  0  0  0  0  0  0  0
    4.9041    2.0885   -1.1753 H   0  0  0  0  0  0  0  0  0  0  0  0
    5.9401    1.5275    1.0225 H   0  0  0  0  0  0  0  0  0  0  0  0
    4.4422    2.4261    1.2545 H   0  0  0  0  0  0  0  0  0  0  0  0
    2.5298    2.1717   -0.4114 H   0  0  0  0  0  0  0  0  0  0  0  0
    2.7188    1.1122   -1.7980 H   0  0  0  0  0  0  0  0  0  0  0  0
    2.5974   -2.1192    0.1956 H   0  0  0  0  0  0  0  0  0  0  0  0
    2.7597   -1.4806   -1.4312 H   0  0  0  0  0  0  0  0  0  0  0  0
   -1.7601   -0.4581   -3.0286 H   0  0  0  0  0  0  0  0  0  0  0  0
   -5.4722   -2.0654    0.7576 H   0  0  0  0  0  0  0  0  0  0  0  0
   -7.8653   -1.9955    1.3468 H   0  0  0  0  0  0  0  0  0  0  0  0
   -9.2329   -0.0019    0.7920 H   0  0  0  0  0  0  0  0  0  0  0  0
   -8.1917    1.9327   -0.3596 H   0  0  0  0  0  0  0  0  0  0  0  0
   -5.7993    1.8862   -0.9538 H   0  0  0  0  0  0  0  0  0  0  0  0
   -3.3693    0.1822    1.5614 H   0  0  0  0  0  0  0  0  0  0  0  0
  1  2  2  0
  2  3  1  0
  4  3  1  1
  4  5  1  0
  5  6  1  0
  6  7  1  0
  7  8  1  0
  8  9  1  0
  9 10  1  0
 10 11  1  0
 10 12  1  0
  8 13  1  0
  2 14  1  0
 14 15  2  0
 15 16  1  0
 16 17  1  0
 16 18  2  0
 18 19  1  0
 19 20  2  0
 20 21  1  0
 21 22  2  0
 22 23  1  0
 23 24  2  0
 18 25  1  0
 25 26  2  0
 12  4  1  0
 26 14  1  0
 13  4  1  0
 24 19  1  0
 11  6  1  0
  3 27  1  0
  5 28  1  0
  5 29  1  0
  6 30  1  1
  7 31  1  0
  7 32  1  0
  8 33  1  6
  9 34  1  0
  9 35  1  0
 10 36  1  6
 11 37  1  0
 11 38  1  0
 12 39  1  0
 12 40  1  0
 13 41  1  0
 13 42  1  0
 15 43  1  0
 20 44  1  0
 21 45  1  0
 22 46  1  0
 23 47  1  0
 24 48  1  0
 25 49  1  0
M  END
>  <_SMILES>  (47) 
O=C(N[C@]12C[C@H]3C[C@H](C[C@H](C3)C1)C2)c1cc(Cl)c(-c2ccccc2)cn1

$$$$

     RDKit          3D

 49 53  0  0  0  0  0  0  0  0999 V2000
   -0.3544    2.2929   -0.3128 O   0  0  0  0  0  0  0  0  0  0  0  0
   -0.0365    1.1192   -0.1707 C   0  0  0  0  0  0  0  0  0  0  0  0
   -0.9051    0.0917    0.1291 N   0  0  0  0  0  0  0  0  0  0  0  0
   -2.3479    0.2181    0.3257 C   0  0  2  0  0  0  0  0  0  0  0  0
   -2.9270   -1.1860    0.6444 C   0  0  0  0  0  0  0  0  0  0  0  0
   -4.4470   -1.1185    0.8622 C   0  0  1  0  0  0  0  0  0  0  0  0
   -4.7464   -0.1731    2.0361 C   0  0  0  0  0  0  0  0  0  0  0  0
   -4.2034    1.2317    1.7303 C   0  0  2  0  0  0  0  0  0  0  0  0
   -4.8692    1.7655    0.4505 C   0  0  0  0  0  0  0  0  0  0  0  0
   -4.5741    0.8261   -0.7312 C   0  0  2  0  0  0  0  0  0  0  0  0
   -5.1150   -0.5764   -0.4112 C   0  0  0  0  0  0  0  0  0  0  0  0
   -3.0525    0.7474   -0.9478 C   0  0  0  0  0  0  0  0  0  0  0  0
   -2.6816    1.1531    1.5145 C   0  0  0  0  0  0  0  0  0  0  0  0
    1.3903    0.6845   -0.3192 C   0  0  0  0  0  0  0  0  0  0  0  0
    2.3661    1.6137   -0.6204 C   0  0  0  0  0  0  0  0  0  0  0  0
    3.6683    1.1512   -0.7445 C   0  0  0  0  0  0  0  0  0  0  0  0
    4.6263    2.0477   -1.0280 F   0  0  0  0  0  0  0  0  0  0  0  0
    3.9976   -0.1985   -0.5738 C   0  0  0  0  0  0  0  0  0  0  0  0
    5.3720   -0.7082   -0.7010 C   0  0  0  0  0  0  0  0  0  0  0  0
    5.9254   -1.5571    0.2744 C   0  0  0  0  0  0  0  0  0  0  0  0
    7.2272   -2.0512    0.1492 C   0  0  0  0  0  0  0  0  0  0  0  0
    8.0012   -1.7052   -0.9546 C   0  0  0  0  0  0  0  0  0  0  0  0
    7.4760   -0.8641   -1.9311 C   0  0  0  0  0  0  0  0  0  0  0  0
    6.1744   -0.3706   -1.8044 C   0  0  0  0  0  0  0  0  0  0  0  0
    2.9274   -1.0411   -0.2771 C   0  0  0  0  0  0  0  0  0  0  0  0
    1.6382   -0.6437   -0.1426 N   0  0  0  0  0  0  0  0  0  0  0  0
   -0.4697   -0.8251    0.2071 H   0  0  0  0  0  0  0  0  0  0  0  0
   -2.4431   -1.5997    1.5394 H   0  0  0  0  0  0  0  0  0  0  0  0
   -2.7012   -1.8822   -0.1745 H   0  0  0  0  0  0  0  0  0  0  0  0
   -4.8339   -2.1191    1.0853 H   0  0  0  0  0  0  0  0  0  0  0  0
   -5.8279   -0.1265    2.2134 H   0  0  0  0  0  0  0  0  0  0  0  0
   -4.2895   -0.5598    2.9553 H   0  0  0  0  0  0  0  0  0  0  0  0
   -4.4227    1.9026    2.5684 H   0  0  0  0  0  0  0  0  0  0  0  0
   -5.9527    1.8491    0.5999 H   0  0  0  0  0  0  0  0  0  0  0  0
   -4.4998    2.7743    0.2287 H   0  0  0  0  0  0  0  0  0  0  0  0
   -5.0561    1.2096   -1.6375 H   0  0  0  0  0  0  0  0  0  0  0  0
   -6.2028   -0.5367   -0.2760 H   0  0  0  0  0  0  0  0  0  0  0  0
   -4.9232   -1.2533   -1.2528 H   0  0  0  0  0  0  0  0  0  0  0  0
   -2.8300    0.0938   -1.8016 H   0  0  0  0  0  0  0  0  0  0  0  0
   -2.6777    1.7419   -1.2173 H   0  0  0  0  0  0  0  0  0  0  0  0
   -2.2929    2.1632    1.3388 H   0  0  0  0  0  0  0  0  0  0  0  0
   -2.1929    0.7908    2.4285 H   0  0  0  0  0  0  0  0  0  0  0  0
    2.1345    2.6635   -0.7534 H   0  0  0  0  0  0  0  0  0  0  0  0
    5.3517   -1.8330    1.1573 H   0  0  0  0  0  0  0  0  0  0  0  0
    7.6375   -2.7018    0.9174 H   0  0  0  0  0  0  0  0  0  0  0  0
    9.0144   -2.0867   -1.0517 H   0  0  0  0  0  0  0  0  0  0  0  0
    8.0784   -0.5880   -2.7930 H   0  0  0  0  0  0  0  0  0  0  0  0
    5.7896    0.2843   -2.5846 H   0  0  0  0  0  0  0  0  0  0  0  0
    3.0795   -2.1106   -0.1434 H   0  0  0  0  0  0  0  0  0  0  0  0
  1  2  2  0
  2  3  1  0
  4  3  1  6
  4  5  1  0
  5  6  1  0
  6  7  1  0
  7  8  1  0
  8  9  1  0
  9 10  1  0
 10 11  1  0
 10 12  1  0
  8 13  1  0
  2 14  1  0
 14 15  2  0
 15 16  1  0
 16 17  1  0
 16 18  2  0
 18 19  1  0
 19 20  2  0
 20 21  1  0
 21 22  2  0
 22 23  1  0
 23 24  2  0
 18 25  1  0
 25 26  2  0
 12  4  1  0
 26 14  1  0
 13  4  1  0
 24 19  1  0
 11  6  1  0
  3 27  1  0
  5 28  1  0
  5 29  1  0
  6 30  1  1
  7 31  1  0
  7 32  1  0
  8 33  1  1
  9 34  1  0
  9 35  1  0
 10 36  1  6
 11 37  1  0
 11 38  1  0
 12 39  1  0
 12 40  1  0
 13 41  1  0
 13 42  1  0
 15 43  1  0
 20 44  1  0
 21 45  1  0
 22 46  1  0
 23 47  1  0
 24 48  1  0
 25 49  1  0
M  END
>  <_SMILES>  (48) 
O=C(N[C@]12C[C@H]3C[C@H](C[C@H](C3)C1)C2)c1cc(F)c(-c2ccccc2)cn1

$$$$

     RDKit          3D

 50 54  0  0  0  0  0  0  0  0999 V2000
   -0.6272    1.8513    0.9186 O   0  0  0  0  0  0  0  0  0  0  0  0
   -0.2001    0.8073    0.4434 C   0  0  0  0  0  0  0  0  0  0  0  0
   -0.9876   -0.2148   -0.0464 N   0  0  0  0  0  0  0  0  0  0  0  0
   -2.4539   -0.1729   -0.1076 C   0  0  2  0  0  0  0  0  0  0  0  0
   -3.0885    0.0070    1.2950 C   0  0  0  0  0  0  0  0  0  0  0  0
   -4.6247   -0.0051    1.2005 C   0  0  1  0  0  0  0  0  0  0  0  0
   -5.0833    1.1337    0.2735 C   0  0  0  0  0  0  0  0  0  0  0  0
   -4.4894    0.9439   -1.1327 C   0  0  2  0  0  0  0  0  0  0  0  0
   -4.9526   -0.4074   -1.7000 C   0  0  0  0  0  0  0  0  0  0  0  0
   -4.4896   -1.5490   -0.7813 C   0  0  2  0  0  0  0  0  0  0  0  0
   -5.0879   -1.3499    0.6196 C   0  0  0  0  0  0  0  0  0  0  0  0
   -2.9561   -1.5258   -0.6822 C   0  0  0  0  0  0  0  0  0  0  0  0
   -2.9532    0.9575   -1.0407 C   0  0  0  0  0  0  0  0  0  0  0  0
    1.2702    0.6038    0.3341 C   0  0  0  0  0  0  0  0  0  0  0  0
    1.8468   -0.6679    0.4067 C   0  0  0  0  0  0  0  0  0  0  0  0
    3.2340   -0.8111    0.3056 C   0  0  0  0  0  0  0  0  0  0  0  0
    4.0725    0.3071    0.1392 C   0  0  0  0  0  0  0  0  0  0  0  0
    5.5238    0.0966    0.0429 C   0  0  0  0  0  0  0  0  0  0  0  0
    6.1023   -0.3710   -1.1474 C   0  0  0  0  0  0  0  0  0  0  0  0
    7.4800   -0.5831   -1.2366 C   0  0  0  0  0  0  0  0  0  0  0  0
    8.2968   -0.3328   -0.1360 C   0  0  0  0  0  0  0  0  0  0  0  0
    7.7381    0.1296    1.0536 C   0  0  0  0  0  0  0  0  0  0  0  0
    6.3605    0.3417    1.1429 C   0  0  0  0  0  0  0  0  0  0  0  0
    3.4751    1.5809    0.0824 C   0  0  0  0  0  0  0  0  0  0  0  0
    4.4143    3.0193   -0.1309 Cl  0  0  0  0  0  0  0  0  0  0  0  0
    2.0881    1.7282    0.1845 C   0  0  0  0  0  0  0  0  0  0  0  0
   -0.5339   -0.9063   -0.6279 H   0  0  0  0  0  0  0  0  0  0  0  0
   -2.7487   -0.7913    1.9678 H   0  0  0  0  0  0  0  0  0  0  0  0
   -2.7712    0.9501    1.7542 H   0  0  0  0  0  0  0  0  0  0  0  0
   -5.0564    0.1340    2.1980 H   0  0  0  0  0  0  0  0  0  0  0  0
   -6.1786    1.1512    0.2172 H   0  0  0  0  0  0  0  0  0  0  0  0
   -4.7703    2.1011    0.6851 H   0  0  0  0  0  0  0  0  0  0  0  0
   -4.8265    1.7544   -1.7886 H   0  0  0  0  0  0  0  0  0  0  0  0
   -4.5464   -0.5495   -2.7090 H   0  0  0  0  0  0  0  0  0  0  0  0
   -6.0456   -0.4203   -1.7921 H   0  0  0  0  0  0  0  0  0  0  0  0
   -4.8196   -2.5102   -1.1911 H   0  0  0  0  0  0  0  0  0  0  0  0
   -4.7791   -2.1699    1.2796 H   0  0  0  0  0  0  0  0  0  0  0  0
   -6.1832   -1.3786    0.5672 H   0  0  0  0  0  0  0  0  0  0  0  0
   -2.6123   -2.3550   -0.0493 H   0  0  0  0  0  0  0  0  0  0  0  0
   -2.5209   -1.6989   -1.6757 H   0  0  0  0  0  0  0  0  0  0  0  0
   -2.6247    1.9384   -0.6771 H   0  0  0  0  0  0  0  0  0  0  0  0
   -2.5181    0.8402   -2.0419 H   0  0  0  0  0  0  0  0  0  0  0  0
    1.2380   -1.5527    0.5727 H   0  0  0  0  0  0  0  0  0  0  0  0
    3.6697   -1.8076    0.3729 H   0  0  0  0  0  0  0  0  0  0  0  0
    5.4799   -0.5657   -2.0182 H   0  0  0  0  0  0  0  0  0  0  0  0
    7.9153   -0.9397   -2.1664 H   0  0  0  0  0  0  0  0  0  0  0  0
    9.3693   -0.4945   -0.2061 H   0  0  0  0  0  0  0  0  0  0  0  0
    8.3740    0.3290    1.9122 H   0  0  0  0  0  0  0  0  0  0  0  0
    5.9407    0.7053    2.0787 H   0  0  0  0  0  0  0  0  0  0  0  0
    1.6401    2.7194    0.1442 H   0  0  0  0  0  0  0  0  0  0  0  0
  1  2  2  0
  2  3  1  0
  4  3  1  1
  4  5  1  0
  5  6  1  0
  6  7  1  0
  7  8  1  0
  8  9  1  0
  9 10  1  0
 10 11  1  0
 10 12  1  0
  8 13  1  0
  2 14  1  0
 14 15  1  0
 15 16  2  0
 16 17  1  0
 17 18  1  0
 18 19  2  0
 19 20  1  0
 20 21  2  0
 21 22  1  0
 22 23  2  0
 17 24  2  0
 24 25  1  0
 24 26  1  0
 12  4  1  0
 26 14  2  0
 13  4  1  0
 23 18  1  0
 11  6  1  0
  3 27  1  0
  5 28  1  0
  5 29  1  0
  6 30  1  1
  7 31  1  0
  7 32  1  0
  8 33  1  6
  9 34  1  0
  9 35  1  0
 10 36  1  6
 11 37  1  0
 11 38  1  0
 12 39  1  0
 12 40  1  0
 13 41  1  0
 13 42  1  0
 15 43  1  0
 16 44  1  0
 19 45  1  0
 20 46  1  0
 21 47  1  0
 22 48  1  0
 23 49  1  0
 26 50  1  0
M  END
>  <_SMILES>  (49) 
O=C(N[C@]12C[C@H]3C[C@H](C[C@H](C3)C1)C2)c1ccc(-c2ccccc2)c(Cl)c1

$$$$

     RDKit          3D

 49 53  0  0  0  0  0  0  0  0999 V2000
   -0.4713    2.2758    0.3736 O   0  0  0  0  0  0  0  0  0  0  0  0
   -0.0934    1.1209    0.2209 C   0  0  0  0  0  0  0  0  0  0  0  0
   -0.9205    0.0216    0.1290 N   0  0  0  0  0  0  0  0  0  0  0  0
   -2.3798    0.0362    0.1997 C   0  0  2  0  0  0  0  0  0  0  0  0
   -2.9976    0.8811   -0.9418 C   0  0  0  0  0  0  0  0  0  0  0  0
   -4.5345    0.8417   -0.8734 C   0  0  1  0  0  0  0  0  0  0  0  0
   -5.0124   -0.6118   -1.0171 C   0  0  0  0  0  0  0  0  0  0  0  0
   -4.4302   -1.4702    0.1168 C   0  0  2  0  0  0  0  0  0  0  0  0
   -4.8945   -0.9090    1.4700 C   0  0  0  0  0  0  0  0  0  0  0  0
   -4.4159    0.5428    1.6282 C   0  0  2  0  0  0  0  0  0  0  0  0
   -4.9949    1.3951    0.4860 C   0  0  0  0  0  0  0  0  0  0  0  0
   -2.8790    0.5821    1.5604 C   0  0  0  0  0  0  0  0  0  0  0  0
   -2.8955   -1.4198    0.0501 C   0  0  0  0  0  0  0  0  0  0  0  0
    1.3665    0.7912    0.1173 C   0  0  0  0  0  0  0  0  0  0  0  0
    2.3133    1.8024    0.1938 C   0  0  0  0  0  0  0  0  0  0  0  0
    3.6598    1.4538    0.0924 C   0  0  0  0  0  0  0  0  0  0  0  0
    4.0349    0.1144   -0.0822 C   0  0  0  0  0  0  0  0  0  0  0  0
    5.4450   -0.2858   -0.1938 C   0  0  0  0  0  0  0  0  0  0  0  0
    6.3878    0.1113    0.7729 C   0  0  0  0  0  0  0  0  0  0  0  0
    7.7283   -0.2696    0.6692 C   0  0  0  0  0  0  0  0  0  0  0  0
    8.1375   -1.0495   -0.4037 C   0  0  0  0  0  0  0  0  0  0  0  0
    9.4220   -1.4143   -0.5039 F   0  0  0  0  0  0  0  0  0  0  0  0
    7.2322   -1.4559   -1.3745 C   0  0  0  0  0  0  0  0  0  0  0  0
    5.8914   -1.0757   -1.2697 C   0  0  0  0  0  0  0  0  0  0  0  0
    2.9968   -0.8199   -0.1435 C   0  0  0  0  0  0  0  0  0  0  0  0
    1.6770   -0.5250   -0.0509 N   0  0  0  0  0  0  0  0  0  0  0  0
   -0.4340   -0.8644    0.0070 H   0  0  0  0  0  0  0  0  0  0  0  0
   -2.6573    0.5058   -1.9159 H   0  0  0  0  0  0  0  0  0  0  0  0
   -2.6637    1.9238   -0.8815 H   0  0  0  0  0  0  0  0  0  0  0  0
   -4.9553    1.4501   -1.6817 H   0  0  0  0  0  0  0  0  0  0  0  0
   -6.1084   -0.6504   -0.9915 H   0  0  0  0  0  0  0  0  0  0  0  0
   -4.7023   -1.0141   -1.9893 H   0  0  0  0  0  0  0  0  0  0  0  0
   -4.7716   -2.5058    0.0093 H   0  0  0  0  0  0  0  0  0  0  0  0
   -4.4996   -1.5251    2.2871 H   0  0  0  0  0  0  0  0  0  0  0  0
   -5.9884   -0.9527    1.5384 H   0  0  0  0  0  0  0  0  0  0  0  0
   -4.7527    0.9394    2.5925 H   0  0  0  0  0  0  0  0  0  0  0  0
   -4.6715    2.4376    0.5952 H   0  0  0  0  0  0  0  0  0  0  0  0
   -6.0906    1.3947    0.5379 H   0  0  0  0  0  0  0  0  0  0  0  0
   -2.4536   -0.0079    2.3828 H   0  0  0  0  0  0  0  0  0  0  0  0
   -2.5404    1.6134    1.7159 H   0  0  0  0  0  0  0  0  0  0  0  0
   -2.5524   -1.8457   -0.9024 H   0  0  0  0  0  0  0  0  0  0  0  0
   -2.4699   -2.0540    0.8394 H   0  0  0  0  0  0  0  0  0  0  0  0
    2.0124    2.8370    0.3254 H   0  0  0  0  0  0  0  0  0  0  0  0
    4.4131    2.2376    0.1382 H   0  0  0  0  0  0  0  0  0  0  0  0
    6.0804    0.7142    1.6258 H   0  0  0  0  0  0  0  0  0  0  0  0
    8.4516    0.0358    1.4187 H   0  0  0  0  0  0  0  0  0  0  0  0
    7.5739   -2.0617   -2.2078 H   0  0  0  0  0  0  0  0  0  0  0  0
    5.1981   -1.3910   -2.0476 H   0  0  0  0  0  0  0  0  0  0  0  0
    3.2090   -1.8804   -0.2644 H   0  0  0  0  0  0  0  0  0  0  0  0
  1  2  2  0
  2  3  1  0
  4  3  1  1
  4  5  1  0
  5  6  1  0
  6  7  1  0
  7  8  1  0
  8  9  1  0
  9 10  1  0
 10 11  1  0
 10 12  1  0
  8 13  1  0
  2 14  1  0
 14 15  2  0
 15 16  1  0
 16 17  2  0
 17 18  1  0
 18 19  1  0
 19 20  2  0
 20 21  1  0
 21 22  1  0
 21 23  2  0
 23 24  1  0
 17 25  1  0
 25 26  2  0
 12  4  1  0
 26 14  1  0
 13  4  1  0
 24 18  2  0
 11  6  1  0
  3 27  1  0
  5 28  1  0
  5 29  1  0
  6 30  1  6
  7 31  1  0
  7 32  1  0
  8 33  1  6
  9 34  1  0
  9 35  1  0
 10 36  1  1
 11 37  1  0
 11 38  1  0
 12 39  1  0
 12 40  1  0
 13 41  1  0
 13 42  1  0
 15 43  1  0
 16 44  1  0
 19 45  1  0
 20 46  1  0
 23 47  1  0
 24 48  1  0
 25 49  1  0
M  END
>  <_SMILES>  (50) 
O=C(N[C@]12C[C@H]3C[C@H](C[C@H](C3)C1)C2)c1ccc(-c2ccc(F)cc2)cn1

$$$$

     RDKit          3D

 39 42  0  0  0  0  0  0  0  0999 V2000
    1.4856   -1.7216    1.1054 O   0  0  0  0  0  0  0  0  0  0  0  0
    1.8089   -0.7551    0.4261 C   0  0  0  0  0  0  0  0  0  0  0  0
    0.9299    0.1343   -0.1550 N   0  0  0  0  0  0  0  0  0  0  0  0
   -0.5274    0.0846   -0.0664 C   0  0  2  0  0  0  0  0  0  0  0  0
   -1.0141    0.2101    1.3986 C   0  0  0  0  0  0  0  0  0  0  0  0
   -2.5518    0.2028    1.4605 C   0  0  1  0  0  0  0  0  0  0  0  0
   -3.0984    1.3903    0.6524 C   0  0  0  0  0  0  0  0  0  0  0  0
   -2.6474    1.2802   -0.8126 C   0  0  2  0  0  0  0  0  0  0  0  0
   -3.1753   -0.0335   -1.4103 C   0  0  0  0  0  0  0  0  0  0  0  0
   -2.6291   -1.2292   -0.6142 C   0  0  2  0  0  0  0  0  0  0  0  0
   -3.0766   -1.1091    0.8526 C   0  0  0  0  0  0  0  0  0  0  0  0
   -1.0914   -1.2224   -0.6767 C   0  0  0  0  0  0  0  0  0  0  0  0
   -1.1114    1.2780   -0.8683 C   0  0  0  0  0  0  0  0  0  0  0  0
    3.2518   -0.4429    0.1568 C   0  0  0  0  0  0  0  0  0  0  0  0
    4.2470   -1.2575    0.6821 C   0  0  0  0  0  0  0  0  0  0  0  0
    5.5718   -0.9325    0.4083 C   0  0  0  0  0  0  0  0  0  0  0  0
    5.8529    0.1845   -0.3734 C   0  0  0  0  0  0  0  0  0  0  0  0
    4.7941    0.9400   -0.8554 C   0  0  0  0  0  0  0  0  0  0  0  0
    3.4960    0.6584   -0.6126 N   0  0  0  0  0  0  0  0  0  0  0  0
    1.3752    0.8800   -0.6864 H   0  0  0  0  0  0  0  0  0  0  0  0
   -0.6277   -0.6134    2.0109 H   0  0  0  0  0  0  0  0  0  0  0  0
   -0.6265    1.1342    1.8473 H   0  0  0  0  0  0  0  0  0  0  0  0
   -2.8792    0.2840    2.5030 H   0  0  0  0  0  0  0  0  0  0  0  0
   -2.7425    2.3336    1.0846 H   0  0  0  0  0  0  0  0  0  0  0  0
   -4.1938    1.4084    0.7070 H   0  0  0  0  0  0  0  0  0  0  0  0
   -3.0374    2.1296   -1.3844 H   0  0  0  0  0  0  0  0  0  0  0  0
   -4.2720   -0.0399   -1.3913 H   0  0  0  0  0  0  0  0  0  0  0  0
   -2.8747   -0.1146   -2.4622 H   0  0  0  0  0  0  0  0  0  0  0  0
   -3.0113   -2.1628   -1.0419 H   0  0  0  0  0  0  0  0  0  0  0  0
   -4.1716   -1.1370    0.9127 H   0  0  0  0  0  0  0  0  0  0  0  0
   -2.7043   -1.9647    1.4293 H   0  0  0  0  0  0  0  0  0  0  0  0
   -0.7594   -1.3267   -1.7180 H   0  0  0  0  0  0  0  0  0  0  0  0
   -0.7080   -2.1003   -0.1433 H   0  0  0  0  0  0  0  0  0  0  0  0
   -0.7792    1.2286   -1.9141 H   0  0  0  0  0  0  0  0  0  0  0  0
   -0.7254    2.2257   -0.4694 H   0  0  0  0  0  0  0  0  0  0  0  0
    3.9955   -2.1219    1.2882 H   0  0  0  0  0  0  0  0  0  0  0  0
    6.3780   -1.5459    0.8017 H   0  0  0  0  0  0  0  0  0  0  0  0
    6.8768    0.4606   -0.6022 H   0  0  0  0  0  0  0  0  0  0  0  0
    4.9722    1.8191   -1.4690 H   0  0  0  0  0  0  0  0  0  0  0  0
  1  2  2  0
  2  3  1  0
  4  3  1  1
  4  5  1  0
  5  6  1  0
  6  7  1  0
  7  8  1  0
  8  9  1  0
  9 10  1  0
 10 11  1  0
 10 12  1  0
  8 13  1  0
  2 14  1  0
 14 15  2  0
 15 16  1  0
 16 17  2  0
 17 18  1  0
 18 19  2  0
 12  4  1  0
 19 14  1  0
 13  4  1  0
 11  6  1  0
  3 20  1  0
  5 21  1  0
  5 22  1  0
  6 23  1  1
  7 24  1  0
  7 25  1  0
  8 26  1  6
  9 27  1  0
  9 28  1  0
 10 29  1  6
 11 30  1  0
 11 31  1  0
 12 32  1  0
 12 33  1  0
 13 34  1  0
 13 35  1  0
 15 36  1  0
 16 37  1  0
 17 38  1  0
 18 39  1  0
M  END
>  <_SMILES>  (51) 
O=C(N[C@]12C[C@H]3C[C@H](C[C@H](C3)C1)C2)c1ccccn1

$$$$

     RDKit          3D

 43 47  0  0  0  0  0  0  0  0999 V2000
    0.8621    0.4334   -1.8840 O   0  0  0  0  0  0  0  0  0  0  0  0
    1.1474   -0.0487   -0.7957 C   0  0  0  0  0  0  0  0  0  0  0  0
    0.2375   -0.3261    0.2046 N   0  0  0  0  0  0  0  0  0  0  0  0
   -1.1991   -0.0364    0.1204 C   0  0  2  0  0  0  0  0  0  0  0  0
   -1.8713   -0.7735   -1.0659 C   0  0  0  0  0  0  0  0  0  0  0  0
   -3.3837   -0.4892   -1.0936 C   0  0  1  0  0  0  0  0  0  0  0  0
   -4.0181   -0.9830    0.2157 C   0  0  0  0  0  0  0  0  0  0  0  0
   -3.3847   -0.2555    1.4114 C   0  0  2  0  0  0  0  0  0  0  0  0
   -3.6163    1.2570    1.2684 C   0  0  0  0  0  0  0  0  0  0  0  0
   -2.9803    1.7647   -0.0354 C   0  0  2  0  0  0  0  0  0  0  0  0
   -3.6110    1.0263   -1.2283 C   0  0  0  0  0  0  0  0  0  0  0  0
   -1.4675    1.4833   -0.0069 C   0  0  0  0  0  0  0  0  0  0  0  0
   -1.8735   -0.5347    1.4279 C   0  0  0  0  0  0  0  0  0  0  0  0
    2.5720   -0.3359   -0.4722 C   0  0  0  0  0  0  0  0  0  0  0  0
    2.9344   -1.4000    0.3848 C   0  0  0  0  0  0  0  0  0  0  0  0
    4.2802   -1.6529    0.6723 C   0  0  0  0  0  0  0  0  0  0  0  0
    5.2250   -0.8379    0.0862 C   0  0  0  0  0  0  0  0  0  0  0  0
    4.8749    0.1888   -0.7597 C   0  0  0  0  0  0  0  0  0  0  0  0
    3.5595    0.4640   -1.0647 C   0  0  0  0  0  0  0  0  0  0  0  0
    5.9579    0.8622   -1.2318 O   0  0  0  0  0  0  0  0  0  0  0  0
    7.0300    0.1366   -0.5954 C   0  0  0  0  0  0  0  0  0  0  0  0
    6.5708   -0.9390    0.2503 O   0  0  0  0  0  0  0  0  0  0  0  0
    0.6108   -0.4837    1.1310 H   0  0  0  0  0  0  0  0  0  0  0  0
   -1.4367   -0.4615   -2.0223 H   0  0  0  0  0  0  0  0  0  0  0  0
   -1.6951   -1.8543   -0.9869 H   0  0  0  0  0  0  0  0  0  0  0  0
   -3.8408   -1.0083   -1.9435 H   0  0  0  0  0  0  0  0  0  0  0  0
   -5.1004   -0.8049    0.1987 H   0  0  0  0  0  0  0  0  0  0  0  0
   -3.8753   -2.0659    0.3166 H   0  0  0  0  0  0  0  0  0  0  0  0
   -3.8374   -0.6123    2.3432 H   0  0  0  0  0  0  0  0  0  0  0  0
   -4.6917    1.4732    1.2697 H   0  0  0  0  0  0  0  0  0  0  0  0
   -3.1843    1.7856    2.1270 H   0  0  0  0  0  0  0  0  0  0  0  0
   -3.1527    2.8422   -0.1348 H   0  0  0  0  0  0  0  0  0  0  0  0
   -3.1743    1.3889   -2.1669 H   0  0  0  0  0  0  0  0  0  0  0  0
   -4.6860    1.2401   -1.2740 H   0  0  0  0  0  0  0  0  0  0  0  0
   -1.0108    1.8858   -0.9189 H   0  0  0  0  0  0  0  0  0  0  0  0
   -1.0035    2.0199    0.8311 H   0  0  0  0  0  0  0  0  0  0  0  0
   -1.4185   -0.0431    2.2984 H   0  0  0  0  0  0  0  0  0  0  0  0
   -1.6961   -1.6108    1.5573 H   0  0  0  0  0  0  0  0  0  0  0  0
    2.1767   -2.0544    0.8082 H   0  0  0  0  0  0  0  0  0  0  0  0
    4.5747   -2.4684    1.3237 H   0  0  0  0  0  0  0  0  0  0  0  0
    3.3008    1.2735   -1.7397 H   0  0  0  0  0  0  0  0  0  0  0  0
    7.6807   -0.2813   -1.3722 H   0  0  0  0  0  0  0  0  0  0  0  0
    7.6137    0.8363    0.0137 H   0  0  0  0  0  0  0  0  0  0  0  0
  1  2  2  0
  2  3  1  0
  4  3  1  1
  4  5  1  0
  5  6  1  0
  6  7  1  0
  7  8  1  0
  8  9  1  0
  9 10  1  0
 10 11  1  0
 10 12  1  0
  8 13  1  0
  2 14  1  0
 14 15  1  0
 15 16  2  0
 16 17  1  0
 17 18  2  0
 18 19  1  0
 18 20  1  0
 20 21  1  0
 21 22  1  0
 12  4  1  0
 19 14  2  0
 13  4  1  0
 22 17  1  0
 11  6  1  0
  3 23  1  0
  5 24  1  0
  5 25  1  0
  6 26  1  6
  7 27  1  0
  7 28  1  0
  8 29  1  1
  9 30  1  0
  9 31  1  0
 10 32  1  6
 11 33  1  0
 11 34  1  0
 12 35  1  0
 12 36  1  0
 13 37  1  0
 13 38  1  0
 15 39  1  0
 16 40  1  0
 19 41  1  0
 21 42  1  0
 21 43  1  0
M  END
>  <_SMILES>  (52) 
O=C(N[C@]12C[C@H]3C[C@H](C[C@H](C3)C1)C2)c1ccc2c(c1)OCO2

$$$$

     RDKit          3D

 42 45  0  0  0  0  0  0  0  0999 V2000
    6.3496   -0.8176   -0.6134 C   0  0  0  0  0  0  0  0  0  0  0  0
    5.1346   -0.1517   -0.0418 C   0  0  0  0  0  0  0  0  0  0  0  0
    5.2562    0.8657    0.9079 C   0  0  0  0  0  0  0  0  0  0  0  0
    4.1045    1.4335    1.4355 C   0  0  0  0  0  0  0  0  0  0  0  0
    2.8542    1.0575    1.0949 N   0  0  0  0  0  0  0  0  0  0  0  0
    2.7590    0.0524    0.1769 C   0  0  0  0  0  0  0  0  0  0  0  0
    1.3684   -0.3726   -0.1953 C   0  0  0  0  0  0  0  0  0  0  0  0
    1.1747   -1.2676   -1.0085 O   0  0  0  0  0  0  0  0  0  0  0  0
    0.3787    0.3319    0.4573 N   0  0  0  0  0  0  0  0  0  0  0  0
   -1.0607    0.1401    0.2980 C   0  0  2  0  0  0  0  0  0  0  0  0
   -1.7975    1.1458    1.2222 C   0  0  0  0  0  0  0  0  0  0  0  0
   -3.3219    0.9924    1.0988 C   0  0  1  0  0  0  0  0  0  0  0  0
   -3.7381    1.2503   -0.3578 C   0  0  0  0  0  0  0  0  0  0  0  0
   -3.0389    0.2473   -1.2889 C   0  0  2  0  0  0  0  0  0  0  0  0
   -3.4326   -1.1827   -0.8816 C   0  0  0  0  0  0  0  0  0  0  0  0
   -3.0188   -1.4511    0.5754 C   0  0  2  0  0  0  0  0  0  0  0  0
   -3.7181   -0.4383    1.4958 C   0  0  0  0  0  0  0  0  0  0  0  0
   -1.4940   -1.2895    0.7067 C   0  0  0  0  0  0  0  0  0  0  0  0
   -1.5141    0.4094   -1.1582 C   0  0  0  0  0  0  0  0  0  0  0  0
    3.8544   -0.5749   -0.4051 C   0  0  0  0  0  0  0  0  0  0  0  0
    6.6340   -1.6735    0.0065 H   0  0  0  0  0  0  0  0  0  0  0  0
    6.1597   -1.1667   -1.6338 H   0  0  0  0  0  0  0  0  0  0  0  0
    7.1918   -0.1193   -0.6604 H   0  0  0  0  0  0  0  0  0  0  0  0
    6.2304    1.2155    1.2354 H   0  0  0  0  0  0  0  0  0  0  0  0
    4.1658    2.2301    2.1722 H   0  0  0  0  0  0  0  0  0  0  0  0
    0.7224    1.0422    1.1008 H   0  0  0  0  0  0  0  0  0  0  0  0
   -1.5074    2.1742    0.9681 H   0  0  0  0  0  0  0  0  0  0  0  0
   -1.4935    0.9916    2.2662 H   0  0  0  0  0  0  0  0  0  0  0  0
   -3.8208    1.7108    1.7587 H   0  0  0  0  0  0  0  0  0  0  0  0
   -3.4764    2.2756   -0.6469 H   0  0  0  0  0  0  0  0  0  0  0  0
   -4.8266    1.1592   -0.4583 H   0  0  0  0  0  0  0  0  0  0  0  0
   -3.3418    0.4330   -2.3255 H   0  0  0  0  0  0  0  0  0  0  0  0
   -4.5154   -1.3184   -0.9935 H   0  0  0  0  0  0  0  0  0  0  0  0
   -2.9504   -1.9085   -1.5479 H   0  0  0  0  0  0  0  0  0  0  0  0
   -3.3075   -2.4691    0.8600 H   0  0  0  0  0  0  0  0  0  0  0  0
   -3.4421   -0.6280    2.5403 H   0  0  0  0  0  0  0  0  0  0  0  0
   -4.8063   -0.5586    1.4272 H   0  0  0  0  0  0  0  0  0  0  0  0
   -0.9995   -2.0419    0.0808 H   0  0  0  0  0  0  0  0  0  0  0  0
   -1.1838   -1.4973    1.7392 H   0  0  0  0  0  0  0  0  0  0  0  0
   -1.2183    1.4214   -1.4646 H   0  0  0  0  0  0  0  0  0  0  0  0
   -1.0204   -0.2784   -1.8550 H   0  0  0  0  0  0  0  0  0  0  0  0
    3.7067   -1.3744   -1.1252 H   0  0  0  0  0  0  0  0  0  0  0  0
  1  2  1  0
  2  3  2  0
  3  4  1  0
  4  5  2  0
  5  6  1  0
  6  7  1  0
  7  8  2  0
  7  9  1  0
 10  9  1  6
 10 11  1  0
 11 12  1  0
 12 13  1  0
 13 14  1  0
 14 15  1  0
 15 16  1  0
 16 17  1  0
 16 18  1  0
 14 19  1  0
  6 20  2  0
 20  2  1  0
 18 10  1  0
 19 10  1  0
 17 12  1  0
  1 21  1  0
  1 22  1  0
  1 23  1  0
  3 24  1  0
  4 25  1  0
  9 26  1  0
 11 27  1  0
 11 28  1  0
 12 29  1  1
 13 30  1  0
 13 31  1  0
 14 32  1  6
 15 33  1  0
 15 34  1  0
 16 35  1  1
 17 36  1  0
 17 37  1  0
 18 38  1  0
 18 39  1  0
 19 40  1  0
 19 41  1  0
 20 42  1  0
M  END
>  <_SMILES>  (53) 
Cc1ccnc(C(=O)N[C@]23C[C@H]4C[C@H](C[C@H](C4)C2)C3)c1

$$$$

     RDKit          3D

 45 49  0  0  0  0  0  0  0  0999 V2000
    0.6288    0.6923   -1.8143 O   0  0  0  0  0  0  0  0  0  0  0  0
    0.8073    0.2141   -0.7011 C   0  0  0  0  0  0  0  0  0  0  0  0
   -0.1928   -0.1152    0.1891 N   0  0  0  0  0  0  0  0  0  0  0  0
   -1.6280    0.0439   -0.0336 C   0  0  2  0  0  0  0  0  0  0  0  0
   -2.3810   -0.4521    1.2295 C   0  0  0  0  0  0  0  0  0  0  0  0
   -3.9015   -0.3098    1.0557 C   0  0  1  0  0  0  0  0  0  0  0  0
   -4.2450    1.1684    0.8138 C   0  0  0  0  0  0  0  0  0  0  0  0
   -3.5291    1.6738   -0.4487 C   0  0  2  0  0  0  0  0  0  0  0  0
   -3.9757    0.8323   -1.6564 C   0  0  0  0  0  0  0  0  0  0  0  0
   -3.6349   -0.6496   -1.4243 C   0  0  2  0  0  0  0  0  0  0  0  0
   -4.3502   -1.1416   -0.1561 C   0  0  0  0  0  0  0  0  0  0  0  0
   -2.1141   -0.7966   -1.2401 C   0  0  0  0  0  0  0  0  0  0  0  0
   -2.0083    1.5274   -0.2643 C   0  0  0  0  0  0  0  0  0  0  0  0
    2.1901   -0.0660   -0.1895 C   0  0  0  0  0  0  0  0  0  0  0  0
    3.2912    0.2216   -0.9853 C   0  0  0  0  0  0  0  0  0  0  0  0
    4.5680   -0.0497   -0.4822 C   0  0  0  0  0  0  0  0  0  0  0  0
    5.7275    0.2146   -1.2286 C   0  0  0  0  0  0  0  0  0  0  0  0
    6.9906   -0.0655   -0.7033 C   0  0  0  0  0  0  0  0  0  0  0  0
    7.1117   -0.6124    0.5720 C   0  0  0  0  0  0  0  0  0  0  0  0
    5.9695   -0.8813    1.3271 C   0  0  0  0  0  0  0  0  0  0  0  0
    4.6924   -0.6034    0.8090 C   0  0  0  0  0  0  0  0  0  0  0  0
    3.5159   -0.8527    1.5220 C   0  0  0  0  0  0  0  0  0  0  0  0
    2.2689   -0.6007    1.0620 N   0  0  0  0  0  0  0  0  0  0  0  0
    0.1374   -0.5043    1.0701 H   0  0  0  0  0  0  0  0  0  0  0  0
   -2.1284   -1.5017    1.4317 H   0  0  0  0  0  0  0  0  0  0  0  0
   -2.0546    0.1161    2.1109 H   0  0  0  0  0  0  0  0  0  0  0  0
   -4.4121   -0.6653    1.9576 H   0  0  0  0  0  0  0  0  0  0  0  0
   -5.3298    1.2878    0.7028 H   0  0  0  0  0  0  0  0  0  0  0  0
   -3.9455    1.7699    1.6808 H   0  0  0  0  0  0  0  0  0  0  0  0
   -3.7802    2.7267   -0.6188 H   0  0  0  0  0  0  0  0  0  0  0  0
   -5.0553    0.9473   -1.8132 H   0  0  0  0  0  0  0  0  0  0  0  0
   -3.4818    1.1922   -2.5673 H   0  0  0  0  0  0  0  0  0  0  0  0
   -3.9611   -1.2432   -2.2857 H   0  0  0  0  0  0  0  0  0  0  0  0
   -4.1264   -2.2021    0.0131 H   0  0  0  0  0  0  0  0  0  0  0  0
   -5.4368   -1.0620   -0.2838 H   0  0  0  0  0  0  0  0  0  0  0  0
   -1.8562   -1.8536   -1.0923 H   0  0  0  0  0  0  0  0  0  0  0  0
   -1.6103   -0.4843   -2.1626 H   0  0  0  0  0  0  0  0  0  0  0  0
   -1.5006    1.9282   -1.1497 H   0  0  0  0  0  0  0  0  0  0  0  0
   -1.6743    2.1391    0.5842 H   0  0  0  0  0  0  0  0  0  0  0  0
    3.1508    0.6477   -1.9741 H   0  0  0  0  0  0  0  0  0  0  0  0
    5.6556    0.6418   -2.2271 H   0  0  0  0  0  0  0  0  0  0  0  0
    7.8807    0.1441   -1.2917 H   0  0  0  0  0  0  0  0  0  0  0  0
    8.0965   -0.8295    0.9785 H   0  0  0  0  0  0  0  0  0  0  0  0
    6.0821   -1.3083    2.3212 H   0  0  0  0  0  0  0  0  0  0  0  0
    3.5490   -1.2787    2.5221 H   0  0  0  0  0  0  0  0  0  0  0  0
  1  2  2  0
  2  3  1  0
  4  3  1  1
  4  5  1  0
  5  6  1  0
  6  7  1  0
  7  8  1  0
  8  9  1  0
  9 10  1  0
 10 11  1  0
 10 12  1  0
  8 13  1  0
  2 14  1  0
 14 15  1  0
 15 16  2  0
 16 17  1  0
 17 18  2  0
 18 19  1  0
 19 20  2  0
 20 21  1  0
 21 22  2  0
 22 23  1  0
 12  4  1  0
 23 14  2  0
 13  4  1  0
 21 16  1  0
 11  6  1  0
  3 24  1  0
  5 25  1  0
  5 26  1  0
  6 27  1  1
  7 28  1  0
  7 29  1  0
  8 30  1  6
  9 31  1  0
  9 32  1  0
 10 33  1  6
 11 34  1  0
 11 35  1  0
 12 36  1  0
 12 37  1  0
 13 38  1  0
 13 39  1  0
 15 40  1  0
 17 41  1  0
 18 42  1  0
 19 43  1  0
 20 44  1  0
 22 45  1  0
M  END
>  <_SMILES>  (54) 
O=C(N[C@]12C[C@H]3C[C@H](C[C@H](C3)C1)C2)c1cc2ccccc2cn1

$$$$

     RDKit          3D

 42 46  0  0  0  0  0  0  0  0999 V2000
    0.5406    2.1526   -0.9617 O   0  0  0  0  0  0  0  0  0  0  0  0
    1.0159    1.1016   -0.5395 C   0  0  0  0  0  0  0  0  0  0  0  0
    0.2329    0.0592   -0.0736 N   0  0  0  0  0  0  0  0  0  0  0  0
   -1.2272    0.0386   -0.0098 C   0  0  2  0  0  0  0  0  0  0  0  0
   -1.7756    1.1558    0.9121 C   0  0  0  0  0  0  0  0  0  0  0  0
   -3.3102    1.0796    1.0010 C   0  0  1  0  0  0  0  0  0  0  0  0
   -3.9071    1.2324   -0.4084 C   0  0  0  0  0  0  0  0  0  0  0  0
   -3.3980    0.1062   -1.3242 C   0  0  2  0  0  0  0  0  0  0  0  0
   -3.8059   -1.2520   -0.7321 C   0  0  0  0  0  0  0  0  0  0  0  0
   -3.2048   -1.4136    0.6728 C   0  0  2  0  0  0  0  0  0  0  0  0
   -3.7186   -0.2843    1.5794 C   0  0  0  0  0  0  0  0  0  0  0  0
   -1.6732   -1.3270    0.5787 C   0  0  0  0  0  0  0  0  0  0  0  0
   -1.8635    0.1817   -1.4147 C   0  0  0  0  0  0  0  0  0  0  0  0
    2.4462    0.8048   -0.4693 C   0  0  0  0  0  0  0  0  0  0  0  0
    2.9101   -0.3425   -0.0064 N   0  0  0  0  0  0  0  0  0  0  0  0
    4.2947   -0.3328   -0.0627 C   0  0  0  0  0  0  0  0  0  0  0  0
    5.1445   -1.3814    0.3442 C   0  0  0  0  0  0  0  0  0  0  0  0
    6.5314   -1.2373    0.2316 C   0  0  0  0  0  0  0  0  0  0  0  0
    7.0789   -0.0651   -0.2799 C   0  0  0  0  0  0  0  0  0  0  0  0
    6.2583    0.9900   -0.6907 C   0  0  0  0  0  0  0  0  0  0  0  0
    4.8670    0.8352   -0.5733 C   0  0  0  0  0  0  0  0  0  0  0  0
    3.6133    1.9402   -0.9887 S   0  0  0  0  0  0  0  0  0  0  0  0
    0.7551   -0.7530    0.2468 H   0  0  0  0  0  0  0  0  0  0  0  0
   -1.3384    1.0660    1.9152 H   0  0  0  0  0  0  0  0  0  0  0  0
   -1.4888    2.1466    0.5406 H   0  0  0  0  0  0  0  0  0  0  0  0
   -3.6821    1.8814    1.6487 H   0  0  0  0  0  0  0  0  0  0  0  0
   -5.0024    1.2043   -0.3553 H   0  0  0  0  0  0  0  0  0  0  0  0
   -3.6338    2.2086   -0.8274 H   0  0  0  0  0  0  0  0  0  0  0  0
   -3.8321    0.2182   -2.3240 H   0  0  0  0  0  0  0  0  0  0  0  0
   -3.4605   -2.0641   -1.3837 H   0  0  0  0  0  0  0  0  0  0  0  0
   -4.8992   -1.3265   -0.6830 H   0  0  0  0  0  0  0  0  0  0  0  0
   -3.4959   -2.3841    1.0901 H   0  0  0  0  0  0  0  0  0  0  0  0
   -4.8104   -0.3421    1.6681 H   0  0  0  0  0  0  0  0  0  0  0  0
   -3.3104   -0.4000    2.5910 H   0  0  0  0  0  0  0  0  0  0  0  0
   -1.2329   -1.4706    1.5747 H   0  0  0  0  0  0  0  0  0  0  0  0
   -1.2940   -2.1483   -0.0442 H   0  0  0  0  0  0  0  0  0  0  0  0
   -1.5801    1.1340   -1.8782 H   0  0  0  0  0  0  0  0  0  0  0  0
   -1.4892   -0.6069   -2.0806 H   0  0  0  0  0  0  0  0  0  0  0  0
    4.7156   -2.2953    0.7430 H   0  0  0  0  0  0  0  0  0  0  0  0
    7.1836   -2.0487    0.5467 H   0  0  0  0  0  0  0  0  0  0  0  0
    8.1595    0.0341   -0.3622 H   0  0  0  0  0  0  0  0  0  0  0  0
    6.6871    1.9045   -1.0898 H   0  0  0  0  0  0  0  0  0  0  0  0
  1  2  2  0
  2  3  1  0
  4  3  1  6
  4  5  1  0
  5  6  1  0
  6  7  1  0
  7  8  1  0
  8  9  1  0
  9 10  1  0
 10 11  1  0
 10 12  1  0
  8 13  1  0
  2 14  1  0
 14 15  2  0
 15 16  1  0
 16 17  2  0
 17 18  1  0
 18 19  2  0
 19 20  1  0
 20 21  2  0
 21 22  1  0
 12  4  1  0
 22 14  1  0
 13  4  1  0
 21 16  1  0
 11  6  1  0
  3 23  1  0
  5 24  1  0
  5 25  1  0
  6 26  1  1
  7 27  1  0
  7 28  1  0
  8 29  1  6
  9 30  1  0
  9 31  1  0
 10 32  1  1
 11 33  1  0
 11 34  1  0
 12 35  1  0
 12 36  1  0
 13 37  1  0
 13 38  1  0
 17 39  1  0
 18 40  1  0
 19 41  1  0
 20 42  1  0
M  END
>  <_SMILES>  (55) 
O=C(N[C@]12C[C@H]3C[C@H](C[C@H](C3)C1)C2)c1nc2ccccc2s1

$$$$

     RDKit          3D

 53 57  0  0  0  0  0  0  0  0999 V2000
    2.5164    1.5471    1.8580 C   0  0  0  0  0  0  0  0  0  0  0  0
    2.4219    0.5798    0.7341 C   0  0  0  0  0  0  0  0  0  0  0  0
    1.2242    0.0865    0.1324 C   0  0  0  0  0  0  0  0  0  0  0  0
   -0.1715    0.4264    0.4783 C   0  0  0  0  0  0  0  0  0  0  0  0
   -0.4672    1.2212    1.3640 O   0  0  0  0  0  0  0  0  0  0  0  0
   -1.0867   -0.2450   -0.3034 N   0  0  0  0  0  0  0  0  0  0  0  0
   -2.5388   -0.1334   -0.2244 C   0  0  2  0  0  0  0  0  0  0  0  0
   -3.1638   -1.0697   -1.2925 C   0  0  0  0  0  0  0  0  0  0  0  0
   -4.6987   -0.9962   -1.2593 C   0  0  1  0  0  0  0  0  0  0  0  0
   -5.1936   -1.4206    0.1324 C   0  0  0  0  0  0  0  0  0  0  0  0
   -4.6063   -0.4894    1.2047 C   0  0  2  0  0  0  0  0  0  0  0  0
   -5.0446    0.9566    0.9162 C   0  0  0  0  0  0  0  0  0  0  0  0
   -4.5527    1.3913   -0.4749 C   0  0  2  0  0  0  0  0  0  0  0  0
   -5.1402    0.4492   -1.5376 C   0  0  0  0  0  0  0  0  0  0  0  0
   -3.0165    1.3105   -0.5169 C   0  0  0  0  0  0  0  0  0  0  0  0
   -3.0701   -0.5706    1.1631 C   0  0  0  0  0  0  0  0  0  0  0  0
    1.5004   -0.7877   -0.8581 N   0  0  0  0  0  0  0  0  0  0  0  0
    2.8451   -0.8353   -0.8913 N   0  0  0  0  0  0  0  0  0  0  0  0
    3.4917   -1.6695   -1.8792 C   0  0  0  0  0  0  0  0  0  0  0  0
    3.4548   -0.0450    0.0512 C   0  0  0  0  0  0  0  0  0  0  0  0
    4.8996    0.0644    0.2146 C   0  0  0  0  0  0  0  0  0  0  0  0
    5.6297   -0.9832    0.7875 C   0  0  0  0  0  0  0  0  0  0  0  0
    7.0136   -0.8763    0.9373 C   0  0  0  0  0  0  0  0  0  0  0  0
    7.6737    0.2782    0.5183 C   0  0  0  0  0  0  0  0  0  0  0  0
    6.9514    1.3283   -0.0472 C   0  0  0  0  0  0  0  0  0  0  0  0
    5.5674    1.2230   -0.1971 C   0  0  0  0  0  0  0  0  0  0  0  0
    1.9613    1.1801    2.7272 H   0  0  0  0  0  0  0  0  0  0  0  0
    3.5519    1.7080    2.1727 H   0  0  0  0  0  0  0  0  0  0  0  0
    2.1015    2.5160    1.5624 H   0  0  0  0  0  0  0  0  0  0  0  0
   -0.6579   -0.8608   -0.9917 H   0  0  0  0  0  0  0  0  0  0  0  0
   -2.8020   -0.7958   -2.2927 H   0  0  0  0  0  0  0  0  0  0  0  0
   -2.8393   -2.1052   -1.1231 H   0  0  0  0  0  0  0  0  0  0  0  0
   -5.1179   -1.6638   -2.0202 H   0  0  0  0  0  0  0  0  0  0  0  0
   -4.8997   -2.4579    0.3348 H   0  0  0  0  0  0  0  0  0  0  0  0
   -6.2895   -1.3877    0.1666 H   0  0  0  0  0  0  0  0  0  0  0  0
   -4.9650   -0.7937    2.1943 H   0  0  0  0  0  0  0  0  0  0  0  0
   -6.1378    1.0328    0.9666 H   0  0  0  0  0  0  0  0  0  0  0  0
   -4.6429    1.6301    1.6831 H   0  0  0  0  0  0  0  0  0  0  0  0
   -4.8735    2.4197   -0.6756 H   0  0  0  0  0  0  0  0  0  0  0  0
   -4.8080    0.7572   -2.5366 H   0  0  0  0  0  0  0  0  0  0  0  0
   -6.2352    0.5143   -1.5321 H   0  0  0  0  0  0  0  0  0  0  0  0
   -2.6520    1.6369   -1.4998 H   0  0  0  0  0  0  0  0  0  0  0  0
   -2.6012    2.0152    0.2134 H   0  0  0  0  0  0  0  0  0  0  0  0
   -2.7441   -1.5950    1.3866 H   0  0  0  0  0  0  0  0  0  0  0  0
   -2.6571    0.0625    1.9574 H   0  0  0  0  0  0  0  0  0  0  0  0
    3.8702   -2.5628   -1.3768 H   0  0  0  0  0  0  0  0  0  0  0  0
    2.7651   -1.9517   -2.6460 H   0  0  0  0  0  0  0  0  0  0  0  0
    4.3062   -1.1077   -2.3428 H   0  0  0  0  0  0  0  0  0  0  0  0
    5.1240   -1.8827    1.1307 H   0  0  0  0  0  0  0  0  0  0  0  0
    7.5757   -1.6909    1.3867 H   0  0  0  0  0  0  0  0  0  0  0  0
    8.7509    0.3624    0.6381 H   0  0  0  0  0  0  0  0  0  0  0  0
    7.4647    2.2309   -0.3685 H   0  0  0  0  0  0  0  0  0  0  0  0
    5.0127    2.0489   -0.6368 H   0  0  0  0  0  0  0  0  0  0  0  0
  1  2  1  0
  2  3  1  0
  3  4  1  0
  4  5  2  0
  4  6  1  0
  7  6  1  1
  7  8  1  0
  8  9  1  0
  9 10  1  0
 10 11  1  0
 11 12  1  0
 12 13  1  0
 13 14  1  0
 13 15  1  0
 11 16  1  0
  3 17  2  0
 17 18  1  0
 18 19  1  0
 18 20  1  0
 20 21  1  0
 21 22  2  0
 22 23  1  0
 23 24  2  0
 24 25  1  0
 25 26  2  0
 20  2  2  0
 26 21  1  0
 15  7  1  0
 16  7  1  0
 14  9  1  0
  1 27  1  0
  1 28  1  0
  1 29  1  0
  6 30  1  0
  8 31  1  0
  8 32  1  0
  9 33  1  6
 10 34  1  0
 10 35  1  0
 11 36  1  1
 12 37  1  0
 12 38  1  0
 13 39  1  6
 14 40  1  0
 14 41  1  0
 15 42  1  0
 15 43  1  0
 16 44  1  0
 16 45  1  0
 19 46  1  0
 19 47  1  0
 19 48  1  0
 22 49  1  0
 23 50  1  0
 24 51  1  0
 25 52  1  0
 26 53  1  0
M  END
>  <_SMILES>  (56) 
Cc1c(C(=O)N[C@]23C[C@H]4C[C@H](C[C@H](C4)C2)C3)nn(C)c1-c1ccccc1

$$$$

     RDKit          3D

 59 63  0  0  0  0  0  0  0  0999 V2000
   -4.2034    2.9138    0.6721 C   0  0  0  0  0  0  0  0  0  0  0  0
   -3.9464    3.0738   -0.8189 C   0  0  0  0  0  0  0  0  0  0  0  0
   -3.9643    1.7457   -1.5770 C   0  0  0  0  0  0  0  0  0  0  0  0
   -2.8683    0.8578   -1.2277 N   0  0  0  0  0  0  0  0  0  0  0  0
   -1.6266    1.1997   -1.6119 N   0  0  0  0  0  0  0  0  0  0  0  0
   -0.8378    0.2119   -1.1587 C   0  0  0  0  0  0  0  0  0  0  0  0
    0.6239    0.2489   -1.3719 C   0  0  0  0  0  0  0  0  0  0  0  0
    1.1359    0.6143   -2.4252 O   0  0  0  0  0  0  0  0  0  0  0  0
    1.3553   -0.1392   -0.2605 N   0  0  0  0  0  0  0  0  0  0  0  0
    2.8159   -0.0874   -0.1657 C   0  0  2  0  0  0  0  0  0  0  0  0
    3.3456    1.3625   -0.2844 C   0  0  0  0  0  0  0  0  0  0  0  0
    4.8756    1.3944   -0.1213 C   0  0  1  0  0  0  0  0  0  0  0  0
    5.2506    0.8421    1.2631 C   0  0  0  0  0  0  0  0  0  0  0  0
    4.7563   -0.6064    1.4022 C   0  0  2  0  0  0  0  0  0  0  0  0
    5.4056   -1.4730    0.3126 C   0  0  0  0  0  0  0  0  0  0  0  0
    5.0303   -0.9351   -1.0768 C   0  0  2  0  0  0  0  0  0  0  0  0
    5.5199    0.5173   -1.2084 C   0  0  0  0  0  0  0  0  0  0  0  0
    3.5003   -0.9699   -1.2405 C   0  0  0  0  0  0  0  0  0  0  0  0
    3.2298   -0.6370    1.2270 C   0  0  0  0  0  0  0  0  0  0  0  0
   -1.6131   -0.7874   -0.4850 C   0  0  0  0  0  0  0  0  0  0  0  0
   -1.1318   -2.0590    0.1157 C   0  0  0  0  0  0  0  0  0  0  0  0
   -2.9228   -0.3323   -0.5444 C   0  0  0  0  0  0  0  0  0  0  0  0
   -4.1447   -0.9384   -0.0310 C   0  0  0  0  0  0  0  0  0  0  0  0
   -4.9867   -1.6607   -0.8841 C   0  0  0  0  0  0  0  0  0  0  0  0
   -6.1554   -2.2427   -0.3901 C   0  0  0  0  0  0  0  0  0  0  0  0
   -6.4848   -2.1097    0.9582 C   0  0  0  0  0  0  0  0  0  0  0  0
   -5.6452   -1.3987    1.8149 C   0  0  0  0  0  0  0  0  0  0  0  0
   -4.4757   -0.8169    1.3227 C   0  0  0  0  0  0  0  0  0  0  0  0
   -4.2492    3.8961    1.1531 H   0  0  0  0  0  0  0  0  0  0  0  0
   -3.4047    2.3435    1.1558 H   0  0  0  0  0  0  0  0  0  0  0  0
   -5.1546    2.4038    0.8543 H   0  0  0  0  0  0  0  0  0  0  0  0
   -2.9885    3.5864   -0.9657 H   0  0  0  0  0  0  0  0  0  0  0  0
   -4.7229    3.7244   -1.2385 H   0  0  0  0  0  0  0  0  0  0  0  0
   -4.9134    1.2264   -1.4168 H   0  0  0  0  0  0  0  0  0  0  0  0
   -3.8790    1.9319   -2.6545 H   0  0  0  0  0  0  0  0  0  0  0  0
    0.8376   -0.1619    0.6078 H   0  0  0  0  0  0  0  0  0  0  0  0
    2.8757    1.9995    0.4765 H   0  0  0  0  0  0  0  0  0  0  0  0
    3.0794    1.7977   -1.2551 H   0  0  0  0  0  0  0  0  0  0  0  0
    5.2349    2.4251   -0.2170 H   0  0  0  0  0  0  0  0  0  0  0  0
    6.3382    0.8816    1.4003 H   0  0  0  0  0  0  0  0  0  0  0  0
    4.8078    1.4668    2.0486 H   0  0  0  0  0  0  0  0  0  0  0  0
    5.0233   -0.9948    2.3914 H   0  0  0  0  0  0  0  0  0  0  0  0
    6.4958   -1.4728    0.4331 H   0  0  0  0  0  0  0  0  0  0  0  0
    5.0743   -2.5138    0.4138 H   0  0  0  0  0  0  0  0  0  0  0  0
    5.4980   -1.5541   -1.8505 H   0  0  0  0  0  0  0  0  0  0  0  0
    6.6126    0.5528   -1.1180 H   0  0  0  0  0  0  0  0  0  0  0  0
    5.2700    0.9085   -2.2023 H   0  0  0  0  0  0  0  0  0  0  0  0
    3.2471   -0.6304   -2.2511 H   0  0  0  0  0  0  0  0  0  0  0  0
    3.1393   -2.0041   -1.1650 H   0  0  0  0  0  0  0  0  0  0  0  0
    2.7568   -0.0451    2.0222 H   0  0  0  0  0  0  0  0  0  0  0  0
    2.8621   -1.6644    1.3514 H   0  0  0  0  0  0  0  0  0  0  0  0
   -1.9208   -2.8176    0.1331 H   0  0  0  0  0  0  0  0  0  0  0  0
   -0.2966   -2.4738   -0.4573 H   0  0  0  0  0  0  0  0  0  0  0  0
   -0.7991   -1.8902    1.1447 H   0  0  0  0  0  0  0  0  0  0  0  0
   -4.7341   -1.7773   -1.9357 H   0  0  0  0  0  0  0  0  0  0  0  0
   -6.8064   -2.8028   -1.0566 H   0  0  0  0  0  0  0  0  0  0  0  0
   -7.3946   -2.5643    1.3424 H   0  0  0  0  0  0  0  0  0  0  0  0
   -5.9003   -1.2989    2.8668 H   0  0  0  0  0  0  0  0  0  0  0  0
   -3.8266   -0.2665    1.9995 H   0  0  0  0  0  0  0  0  0  0  0  0
  1  2  1  0
  2  3  1  0
  3  4  1  0
  4  5  1  0
  5  6  2  0
  6  7  1  0
  7  8  2  0
  7  9  1  0
 10  9  1  6
 10 11  1  0
 11 12  1  0
 12 13  1  0
 13 14  1  0
 14 15  1  0
 15 16  1  0
 16 17  1  0
 16 18  1  0
 14 19  1  0
  6 20  1  0
 20 21  1  0
 20 22  2  0
 22 23  1  0
 23 24  2  0
 24 25  1  0
 25 26  2  0
 26 27  1  0
 27 28  2  0
 22  4  1  0
 28 23  1  0
 18 10  1  0
 19 10  1  0
 17 12  1  0
  1 29  1  0
  1 30  1  0
  1 31  1  0
  2 32  1  0
  2 33  1  0
  3 34  1  0
  3 35  1  0
  9 36  1  0
 11 37  1  0
 11 38  1  0
 12 39  1  1
 13 40  1  0
 13 41  1  0
 14 42  1  1
 15 43  1  0
 15 44  1  0
 16 45  1  6
 17 46  1  0
 17 47  1  0
 18 48  1  0
 18 49  1  0
 19 50  1  0
 19 51  1  0
 21 52  1  0
 21 53  1  0
 21 54  1  0
 24 55  1  0
 25 56  1  0
 26 57  1  0
 27 58  1  0
 28 59  1  0
M  END
>  <_SMILES>  (57) 
CCCn1nc(C(=O)N[C@]23C[C@H]4C[C@H](C[C@H](C4)C2)C3)c(C)c1-c1ccccc1

$$$$

     RDKit          3D

 52 55  0  0  0  0  0  0  0  0999 V2000
   -1.3842   -2.8194    1.5099 C   0  0  0  0  0  0  0  0  0  0  0  0
   -1.2589   -1.4476    0.9530 C   0  0  0  0  0  0  0  0  0  0  0  0
   -0.0731   -0.6555    0.8963 C   0  0  0  0  0  0  0  0  0  0  0  0
    1.2807   -1.0160    1.3610 C   0  0  0  0  0  0  0  0  0  0  0  0
    1.5659   -2.1127    1.8324 O   0  0  0  0  0  0  0  0  0  0  0  0
    2.1933    0.0047    1.1914 N   0  0  0  0  0  0  0  0  0  0  0  0
    3.6226   -0.1749    1.3680 C   0  0  0  0  0  0  0  0  0  0  0  0
    4.2201   -0.8911    0.1429 C   0  0  0  0  0  0  0  0  0  0  0  0
    5.6812   -0.5212   -0.0756 C   0  0  0  0  0  0  0  0  0  0  0  0
    5.8530    0.9779   -0.3267 C   0  0  0  0  0  0  0  0  0  0  0  0
    4.8118    1.8407    0.3898 C   0  0  0  0  0  0  0  0  0  0  0  0
    4.3015    1.1730    1.6620 C   0  0  0  0  0  0  0  0  0  0  0  0
   -0.3133    0.5432    0.3266 N   0  0  0  0  0  0  0  0  0  0  0  0
   -1.6271    0.5092    0.0184 N   0  0  0  0  0  0  0  0  0  0  0  0
   -2.2250    1.6691   -0.6376 C   0  0  0  0  0  0  0  0  0  0  0  0
   -2.1981    1.5478   -2.1337 C   0  0  0  0  0  0  0  0  0  0  0  0
   -2.2189    2.7865   -2.9943 C   0  0  0  0  0  0  0  0  0  0  0  0
   -0.9742    1.9459   -2.9199 C   0  0  0  0  0  0  0  0  0  0  0  0
   -2.2489   -0.6613    0.3832 C   0  0  0  0  0  0  0  0  0  0  0  0
   -3.6603   -0.9465    0.1609 C   0  0  0  0  0  0  0  0  0  0  0  0
   -4.6237   -0.4953    1.0698 C   0  0  0  0  0  0  0  0  0  0  0  0
   -5.9755   -0.7680    0.8532 C   0  0  0  0  0  0  0  0  0  0  0  0
   -6.3692   -1.4965   -0.2688 C   0  0  0  0  0  0  0  0  0  0  0  0
   -5.4127   -1.9571   -1.1728 C   0  0  0  0  0  0  0  0  0  0  0  0
   -4.0605   -1.6856   -0.9574 C   0  0  0  0  0  0  0  0  0  0  0  0
   -1.0603   -2.8391    2.5555 H   0  0  0  0  0  0  0  0  0  0  0  0
   -0.7659   -3.5201    0.9397 H   0  0  0  0  0  0  0  0  0  0  0  0
   -2.4164   -3.1809    1.4765 H   0  0  0  0  0  0  0  0  0  0  0  0
    1.8310    0.7969    0.6649 H   0  0  0  0  0  0  0  0  0  0  0  0
    3.7577   -0.8164    2.2483 H   0  0  0  0  0  0  0  0  0  0  0  0
    4.1229   -1.9761    0.2694 H   0  0  0  0  0  0  0  0  0  0  0  0
    3.6533   -0.6388   -0.7635 H   0  0  0  0  0  0  0  0  0  0  0  0
    6.0943   -1.0848   -0.9197 H   0  0  0  0  0  0  0  0  0  0  0  0
    6.2627   -0.8126    0.8082 H   0  0  0  0  0  0  0  0  0  0  0  0
    6.8610    1.2731   -0.0108 H   0  0  0  0  0  0  0  0  0  0  0  0
    5.7985    1.1834   -1.4027 H   0  0  0  0  0  0  0  0  0  0  0  0
    3.9667    2.0274   -0.2848 H   0  0  0  0  0  0  0  0  0  0  0  0
    5.2455    2.8198    0.6229 H   0  0  0  0  0  0  0  0  0  0  0  0
    3.6187    1.8474    2.1925 H   0  0  0  0  0  0  0  0  0  0  0  0
    5.1554    1.0049    2.3314 H   0  0  0  0  0  0  0  0  0  0  0  0
   -3.2549    1.7690   -0.2814 H   0  0  0  0  0  0  0  0  0  0  0  0
   -1.6764    2.5535   -0.2911 H   0  0  0  0  0  0  0  0  0  0  0  0
   -2.7669    0.6937   -2.4844 H   0  0  0  0  0  0  0  0  0  0  0  0
   -2.7956    2.7572   -3.9124 H   0  0  0  0  0  0  0  0  0  0  0  0
   -2.1998    3.7593   -2.5160 H   0  0  0  0  0  0  0  0  0  0  0  0
   -0.7105    1.3443   -3.7826 H   0  0  0  0  0  0  0  0  0  0  0  0
   -0.1195    2.3405   -2.3812 H   0  0  0  0  0  0  0  0  0  0  0  0
   -4.3258    0.0644    1.9534 H   0  0  0  0  0  0  0  0  0  0  0  0
   -6.7206   -0.4171    1.5626 H   0  0  0  0  0  0  0  0  0  0  0  0
   -7.4218   -1.7115   -0.4351 H   0  0  0  0  0  0  0  0  0  0  0  0
   -5.7189   -2.5318   -2.0431 H   0  0  0  0  0  0  0  0  0  0  0  0
   -3.3209   -2.0548   -1.6643 H   0  0  0  0  0  0  0  0  0  0  0  0
  1  2  1  0
  2  3  1  0
  3  4  1  0
  4  5  2  0
  4  6  1  0
  6  7  1  0
  7  8  1  0
  8  9  1  0
  9 10  1  0
 10 11  1  0
 11 12  1  0
  3 13  2  0
 13 14  1  0
 14 15  1  0
 15 16  1  0
 16 17  1  0
 17 18  1  0
 14 19  1  0
 19 20  1  0
 20 21  2  0
 21 22  1  0
 22 23  2  0
 23 24  1  0
 24 25  2  0
 19  2  2  0
 25 20  1  0
 12  7  1  0
 18 16  1  0
  1 26  1  0
  1 27  1  0
  1 28  1  0
  6 29  1  0
  7 30  1  0
  8 31  1  0
  8 32  1  0
  9 33  1  0
  9 34  1  0
 10 35  1  0
 10 36  1  0
 11 37  1  0
 11 38  1  0
 12 39  1  0
 12 40  1  0
 15 41  1  0
 15 42  1  0
 16 43  1  0
 17 44  1  0
 17 45  1  0
 18 46  1  0
 18 47  1  0
 21 48  1  0
 22 49  1  0
 23 50  1  0
 24 51  1  0
 25 52  1  0
M  END
>  <_SMILES>  (58) 
Cc1c(C(=O)NC2CCCCC2)nn(CC2CC2)c1-c1ccccc1

$$$$

     RDKit          3D

 56 60  0  0  0  0  0  0  0  0999 V2000
   -3.6362   -0.7797    2.8470 C   0  0  0  0  0  0  0  0  0  0  0  0
   -3.3979   -1.5409    1.5550 C   0  0  0  0  0  0  0  0  0  0  0  0
   -2.6940   -0.7405    0.5674 N   0  0  0  0  0  0  0  0  0  0  0  0
   -1.3482   -0.6900    0.6214 N   0  0  0  0  0  0  0  0  0  0  0  0
   -1.0035    0.1106   -0.4086 C   0  0  0  0  0  0  0  0  0  0  0  0
    0.4138    0.4197   -0.6887 C   0  0  0  0  0  0  0  0  0  0  0  0
    0.7717    1.1405   -1.6139 O   0  0  0  0  0  0  0  0  0  0  0  0
    1.2718   -0.1898    0.2011 N   0  0  0  0  0  0  0  0  0  0  0  0
    2.7270   -0.0912    0.2056 C   0  0  2  0  0  0  0  0  0  0  0  0
    3.1990    1.3698    0.4092 C   0  0  0  0  0  0  0  0  0  0  0  0
    4.7356    1.4402    0.4583 C   0  0  1  0  0  0  0  0  0  0  0  0
    5.2462    0.5858    1.6293 C   0  0  0  0  0  0  0  0  0  0  0  0
    4.8093   -0.8756    1.4422 C   0  0  2  0  0  0  0  0  0  0  0  0
    5.3865   -1.4148    0.1240 C   0  0  0  0  0  0  0  0  0  0  0  0
    4.8767   -0.5720   -1.0557 C   0  0  2  0  0  0  0  0  0  0  0  0
    5.3098    0.8908   -0.8587 C   0  0  0  0  0  0  0  0  0  0  0  0
    3.3402   -0.6429   -1.1052 C   0  0  0  0  0  0  0  0  0  0  0  0
    3.2747   -0.9394    1.3840 C   0  0  0  0  0  0  0  0  0  0  0  0
   -2.1564    0.5654   -1.1167 C   0  0  0  0  0  0  0  0  0  0  0  0
   -2.1749    1.4601   -2.3028 C   0  0  0  0  0  0  0  0  0  0  0  0
   -3.2350   -0.0047   -0.4580 C   0  0  0  0  0  0  0  0  0  0  0  0
   -4.6626    0.1037   -0.7273 C   0  0  0  0  0  0  0  0  0  0  0  0
   -5.2783   -0.7775   -1.6226 C   0  0  0  0  0  0  0  0  0  0  0  0
   -6.6469   -0.6761   -1.8781 C   0  0  0  0  0  0  0  0  0  0  0  0
   -7.4039    0.3084   -1.2436 C   0  0  0  0  0  0  0  0  0  0  0  0
   -6.7937    1.1947   -0.3567 C   0  0  0  0  0  0  0  0  0  0  0  0
   -5.4252    1.0947   -0.1003 C   0  0  0  0  0  0  0  0  0  0  0  0
   -2.6906   -0.4610    3.2981 H   0  0  0  0  0  0  0  0  0  0  0  0
   -4.2412    0.1162    2.6748 H   0  0  0  0  0  0  0  0  0  0  0  0
   -4.1617   -1.4126    3.5687 H   0  0  0  0  0  0  0  0  0  0  0  0
   -2.7918   -2.4346    1.7433 H   0  0  0  0  0  0  0  0  0  0  0  0
   -4.3453   -1.8769    1.1230 H   0  0  0  0  0  0  0  0  0  0  0  0
    0.7952   -0.7516    0.9039 H   0  0  0  0  0  0  0  0  0  0  0  0
    2.8373    2.0141   -0.4009 H   0  0  0  0  0  0  0  0  0  0  0  0
    2.7766    1.7771    1.3371 H   0  0  0  0  0  0  0  0  0  0  0  0
    5.0528    2.4801    0.5944 H   0  0  0  0  0  0  0  0  0  0  0  0
    4.8548    0.9761    2.5768 H   0  0  0  0  0  0  0  0  0  0  0  0
    6.3399    0.6455    1.6879 H   0  0  0  0  0  0  0  0  0  0  0  0
    5.1734   -1.4805    2.2801 H   0  0  0  0  0  0  0  0  0  0  0  0
    6.4826   -1.3895    0.1567 H   0  0  0  0  0  0  0  0  0  0  0  0
    5.0961   -2.4638   -0.0115 H   0  0  0  0  0  0  0  0  0  0  0  0
    5.2940   -0.9580   -1.9925 H   0  0  0  0  0  0  0  0  0  0  0  0
    6.4046    0.9579   -0.8459 H   0  0  0  0  0  0  0  0  0  0  0  0
    4.9634    1.5010   -1.7020 H   0  0  0  0  0  0  0  0  0  0  0  0
    3.0192   -1.6807   -1.2646 H   0  0  0  0  0  0  0  0  0  0  0  0
    2.9839   -0.0752   -1.9730 H   0  0  0  0  0  0  0  0  0  0  0  0
    2.9516   -1.9839    1.2794 H   0  0  0  0  0  0  0  0  0  0  0  0
    2.8533   -0.5829    2.3336 H   0  0  0  0  0  0  0  0  0  0  0  0
   -1.6242    1.0055   -3.1325 H   0  0  0  0  0  0  0  0  0  0  0  0
   -1.7123    2.4227   -2.0624 H   0  0  0  0  0  0  0  0  0  0  0  0
   -3.1939    1.6583   -2.6487 H   0  0  0  0  0  0  0  0  0  0  0  0
   -4.6945   -1.5438   -2.1275 H   0  0  0  0  0  0  0  0  0  0  0  0
   -7.1212   -1.3619   -2.5754 H   0  0  0  0  0  0  0  0  0  0  0  0
   -8.4690    0.3891   -1.4457 H   0  0  0  0  0  0  0  0  0  0  0  0
   -7.3823    1.9673    0.1312 H   0  0  0  0  0  0  0  0  0  0  0  0
   -4.9564    1.7965    0.5857 H   0  0  0  0  0  0  0  0  0  0  0  0
  1  2  1  0
  2  3  1  0
  3  4  1  0
  4  5  2  0
  5  6  1  0
  6  7  2  0
  6  8  1  0
  9  8  1  6
  9 10  1  0
 10 11  1  0
 11 12  1  0
 12 13  1  0
 13 14  1  0
 14 15  1  0
 15 16  1  0
 15 17  1  0
 13 18  1  0
  5 19  1  0
 19 20  1  0
 19 21  2  0
 21 22  1  0
 22 23  2  0
 23 24  1  0
 24 25  2  0
 25 26  1  0
 26 27  2  0
 21  3  1  0
 27 22  1  0
 17  9  1  0
 18  9  1  0
 16 11  1  0
  1 28  1  0
  1 29  1  0
  1 30  1  0
  2 31  1  0
  2 32  1  0
  8 33  1  0
 10 34  1  0
 10 35  1  0
 11 36  1  1
 12 37  1  0
 12 38  1  0
 13 39  1  1
 14 40  1  0
 14 41  1  0
 15 42  1  6
 16 43  1  0
 16 44  1  0
 17 45  1  0
 17 46  1  0
 18 47  1  0
 18 48  1  0
 20 49  1  0
 20 50  1  0
 20 51  1  0
 23 52  1  0
 24 53  1  0
 25 54  1  0
 26 55  1  0
 27 56  1  0
M  END
>  <_SMILES>  (59) 
CCn1nc(C(=O)N[C@]23C[C@H]4C[C@H](C[C@H](C4)C2)C3)c(C)c1-c1ccccc1

$$$$

     RDKit          3D

 49 52  0  0  0  0  0  0  0  0999 V2000
   -0.5447   -3.1976    0.3853 C   0  0  0  0  0  0  0  0  0  0  0  0
   -0.6361   -1.7740   -0.0302 C   0  0  0  0  0  0  0  0  0  0  0  0
    0.4538   -0.8901   -0.2903 C   0  0  0  0  0  0  0  0  0  0  0  0
    1.8980   -1.1809   -0.1978 C   0  0  0  0  0  0  0  0  0  0  0  0
    2.3498   -2.2586    0.1772 O   0  0  0  0  0  0  0  0  0  0  0  0
    2.6847   -0.1071   -0.5602 N   0  0  0  0  0  0  0  0  0  0  0  0
    4.1091   -0.0862   -0.3529 C   0  0  0  0  0  0  0  0  0  0  0  0
    4.4940    0.2397    1.0892 C   0  0  0  0  0  0  0  0  0  0  0  0
    5.8992    0.8355    1.0058 C   0  0  0  0  0  0  0  0  0  0  0  0
    6.1595    1.1225   -0.4722 C   0  0  0  0  0  0  0  0  0  0  0  0
    4.8015    1.0126   -1.1482 C   0  0  0  0  0  0  0  0  0  0  0  0
    0.0150    0.3343   -0.6474 N   0  0  0  0  0  0  0  0  0  0  0  0
   -1.3304    0.2321   -0.6058 N   0  0  0  0  0  0  0  0  0  0  0  0
   -2.1347    1.4071   -0.9315 C   0  0  0  0  0  0  0  0  0  0  0  0
   -2.4839    2.2086    0.2889 C   0  0  0  0  0  0  0  0  0  0  0  0
   -1.5233    3.2298    0.8444 C   0  0  0  0  0  0  0  0  0  0  0  0
   -2.7874    3.6812    0.1662 C   0  0  0  0  0  0  0  0  0  0  0  0
   -1.7777   -1.0185   -0.2511 C   0  0  0  0  0  0  0  0  0  0  0  0
   -3.1826   -1.3866   -0.1338 C   0  0  0  0  0  0  0  0  0  0  0  0
   -3.9106   -1.7653   -1.2670 C   0  0  0  0  0  0  0  0  0  0  0  0
   -5.2570   -2.1155   -1.1518 C   0  0  0  0  0  0  0  0  0  0  0  0
   -5.8794   -2.0938    0.0959 C   0  0  0  0  0  0  0  0  0  0  0  0
   -5.1562   -1.7267    1.2302 C   0  0  0  0  0  0  0  0  0  0  0  0
   -3.8097   -1.3767    1.1168 C   0  0  0  0  0  0  0  0  0  0  0  0
   -0.0531   -3.2792    1.3601 H   0  0  0  0  0  0  0  0  0  0  0  0
    0.0318   -3.7735   -0.3457 H   0  0  0  0  0  0  0  0  0  0  0  0
   -1.5316   -3.6628    0.4688 H   0  0  0  0  0  0  0  0  0  0  0  0
    2.1636    0.7531   -0.7159 H   0  0  0  0  0  0  0  0  0  0  0  0
    4.5212   -1.0658   -0.6280 H   0  0  0  0  0  0  0  0  0  0  0  0
    4.4611   -0.6450    1.7334 H   0  0  0  0  0  0  0  0  0  0  0  0
    3.8069    0.9789    1.5203 H   0  0  0  0  0  0  0  0  0  0  0  0
    5.9595    1.7525    1.6020 H   0  0  0  0  0  0  0  0  0  0  0  0
    6.6489    0.1403    1.3987 H   0  0  0  0  0  0  0  0  0  0  0  0
    6.8412    0.3660   -0.8791 H   0  0  0  0  0  0  0  0  0  0  0  0
    6.6204    2.1024   -0.6283 H   0  0  0  0  0  0  0  0  0  0  0  0
    4.2593    1.9629   -1.0637 H   0  0  0  0  0  0  0  0  0  0  0  0
    4.8848    0.7695   -2.2120 H   0  0  0  0  0  0  0  0  0  0  0  0
   -1.5623    1.9985   -1.6566 H   0  0  0  0  0  0  0  0  0  0  0  0
   -3.0434    1.0681   -1.4383 H   0  0  0  0  0  0  0  0  0  0  0  0
   -3.0788    1.6395    0.9947 H   0  0  0  0  0  0  0  0  0  0  0  0
   -1.4577    3.3275    1.9223 H   0  0  0  0  0  0  0  0  0  0  0  0
   -0.5809    3.3863    0.3306 H   0  0  0  0  0  0  0  0  0  0  0  0
   -2.6970    4.1575   -0.8035 H   0  0  0  0  0  0  0  0  0  0  0  0
   -3.5768    4.0902    0.7872 H   0  0  0  0  0  0  0  0  0  0  0  0
   -3.4316   -1.7959   -2.2429 H   0  0  0  0  0  0  0  0  0  0  0  0
   -5.8186   -2.4108   -2.0344 H   0  0  0  0  0  0  0  0  0  0  0  0
   -6.9270   -2.3699    0.1854 H   0  0  0  0  0  0  0  0  0  0  0  0
   -5.6392   -1.7175    2.2039 H   0  0  0  0  0  0  0  0  0  0  0  0
   -3.2518   -1.0983    2.0080 H   0  0  0  0  0  0  0  0  0  0  0  0
  1  2  1  0
  2  3  1  0
  3  4  1  0
  4  5  2  0
  4  6  1  0
  6  7  1  0
  7  8  1  0
  8  9  1  0
  9 10  1  0
 10 11  1  0
  3 12  2  0
 12 13  1  0
 13 14  1  0
 14 15  1  0
 15 16  1  0
 16 17  1  0
 13 18  1  0
 18 19  1  0
 19 20  2  0
 20 21  1  0
 21 22  2  0
 22 23  1  0
 23 24  2  0
 18  2  2  0
 24 19  1  0
 11  7  1  0
 17 15  1  0
  1 25  1  0
  1 26  1  0
  1 27  1  0
  6 28  1  0
  7 29  1  0
  8 30  1  0
  8 31  1  0
  9 32  1  0
  9 33  1  0
 10 34  1  0
 10 35  1  0
 11 36  1  0
 11 37  1  0
 14 38  1  0
 14 39  1  0
 15 40  1  0
 16 41  1  0
 16 42  1  0
 17 43  1  0
 17 44  1  0
 20 45  1  0
 21 46  1  0
 22 47  1  0
 23 48  1  0
 24 49  1  0
M  END
>  <_SMILES>  (60) 
Cc1c(C(=O)NC2CCCC2)nn(CC2CC2)c1-c1ccccc1

$$$$

     RDKit          3D

 62 66  0  0  0  0  0  0  0  0999 V2000
   -5.7500   -1.3434    3.5249 C   0  0  0  0  0  0  0  0  0  0  0  0
   -5.8753   -1.4818    2.0156 C   0  0  0  0  0  0  0  0  0  0  0  0
   -4.5301   -1.4569    1.2884 C   0  0  0  0  0  0  0  0  0  0  0  0
   -3.8024   -0.1196    1.4180 C   0  0  0  0  0  0  0  0  0  0  0  0
   -2.5955   -0.0769    0.6061 N   0  0  0  0  0  0  0  0  0  0  0  0
   -1.4652   -0.5968    1.1121 N   0  0  0  0  0  0  0  0  0  0  0  0
   -0.5449   -0.4270    0.1483 C   0  0  0  0  0  0  0  0  0  0  0  0
    0.8497   -0.8752    0.3425 C   0  0  0  0  0  0  0  0  0  0  0  0
    1.1400   -1.9389    0.8804 O   0  0  0  0  0  0  0  0  0  0  0  0
    1.7917    0.0327   -0.1144 N   0  0  0  0  0  0  0  0  0  0  0  0
    3.2392   -0.1133    0.0549 C   0  0  2  0  0  0  0  0  0  0  0  0
    3.9305    1.1004   -0.6249 C   0  0  0  0  0  0  0  0  0  0  0  0
    5.4583    1.0187   -0.4807 C   0  0  1  0  0  0  0  0  0  0  0  0
    5.8234    0.9999    1.0120 C   0  0  0  0  0  0  0  0  0  0  0  0
    5.1716   -0.2119    1.6968 C   0  0  2  0  0  0  0  0  0  0  0  0
    5.6677   -1.5025    1.0229 C   0  0  0  0  0  0  0  0  0  0  0  0
    5.3062   -1.4923   -0.4724 C   0  0  2  0  0  0  0  0  0  0  0  0
    5.9581   -0.2738   -1.1437 C   0  0  0  0  0  0  0  0  0  0  0  0
    3.7772   -1.3995   -0.6224 C   0  0  0  0  0  0  0  0  0  0  0  0
    3.6425   -0.1180    1.5497 C   0  0  0  0  0  0  0  0  0  0  0  0
   -1.1194    0.2222   -0.9938 C   0  0  0  0  0  0  0  0  0  0  0  0
   -0.4545    0.5550   -2.2806 C   0  0  0  0  0  0  0  0  0  0  0  0
   -2.4446    0.4500   -0.6523 C   0  0  0  0  0  0  0  0  0  0  0  0
   -3.5165    1.0737   -1.4163 C   0  0  0  0  0  0  0  0  0  0  0  0
   -3.7086    2.4582   -1.3568 C   0  0  0  0  0  0  0  0  0  0  0  0
   -4.7379    3.0558   -2.0861 C   0  0  0  0  0  0  0  0  0  0  0  0
   -5.5758    2.2734   -2.8801 C   0  0  0  0  0  0  0  0  0  0  0  0
   -5.3845    0.8939   -2.9485 C   0  0  0  0  0  0  0  0  0  0  0  0
   -4.3557    0.2947   -2.2200 C   0  0  0  0  0  0  0  0  0  0  0  0
   -5.0837   -2.1085    3.9357 H   0  0  0  0  0  0  0  0  0  0  0  0
   -5.3634   -0.3596    3.8067 H   0  0  0  0  0  0  0  0  0  0  0  0
   -6.7314   -1.4607    3.9954 H   0  0  0  0  0  0  0  0  0  0  0  0
   -6.3738   -2.4326    1.7925 H   0  0  0  0  0  0  0  0  0  0  0  0
   -6.5228   -0.6863    1.6288 H   0  0  0  0  0  0  0  0  0  0  0  0
   -3.8921   -2.2666    1.6643 H   0  0  0  0  0  0  0  0  0  0  0  0
   -4.7085   -1.6761    0.2284 H   0  0  0  0  0  0  0  0  0  0  0  0
   -4.4481    0.7115    1.1170 H   0  0  0  0  0  0  0  0  0  0  0  0
   -3.4941    0.0670    2.4530 H   0  0  0  0  0  0  0  0  0  0  0  0
    1.4400    0.9643   -0.2906 H   0  0  0  0  0  0  0  0  0  0  0  0
    3.6593    1.1417   -1.6884 H   0  0  0  0  0  0  0  0  0  0  0  0
    3.5691    2.0379   -0.1810 H   0  0  0  0  0  0  0  0  0  0  0  0
    5.9227    1.8856   -0.9640 H   0  0  0  0  0  0  0  0  0  0  0  0
    6.9131    0.9562    1.1307 H   0  0  0  0  0  0  0  0  0  0  0  0
    5.4878    1.9273    1.4921 H   0  0  0  0  0  0  0  0  0  0  0  0
    5.4395   -0.2233    2.7593 H   0  0  0  0  0  0  0  0  0  0  0  0
    5.2192   -2.3765    1.5110 H   0  0  0  0  0  0  0  0  0  0  0  0
    6.7542   -1.5933    1.1438 H   0  0  0  0  0  0  0  0  0  0  0  0
    5.6679   -2.4118   -0.9462 H   0  0  0  0  0  0  0  0  0  0  0  0
    7.0500   -0.3396   -1.0615 H   0  0  0  0  0  0  0  0  0  0  0  0
    5.7195   -0.2631   -2.2143 H   0  0  0  0  0  0  0  0  0  0  0  0
    3.3258   -2.2963   -0.1836 H   0  0  0  0  0  0  0  0  0  0  0  0
    3.5043   -1.4079   -1.6859 H   0  0  0  0  0  0  0  0  0  0  0  0
    3.1792   -0.9604    2.0769 H   0  0  0  0  0  0  0  0  0  0  0  0
    3.2752    0.7917    2.0426 H   0  0  0  0  0  0  0  0  0  0  0  0
   -1.1757    0.6096   -3.1022 H   0  0  0  0  0  0  0  0  0  0  0  0
    0.2855   -0.2055   -2.5492 H   0  0  0  0  0  0  0  0  0  0  0  0
    0.0511    1.5230   -2.2072 H   0  0  0  0  0  0  0  0  0  0  0  0
   -3.0591    3.0769   -0.7421 H   0  0  0  0  0  0  0  0  0  0  0  0
   -4.8852    4.1316   -2.0363 H   0  0  0  0  0  0  0  0  0  0  0  0
   -6.3765    2.7395   -3.4490 H   0  0  0  0  0  0  0  0  0  0  0  0
   -6.0344    0.2846   -3.5715 H   0  0  0  0  0  0  0  0  0  0  0  0
   -4.2102   -0.7813   -2.2848 H   0  0  0  0  0  0  0  0  0  0  0  0
  1  2  1  0
  2  3  1  0
  3  4  1  0
  4  5  1  0
  5  6  1  0
  6  7  2  0
  7  8  1  0
  8  9  2  0
  8 10  1  0
 11 10  1  1
 11 12  1  0
 12 13  1  0
 13 14  1  0
 14 15  1  0
 15 16  1  0
 16 17  1  0
 17 18  1  0
 17 19  1  0
 15 20  1  0
  7 21  1  0
 21 22  1  0
 21 23  2  0
 23 24  1  0
 24 25  2  0
 25 26  1  0
 26 27  2  0
 27 28  1  0
 28 29  2  0
 23  5  1  0
 29 24  1  0
 19 11  1  0
 20 11  1  0
 18 13  1  0
  1 30  1  0
  1 31  1  0
  1 32  1  0
  2 33  1  0
  2 34  1  0
  3 35  1  0
  3 36  1  0
  4 37  1  0
  4 38  1  0
 10 39  1  0
 12 40  1  0
 12 41  1  0
 13 42  1  6
 14 43  1  0
 14 44  1  0
 15 45  1  1
 16 46  1  0
 16 47  1  0
 17 48  1  6
 18 49  1  0
 18 50  1  0
 19 51  1  0
 19 52  1  0
 20 53  1  0
 20 54  1  0
 22 55  1  0
 22 56  1  0
 22 57  1  0
 25 58  1  0
 26 59  1  0
 27 60  1  0
 28 61  1  0
 29 62  1  0
M  END
>  <_SMILES>  (61) 
CCCCn1nc(C(=O)N[C@]23C[C@H]4C[C@H](C[C@H](C4)C2)C3)c(C)c1-c1ccccc1

$$$$

     RDKit          3D

 53 57  0  0  0  0  0  0  0  0999 V2000
    1.7701    1.3557    0.7108 C   0  0  0  0  0  0  0  0  0  0  0  0
    2.0941    0.3330   -0.3182 C   0  0  0  0  0  0  0  0  0  0  0  0
    1.1929   -0.3005   -1.2368 C   0  0  0  0  0  0  0  0  0  0  0  0
   -0.2713   -0.1334   -1.3475 C   0  0  0  0  0  0  0  0  0  0  0  0
   -0.8550   -0.0634   -2.4241 O   0  0  0  0  0  0  0  0  0  0  0  0
   -0.9181   -0.0928   -0.1225 N   0  0  0  0  0  0  0  0  0  0  0  0
   -2.3720   -0.0442    0.0495 C   0  0  2  0  0  0  0  0  0  0  0  0
   -2.9938    1.2141   -0.6082 C   0  0  0  0  0  0  0  0  0  0  0  0
   -4.5123    1.2607   -0.3610 C   0  0  1  0  0  0  0  0  0  0  0  0
   -5.1592   -0.0056   -0.9479 C   0  0  0  0  0  0  0  0  0  0  0  0
   -4.5762   -1.2595   -0.2740 C   0  0  2  0  0  0  0  0  0  0  0  0
   -4.8425   -1.1918    1.2382 C   0  0  0  0  0  0  0  0  0  0  0  0
   -4.1910    0.0678    1.8303 C   0  0  2  0  0  0  0  0  0  0  0  0
   -4.7801    1.3133    1.1509 C   0  0  0  0  0  0  0  0  0  0  0  0
   -2.6769    0.0214    1.5713 C   0  0  0  0  0  0  0  0  0  0  0  0
   -3.0580   -1.3092   -0.5217 C   0  0  0  0  0  0  0  0  0  0  0  0
    1.8565   -1.1354   -2.0536 N   0  0  0  0  0  0  0  0  0  0  0  0
    3.1381   -1.0490   -1.6684 N   0  0  0  0  0  0  0  0  0  0  0  0
    4.1262   -1.8505   -2.3545 C   0  0  0  0  0  0  0  0  0  0  0  0
    3.3461   -0.1822   -0.6246 C   0  0  0  0  0  0  0  0  0  0  0  0
    4.6494    0.0938   -0.0324 C   0  0  0  0  0  0  0  0  0  0  0  0
    5.6031    0.8426   -0.7356 C   0  0  0  0  0  0  0  0  0  0  0  0
    6.8484    1.1075   -0.1628 C   0  0  0  0  0  0  0  0  0  0  0  0
    7.1335    0.6263    1.1098 C   0  0  0  0  0  0  0  0  0  0  0  0
    8.3283    0.8808    1.6585 F   0  0  0  0  0  0  0  0  0  0  0  0
    6.1968   -0.1131    1.8227 C   0  0  0  0  0  0  0  0  0  0  0  0
    4.9507   -0.3785    1.2520 C   0  0  0  0  0  0  0  0  0  0  0  0
    2.6338    1.9923    0.9276 H   0  0  0  0  0  0  0  0  0  0  0  0
    0.9613    2.0116    0.3734 H   0  0  0  0  0  0  0  0  0  0  0  0
    1.4609    0.8717    1.6425 H   0  0  0  0  0  0  0  0  0  0  0  0
   -0.3724   -0.4208    0.6630 H   0  0  0  0  0  0  0  0  0  0  0  0
   -2.5215    2.1210   -0.2083 H   0  0  0  0  0  0  0  0  0  0  0  0
   -2.8130    1.2260   -1.6889 H   0  0  0  0  0  0  0  0  0  0  0  0
   -4.9368    2.1492   -0.8418 H   0  0  0  0  0  0  0  0  0  0  0  0
   -4.9867   -0.0474   -2.0304 H   0  0  0  0  0  0  0  0  0  0  0  0
   -6.2456    0.0271   -0.7999 H   0  0  0  0  0  0  0  0  0  0  0  0
   -5.0472   -2.1563   -0.6918 H   0  0  0  0  0  0  0  0  0  0  0  0
   -5.9228   -1.1797    1.4283 H   0  0  0  0  0  0  0  0  0  0  0  0
   -4.4429   -2.0874    1.7297 H   0  0  0  0  0  0  0  0  0  0  0  0
   -4.3810    0.1102    2.9086 H   0  0  0  0  0  0  0  0  0  0  0  0
   -5.8594    1.3682    1.3390 H   0  0  0  0  0  0  0  0  0  0  0  0
   -4.3357    2.2201    1.5792 H   0  0  0  0  0  0  0  0  0  0  0  0
   -2.2434   -0.8496    2.0810 H   0  0  0  0  0  0  0  0  0  0  0  0
   -2.1970    0.9045    2.0142 H   0  0  0  0  0  0  0  0  0  0  0  0
   -2.8733   -1.4016   -1.5985 H   0  0  0  0  0  0  0  0  0  0  0  0
   -2.6337   -2.2101   -0.0593 H   0  0  0  0  0  0  0  0  0  0  0  0
    3.6246   -2.6531   -2.9022 H   0  0  0  0  0  0  0  0  0  0  0  0
    4.6667   -1.2036   -3.0495 H   0  0  0  0  0  0  0  0  0  0  0  0
    4.8067   -2.2867   -1.6192 H   0  0  0  0  0  0  0  0  0  0  0  0
    5.3772    1.2320   -1.7261 H   0  0  0  0  0  0  0  0  0  0  0  0
    7.5931    1.6884   -0.6975 H   0  0  0  0  0  0  0  0  0  0  0  0
    6.4416   -0.4764    2.8157 H   0  0  0  0  0  0  0  0  0  0  0  0
    4.2190   -0.9575    1.8109 H   0  0  0  0  0  0  0  0  0  0  0  0
  1  2  1  0
  2  3  1  0
  3  4  1  0
  4  5  2  0
  4  6  1  0
  7  6  1  1
  7  8  1  0
  8  9  1  0
  9 10  1  0
 10 11  1  0
 11 12  1  0
 12 13  1  0
 13 14  1  0
 13 15  1  0
 11 16  1  0
  3 17  2  0
 17 18  1  0
 18 19  1  0
 18 20  1  0
 20 21  1  0
 21 22  1  0
 22 23  2  0
 23 24  1  0
 24 25  1  0
 24 26  2  0
 26 27  1  0
 20  2  2  0
 27 21  2  0
 15  7  1  0
 16  7  1  0
 14  9  1  0
  1 28  1  0
  1 29  1  0
  1 30  1  0
  6 31  1  0
  8 32  1  0
  8 33  1  0
  9 34  1  6
 10 35  1  0
 10 36  1  0
 11 37  1  6
 12 38  1  0
 12 39  1  0
 13 40  1  1
 14 41  1  0
 14 42  1  0
 15 43  1  0
 15 44  1  0
 16 45  1  0
 16 46  1  0
 19 47  1  0
 19 48  1  0
 19 49  1  0
 22 50  1  0
 23 51  1  0
 26 52  1  0
 27 53  1  0
M  END
>  <_SMILES>  (62) 
Cc1c(C(=O)N[C@]23C[C@H]4C[C@H](C[C@H](C4)C2)C3)nn(C)c1-c1ccc(F)cc1

$$$$

     RDKit          3D

 50 54  0  0  0  0  0  0  0  0999 V2000
    2.7934   -1.4366   -1.7009 C   0  0  0  0  0  0  0  0  0  0  0  0
    2.6630   -0.4316   -0.6140 C   0  0  0  0  0  0  0  0  0  0  0  0
    1.4429    0.0625   -0.0531 C   0  0  0  0  0  0  0  0  0  0  0  0
    0.0600   -0.3233   -0.4052 C   0  0  0  0  0  0  0  0  0  0  0  0
   -0.2032   -1.1713   -1.2509 O   0  0  0  0  0  0  0  0  0  0  0  0
   -0.8829    0.3696    0.3229 N   0  0  0  0  0  0  0  0  0  0  0  0
   -2.3306    0.2144    0.2322 C   0  0  2  0  0  0  0  0  0  0  0  0
   -2.9951    1.1973    1.2326 C   0  0  0  0  0  0  0  0  0  0  0  0
   -4.5269    1.0804    1.1846 C   0  0  1  0  0  0  0  0  0  0  0  0
   -5.0129    1.4054   -0.2365 C   0  0  0  0  0  0  0  0  0  0  0  0
   -4.3863    0.4265   -1.2420 C   0  0  2  0  0  0  0  0  0  0  0  0
   -4.7906   -1.0104   -0.8706 C   0  0  0  0  0  0  0  0  0  0  0  0
   -4.3073   -1.3458    0.5507 C   0  0  2  0  0  0  0  0  0  0  0  0
   -4.9343   -0.3566    1.5459 C   0  0  0  0  0  0  0  0  0  0  0  0
   -2.7744   -1.2212    0.6070 C   0  0  0  0  0  0  0  0  0  0  0  0
   -2.8534    0.5516   -1.1862 C   0  0  0  0  0  0  0  0  0  0  0  0
    1.6845    0.9847    0.9033 N   0  0  0  0  0  0  0  0  0  0  0  0
    3.0227    1.0585    0.9500 N   0  0  0  0  0  0  0  0  0  0  0  0
    3.6687    0.2360    0.0675 C   0  0  0  0  0  0  0  0  0  0  0  0
    5.1229    0.1639   -0.0065 C   0  0  0  0  0  0  0  0  0  0  0  0
    5.8857    1.3242   -0.1925 C   0  0  0  0  0  0  0  0  0  0  0  0
    7.2796    1.2529   -0.2510 C   0  0  0  0  0  0  0  0  0  0  0  0
    7.9216    0.0225   -0.1226 C   0  0  0  0  0  0  0  0  0  0  0  0
    7.1717   -1.1375    0.0618 C   0  0  0  0  0  0  0  0  0  0  0  0
    5.7780   -1.0672    0.1191 C   0  0  0  0  0  0  0  0  0  0  0  0
    3.8206   -1.5066   -2.0707 H   0  0  0  0  0  0  0  0  0  0  0  0
    2.4935   -2.4260   -1.3414 H   0  0  0  0  0  0  0  0  0  0  0  0
    2.1609   -1.1680   -2.5531 H   0  0  0  0  0  0  0  0  0  0  0  0
   -0.4807    1.0226    0.9925 H   0  0  0  0  0  0  0  0  0  0  0  0
   -2.6954    2.2289    1.0037 H   0  0  0  0  0  0  0  0  0  0  0  0
   -2.6406    0.9952    2.2523 H   0  0  0  0  0  0  0  0  0  0  0  0
   -4.9742    1.7819    1.8977 H   0  0  0  0  0  0  0  0  0  0  0  0
   -4.7435    2.4358   -0.4988 H   0  0  0  0  0  0  0  0  0  0  0  0
   -6.1070    1.3408   -0.2825 H   0  0  0  0  0  0  0  0  0  0  0  0
   -4.7387    0.6599   -2.2529 H   0  0  0  0  0  0  0  0  0  0  0  0
   -5.8805   -1.1192   -0.9300 H   0  0  0  0  0  0  0  0  0  0  0  0
   -4.3605   -1.7185   -1.5895 H   0  0  0  0  0  0  0  0  0  0  0  0
   -4.6038   -2.3682    0.8102 H   0  0  0  0  0  0  0  0  0  0  0  0
   -4.6084   -0.5938    2.5660 H   0  0  0  0  0  0  0  0  0  0  0  0
   -6.0270   -0.4515    1.5306 H   0  0  0  0  0  0  0  0  0  0  0  0
   -2.3303   -1.9577   -0.0732 H   0  0  0  0  0  0  0  0  0  0  0  0
   -2.4157   -1.4769    1.6127 H   0  0  0  0  0  0  0  0  0  0  0  0
   -2.5512    1.5688   -1.4680 H   0  0  0  0  0  0  0  0  0  0  0  0
   -2.4130   -0.1175   -1.9349 H   0  0  0  0  0  0  0  0  0  0  0  0
    3.4478    1.6853    1.6244 H   0  0  0  0  0  0  0  0  0  0  0  0
    5.4032    2.2911   -0.3141 H   0  0  0  0  0  0  0  0  0  0  0  0
    7.8639    2.1567   -0.4034 H   0  0  0  0  0  0  0  0  0  0  0  0
    9.0062   -0.0331   -0.1701 H   0  0  0  0  0  0  0  0  0  0  0  0
    7.6706   -2.0981    0.1610 H   0  0  0  0  0  0  0  0  0  0  0  0
    5.2072   -1.9807    0.2703 H   0  0  0  0  0  0  0  0  0  0  0  0
  1  2  1  0
  2  3  1  0
  3  4  1  0
  4  5  2  0
  4  6  1  0
  7  6  1  6
  7  8  1  0
  8  9  1  0
  9 10  1  0
 10 11  1  0
 11 12  1  0
 12 13  1  0
 13 14  1  0
 13 15  1  0
 11 16  1  0
  3 17  2  0
 17 18  1  0
 18 19  1  0
 19 20  1  0
 20 21  2  0
 21 22  1  0
 22 23  2  0
 23 24  1  0
 24 25  2  0
 19  2  2  0
 25 20  1  0
 15  7  1  0
 16  7  1  0
 14  9  1  0
  1 26  1  0
  1 27  1  0
  1 28  1  0
  6 29  1  0
  8 30  1  0
  8 31  1  0
  9 32  1  1
 10 33  1  0
 10 34  1  0
 11 35  1  6
 12 36  1  0
 12 37  1  0
 13 38  1  1
 14 39  1  0
 14 40  1  0
 15 41  1  0
 15 42  1  0
 16 43  1  0
 16 44  1  0
 18 45  1  0
 21 46  1  0
 22 47  1  0
 23 48  1  0
 24 49  1  0
 25 50  1  0
M  END
>  <_SMILES>  (63) 
Cc1c(C(=O)N[C@]23C[C@H]4C[C@H](C[C@H](C4)C2)C3)n[nH]c1-c1ccccc1

$$$$

     RDKit          3D

 50 54  0  0  0  0  0  0  0  0999 V2000
    2.9378    0.1187   -1.7892 C   0  0  0  0  0  0  0  0  0  0  0  0
    2.6965   -0.0409   -0.3306 C   0  0  0  0  0  0  0  0  0  0  0  0
    3.6469    0.0420    0.7382 C   0  0  0  0  0  0  0  0  0  0  0  0
    5.0911    0.2683    0.6674 C   0  0  0  0  0  0  0  0  0  0  0  0
    5.7081    1.1525    1.5637 C   0  0  0  0  0  0  0  0  0  0  0  0
    7.0852    1.3788    1.5044 C   0  0  0  0  0  0  0  0  0  0  0  0
    7.8594    0.7172    0.5531 C   0  0  0  0  0  0  0  0  0  0  0  0
    7.2598   -0.1749   -0.3344 C   0  0  0  0  0  0  0  0  0  0  0  0
    5.8819   -0.4015   -0.2758 C   0  0  0  0  0  0  0  0  0  0  0  0
    3.0385   -0.1051    1.9257 N   0  0  0  0  0  0  0  0  0  0  0  0
    1.7636   -0.3584    1.6183 N   0  0  0  0  0  0  0  0  0  0  0  0
    1.4764   -0.2847    0.2866 C   0  0  0  0  0  0  0  0  0  0  0  0
    0.1692   -0.4948   -0.2871 C   0  0  0  0  0  0  0  0  0  0  0  0
    0.0045   -0.9480   -1.4128 O   0  0  0  0  0  0  0  0  0  0  0  0
   -0.8720   -0.1124    0.5377 N   0  0  0  0  0  0  0  0  0  0  0  0
   -2.2882   -0.1508    0.1476 C   0  0  2  0  0  0  0  0  0  0  0  0
   -3.1359    0.3139    1.3640 C   0  0  0  0  0  0  0  0  0  0  0  0
   -4.6356    0.3084    1.0280 C   0  0  1  0  0  0  0  0  0  0  0  0
   -4.8902    1.2540   -0.1563 C   0  0  0  0  0  0  0  0  0  0  0  0
   -4.0821    0.7930   -1.3796 C   0  0  2  0  0  0  0  0  0  0  0  0
   -4.5032   -0.6380   -1.7554 C   0  0  0  0  0  0  0  0  0  0  0  0
   -4.2519   -1.5918   -0.5749 C   0  0  2  0  0  0  0  0  0  0  0  0
   -5.0599   -1.1167    0.6424 C   0  0  0  0  0  0  0  0  0  0  0  0
   -2.7526   -1.5819   -0.2268 C   0  0  0  0  0  0  0  0  0  0  0  0
   -2.5825    0.8063   -1.0336 C   0  0  0  0  0  0  0  0  0  0  0  0
    3.7883    0.7793   -1.9829 H   0  0  0  0  0  0  0  0  0  0  0  0
    3.1399   -0.8537   -2.2489 H   0  0  0  0  0  0  0  0  0  0  0  0
    2.0704    0.5623   -2.2884 H   0  0  0  0  0  0  0  0  0  0  0  0
    5.1129    1.6677    2.3147 H   0  0  0  0  0  0  0  0  0  0  0  0
    7.5511    2.0674    2.2041 H   0  0  0  0  0  0  0  0  0  0  0  0
    8.9315    0.8905    0.5091 H   0  0  0  0  0  0  0  0  0  0  0  0
    7.8651   -0.7009   -1.0680 H   0  0  0  0  0  0  0  0  0  0  0  0
    5.4374   -1.1184   -0.9612 H   0  0  0  0  0  0  0  0  0  0  0  0
    1.1279   -0.5875    2.3741 H   0  0  0  0  0  0  0  0  0  0  0  0
   -0.6367    0.5627    1.2522 H   0  0  0  0  0  0  0  0  0  0  0  0
   -2.9461   -0.3384    2.2270 H   0  0  0  0  0  0  0  0  0  0  0  0
   -2.8327    1.3237    1.6719 H   0  0  0  0  0  0  0  0  0  0  0  0
   -5.2112    0.6427    1.8983 H   0  0  0  0  0  0  0  0  0  0  0  0
   -4.6084    2.2790    0.1145 H   0  0  0  0  0  0  0  0  0  0  0  0
   -5.9599    1.2715   -0.3987 H   0  0  0  0  0  0  0  0  0  0  0  0
   -4.2716    1.4672   -2.2224 H   0  0  0  0  0  0  0  0  0  0  0  0
   -3.9420   -0.9749   -2.6356 H   0  0  0  0  0  0  0  0  0  0  0  0
   -5.5653   -0.6549   -2.0296 H   0  0  0  0  0  0  0  0  0  0  0  0
   -4.5600   -2.6072   -0.8483 H   0  0  0  0  0  0  0  0  0  0  0  0
   -6.1323   -1.1397    0.4130 H   0  0  0  0  0  0  0  0  0  0  0  0
   -4.9004   -1.7976    1.4875 H   0  0  0  0  0  0  0  0  0  0  0  0
   -2.1912   -1.9695   -1.0841 H   0  0  0  0  0  0  0  0  0  0  0  0
   -2.5569   -2.2713    0.6049 H   0  0  0  0  0  0  0  0  0  0  0  0
   -2.2670    1.8268   -0.7798 H   0  0  0  0  0  0  0  0  0  0  0  0
   -2.0075    0.5201   -1.9221 H   0  0  0  0  0  0  0  0  0  0  0  0
  1  2  1  0
  2  3  1  0
  3  4  1  0
  4  5  2  0
  5  6  1  0
  6  7  2  0
  7  8  1  0
  8  9  2  0
  3 10  2  0
 10 11  1  0
 11 12  1  0
 12 13  1  0
 13 14  2  0
 13 15  1  0
 16 15  1  1
 16 17  1  0
 17 18  1  0
 18 19  1  0
 19 20  1  0
 20 21  1  0
 21 22  1  0
 22 23  1  0
 22 24  1  0
 20 25  1  0
 12  2  2  0
 24 16  1  0
  9  4  1  0
 25 16  1  0
 23 18  1  0
  1 26  1  0
  1 27  1  0
  1 28  1  0
  5 29  1  0
  6 30  1  0
  7 31  1  0
  8 32  1  0
  9 33  1  0
 11 34  1  0
 15 35  1  0
 17 36  1  0
 17 37  1  0
 18 38  1  1
 19 39  1  0
 19 40  1  0
 20 41  1  6
 21 42  1  0
 21 43  1  0
 22 44  1  6
 23 45  1  0
 23 46  1  0
 24 47  1  0
 24 48  1  0
 25 49  1  0
 25 50  1  0
M  END
>  <_SMILES>  (64) 
Cc1c(-c2ccccc2)n[nH]c1C(=O)N[C@]12C[C@H]3C[C@H](C[C@H](C3)C1)C2

$$$$

     RDKit          3D

 59 63  0  0  0  0  0  0  0  0999 V2000
    1.3094    1.6301    0.8088 C   0  0  0  0  0  0  0  0  0  0  0  0
    1.6113    0.2100    0.4865 C   0  0  0  0  0  0  0  0  0  0  0  0
    0.7106   -0.8996    0.5141 C   0  0  0  0  0  0  0  0  0  0  0  0
   -0.7355   -0.9013    0.8177 C   0  0  0  0  0  0  0  0  0  0  0  0
   -1.2728   -1.7665    1.5015 O   0  0  0  0  0  0  0  0  0  0  0  0
   -1.4249    0.1488    0.2324 N   0  0  0  0  0  0  0  0  0  0  0  0
   -2.8787    0.3199    0.2804 C   0  0  2  0  0  0  0  0  0  0  0  0
   -3.6153   -0.8474   -0.4210 C   0  0  0  0  0  0  0  0  0  0  0  0
   -5.1362   -0.6123   -0.4085 C   0  0  1  0  0  0  0  0  0  0  0  0
   -5.6194   -0.4957    1.0472 C   0  0  0  0  0  0  0  0  0  0  0  0
   -4.9223    0.6855    1.7440 C   0  0  2  0  0  0  0  0  0  0  0  0
   -5.2433    1.9828    0.9861 C   0  0  0  0  0  0  0  0  0  0  0  0
   -4.7537    1.8754   -0.4660 C   0  0  2  0  0  0  0  0  0  0  0  0
   -5.4548    0.6934   -1.1540 C   0  0  0  0  0  0  0  0  0  0  0  0
   -3.2362    1.6326   -0.4692 C   0  0  0  0  0  0  0  0  0  0  0  0
   -3.4010    0.4524    1.7338 C   0  0  0  0  0  0  0  0  0  0  0  0
    1.3504   -2.0358    0.2012 N   0  0  0  0  0  0  0  0  0  0  0  0
    2.6301   -1.6770   -0.0235 N   0  0  0  0  0  0  0  0  0  0  0  0
    3.5642   -2.7484   -0.3679 C   0  0  0  0  0  0  0  0  0  0  0  0
    4.2136   -2.5744   -1.7395 C   0  0  0  0  0  0  0  0  0  0  0  0
    4.5974   -3.0085    0.7265 C   0  0  0  0  0  0  0  0  0  0  0  0
    2.8401   -0.3236    0.1173 C   0  0  0  0  0  0  0  0  0  0  0  0
    4.1082    0.3708   -0.0687 C   0  0  0  0  0  0  0  0  0  0  0  0
    4.4288    0.9292   -1.3114 C   0  0  0  0  0  0  0  0  0  0  0  0
    5.6284    1.6222   -1.4831 C   0  0  0  0  0  0  0  0  0  0  0  0
    6.5065    1.7727   -0.4106 C   0  0  0  0  0  0  0  0  0  0  0  0
    6.1836    1.2373    0.8356 C   0  0  0  0  0  0  0  0  0  0  0  0
    4.9843    0.5440    1.0082 C   0  0  0  0  0  0  0  0  0  0  0  0
    2.1978    2.1586    1.1685 H   0  0  0  0  0  0  0  0  0  0  0  0
    0.9407    2.1503   -0.0808 H   0  0  0  0  0  0  0  0  0  0  0  0
    0.5508    1.7028    1.5945 H   0  0  0  0  0  0  0  0  0  0  0  0
   -0.9280    0.6310   -0.5047 H   0  0  0  0  0  0  0  0  0  0  0  0
   -3.2618   -0.9494   -1.4554 H   0  0  0  0  0  0  0  0  0  0  0  0
   -3.3958   -1.8013    0.0732 H   0  0  0  0  0  0  0  0  0  0  0  0
   -5.6426   -1.4506   -0.8999 H   0  0  0  0  0  0  0  0  0  0  0  0
   -5.4091   -1.4268    1.5876 H   0  0  0  0  0  0  0  0  0  0  0  0
   -6.7069   -0.3535    1.0696 H   0  0  0  0  0  0  0  0  0  0  0  0
   -5.2760    0.7654    2.7780 H   0  0  0  0  0  0  0  0  0  0  0  0
   -6.3238    2.1707    1.0048 H   0  0  0  0  0  0  0  0  0  0  0  0
   -4.7632    2.8354    1.4820 H   0  0  0  0  0  0  0  0  0  0  0  0
   -4.9813    2.8033   -1.0025 H   0  0  0  0  0  0  0  0  0  0  0  0
   -6.5389    0.8598   -1.1721 H   0  0  0  0  0  0  0  0  0  0  0  0
   -5.1267    0.6187   -2.1980 H   0  0  0  0  0  0  0  0  0  0  0  0
   -2.8737    1.5865   -1.5050 H   0  0  0  0  0  0  0  0  0  0  0  0
   -2.7226    2.4845   -0.0037 H   0  0  0  0  0  0  0  0  0  0  0  0
   -2.8919    1.2812    2.2432 H   0  0  0  0  0  0  0  0  0  0  0  0
   -3.1793   -0.4480    2.3175 H   0  0  0  0  0  0  0  0  0  0  0  0
    2.9473   -3.6562   -0.4348 H   0  0  0  0  0  0  0  0  0  0  0  0
    4.6934   -3.5084   -2.0525 H   0  0  0  0  0  0  0  0  0  0  0  0
    3.4711   -2.3067   -2.4989 H   0  0  0  0  0  0  0  0  0  0  0  0
    4.9887   -1.8038   -1.7331 H   0  0  0  0  0  0  0  0  0  0  0  0
    5.1284   -3.9470    0.5332 H   0  0  0  0  0  0  0  0  0  0  0  0
    4.1206   -3.0876    1.7094 H   0  0  0  0  0  0  0  0  0  0  0  0
    5.3489   -2.2167    0.7786 H   0  0  0  0  0  0  0  0  0  0  0  0
    3.7468    0.8247   -2.1520 H   0  0  0  0  0  0  0  0  0  0  0  0
    5.8759    2.0478   -2.4522 H   0  0  0  0  0  0  0  0  0  0  0  0
    7.4398    2.3140   -0.5439 H   0  0  0  0  0  0  0  0  0  0  0  0
    6.8629    1.3635    1.6747 H   0  0  0  0  0  0  0  0  0  0  0  0
    4.7357    0.1410    1.9876 H   0  0  0  0  0  0  0  0  0  0  0  0
  1  2  1  0
  2  3  1  0
  3  4  1  0
  4  5  2  0
  4  6  1  0
  7  6  1  1
  7  8  1  0
  8  9  1  0
  9 10  1  0
 10 11  1  0
 11 12  1  0
 12 13  1  0
 13 14  1  0
 13 15  1  0
 11 16  1  0
  3 17  2  0
 17 18  1  0
 18 19  1  0
 19 20  1  0
 19 21  1  0
 18 22  1  0
 22 23  1  0
 23 24  2  0
 24 25  1  0
 25 26  2  0
 26 27  1  0
 27 28  2  0
 22  2  2  0
 28 23  1  0
 15  7  1  0
 16  7  1  0
 14  9  1  0
  1 29  1  0
  1 30  1  0
  1 31  1  0
  6 32  1  0
  8 33  1  0
  8 34  1  0
  9 35  1  6
 10 36  1  0
 10 37  1  0
 11 38  1  1
 12 39  1  0
 12 40  1  0
 13 41  1  6
 14 42  1  0
 14 43  1  0
 15 44  1  0
 15 45  1  0
 16 46  1  0
 16 47  1  0
 19 48  1  0
 20 49  1  0
 20 50  1  0
 20 51  1  0
 21 52  1  0
 21 53  1  0
 21 54  1  0
 24 55  1  0
 25 56  1  0
 26 57  1  0
 27 58  1  0
 28 59  1  0
M  END
>  <_SMILES>  (65) 
Cc1c(C(=O)N[C@]23C[C@H]4C[C@H](C[C@H](C4)C2)C3)nn(C(C)C)c1-c1ccccc1

$$$$

     RDKit          3D

 57 62  0  0  0  0  0  0  0  0999 V2000
   -1.1296    0.8564   -1.7724 C   0  0  0  0  0  0  0  0  0  0  0  0
   -1.6947    0.1734   -0.5793 C   0  0  0  0  0  0  0  0  0  0  0  0
   -1.0161   -0.7104    0.3262 C   0  0  0  0  0  0  0  0  0  0  0  0
    0.4029   -1.1195    0.3122 C   0  0  0  0  0  0  0  0  0  0  0  0
    0.7647   -2.2718    0.5245 O   0  0  0  0  0  0  0  0  0  0  0  0
    1.2776   -0.0745    0.0626 N   0  0  0  0  0  0  0  0  0  0  0  0
    2.7379   -0.1855    0.1007 C   0  0  2  0  0  0  0  0  0  0  0  0
    3.3380    1.1997   -0.2655 C   0  0  0  0  0  0  0  0  0  0  0  0
    4.8741    1.1614   -0.2389 C   0  0  1  0  0  0  0  0  0  0  0  0
    5.3440    0.7633    1.1691 C   0  0  0  0  0  0  0  0  0  0  0  0
    4.7835   -0.6194    1.5385 C   0  0  2  0  0  0  0  0  0  0  0  0
    5.2743   -1.6557    0.5131 C   0  0  0  0  0  0  0  0  0  0  0  0
    4.8081   -1.2650   -0.8999 C   0  0  2  0  0  0  0  0  0  0  0  0
    5.3694    0.1205   -1.2545 C   0  0  0  0  0  0  0  0  0  0  0  0
    3.2701   -1.2144   -0.9291 C   0  0  0  0  0  0  0  0  0  0  0  0
    3.2456   -0.5686    1.5123 C   0  0  0  0  0  0  0  0  0  0  0  0
   -1.8530   -1.1586    1.2763 N   0  0  0  0  0  0  0  0  0  0  0  0
   -3.0306   -0.6010    0.9766 N   0  0  0  0  0  0  0  0  0  0  0  0
   -4.2338   -0.8721    1.8014 C   0  0  0  0  0  0  0  0  0  0  0  0
   -4.5478   -2.2516    2.3346 C   0  0  0  0  0  0  0  0  0  0  0  0
   -5.4158   -1.6504    1.2708 C   0  0  0  0  0  0  0  0  0  0  0  0
   -2.9978    0.2439   -0.1044 C   0  0  0  0  0  0  0  0  0  0  0  0
   -4.1488    0.9877   -0.6013 C   0  0  0  0  0  0  0  0  0  0  0  0
   -4.8073    0.5721   -1.7643 C   0  0  0  0  0  0  0  0  0  0  0  0
   -5.9102    1.2828   -2.2409 C   0  0  0  0  0  0  0  0  0  0  0  0
   -6.3584    2.4138   -1.5600 C   0  0  0  0  0  0  0  0  0  0  0  0
   -5.7044    2.8365   -0.4035 C   0  0  0  0  0  0  0  0  0  0  0  0
   -4.6013    2.1266    0.0746 C   0  0  0  0  0  0  0  0  0  0  0  0
   -0.3894    0.2238   -2.2726 H   0  0  0  0  0  0  0  0  0  0  0  0
   -1.9045    1.0915   -2.5081 H   0  0  0  0  0  0  0  0  0  0  0  0
   -0.6456    1.7931   -1.4788 H   0  0  0  0  0  0  0  0  0  0  0  0
    0.8846    0.8517    0.1640 H   0  0  0  0  0  0  0  0  0  0  0  0
    2.9773    1.9646    0.4354 H   0  0  0  0  0  0  0  0  0  0  0  0
    2.9913    1.5096   -1.2606 H   0  0  0  0  0  0  0  0  0  0  0  0
    5.2736    2.1486   -0.4966 H   0  0  0  0  0  0  0  0  0  0  0  0
    5.0119    1.5101    1.9007 H   0  0  0  0  0  0  0  0  0  0  0  0
    6.4401    0.7457    1.2073 H   0  0  0  0  0  0  0  0  0  0  0  0
    5.1259   -0.9004    2.5407 H   0  0  0  0  0  0  0  0  0  0  0  0
    4.8912   -2.6502    0.7726 H   0  0  0  0  0  0  0  0  0  0  0  0
    6.3691   -1.7192    0.5409 H   0  0  0  0  0  0  0  0  0  0  0  0
    5.1664   -2.0045   -1.6248 H   0  0  0  0  0  0  0  0  0  0  0  0
    6.4659    0.0916   -1.2574 H   0  0  0  0  0  0  0  0  0  0  0  0
    5.0556    0.4046   -2.2664 H   0  0  0  0  0  0  0  0  0  0  0  0
    2.8813   -2.2180   -0.7229 H   0  0  0  0  0  0  0  0  0  0  0  0
    2.9233   -0.9525   -1.9374 H   0  0  0  0  0  0  0  0  0  0  0  0
    2.8494   -1.5440    1.8188 H   0  0  0  0  0  0  0  0  0  0  0  0
    2.8833    0.1561    2.2533 H   0  0  0  0  0  0  0  0  0  0  0  0
   -4.4458   -0.0455    2.4719 H   0  0  0  0  0  0  0  0  0  0  0  0
   -4.9421   -2.3250    3.3410 H   0  0  0  0  0  0  0  0  0  0  0  0
   -3.8876   -3.0669    2.0576 H   0  0  0  0  0  0  0  0  0  0  0  0
   -5.3530   -2.0717    0.2738 H   0  0  0  0  0  0  0  0  0  0  0  0
   -6.4068   -1.3112    1.5481 H   0  0  0  0  0  0  0  0  0  0  0  0
   -4.4683   -0.3106   -2.3019 H   0  0  0  0  0  0  0  0  0  0  0  0
   -6.4199    0.9531   -3.1426 H   0  0  0  0  0  0  0  0  0  0  0  0
   -7.2177    2.9666   -1.9314 H   0  0  0  0  0  0  0  0  0  0  0  0
   -6.0529    3.7197    0.1257 H   0  0  0  0  0  0  0  0  0  0  0  0
   -4.0974    2.4700    0.9750 H   0  0  0  0  0  0  0  0  0  0  0  0
  1  2  1  0
  2  3  1  0
  3  4  1  0
  4  5  2  0
  4  6  1  0
  7  6  1  1
  7  8  1  0
  8  9  1  0
  9 10  1  0
 10 11  1  0
 11 12  1  0
 12 13  1  0
 13 14  1  0
 13 15  1  0
 11 16  1  0
  3 17  2  0
 17 18  1  0
 18 19  1  0
 19 20  1  0
 20 21  1  0
 18 22  1  0
 22 23  1  0
 23 24  2  0
 24 25  1  0
 25 26  2  0
 26 27  1  0
 27 28  2  0
 22  2  2  0
 28 23  1  0
 15  7  1  0
 21 19  1  0
 16  7  1  0
 14  9  1  0
  1 29  1  0
  1 30  1  0
  1 31  1  0
  6 32  1  0
  8 33  1  0
  8 34  1  0
  9 35  1  6
 10 36  1  0
 10 37  1  0
 11 38  1  1
 12 39  1  0
 12 40  1  0
 13 41  1  6
 14 42  1  0
 14 43  1  0
 15 44  1  0
 15 45  1  0
 16 46  1  0
 16 47  1  0
 19 48  1  0
 20 49  1  0
 20 50  1  0
 21 51  1  0
 21 52  1  0
 24 53  1  0
 25 54  1  0
 26 55  1  0
 27 56  1  0
 28 57  1  0
M  END
>  <_SMILES>  (66) 
Cc1c(C(=O)N[C@]23C[C@H]4C[C@H](C[C@H](C4)C2)C3)nn(C2CC2)c1-c1ccccc1

$$$$

     RDKit          3D

 57 62  0  0  0  0  0  0  0  0999 V2000
    1.1646   -1.9506   -0.9801 O   0  0  0  0  0  0  0  0  0  0  0  0
    0.7019   -0.8588   -0.6620 C   0  0  0  0  0  0  0  0  0  0  0  0
    1.4811    0.1613   -0.1353 N   0  0  0  0  0  0  0  0  0  0  0  0
    2.9116    0.0459    0.1655 C   0  0  2  0  0  0  0  0  0  0  0  0
    3.4037    1.4143    0.7129 C   0  0  0  0  0  0  0  0  0  0  0  0
    4.9004    1.3666    1.0583 C   0  0  1  0  0  0  0  0  0  0  0  0
    5.1379    0.2832    2.1219 C   0  0  0  0  0  0  0  0  0  0  0  0
    4.6839   -1.0846    1.5883 C   0  0  2  0  0  0  0  0  0  0  0  0
    5.4788   -1.4215    0.3152 C   0  0  0  0  0  0  0  0  0  0  0  0
    5.2472   -0.3416   -0.7556 C   0  0  2  0  0  0  0  0  0  0  0  0
    5.6986    1.0210   -0.2079 C   0  0  0  0  0  0  0  0  0  0  0  0
    3.7477   -0.2818   -1.0979 C   0  0  0  0  0  0  0  0  0  0  0  0
    3.1838   -1.0263    1.2493 C   0  0  0  0  0  0  0  0  0  0  0  0
   -0.7350   -0.5262   -0.7916 C   0  0  0  0  0  0  0  0  0  0  0  0
   -1.3522    0.7559   -0.7722 C   0  0  0  0  0  0  0  0  0  0  0  0
   -2.7052    0.5414   -0.9428 C   0  0  0  0  0  0  0  0  0  0  0  0
   -3.7976    1.5006   -1.0032 C   0  0  0  0  0  0  0  0  0  0  0  0
   -4.2482    2.1252    0.1650 C   0  0  0  0  0  0  0  0  0  0  0  0
   -5.2961    3.0462    0.1110 C   0  0  0  0  0  0  0  0  0  0  0  0
   -5.8934    3.3523   -1.1110 C   0  0  0  0  0  0  0  0  0  0  0  0
   -5.4424    2.7412   -2.2802 C   0  0  0  0  0  0  0  0  0  0  0  0
   -4.3953    1.8194   -2.2276 C   0  0  0  0  0  0  0  0  0  0  0  0
   -2.8389   -0.8231   -1.0350 N   0  0  0  0  0  0  0  0  0  0  0  0
   -4.0684   -1.5947   -1.1943 C   0  0  0  0  0  0  0  0  0  0  0  0
   -4.7749   -1.8107    0.1130 C   0  0  0  0  0  0  0  0  0  0  0  0
   -5.6512   -3.0230    0.3093 C   0  0  0  0  0  0  0  0  0  0  0  0
   -4.3455   -2.9136    1.0475 C   0  0  0  0  0  0  0  0  0  0  0  0
   -1.6655   -1.4818   -0.9627 N   0  0  0  0  0  0  0  0  0  0  0  0
    0.9880    0.9348    0.2858 H   0  0  0  0  0  0  0  0  0  0  0  0
    2.8289    1.6918    1.6068 H   0  0  0  0  0  0  0  0  0  0  0  0
    3.2186    2.2048   -0.0268 H   0  0  0  0  0  0  0  0  0  0  0  0
    5.2226    2.3403    1.4441 H   0  0  0  0  0  0  0  0  0  0  0  0
    4.5875    0.5298    3.0382 H   0  0  0  0  0  0  0  0  0  0  0  0
    6.2012    0.2472    2.3893 H   0  0  0  0  0  0  0  0  0  0  0  0
    4.8601   -1.8540    2.3484 H   0  0  0  0  0  0  0  0  0  0  0  0
    6.5481   -1.4913    0.5500 H   0  0  0  0  0  0  0  0  0  0  0  0
    5.1728   -2.4023   -0.0692 H   0  0  0  0  0  0  0  0  0  0  0  0
    5.8214   -0.5855   -1.6564 H   0  0  0  0  0  0  0  0  0  0  0  0
    5.5517    1.7981   -0.9681 H   0  0  0  0  0  0  0  0  0  0  0  0
    6.7714    0.9971    0.0197 H   0  0  0  0  0  0  0  0  0  0  0  0
    3.4480   -1.2418   -1.5330 H   0  0  0  0  0  0  0  0  0  0  0  0
    3.5710    0.4748   -1.8736 H   0  0  0  0  0  0  0  0  0  0  0  0
    2.8548   -2.0163    0.9122 H   0  0  0  0  0  0  0  0  0  0  0  0
    2.6047   -0.8027    2.1549 H   0  0  0  0  0  0  0  0  0  0  0  0
   -0.8764    1.7211   -0.6748 H   0  0  0  0  0  0  0  0  0  0  0  0
   -3.7905    1.8932    1.1240 H   0  0  0  0  0  0  0  0  0  0  0  0
   -5.6454    3.5253    1.0221 H   0  0  0  0  0  0  0  0  0  0  0  0
   -6.7082    4.0709   -1.1528 H   0  0  0  0  0  0  0  0  0  0  0  0
   -5.9034    2.9855   -3.2340 H   0  0  0  0  0  0  0  0  0  0  0  0
   -4.0454    1.3571   -3.1480 H   0  0  0  0  0  0  0  0  0  0  0  0
   -4.7151   -1.0570   -1.8944 H   0  0  0  0  0  0  0  0  0  0  0  0
   -3.7967   -2.5449   -1.6703 H   0  0  0  0  0  0  0  0  0  0  0  0
   -5.1143   -0.8800    0.5536 H   0  0  0  0  0  0  0  0  0  0  0  0
   -6.5660   -2.9022    0.8787 H   0  0  0  0  0  0  0  0  0  0  0  0
   -5.7191   -3.7572   -0.4857 H   0  0  0  0  0  0  0  0  0  0  0  0
   -4.3745   -2.7150    2.1128 H   0  0  0  0  0  0  0  0  0  0  0  0
   -3.5270   -3.5579    0.7427 H   0  0  0  0  0  0  0  0  0  0  0  0
  1  2  2  0
  2  3  1  0
  4  3  1  6
  4  5  1  0
  5  6  1  0
  6  7  1  0
  7  8  1  0
  8  9  1  0
  9 10  1  0
 10 11  1  0
 10 12  1  0
  8 13  1  0
  2 14  1  0
 14 15  1  0
 15 16  2  0
 16 17  1  0
 17 18  2  0
 18 19  1  0
 19 20  2  0
 20 21  1  0
 21 22  2  0
 16 23  1  0
 23 24  1  0
 24 25  1  0
 25 26  1  0
 26 27  1  0
 23 28  1  0
 12  4  1  0
 28 14  2  0
 13  4  1  0
 22 17  1  0
 27 25  1  0
 11  6  1  0
  3 29  1  0
  5 30  1  0
  5 31  1  0
  6 32  1  1
  7 33  1  0
  7 34  1  0
  8 35  1  1
  9 36  1  0
  9 37  1  0
 10 38  1  6
 11 39  1  0
 11 40  1  0
 12 41  1  0
 12 42  1  0
 13 43  1  0
 13 44  1  0
 15 45  1  0
 18 46  1  0
 19 47  1  0
 20 48  1  0
 21 49  1  0
 22 50  1  0
 24 51  1  0
 24 52  1  0
 25 53  1  0
 26 54  1  0
 26 55  1  0
 27 56  1  0
 27 57  1  0
M  END
>  <_SMILES>  (67) 
O=C(N[C@]12C[C@H]3C[C@H](C[C@H](C3)C1)C2)c1cc(-c2ccccc2)n(CC2CC2)n1

$$$$

     RDKit          3D

 54 56  0  0  0  0  0  0  0  0999 V2000
    0.1688   -1.8038   -1.0660 C   0  0  0  0  0  0  0  0  0  0  0  0
   -0.4243   -0.4624   -0.8263 C   0  0  0  0  0  0  0  0  0  0  0  0
    0.2628    0.7738   -0.5954 C   0  0  0  0  0  0  0  0  0  0  0  0
    1.7156    1.0094   -0.4860 C   0  0  0  0  0  0  0  0  0  0  0  0
    2.2875    1.9623   -1.0089 O   0  0  0  0  0  0  0  0  0  0  0  0
    2.3850    0.0666    0.2757 N   0  0  0  0  0  0  0  0  0  0  0  0
    3.8256    0.1044    0.4588 C   0  0  0  0  0  0  0  0  0  0  0  0
    4.5473   -0.4452   -0.7846 C   0  0  0  0  0  0  0  0  0  0  0  0
    5.9249   -1.0400   -0.4819 C   0  0  0  0  0  0  0  0  0  0  0  0
    6.5758   -0.3820    0.7263 C   0  0  0  0  0  0  0  0  0  0  0  0
    5.7336   -0.5576    1.9909 C   0  0  0  0  0  0  0  0  0  0  0  0
    4.2321   -0.6649    1.7164 C   0  0  0  0  0  0  0  0  0  0  0  0
   -0.6100    1.7878   -0.4793 N   0  0  0  0  0  0  0  0  0  0  0  0
   -1.8218    1.2201   -0.6019 N   0  0  0  0  0  0  0  0  0  0  0  0
   -2.9943    2.0763   -0.5130 C   0  0  0  0  0  0  0  0  0  0  0  0
   -3.2417    2.6456    0.8948 C   0  0  0  0  0  0  0  0  0  0  0  0
   -4.3680    3.6796    0.8437 C   0  0  0  0  0  0  0  0  0  0  0  0
   -3.5893    1.5493    1.9035 C   0  0  0  0  0  0  0  0  0  0  0  0
   -1.7731   -0.1353   -0.8178 C   0  0  0  0  0  0  0  0  0  0  0  0
   -2.9403   -0.9873   -1.0062 C   0  0  0  0  0  0  0  0  0  0  0  0
   -3.4232   -1.7637    0.0526 C   0  0  0  0  0  0  0  0  0  0  0  0
   -4.5406   -2.5806   -0.1279 C   0  0  0  0  0  0  0  0  0  0  0  0
   -5.1756   -2.6301   -1.3683 C   0  0  0  0  0  0  0  0  0  0  0  0
   -4.6933   -1.8661   -2.4303 C   0  0  0  0  0  0  0  0  0  0  0  0
   -3.5766   -1.0479   -2.2512 C   0  0  0  0  0  0  0  0  0  0  0  0
   -0.4876   -2.4269   -1.6819 H   0  0  0  0  0  0  0  0  0  0  0  0
    0.3355   -2.3202   -0.1156 H   0  0  0  0  0  0  0  0  0  0  0  0
    1.1254   -1.7240   -1.5919 H   0  0  0  0  0  0  0  0  0  0  0  0
    1.8449   -0.6532    0.7346 H   0  0  0  0  0  0  0  0  0  0  0  0
    4.1109    1.1567    0.5903 H   0  0  0  0  0  0  0  0  0  0  0  0
    3.9404   -1.2130   -1.2818 H   0  0  0  0  0  0  0  0  0  0  0  0
    4.6537    0.3671   -1.5152 H   0  0  0  0  0  0  0  0  0  0  0  0
    5.8212   -2.1158   -0.2919 H   0  0  0  0  0  0  0  0  0  0  0  0
    6.5696   -0.9402   -1.3625 H   0  0  0  0  0  0  0  0  0  0  0  0
    6.7094    0.6883    0.5240 H   0  0  0  0  0  0  0  0  0  0  0  0
    7.5774   -0.7949    0.8914 H   0  0  0  0  0  0  0  0  0  0  0  0
    5.9288    0.2873    2.6625 H   0  0  0  0  0  0  0  0  0  0  0  0
    6.0565   -1.4564    2.5304 H   0  0  0  0  0  0  0  0  0  0  0  0
    3.9591   -1.7227    1.6013 H   0  0  0  0  0  0  0  0  0  0  0  0
    3.6751   -0.3040    2.5898 H   0  0  0  0  0  0  0  0  0  0  0  0
   -2.8284    2.8897   -1.2308 H   0  0  0  0  0  0  0  0  0  0  0  0
   -3.8690    1.5189   -0.8622 H   0  0  0  0  0  0  0  0  0  0  0  0
   -2.3346    3.1537    1.2461 H   0  0  0  0  0  0  0  0  0  0  0  0
   -5.3072    3.2283    0.5060 H   0  0  0  0  0  0  0  0  0  0  0  0
   -4.1167    4.4946    0.1567 H   0  0  0  0  0  0  0  0  0  0  0  0
   -4.5390    4.1184    1.8325 H   0  0  0  0  0  0  0  0  0  0  0  0
   -2.7601    0.8454    2.0251 H   0  0  0  0  0  0  0  0  0  0  0  0
   -3.7975    1.9811    2.8884 H   0  0  0  0  0  0  0  0  0  0  0  0
   -4.4742    0.9858    1.5891 H   0  0  0  0  0  0  0  0  0  0  0  0
   -2.9340   -1.7336    1.0233 H   0  0  0  0  0  0  0  0  0  0  0  0
   -4.9146   -3.1795    0.6986 H   0  0  0  0  0  0  0  0  0  0  0  0
   -6.0448   -3.2679   -1.5088 H   0  0  0  0  0  0  0  0  0  0  0  0
   -5.1844   -1.9097   -3.3990 H   0  0  0  0  0  0  0  0  0  0  0  0
   -3.2029   -0.4619   -3.0880 H   0  0  0  0  0  0  0  0  0  0  0  0
  1  2  1  0
  2  3  1  0
  3  4  1  0
  4  5  2  0
  4  6  1  0
  6  7  1  0
  7  8  1  0
  8  9  1  0
  9 10  1  0
 10 11  1  0
 11 12  1  0
  3 13  2  0
 13 14  1  0
 14 15  1  0
 15 16  1  0
 16 17  1  0
 16 18  1  0
 14 19  1  0
 19 20  1  0
 20 21  2  0
 21 22  1  0
 22 23  2  0
 23 24  1  0
 24 25  2  0
 19  2  2  0
 25 20  1  0
 12  7  1  0
  1 26  1  0
  1 27  1  0
  1 28  1  0
  6 29  1  0
  7 30  1  0
  8 31  1  0
  8 32  1  0
  9 33  1  0
  9 34  1  0
 10 35  1  0
 10 36  1  0
 11 37  1  0
 11 38  1  0
 12 39  1  0
 12 40  1  0
 15 41  1  0
 15 42  1  0
 16 43  1  0
 17 44  1  0
 17 45  1  0
 17 46  1  0
 18 47  1  0
 18 48  1  0
 18 49  1  0
 21 50  1  0
 22 51  1  0
 23 52  1  0
 24 53  1  0
 25 54  1  0
M  END
>  <_SMILES>  (68) 
Cc1c(C(=O)NC2CCCCC2)nn(CC(C)C)c1-c1ccccc1

$$$$

     RDKit          3D

 56 60  0  0  0  0  0  0  0  0999 V2000
    4.5362   -2.8120   -0.0060 C   0  0  0  0  0  0  0  0  0  0  0  0
    4.3173   -1.7934   -1.1107 C   0  0  0  0  0  0  0  0  0  0  0  0
    3.1618   -0.9495   -0.8593 N   0  0  0  0  0  0  0  0  0  0  0  0
    1.9523   -1.3939   -1.2369 N   0  0  0  0  0  0  0  0  0  0  0  0
    1.1013   -0.4101   -0.9025 C   0  0  0  0  0  0  0  0  0  0  0  0
   -0.3481   -0.5393   -1.1598 C   0  0  0  0  0  0  0  0  0  0  0  0
   -0.8015   -1.0144   -2.1959 O   0  0  0  0  0  0  0  0  0  0  0  0
   -1.1381   -0.0994   -0.1097 N   0  0  0  0  0  0  0  0  0  0  0  0
   -2.5973   -0.2172   -0.0601 C   0  0  2  0  0  0  0  0  0  0  0  0
   -3.0893    0.4224    1.2672 C   0  0  0  0  0  0  0  0  0  0  0  0
   -4.6181    0.3288    1.3929 C   0  0  1  0  0  0  0  0  0  0  0  0
   -5.2663    1.0697    0.2135 C   0  0  0  0  0  0  0  0  0  0  0  0
   -4.8137    0.4400   -1.1127 C   0  0  2  0  0  0  0  0  0  0  0  0
   -5.2281   -1.0413   -1.1394 C   0  0  0  0  0  0  0  0  0  0  0  0
   -4.5841   -1.7929    0.0381 C   0  0  2  0  0  0  0  0  0  0  0  0
   -5.0371   -1.1493    1.3583 C   0  0  0  0  0  0  0  0  0  0  0  0
   -3.0523   -1.6970   -0.0755 C   0  0  0  0  0  0  0  0  0  0  0  0
   -3.2820    0.5388   -1.2272 C   0  0  0  0  0  0  0  0  0  0  0  0
    1.8027    0.6829   -0.2950 C   0  0  0  0  0  0  0  0  0  0  0  0
    1.2365    1.9724    0.1802 C   0  0  0  0  0  0  0  0  0  0  0  0
    3.1331    0.2893   -0.2681 C   0  0  0  0  0  0  0  0  0  0  0  0
    4.3070    0.9892    0.2353 C   0  0  0  0  0  0  0  0  0  0  0  0
    5.0153    1.8644   -0.5988 C   0  0  0  0  0  0  0  0  0  0  0  0
    6.1385    2.5371   -0.1150 C   0  0  0  0  0  0  0  0  0  0  0  0
    6.5450    2.3347    1.1990 C   0  0  0  0  0  0  0  0  0  0  0  0
    7.6227    2.9805    1.6627 F   0  0  0  0  0  0  0  0  0  0  0  0
    5.8490    1.4738    2.0403 C   0  0  0  0  0  0  0  0  0  0  0  0
    4.7253    0.8002    1.5587 C   0  0  0  0  0  0  0  0  0  0  0  0
    4.7044   -2.3223    0.9585 H   0  0  0  0  0  0  0  0  0  0  0  0
    3.6678   -3.4705    0.1021 H   0  0  0  0  0  0  0  0  0  0  0  0
    5.4090   -3.4329   -0.2301 H   0  0  0  0  0  0  0  0  0  0  0  0
    5.1975   -1.1539   -1.2271 H   0  0  0  0  0  0  0  0  0  0  0  0
    4.1530   -2.2977   -2.0699 H   0  0  0  0  0  0  0  0  0  0  0  0
   -0.6557    0.0179    0.7712 H   0  0  0  0  0  0  0  0  0  0  0  0
   -2.7760    1.4739    1.3179 H   0  0  0  0  0  0  0  0  0  0  0  0
   -2.6189   -0.0780    2.1245 H   0  0  0  0  0  0  0  0  0  0  0  0
   -4.9405    0.7825    2.3367 H   0  0  0  0  0  0  0  0  0  0  0  0
   -4.9892    2.1308    0.2388 H   0  0  0  0  0  0  0  0  0  0  0  0
   -6.3591    1.0240    0.2968 H   0  0  0  0  0  0  0  0  0  0  0  0
   -5.2808    0.9694   -1.9507 H   0  0  0  0  0  0  0  0  0  0  0  0
   -4.9225   -1.4990   -2.0883 H   0  0  0  0  0  0  0  0  0  0  0  0
   -6.3204   -1.1246   -1.0832 H   0  0  0  0  0  0  0  0  0  0  0  0
   -4.8900   -2.8449    0.0166 H   0  0  0  0  0  0  0  0  0  0  0  0
   -6.1260   -1.2326    1.4616 H   0  0  0  0  0  0  0  0  0  0  0  0
   -4.5949   -1.6846    2.2075 H   0  0  0  0  0  0  0  0  0  0  0  0
   -2.7292   -2.1958   -0.9970 H   0  0  0  0  0  0  0  0  0  0  0  0
   -2.5816   -2.2452    0.7512 H   0  0  0  0  0  0  0  0  0  0  0  0
   -2.9749    0.1313   -2.1969 H   0  0  0  0  0  0  0  0  0  0  0  0
   -2.9738    1.5927   -1.2260 H   0  0  0  0  0  0  0  0  0  0  0  0
    0.8635    1.8685    1.2039 H   0  0  0  0  0  0  0  0  0  0  0  0
    1.9880    2.7682    0.1715 H   0  0  0  0  0  0  0  0  0  0  0  0
    0.4111    2.2991   -0.4603 H   0  0  0  0  0  0  0  0  0  0  0  0
    4.6939    2.0263   -1.6256 H   0  0  0  0  0  0  0  0  0  0  0  0
    6.6954    3.2170   -0.7519 H   0  0  0  0  0  0  0  0  0  0  0  0
    6.1838    1.3350    3.0633 H   0  0  0  0  0  0  0  0  0  0  0  0
    4.1782    0.1309    2.2188 H   0  0  0  0  0  0  0  0  0  0  0  0
  1  2  1  0
  2  3  1  0
  3  4  1  0
  4  5  2  0
  5  6  1  0
  6  7  2  0
  6  8  1  0
  9  8  1  6
  9 10  1  0
 10 11  1  0
 11 12  1  0
 12 13  1  0
 13 14  1  0
 14 15  1  0
 15 16  1  0
 15 17  1  0
 13 18  1  0
  5 19  1  0
 19 20  1  0
 19 21  2  0
 21 22  1  0
 22 23  1  0
 23 24  2  0
 24 25  1  0
 25 26  1  0
 25 27  2  0
 27 28  1  0
 21  3  1  0
 28 22  2  0
 17  9  1  0
 18  9  1  0
 16 11  1  0
  1 29  1  0
  1 30  1  0
  1 31  1  0
  2 32  1  0
  2 33  1  0
  8 34  1  0
 10 35  1  0
 10 36  1  0
 11 37  1  1
 12 38  1  0
 12 39  1  0
 13 40  1  6
 14 41  1  0
 14 42  1  0
 15 43  1  1
 16 44  1  0
 16 45  1  0
 17 46  1  0
 17 47  1  0
 18 48  1  0
 18 49  1  0
 20 50  1  0
 20 51  1  0
 20 52  1  0
 23 53  1  0
 24 54  1  0
 27 55  1  0
 28 56  1  0
M  END
>  <_SMILES>  (69) 
CCn1nc(C(=O)N[C@]23C[C@H]4C[C@H](C[C@H](C4)C2)C3)c(C)c1-c1ccc(F)cc1

$$$$

     RDKit          3D

 56 60  0  0  0  0  0  0  0  0999 V2000
    1.8592    1.1878    0.5748 C   0  0  0  0  0  0  0  0  0  0  0  0
    2.2046    0.0362   -0.2985 C   0  0  0  0  0  0  0  0  0  0  0  0
    1.3261   -0.7081   -1.1535 C   0  0  0  0  0  0  0  0  0  0  0  0
   -0.1293   -0.5354   -1.3372 C   0  0  0  0  0  0  0  0  0  0  0  0
   -0.6558   -0.5008   -2.4437 O   0  0  0  0  0  0  0  0  0  0  0  0
   -0.8227   -0.4285   -0.1450 N   0  0  0  0  0  0  0  0  0  0  0  0
   -2.2565   -0.1537    0.0248 C   0  0  1  0  0  0  0  0  0  0  0  0
   -2.6157   -0.5720    1.4859 C   0  0  0  0  0  0  0  0  0  0  0  0
   -4.0995   -0.3322    1.7959 C   0  0  2  0  0  0  0  0  0  0  0  0
   -4.9536   -1.1610    0.8271 C   0  0  0  0  0  0  0  0  0  0  0  0
   -4.6484   -0.7453   -0.6189 C   0  0  1  0  0  0  0  0  0  0  0  0
   -4.9648    0.7491   -0.7918 C   0  0  0  0  0  0  0  0  0  0  0  0
   -4.1029    1.5900    0.1690 C   0  0  1  0  0  0  0  0  0  0  0  0
   -4.4170    1.1584    1.6129 C   0  0  0  0  0  0  0  0  0  0  0  0
   -2.5892    1.3705   -0.1082 C   0  0  2  0  0  0  0  0  0  0  0  0
   -2.1845    2.0146   -1.4394 C   0  0  0  0  0  0  0  0  0  0  0  0
   -3.1590   -0.9922   -0.9187 C   0  0  0  0  0  0  0  0  0  0  0  0
    2.0004   -1.6609   -1.8186 N   0  0  0  0  0  0  0  0  0  0  0  0
    3.2714   -1.5289   -1.4100 N   0  0  0  0  0  0  0  0  0  0  0  0
    4.2811   -2.3977   -1.9711 C   0  0  0  0  0  0  0  0  0  0  0  0
    3.4529   -0.5438   -0.4719 C   0  0  0  0  0  0  0  0  0  0  0  0
    4.7385   -0.2237    0.1352 C   0  0  0  0  0  0  0  0  0  0  0  0
    5.4665    0.8881   -0.3022 C   0  0  0  0  0  0  0  0  0  0  0  0
    6.7002    1.1922    0.2758 C   0  0  0  0  0  0  0  0  0  0  0  0
    7.2103    0.3883    1.2945 C   0  0  0  0  0  0  0  0  0  0  0  0
    6.4877   -0.7188    1.7377 C   0  0  0  0  0  0  0  0  0  0  0  0
    5.2539   -1.0245    1.1604 C   0  0  0  0  0  0  0  0  0  0  0  0
    1.5356    0.8335    1.5585 H   0  0  0  0  0  0  0  0  0  0  0  0
    1.0525    1.7852    0.1385 H   0  0  0  0  0  0  0  0  0  0  0  0
    2.7150    1.8547    0.7177 H   0  0  0  0  0  0  0  0  0  0  0  0
   -0.2718   -0.5346    0.6958 H   0  0  0  0  0  0  0  0  0  0  0  0
   -1.9975   -0.0125    2.2013 H   0  0  0  0  0  0  0  0  0  0  0  0
   -2.3738   -1.6324    1.6416 H   0  0  0  0  0  0  0  0  0  0  0  0
   -4.3157   -0.6320    2.8274 H   0  0  0  0  0  0  0  0  0  0  0  0
   -4.7470   -2.2298    0.9626 H   0  0  0  0  0  0  0  0  0  0  0  0
   -6.0186   -1.0130    1.0442 H   0  0  0  0  0  0  0  0  0  0  0  0
   -5.2646   -1.3346   -1.3073 H   0  0  0  0  0  0  0  0  0  0  0  0
   -6.0280    0.9283   -0.5873 H   0  0  0  0  0  0  0  0  0  0  0  0
   -4.7961    1.0530   -1.8309 H   0  0  0  0  0  0  0  0  0  0  0  0
   -4.3553    2.6508    0.0536 H   0  0  0  0  0  0  0  0  0  0  0  0
   -3.8305    1.7577    2.3201 H   0  0  0  0  0  0  0  0  0  0  0  0
   -5.4738    1.3470    1.8390 H   0  0  0  0  0  0  0  0  0  0  0  0
   -2.0236    1.9117    0.6648 H   0  0  0  0  0  0  0  0  0  0  0  0
   -2.5904    1.4879   -2.3065 H   0  0  0  0  0  0  0  0  0  0  0  0
   -1.0957    2.0501   -1.5408 H   0  0  0  0  0  0  0  0  0  0  0  0
   -2.5373    3.0509   -1.4860 H   0  0  0  0  0  0  0  0  0  0  0  0
   -2.9770   -0.7520   -1.9706 H   0  0  0  0  0  0  0  0  0  0  0  0
   -2.9294   -2.0600   -0.8061 H   0  0  0  0  0  0  0  0  0  0  0  0
    3.8733   -2.9112   -2.8460 H   0  0  0  0  0  0  0  0  0  0  0  0
    5.1404   -1.7941   -2.2731 H   0  0  0  0  0  0  0  0  0  0  0  0
    4.5660   -3.1274   -1.2094 H   0  0  0  0  0  0  0  0  0  0  0  0
    5.0771    1.5211   -1.0966 H   0  0  0  0  0  0  0  0  0  0  0  0
    7.2624    2.0565   -0.0685 H   0  0  0  0  0  0  0  0  0  0  0  0
    8.1707    0.6265    1.7450 H   0  0  0  0  0  0  0  0  0  0  0  0
    6.8840   -1.3427    2.5348 H   0  0  0  0  0  0  0  0  0  0  0  0
    4.6957   -1.8864    1.5186 H   0  0  0  0  0  0  0  0  0  0  0  0
  1  2  1  0
  2  3  1  0
  3  4  1  0
  4  5  2  0
  4  6  1  0
  7  6  1  6
  7  8  1  0
  8  9  1  0
  9 10  1  0
 10 11  1  0
 11 12  1  0
 12 13  1  0
 13 14  1  0
 13 15  1  0
 15 16  1  0
 11 17  1  0
  3 18  2  0
 18 19  1  0
 19 20  1  0
 19 21  1  0
 21 22  1  0
 22 23  2  0
 23 24  1  0
 24 25  2  0
 25 26  1  0
 26 27  2  0
 21  2  2  0
 27 22  1  0
 15  7  1  0
 17  7  1  0
 14  9  1  0
  1 28  1  0
  1 29  1  0
  1 30  1  0
  6 31  1  0
  8 32  1  0
  8 33  1  0
  9 34  1  1
 10 35  1  0
 10 36  1  0
 11 37  1  6
 12 38  1  0
 12 39  1  0
 13 40  1  1
 14 41  1  0
 14 42  1  0
 15 43  1  1
 16 44  1  0
 16 45  1  0
 16 46  1  0
 17 47  1  0
 17 48  1  0
 20 49  1  0
 20 50  1  0
 20 51  1  0
 23 52  1  0
 24 53  1  0
 25 54  1  0
 26 55  1  0
 27 56  1  0
M  END
>  <_SMILES>  (70) 
Cc1c(C(=O)N[C@@]23C[C@@H]4C[C@@H](C[C@@H](C4)[C@@H]2C)C3)nn(C)c1-c1ccccc1

$$$$

     RDKit          3D

 56 60  0  0  0  0  0  0  0  0999 V2000
    1.8951   -0.6257   -1.4921 C   0  0  0  0  0  0  0  0  0  0  0  0
    2.2427   -0.5213   -0.0508 C   0  0  0  0  0  0  0  0  0  0  0  0
    1.3658   -0.6673    1.0746 C   0  0  0  0  0  0  0  0  0  0  0  0
   -0.0942   -0.8991    1.0738 C   0  0  0  0  0  0  0  0  0  0  0  0
   -0.6385   -1.6910    1.8347 O   0  0  0  0  0  0  0  0  0  0  0  0
   -0.7715   -0.1223    0.1490 N   0  0  0  0  0  0  0  0  0  0  0  0
   -2.2296   -0.0168   -0.0075 C   0  0  1  0  0  0  0  0  0  0  0  0
   -2.9537   -1.3895    0.0171 C   0  0  0  0  0  0  0  0  0  0  0  0
   -4.4566   -1.2246   -0.2712 C   0  0  2  0  0  0  0  0  0  0  0  0
   -4.6444   -0.6116   -1.6660 C   0  0  0  0  0  0  0  0  0  0  0  0
   -3.9646    0.7630   -1.7235 C   0  0  1  0  0  0  0  0  0  0  0  0
   -4.5877    1.6877   -0.6683 C   0  0  0  0  0  0  0  0  0  0  0  0
   -4.3952    1.0889    0.7369 C   0  0  1  0  0  0  0  0  0  0  0  0
   -5.0797   -0.2905    0.7790 C   0  0  0  0  0  0  0  0  0  0  0  0
   -2.8739    0.9621    1.0300 C   0  0  1  0  0  0  0  0  0  0  0  0
   -2.6331    0.6055    2.5014 C   0  0  0  0  0  0  0  0  0  0  0  0
   -2.4687    0.5943   -1.4243 C   0  0  0  0  0  0  0  0  0  0  0  0
    2.0472   -0.5544    2.2269 N   0  0  0  0  0  0  0  0  0  0  0  0
    3.3178   -0.3369    1.8550 N   0  0  0  0  0  0  0  0  0  0  0  0
    4.3224   -0.1571    2.8786 C   0  0  0  0  0  0  0  0  0  0  0  0
    3.4994   -0.3016    0.4952 C   0  0  0  0  0  0  0  0  0  0  0  0
    4.7865   -0.0874   -0.1555 C   0  0  0  0  0  0  0  0  0  0  0  0
    5.7650   -1.0879   -0.1387 C   0  0  0  0  0  0  0  0  0  0  0  0
    6.9960   -0.8786   -0.7631 C   0  0  0  0  0  0  0  0  0  0  0  0
    7.2539    0.3296   -1.4094 C   0  0  0  0  0  0  0  0  0  0  0  0
    6.2812    1.3282   -1.4354 C   0  0  0  0  0  0  0  0  0  0  0  0
    5.0494    1.1200   -0.8121 C   0  0  0  0  0  0  0  0  0  0  0  0
    1.5619    0.3447   -1.8731 H   0  0  0  0  0  0  0  0  0  0  0  0
    1.0959   -1.3561   -1.6528 H   0  0  0  0  0  0  0  0  0  0  0  0
    2.7544   -0.9495   -2.0881 H   0  0  0  0  0  0  0  0  0  0  0  0
   -0.2314    0.6475   -0.2232 H   0  0  0  0  0  0  0  0  0  0  0  0
   -2.8445   -1.8871    0.9855 H   0  0  0  0  0  0  0  0  0  0  0  0
   -2.5048   -2.0637   -0.7243 H   0  0  0  0  0  0  0  0  0  0  0  0
   -4.9481   -2.2032   -0.2320 H   0  0  0  0  0  0  0  0  0  0  0  0
   -5.7131   -0.5121   -1.8924 H   0  0  0  0  0  0  0  0  0  0  0  0
   -4.2181   -1.2748   -2.4286 H   0  0  0  0  0  0  0  0  0  0  0  0
   -4.0963    1.1983   -2.7204 H   0  0  0  0  0  0  0  0  0  0  0  0
   -5.6566    1.8243   -0.8742 H   0  0  0  0  0  0  0  0  0  0  0  0
   -4.1264    2.6816   -0.7194 H   0  0  0  0  0  0  0  0  0  0  0  0
   -4.8647    1.7528    1.4724 H   0  0  0  0  0  0  0  0  0  0  0  0
   -4.9955   -0.7349    1.7769 H   0  0  0  0  0  0  0  0  0  0  0  0
   -6.1533   -0.1765    0.5821 H   0  0  0  0  0  0  0  0  0  0  0  0
   -2.4209    1.9547    0.8893 H   0  0  0  0  0  0  0  0  0  0  0  0
   -3.1930    1.2828    3.1559 H   0  0  0  0  0  0  0  0  0  0  0  0
   -2.9358   -0.4157    2.7458 H   0  0  0  0  0  0  0  0  0  0  0  0
   -1.5767    0.7198    2.7625 H   0  0  0  0  0  0  0  0  0  0  0  0
   -1.9681    1.5690   -1.5047 H   0  0  0  0  0  0  0  0  0  0  0  0
   -2.0090   -0.0453   -2.1902 H   0  0  0  0  0  0  0  0  0  0  0  0
    4.9703    0.6779    2.6013 H   0  0  0  0  0  0  0  0  0  0  0  0
    3.8334    0.0665    3.8307 H   0  0  0  0  0  0  0  0  0  0  0  0
    4.8951   -1.0839    2.9608 H   0  0  0  0  0  0  0  0  0  0  0  0
    5.5706   -2.0395    0.3512 H   0  0  0  0  0  0  0  0  0  0  0  0
    7.7515   -1.6601   -0.7493 H   0  0  0  0  0  0  0  0  0  0  0  0
    8.2122    0.4914   -1.8967 H   0  0  0  0  0  0  0  0  0  0  0  0
    6.4814    2.2689   -1.9418 H   0  0  0  0  0  0  0  0  0  0  0  0
    4.2984    1.9061   -0.8376 H   0  0  0  0  0  0  0  0  0  0  0  0
  1  2  1  0
  2  3  1  0
  3  4  1  0
  4  5  2  0
  4  6  1  0
  7  6  1  1
  7  8  1  0
  8  9  1  0
  9 10  1  0
 10 11  1  0
 11 12  1  0
 12 13  1  0
 13 14  1  0
 13 15  1  0
 15 16  1  0
 11 17  1  0
  3 18  2  0
 18 19  1  0
 19 20  1  0
 19 21  1  0
 21 22  1  0
 22 23  2  0
 23 24  1  0
 24 25  2  0
 25 26  1  0
 26 27  2  0
 21  2  2  0
 27 22  1  0
 15  7  1  0
 17  7  1  0
 14  9  1  0
  1 28  1  0
  1 29  1  0
  1 30  1  0
  6 31  1  0
  8 32  1  0
  8 33  1  0
  9 34  1  6
 10 35  1  0
 10 36  1  0
 11 37  1  6
 12 38  1  0
 12 39  1  0
 13 40  1  1
 14 41  1  0
 14 42  1  0
 15 43  1  6
 16 44  1  0
 16 45  1  0
 16 46  1  0
 17 47  1  0
 17 48  1  0
 20 49  1  0
 20 50  1  0
 20 51  1  0
 23 52  1  0
 24 53  1  0
 25 54  1  0
 26 55  1  0
 27 56  1  0
M  END
>  <_SMILES>  (71) 
Cc1c(C(=O)N[C@@]23C[C@@H]4C[C@@H](C[C@@H](C4)[C@H]2C)C3)nn(C)c1-c1ccccc1

$$$$

     RDKit          3D

 62 66  0  0  0  0  0  0  0  0999 V2000
    5.7304   -3.0382    1.2163 C   0  0  0  0  0  0  0  0  0  0  0  0
    4.4795   -2.3113    0.7511 C   0  0  0  0  0  0  0  0  0  0  0  0
    4.1674   -1.1146    1.6452 C   0  0  0  0  0  0  0  0  0  0  0  0
    2.9795   -0.3999    1.2070 N   0  0  0  0  0  0  0  0  0  0  0  0
    1.7801   -0.8321    1.6299 N   0  0  0  0  0  0  0  0  0  0  0  0
    0.8947    0.0202    1.0875 C   0  0  0  0  0  0  0  0  0  0  0  0
   -0.5557   -0.1409    1.3204 C   0  0  0  0  0  0  0  0  0  0  0  0
   -1.0265   -0.4222    2.4176 O   0  0  0  0  0  0  0  0  0  0  0  0
   -1.3209    0.0342    0.1785 N   0  0  0  0  0  0  0  0  0  0  0  0
   -2.7778   -0.1307    0.1019 C   0  0  1  0  0  0  0  0  0  0  0  0
   -3.4847    0.8834    1.0478 C   0  0  0  0  0  0  0  0  0  0  0  0
   -5.0131    0.7404    0.9696 C   0  0  2  0  0  0  0  0  0  0  0  0
   -5.4064   -0.6902    1.3712 C   0  0  0  0  0  0  0  0  0  0  0  0
   -4.7526   -1.7031    0.4164 C   0  0  1  0  0  0  0  0  0  0  0  0
   -5.2245   -1.4154   -1.0163 C   0  0  0  0  0  0  0  0  0  0  0  0
   -4.8148    0.0095   -1.4307 C   0  0  1  0  0  0  0  0  0  0  0  0
   -5.4748    1.0122   -0.4685 C   0  0  0  0  0  0  0  0  0  0  0  0
   -3.2738    0.1793   -1.3583 C   0  0  2  0  0  0  0  0  0  0  0  0
   -2.5872   -0.6449   -2.4606 C   0  0  0  0  0  0  0  0  0  0  0  0
   -3.2221   -1.5624    0.5012 C   0  0  0  0  0  0  0  0  0  0  0  0
    1.5635    1.0163    0.3025 C   0  0  0  0  0  0  0  0  0  0  0  0
    0.9548    2.1589   -0.4275 C   0  0  0  0  0  0  0  0  0  0  0  0
    2.9115    0.6998    0.3884 C   0  0  0  0  0  0  0  0  0  0  0  0
    4.0686    1.3535   -0.2079 C   0  0  0  0  0  0  0  0  0  0  0  0
    4.7076    2.4025    0.4621 C   0  0  0  0  0  0  0  0  0  0  0  0
    5.8177    3.0271   -0.1088 C   0  0  0  0  0  0  0  0  0  0  0  0
    6.2910    2.6085   -1.3519 C   0  0  0  0  0  0  0  0  0  0  0  0
    5.6539    1.5679   -2.0271 C   0  0  0  0  0  0  0  0  0  0  0  0
    4.5433    0.9425   -1.4578 C   0  0  0  0  0  0  0  0  0  0  0  0
    6.6010   -2.3750    1.1915 H   0  0  0  0  0  0  0  0  0  0  0  0
    5.9364   -3.8934    0.5651 H   0  0  0  0  0  0  0  0  0  0  0  0
    5.6103   -3.4106    2.2386 H   0  0  0  0  0  0  0  0  0  0  0  0
    3.6344   -3.0102    0.7500 H   0  0  0  0  0  0  0  0  0  0  0  0
    4.6175   -1.9841   -0.2859 H   0  0  0  0  0  0  0  0  0  0  0  0
    3.9895   -1.4359    2.6787 H   0  0  0  0  0  0  0  0  0  0  0  0
    5.0046   -0.4094    1.6673 H   0  0  0  0  0  0  0  0  0  0  0  0
   -0.8002    0.0596   -0.6858 H   0  0  0  0  0  0  0  0  0  0  0  0
   -3.1730    0.7361    2.0881 H   0  0  0  0  0  0  0  0  0  0  0  0
   -3.1913    1.9086    0.7856 H   0  0  0  0  0  0  0  0  0  0  0  0
   -5.4858    1.4575    1.6501 H   0  0  0  0  0  0  0  0  0  0  0  0
   -6.4976   -0.7999    1.3436 H   0  0  0  0  0  0  0  0  0  0  0  0
   -5.0931   -0.8905    2.4032 H   0  0  0  0  0  0  0  0  0  0  0  0
   -5.0448   -2.7194    0.7037 H   0  0  0  0  0  0  0  0  0  0  0  0
   -4.8081   -2.1568   -1.7071 H   0  0  0  0  0  0  0  0  0  0  0  0
   -6.3154   -1.5189   -1.0756 H   0  0  0  0  0  0  0  0  0  0  0  0
   -5.1677    0.2098   -2.4493 H   0  0  0  0  0  0  0  0  0  0  0  0
   -5.2165    2.0379   -0.7591 H   0  0  0  0  0  0  0  0  0  0  0  0
   -6.5669    0.9305   -0.5331 H   0  0  0  0  0  0  0  0  0  0  0  0
   -3.0382    1.2302   -1.5829 H   0  0  0  0  0  0  0  0  0  0  0  0
   -2.6436   -1.7219   -2.2853 H   0  0  0  0  0  0  0  0  0  0  0  0
   -1.5303   -0.3792   -2.5571 H   0  0  0  0  0  0  0  0  0  0  0  0
   -3.0513   -0.4420   -3.4323 H   0  0  0  0  0  0  0  0  0  0  0  0
   -2.7376   -2.3123   -0.1349 H   0  0  0  0  0  0  0  0  0  0  0  0
   -2.9069   -1.7962    1.5250 H   0  0  0  0  0  0  0  0  0  0  0  0
    1.6608    2.9885   -0.5339 H   0  0  0  0  0  0  0  0  0  0  0  0
    0.6438    1.8465   -1.4294 H   0  0  0  0  0  0  0  0  0  0  0  0
    0.0795    2.5446    0.1046 H   0  0  0  0  0  0  0  0  0  0  0  0
    4.3430    2.7382    1.4304 H   0  0  0  0  0  0  0  0  0  0  0  0
    6.3116    3.8412    0.4155 H   0  0  0  0  0  0  0  0  0  0  0  0
    7.1550    3.0962   -1.7964 H   0  0  0  0  0  0  0  0  0  0  0  0
    6.0208    1.2449   -2.9980 H   0  0  0  0  0  0  0  0  0  0  0  0
    4.0510    0.1347   -1.9942 H   0  0  0  0  0  0  0  0  0  0  0  0
  1  2  1  0
  2  3  1  0
  3  4  1  0
  4  5  1  0
  5  6  2  0
  6  7  1  0
  7  8  2  0
  7  9  1  0
 10  9  1  6
 10 11  1  0
 11 12  1  0
 12 13  1  0
 13 14  1  0
 14 15  1  0
 15 16  1  0
 16 17  1  0
 16 18  1  0
 18 19  1  0
 14 20  1  0
  6 21  1  0
 21 22  1  0
 21 23  2  0
 23 24  1  0
 24 25  2  0
 25 26  1  0
 26 27  2  0
 27 28  1  0
 28 29  2  0
 23  4  1  0
 29 24  1  0
 18 10  1  0
 20 10  1  0
 17 12  1  0
  1 30  1  0
  1 31  1  0
  1 32  1  0
  2 33  1  0
  2 34  1  0
  3 35  1  0
  3 36  1  0
  9 37  1  0
 11 38  1  0
 11 39  1  0
 12 40  1  1
 13 41  1  0
 13 42  1  0
 14 43  1  1
 15 44  1  0
 15 45  1  0
 16 46  1  6
 17 47  1  0
 17 48  1  0
 18 49  1  6
 19 50  1  0
 19 51  1  0
 19 52  1  0
 20 53  1  0
 20 54  1  0
 22 55  1  0
 22 56  1  0
 22 57  1  0
 25 58  1  0
 26 59  1  0
 27 60  1  0
 28 61  1  0
 29 62  1  0
M  END
>  <_SMILES>  (72) 
CCCn1nc(C(=O)N[C@@]23C[C@@H]4C[C@@H](C[C@@H](C4)[C@@H]2C)C3)c(C)c1-c1ccccc1

$$$$

     RDKit          3D

 62 66  0  0  0  0  0  0  0  0999 V2000
    5.1966    2.3709   -1.4985 C   0  0  0  0  0  0  0  0  0  0  0  0
    4.6818    2.8871   -0.1631 C   0  0  0  0  0  0  0  0  0  0  0  0
    4.2423    1.7690    0.7833 C   0  0  0  0  0  0  0  0  0  0  0  0
    3.0698    1.0424    0.3262 N   0  0  0  0  0  0  0  0  0  0  0  0
    1.8869    1.6803    0.3251 N   0  0  0  0  0  0  0  0  0  0  0  0
    1.0123    0.7888   -0.1688 C   0  0  0  0  0  0  0  0  0  0  0  0
   -0.4150    1.1354   -0.3277 C   0  0  0  0  0  0  0  0  0  0  0  0
   -0.7910    2.2130   -0.7770 O   0  0  0  0  0  0  0  0  0  0  0  0
   -1.2773    0.1419    0.1102 N   0  0  0  0  0  0  0  0  0  0  0  0
   -2.7364    0.2792    0.2012 C   0  0  1  0  0  0  0  0  0  0  0  0
   -3.3836    0.6401   -1.1633 C   0  0  0  0  0  0  0  0  0  0  0  0
   -4.9118    0.7661   -1.0274 C   0  0  2  0  0  0  0  0  0  0  0  0
   -5.2367    1.8706   -0.0076 C   0  0  0  0  0  0  0  0  0  0  0  0
   -4.6379    1.5136    1.3624 C   0  0  1  0  0  0  0  0  0  0  0  0
   -5.2227    0.1761    1.8399 C   0  0  0  0  0  0  0  0  0  0  0  0
   -4.8913   -0.9359    0.8281 C   0  0  1  0  0  0  0  0  0  0  0  0
   -5.5031   -0.5617   -0.5333 C   0  0  0  0  0  0  0  0  0  0  0  0
   -3.3507   -1.0704    0.7190 C   0  0  1  0  0  0  0  0  0  0  0  0
   -2.9578   -2.3018   -0.1121 C   0  0  0  0  0  0  0  0  0  0  0  0
   -3.1117    1.3835    1.2282 C   0  0  0  0  0  0  0  0  0  0  0  0
    1.6644   -0.4521   -0.4638 C   0  0  0  0  0  0  0  0  0  0  0  0
    1.0616   -1.6795   -1.0453 C   0  0  0  0  0  0  0  0  0  0  0  0
    2.9902   -0.2607   -0.1006 C   0  0  0  0  0  0  0  0  0  0  0  0
    4.1189   -1.1804   -0.1638 C   0  0  0  0  0  0  0  0  0  0  0  0
    4.5347   -1.8651    0.9836 C   0  0  0  0  0  0  0  0  0  0  0  0
    5.6167   -2.7452    0.9229 C   0  0  0  0  0  0  0  0  0  0  0  0
    6.2844   -2.9476   -0.2844 C   0  0  0  0  0  0  0  0  0  0  0  0
    5.8701   -2.2738   -1.4326 C   0  0  0  0  0  0  0  0  0  0  0  0
    4.7881   -1.3939   -1.3736 C   0  0  0  0  0  0  0  0  0  0  0  0
    5.5595    3.2041   -2.1087 H   0  0  0  0  0  0  0  0  0  0  0  0
    6.0257    1.6707   -1.3557 H   0  0  0  0  0  0  0  0  0  0  0  0
    4.4070    1.8648   -2.0619 H   0  0  0  0  0  0  0  0  0  0  0  0
    5.4821    3.4587    0.3215 H   0  0  0  0  0  0  0  0  0  0  0  0
    3.8557    3.5852   -0.3418 H   0  0  0  0  0  0  0  0  0  0  0  0
    3.9813    2.1914    1.7613 H   0  0  0  0  0  0  0  0  0  0  0  0
    5.0615    1.0633    0.9483 H   0  0  0  0  0  0  0  0  0  0  0  0
   -0.8474   -0.5537    0.7055 H   0  0  0  0  0  0  0  0  0  0  0  0
   -2.9943    1.5910   -1.5439 H   0  0  0  0  0  0  0  0  0  0  0  0
   -3.1313   -0.1077   -1.9242 H   0  0  0  0  0  0  0  0  0  0  0  0
   -5.3475    1.0245   -1.9992 H   0  0  0  0  0  0  0  0  0  0  0  0
   -6.3235    1.9922    0.0792 H   0  0  0  0  0  0  0  0  0  0  0  0
   -4.8363    2.8314   -0.3539 H   0  0  0  0  0  0  0  0  0  0  0  0
   -4.8784    2.3004    2.0862 H   0  0  0  0  0  0  0  0  0  0  0  0
   -4.8175   -0.0804    2.8264 H   0  0  0  0  0  0  0  0  0  0  0  0
   -6.3100    0.2635    1.9574 H   0  0  0  0  0  0  0  0  0  0  0  0
   -5.3270   -1.8790    1.1788 H   0  0  0  0  0  0  0  0  0  0  0  0
   -6.5925   -0.4703   -0.4373 H   0  0  0  0  0  0  0  0  0  0  0  0
   -5.3255   -1.3521   -1.2707 H   0  0  0  0  0  0  0  0  0  0  0  0
   -2.9578   -1.2581    1.7295 H   0  0  0  0  0  0  0  0  0  0  0  0
   -1.8798   -2.4817   -0.0616 H   0  0  0  0  0  0  0  0  0  0  0  0
   -3.4506   -3.1981    0.2804 H   0  0  0  0  0  0  0  0  0  0  0  0
   -3.2285   -2.2101   -1.1666 H   0  0  0  0  0  0  0  0  0  0  0  0
   -2.6698    1.1534    2.2068 H   0  0  0  0  0  0  0  0  0  0  0  0
   -2.6962    2.3531    0.9280 H   0  0  0  0  0  0  0  0  0  0  0  0
    0.6846   -2.3286   -0.2489 H   0  0  0  0  0  0  0  0  0  0  0  0
    0.2330   -1.4340   -1.7169 H   0  0  0  0  0  0  0  0  0  0  0  0
    1.7929   -2.2469   -1.6293 H   0  0  0  0  0  0  0  0  0  0  0  0
    4.0172   -1.7186    1.9288 H   0  0  0  0  0  0  0  0  0  0  0  0
    5.9370   -3.2747    1.8166 H   0  0  0  0  0  0  0  0  0  0  0  0
    7.1264   -3.6338   -0.3314 H   0  0  0  0  0  0  0  0  0  0  0  0
    6.3880   -2.4344   -2.3747 H   0  0  0  0  0  0  0  0  0  0  0  0
    4.4705   -0.8752   -2.2754 H   0  0  0  0  0  0  0  0  0  0  0  0
  1  2  1  0
  2  3  1  0
  3  4  1  0
  4  5  1  0
  5  6  2  0
  6  7  1  0
  7  8  2  0
  7  9  1  0
 10  9  1  6
 10 11  1  0
 11 12  1  0
 12 13  1  0
 13 14  1  0
 14 15  1  0
 15 16  1  0
 16 17  1  0
 16 18  1  0
 18 19  1  0
 14 20  1  0
  6 21  1  0
 21 22  1  0
 21 23  2  0
 23 24  1  0
 24 25  2  0
 25 26  1  0
 26 27  2  0
 27 28  1  0
 28 29  2  0
 23  4  1  0
 29 24  1  0
 18 10  1  0
 20 10  1  0
 17 12  1  0
  1 30  1  0
  1 31  1  0
  1 32  1  0
  2 33  1  0
  2 34  1  0
  3 35  1  0
  3 36  1  0
  9 37  1  0
 11 38  1  0
 11 39  1  0
 12 40  1  6
 13 41  1  0
 13 42  1  0
 14 43  1  1
 15 44  1  0
 15 45  1  0
 16 46  1  1
 17 47  1  0
 17 48  1  0
 18 49  1  1
 19 50  1  0
 19 51  1  0
 19 52  1  0
 20 53  1  0
 20 54  1  0
 22 55  1  0
 22 56  1  0
 22 57  1  0
 25 58  1  0
 26 59  1  0
 27 60  1  0
 28 61  1  0
 29 62  1  0
M  END
>  <_SMILES>  (73) 
CCCn1nc(C(=O)N[C@@]23C[C@@H]4C[C@@H](C[C@@H](C4)[C@H]2C)C3)c(C)c1-c1ccccc1

$$$$

     RDKit          3D

 65 69  0  0  0  0  0  0  0  0999 V2000
    5.7264   -3.7781    1.0517 C   0  0  0  0  0  0  0  0  0  0  0  0
    5.6545   -2.3141    1.4568 C   0  0  0  0  0  0  0  0  0  0  0  0
    4.2983   -1.6687    1.1687 C   0  0  0  0  0  0  0  0  0  0  0  0
    3.9739   -1.5939   -0.3226 C   0  0  0  0  0  0  0  0  0  0  0  0
    2.7457   -0.8555   -0.5752 N   0  0  0  0  0  0  0  0  0  0  0  0
    1.5758   -1.5094   -0.4861 N   0  0  0  0  0  0  0  0  0  0  0  0
    0.6431   -0.5916   -0.7901 C   0  0  0  0  0  0  0  0  0  0  0  0
   -0.7927   -0.9404   -0.7880 C   0  0  0  0  0  0  0  0  0  0  0  0
   -1.2225   -1.9890   -1.2571 O   0  0  0  0  0  0  0  0  0  0  0  0
   -1.5927    0.0129   -0.1766 N   0  0  0  0  0  0  0  0  0  0  0  0
   -3.0278   -0.1450    0.0915 C   0  0  1  0  0  0  0  0  0  0  0  0
   -3.2662   -1.3194    1.0810 C   0  0  0  0  0  0  0  0  0  0  0  0
   -4.7622   -1.4736    1.4009 C   0  0  2  0  0  0  0  0  0  0  0  0
   -5.5321   -1.7438    0.0981 C   0  0  0  0  0  0  0  0  0  0  0  0
   -5.3427   -0.5701   -0.8776 C   0  0  1  0  0  0  0  0  0  0  0  0
   -5.8673    0.7155   -0.2226 C   0  0  0  0  0  0  0  0  0  0  0  0
   -5.0856    1.0036    1.0711 C   0  0  1  0  0  0  0  0  0  0  0  0
   -5.2824   -0.1771    2.0392 C   0  0  0  0  0  0  0  0  0  0  0  0
   -3.5721    1.1606    0.7743 C   0  0  2  0  0  0  0  0  0  0  0  0
   -3.2913    2.4489   -0.0148 C   0  0  0  0  0  0  0  0  0  0  0  0
   -3.8450   -0.4199   -1.1999 C   0  0  0  0  0  0  0  0  0  0  0  0
    1.2505    0.6751   -1.0746 C   0  0  0  0  0  0  0  0  0  0  0  0
    0.5788    1.9354   -1.4846 C   0  0  0  0  0  0  0  0  0  0  0  0
    2.6121    0.4698   -0.9061 C   0  0  0  0  0  0  0  0  0  0  0  0
    3.7263    1.3965   -1.0535 C   0  0  0  0  0  0  0  0  0  0  0  0
    4.3188    1.5911   -2.3060 C   0  0  0  0  0  0  0  0  0  0  0  0
    5.3888    2.4763   -2.4464 C   0  0  0  0  0  0  0  0  0  0  0  0
    5.8683    3.1725   -1.3374 C   0  0  0  0  0  0  0  0  0  0  0  0
    5.2775    2.9872   -0.0880 C   0  0  0  0  0  0  0  0  0  0  0  0
    4.2070    2.1027    0.0541 C   0  0  0  0  0  0  0  0  0  0  0  0
    5.6493   -3.8984   -0.0329 H   0  0  0  0  0  0  0  0  0  0  0  0
    4.9248   -4.3560    1.5225 H   0  0  0  0  0  0  0  0  0  0  0  0
    6.6831   -4.2080    1.3653 H   0  0  0  0  0  0  0  0  0  0  0  0
    5.8538   -2.2394    2.5325 H   0  0  0  0  0  0  0  0  0  0  0  0
    6.4487   -1.7553    0.9481 H   0  0  0  0  0  0  0  0  0  0  0  0
    4.3016   -0.6577    1.5944 H   0  0  0  0  0  0  0  0  0  0  0  0
    3.5082   -2.2189    1.6950 H   0  0  0  0  0  0  0  0  0  0  0  0
    4.7842   -1.1121   -0.8788 H   0  0  0  0  0  0  0  0  0  0  0  0
    3.8357   -2.5934   -0.7504 H   0  0  0  0  0  0  0  0  0  0  0  0
   -1.0908    0.6712    0.4046 H   0  0  0  0  0  0  0  0  0  0  0  0
   -2.7022   -1.1510    2.0080 H   0  0  0  0  0  0  0  0  0  0  0  0
   -2.8915   -2.2624    0.6648 H   0  0  0  0  0  0  0  0  0  0  0  0
   -4.9064   -2.3096    2.0946 H   0  0  0  0  0  0  0  0  0  0  0  0
   -6.5984   -1.8819    0.3154 H   0  0  0  0  0  0  0  0  0  0  0  0
   -5.1783   -2.6751   -0.3611 H   0  0  0  0  0  0  0  0  0  0  0  0
   -5.8996   -0.7671   -1.8006 H   0  0  0  0  0  0  0  0  0  0  0  0
   -5.7873    1.5553   -0.9214 H   0  0  0  0  0  0  0  0  0  0  0  0
   -6.9351    0.6068    0.0061 H   0  0  0  0  0  0  0  0  0  0  0  0
   -5.4738    1.9166    1.5381 H   0  0  0  0  0  0  0  0  0  0  0  0
   -6.3453   -0.2832    2.2893 H   0  0  0  0  0  0  0  0  0  0  0  0
   -4.7538    0.0166    2.9807 H   0  0  0  0  0  0  0  0  0  0  0  0
   -3.0525    1.2840    1.7364 H   0  0  0  0  0  0  0  0  0  0  0  0
   -3.7306    3.3118    0.4977 H   0  0  0  0  0  0  0  0  0  0  0  0
   -3.6956    2.4255   -1.0296 H   0  0  0  0  0  0  0  0  0  0  0  0
   -2.2160    2.6360   -0.0912 H   0  0  0  0  0  0  0  0  0  0  0  0
   -3.5067   -1.3391   -1.6910 H   0  0  0  0  0  0  0  0  0  0  0  0
   -3.6938    0.3798   -1.9343 H   0  0  0  0  0  0  0  0  0  0  0  0
   -0.3268    1.7313   -2.0644 H   0  0  0  0  0  0  0  0  0  0  0  0
    0.3037    2.5210   -0.6020 H   0  0  0  0  0  0  0  0  0  0  0  0
    1.2321    2.5506   -2.1113 H   0  0  0  0  0  0  0  0  0  0  0  0
    3.9492    1.0548   -3.1772 H   0  0  0  0  0  0  0  0  0  0  0  0
    5.8466    2.6239   -3.4212 H   0  0  0  0  0  0  0  0  0  0  0  0
    6.7011    3.8626   -1.4479 H   0  0  0  0  0  0  0  0  0  0  0  0
    5.6490    3.5335    0.7753 H   0  0  0  0  0  0  0  0  0  0  0  0
    3.7502    1.9687    1.0318 H   0  0  0  0  0  0  0  0  0  0  0  0
  1  2  1  0
  2  3  1  0
  3  4  1  0
  4  5  1  0
  5  6  1  0
  6  7  2  0
  7  8  1  0
  8  9  2  0
  8 10  1  0
 11 10  1  6
 11 12  1  0
 12 13  1  0
 13 14  1  0
 14 15  1  0
 15 16  1  0
 16 17  1  0
 17 18  1  0
 17 19  1  0
 19 20  1  0
 15 21  1  0
  7 22  1  0
 22 23  1  0
 22 24  2  0
 24 25  1  0
 25 26  2  0
 26 27  1  0
 27 28  2  0
 28 29  1  0
 29 30  2  0
 24  5  1  0
 30 25  1  0
 19 11  1  0
 21 11  1  0
 18 13  1  0
  1 31  1  0
  1 32  1  0
  1 33  1  0
  2 34  1  0
  2 35  1  0
  3 36  1  0
  3 37  1  0
  4 38  1  0
  4 39  1  0
 10 40  1  0
 12 41  1  0
 12 42  1  0
 13 43  1  1
 14 44  1  0
 14 45  1  0
 15 46  1  6
 16 47  1  0
 16 48  1  0
 17 49  1  1
 18 50  1  0
 18 51  1  0
 19 52  1  1
 20 53  1  0
 20 54  1  0
 20 55  1  0
 21 56  1  0
 21 57  1  0
 23 58  1  0
 23 59  1  0
 23 60  1  0
 26 61  1  0
 27 62  1  0
 28 63  1  0
 29 64  1  0
 30 65  1  0
M  END
>  <_SMILES>  (74) 
CCCCn1nc(C(=O)N[C@@]23C[C@@H]4C[C@@H](C[C@@H](C4)[C@@H]2C)C3)c(C)c1-c1ccccc1

$$$$

     RDKit          3D

 65 69  0  0  0  0  0  0  0  0999 V2000
   -4.1193    3.6215    0.5942 C   0  0  0  0  0  0  0  0  0  0  0  0
   -4.0080    2.1057    0.6476 C   0  0  0  0  0  0  0  0  0  0  0  0
   -3.2070    1.6473    1.8676 C   0  0  0  0  0  0  0  0  0  0  0  0
   -3.1382    0.1239    1.9979 C   0  0  0  0  0  0  0  0  0  0  0  0
   -2.3794   -0.5204    0.9390 N   0  0  0  0  0  0  0  0  0  0  0  0
   -1.0456   -0.3258    0.8997 N   0  0  0  0  0  0  0  0  0  0  0  0
   -0.6381   -1.0211   -0.1819 C   0  0  0  0  0  0  0  0  0  0  0  0
    0.7855   -1.0369   -0.5804 C   0  0  0  0  0  0  0  0  0  0  0  0
    1.1876   -1.6156   -1.5828 O   0  0  0  0  0  0  0  0  0  0  0  0
    1.5796   -0.3250    0.2926 N   0  0  0  0  0  0  0  0  0  0  0  0
    2.9898    0.0378    0.1359 C   0  0  1  0  0  0  0  0  0  0  0  0
    3.8717   -1.1425   -0.3509 C   0  0  0  0  0  0  0  0  0  0  0  0
    5.3563   -0.7391   -0.3929 C   0  0  2  0  0  0  0  0  0  0  0  0
    5.8176   -0.3460    1.0178 C   0  0  0  0  0  0  0  0  0  0  0  0
    4.9850    0.8397    1.5243 C   0  0  1  0  0  0  0  0  0  0  0  0
    5.1625    2.0330    0.5746 C   0  0  0  0  0  0  0  0  0  0  0  0
    4.6919    1.6542   -0.8415 C   0  0  1  0  0  0  0  0  0  0  0  0
    5.5341    0.4626   -1.3351 C   0  0  0  0  0  0  0  0  0  0  0  0
    3.1834    1.2835   -0.7917 C   0  0  1  0  0  0  0  0  0  0  0  0
    2.6129    1.1361   -2.2075 C   0  0  0  0  0  0  0  0  0  0  0  0
    3.5044    0.4356    1.5538 C   0  0  0  0  0  0  0  0  0  0  0  0
   -1.7354   -1.6728   -0.8195 C   0  0  0  0  0  0  0  0  0  0  0  0
   -1.6754   -2.5295   -2.0321 C   0  0  0  0  0  0  0  0  0  0  0  0
   -2.8474   -1.3382   -0.0611 C   0  0  0  0  0  0  0  0  0  0  0  0
   -4.2443   -1.7163   -0.2341 C   0  0  0  0  0  0  0  0  0  0  0  0
   -4.7978   -2.7456    0.5356 C   0  0  0  0  0  0  0  0  0  0  0  0
   -6.1367   -3.1045    0.3700 C   0  0  0  0  0  0  0  0  0  0  0  0
   -6.9261   -2.4402   -0.5681 C   0  0  0  0  0  0  0  0  0  0  0  0
   -6.3776   -1.4203   -1.3448 C   0  0  0  0  0  0  0  0  0  0  0  0
   -5.0388   -1.0609   -1.1809 C   0  0  0  0  0  0  0  0  0  0  0  0
   -4.6939    3.9283   -0.2853 H   0  0  0  0  0  0  0  0  0  0  0  0
   -4.6263    4.0095    1.4834 H   0  0  0  0  0  0  0  0  0  0  0  0
   -3.1296    4.0853    0.5325 H   0  0  0  0  0  0  0  0  0  0  0  0
   -3.5292    1.7558   -0.2734 H   0  0  0  0  0  0  0  0  0  0  0  0
   -5.0147    1.6734    0.6791 H   0  0  0  0  0  0  0  0  0  0  0  0
   -3.6756    2.0482    2.7749 H   0  0  0  0  0  0  0  0  0  0  0  0
   -2.1953    2.0688    1.8214 H   0  0  0  0  0  0  0  0  0  0  0  0
   -4.1446   -0.3026    2.0326 H   0  0  0  0  0  0  0  0  0  0  0  0
   -2.6431   -0.1460    2.9386 H   0  0  0  0  0  0  0  0  0  0  0  0
    1.0299    0.1593    1.0007 H   0  0  0  0  0  0  0  0  0  0  0  0
    3.7407   -2.0072    0.3131 H   0  0  0  0  0  0  0  0  0  0  0  0
    3.5773   -1.4801   -1.3495 H   0  0  0  0  0  0  0  0  0  0  0  0
    5.9566   -1.5821   -0.7532 H   0  0  0  0  0  0  0  0  0  0  0  0
    5.7116   -1.1990    1.6993 H   0  0  0  0  0  0  0  0  0  0  0  0
    6.8817   -0.0796    1.0049 H   0  0  0  0  0  0  0  0  0  0  0  0
    5.3134    1.1174    2.5321 H   0  0  0  0  0  0  0  0  0  0  0  0
    4.5916    2.8945    0.9422 H   0  0  0  0  0  0  0  0  0  0  0  0
    6.2158    2.3387    0.5502 H   0  0  0  0  0  0  0  0  0  0  0  0
    4.8455    2.5116   -1.5075 H   0  0  0  0  0  0  0  0  0  0  0  0
    6.5927    0.7490   -1.3738 H   0  0  0  0  0  0  0  0  0  0  0  0
    5.2527    0.1858   -2.3571 H   0  0  0  0  0  0  0  0  0  0  0  0
    2.6437    2.1306   -0.3429 H   0  0  0  0  0  0  0  0  0  0  0  0
    2.8744    2.0075   -2.8180 H   0  0  0  0  0  0  0  0  0  0  0  0
    2.9827    0.2470   -2.7242 H   0  0  0  0  0  0  0  0  0  0  0  0
    1.5201    1.0861   -2.1844 H   0  0  0  0  0  0  0  0  0  0  0  0
    3.3643   -0.4012    2.2518 H   0  0  0  0  0  0  0  0  0  0  0  0
    2.9063    1.2660    1.9534 H   0  0  0  0  0  0  0  0  0  0  0  0
   -1.3334   -1.9469   -2.8935 H   0  0  0  0  0  0  0  0  0  0  0  0
   -2.6528   -2.9531   -2.2820 H   0  0  0  0  0  0  0  0  0  0  0  0
   -0.9835   -3.3637   -1.8778 H   0  0  0  0  0  0  0  0  0  0  0  0
   -4.1875   -3.2770    1.2622 H   0  0  0  0  0  0  0  0  0  0  0  0
   -6.5619   -3.9060    0.9686 H   0  0  0  0  0  0  0  0  0  0  0  0
   -7.9678   -2.7223   -0.6989 H   0  0  0  0  0  0  0  0  0  0  0  0
   -6.9908   -0.9077   -2.0815 H   0  0  0  0  0  0  0  0  0  0  0  0
   -4.6183   -0.2685   -1.7959 H   0  0  0  0  0  0  0  0  0  0  0  0
  1  2  1  0
  2  3  1  0
  3  4  1  0
  4  5  1  0
  5  6  1  0
  6  7  2  0
  7  8  1  0
  8  9  2  0
  8 10  1  0
 11 10  1  1
 11 12  1  0
 12 13  1  0
 13 14  1  0
 14 15  1  0
 15 16  1  0
 16 17  1  0
 17 18  1  0
 17 19  1  0
 19 20  1  0
 15 21  1  0
  7 22  1  0
 22 23  1  0
 22 24  2  0
 24 25  1  0
 25 26  2  0
 26 27  1  0
 27 28  2  0
 28 29  1  0
 29 30  2  0
 24  5  1  0
 30 25  1  0
 19 11  1  0
 21 11  1  0
 18 13  1  0
  1 31  1  0
  1 32  1  0
  1 33  1  0
  2 34  1  0
  2 35  1  0
  3 36  1  0
  3 37  1  0
  4 38  1  0
  4 39  1  0
 10 40  1  0
 12 41  1  0
 12 42  1  0
 13 43  1  6
 14 44  1  0
 14 45  1  0
 15 46  1  1
 16 47  1  0
 16 48  1  0
 17 49  1  6
 18 50  1  0
 18 51  1  0
 19 52  1  1
 20 53  1  0
 20 54  1  0
 20 55  1  0
 21 56  1  0
 21 57  1  0
 23 58  1  0
 23 59  1  0
 23 60  1  0
 26 61  1  0
 27 62  1  0
 28 63  1  0
 29 64  1  0
 30 65  1  0
M  END
>  <_SMILES>  (75) 
CCCCn1nc(C(=O)N[C@@]23C[C@@H]4C[C@@H](C[C@@H](C4)[C@H]2C)C3)c(C)c1-c1ccccc1

$$$$

     RDKit          3D

 45 47  0  0  0  0  0  0  0  0999 V2000
    0.7736    2.9634   -0.9383 C   0  0  0  0  0  0  0  0  0  0  0  0
    0.5364    1.6022   -0.3911 C   0  0  0  0  0  0  0  0  0  0  0  0
    1.5006    0.5589   -0.2536 C   0  0  0  0  0  0  0  0  0  0  0  0
    2.9286    0.5898   -0.6239 C   0  0  0  0  0  0  0  0  0  0  0  0
    3.4761    1.5671   -1.1271 O   0  0  0  0  0  0  0  0  0  0  0  0
    3.5739   -0.5999   -0.3467 N   0  0  0  0  0  0  0  0  0  0  0  0
    4.9537   -0.8319   -0.5987 C   0  0  0  0  0  0  0  0  0  0  0  0
    5.6160   -2.0991   -0.1318 C   0  0  0  0  0  0  0  0  0  0  0  0
    5.9505   -0.7927    0.5259 C   0  0  0  0  0  0  0  0  0  0  0  0
    0.9490   -0.5457    0.2892 N   0  0  0  0  0  0  0  0  0  0  0  0
   -0.3455   -0.2170    0.4726 N   0  0  0  0  0  0  0  0  0  0  0  0
   -1.2434   -1.2127    1.0375 C   0  0  0  0  0  0  0  0  0  0  0  0
   -2.0790   -1.9633   -0.0127 C   0  0  0  0  0  0  0  0  0  0  0  0
   -3.1412   -2.8146    0.6855 C   0  0  0  0  0  0  0  0  0  0  0  0
   -1.2125   -2.8491   -0.9106 C   0  0  0  0  0  0  0  0  0  0  0  0
   -0.6470    1.0707    0.0994 C   0  0  0  0  0  0  0  0  0  0  0  0
   -1.9704    1.6721    0.2089 C   0  0  0  0  0  0  0  0  0  0  0  0
   -2.7899    1.7782   -0.9202 C   0  0  0  0  0  0  0  0  0  0  0  0
   -4.0584    2.3516   -0.8171 C   0  0  0  0  0  0  0  0  0  0  0  0
   -4.5108    2.8274    0.4129 C   0  0  0  0  0  0  0  0  0  0  0  0
   -3.6948    2.7348    1.5397 C   0  0  0  0  0  0  0  0  0  0  0  0
   -2.4261    2.1611    1.4382 C   0  0  0  0  0  0  0  0  0  0  0  0
    1.0830    2.9040   -1.9867 H   0  0  0  0  0  0  0  0  0  0  0  0
   -0.1251    3.5856   -0.8899 H   0  0  0  0  0  0  0  0  0  0  0  0
    1.5591    3.4725   -0.3707 H   0  0  0  0  0  0  0  0  0  0  0  0
    2.9845   -1.3205    0.0630 H   0  0  0  0  0  0  0  0  0  0  0  0
    5.2843   -0.4384   -1.5582 H   0  0  0  0  0  0  0  0  0  0  0  0
    6.3604   -2.5466   -0.7801 H   0  0  0  0  0  0  0  0  0  0  0  0
    5.0321   -2.8151    0.4338 H   0  0  0  0  0  0  0  0  0  0  0  0
    6.9178   -0.3484    0.3223 H   0  0  0  0  0  0  0  0  0  0  0  0
    5.5843   -0.6167    1.5305 H   0  0  0  0  0  0  0  0  0  0  0  0
   -1.8914   -0.6933    1.7520 H   0  0  0  0  0  0  0  0  0  0  0  0
   -0.6329   -1.9124    1.6224 H   0  0  0  0  0  0  0  0  0  0  0  0
   -2.5975   -1.2407   -0.6538 H   0  0  0  0  0  0  0  0  0  0  0  0
   -3.7651   -3.3373   -0.0472 H   0  0  0  0  0  0  0  0  0  0  0  0
   -2.6832   -3.5655    1.3384 H   0  0  0  0  0  0  0  0  0  0  0  0
   -3.8000   -2.1890    1.2972 H   0  0  0  0  0  0  0  0  0  0  0  0
   -0.6351   -3.5693   -0.3210 H   0  0  0  0  0  0  0  0  0  0  0  0
   -0.5114   -2.2506   -1.5006 H   0  0  0  0  0  0  0  0  0  0  0  0
   -1.8338   -3.4116   -1.6159 H   0  0  0  0  0  0  0  0  0  0  0  0
   -2.4439    1.4143   -1.8851 H   0  0  0  0  0  0  0  0  0  0  0  0
   -4.6913    2.4306   -1.6973 H   0  0  0  0  0  0  0  0  0  0  0  0
   -5.4973    3.2773    0.4918 H   0  0  0  0  0  0  0  0  0  0  0  0
   -4.0438    3.1149    2.4964 H   0  0  0  0  0  0  0  0  0  0  0  0
   -1.7931    2.1046    2.3207 H   0  0  0  0  0  0  0  0  0  0  0  0
  1  2  1  0
  2  3  1  0
  3  4  1  0
  4  5  2  0
  4  6  1  0
  6  7  1  0
  7  8  1  0
  8  9  1  0
  3 10  2  0
 10 11  1  0
 11 12  1  0
 12 13  1  0
 13 14  1  0
 13 15  1  0
 11 16  1  0
 16 17  1  0
 17 18  2  0
 18 19  1  0
 19 20  2  0
 20 21  1  0
 21 22  2  0
 16  2  2  0
 22 17  1  0
  9  7  1  0
  1 23  1  0
  1 24  1  0
  1 25  1  0
  6 26  1  0
  7 27  1  0
  8 28  1  0
  8 29  1  0
  9 30  1  0
  9 31  1  0
 12 32  1  0
 12 33  1  0
 13 34  1  0
 14 35  1  0
 14 36  1  0
 14 37  1  0
 15 38  1  0
 15 39  1  0
 15 40  1  0
 18 41  1  0
 19 42  1  0
 20 43  1  0
 21 44  1  0
 22 45  1  0
M  END
>  <_SMILES>  (76) 
Cc1c(C(=O)NC2CC2)nn(CC(C)C)c1-c1ccccc1

$$$$
