
     RDKit          3D

 40 43  0  0  0  0  0  0  0  0999 V2000
    6.0400    2.4590  -58.8090 O   0  0  0  0  0  0  0  0  0  0  0  0
    6.2340    2.4770  -60.0180 C   0  0  0  0  0  0  0  0  0  0  0  0
    7.4020    2.9050  -60.6180 N   0  0  0  0  0  0  0  0  0  0  0  0
    8.5580    3.4420  -59.8920 C   0  0  2  0  0  0  0  0  0  0  0  0
    9.6700    3.7770  -60.9250 C   0  0  0  0  0  0  0  0  0  0  0  0
   10.9130    4.3530  -60.2310 C   0  0  1  0  0  0  0  0  0  0  0  0
   10.5230    5.6340  -59.4780 C   0  0  0  0  0  0  0  0  0  0  0  0
    9.4430    5.3190  -58.4310 C   0  0  2  0  0  0  0  0  0  0  0  0
    9.9890    4.2780  -57.4380 C   0  0  0  0  0  0  0  0  0  0  0  0
   10.3830    2.9910  -58.1830 C   0  0  2  0  0  0  0  0  0  0  0  0
   11.4570    3.3210  -59.2310 C   0  0  0  0  0  0  0  0  0  0  0  0
    9.1420    2.4140  -58.8890 C   0  0  0  0  0  0  0  0  0  0  0  0
    8.2020    4.7450  -59.1360 C   0  0  0  0  0  0  0  0  0  0  0  0
    5.1460    2.0570  -60.9450 C   0  0  0  0  0  0  0  0  0  0  0  0
    5.3390    2.2310  -62.3220 C   0  0  0  0  0  0  0  0  0  0  0  0
    4.3440    1.8500  -63.2230 C   0  0  0  0  0  0  0  0  0  0  0  0
    3.1510    1.3040  -62.7530 C   0  0  0  0  0  0  0  0  0  0  0  0
    2.9450    1.1440  -61.3820 C   0  0  0  0  0  0  0  0  0  0  0  0
    3.9390    1.5240  -60.4760 C   0  0  0  0  0  0  0  0  0  0  0  0
    7.3550    3.1110  -61.6070 H   0  0  0  0  0  0  0  0  0  0  0  0
    9.9510    2.8585  -61.4612 H   0  0  0  0  0  0  0  0  0  0  0  0
    9.2806    4.5298  -61.6262 H   0  0  0  0  0  0  0  0  0  0  0  0
   11.6843    4.5845  -60.9804 H   0  0  0  0  0  0  0  0  0  0  0  0
   11.4102    6.0450  -58.9741 H   0  0  0  0  0  0  0  0  0  0  0  0
   10.1279    6.3687  -60.1950 H   0  0  0  0  0  0  0  0  0  0  0  0
    9.1698    6.2387  -57.8929 H   0  0  0  0  0  0  0  0  0  0  0  0
   10.8736    4.6893  -56.9298 H   0  0  0  0  0  0  0  0  0  0  0  0
    9.2087    4.0415  -56.6996 H   0  0  0  0  0  0  0  0  0  0  0  0
   10.7783    2.2541  -57.4683 H   0  0  0  0  0  0  0  0  0  0  0  0
   12.3435    3.7336  -58.7272 H   0  0  0  0  0  0  0  0  0  0  0  0
   11.7299    2.4025  -59.7712 H   0  0  0  0  0  0  0  0  0  0  0  0
    9.4268    1.5007  -59.4320 H   0  0  0  0  0  0  0  0  0  0  0  0
    8.3781    2.1837  -58.1318 H   0  0  0  0  0  0  0  0  0  0  0  0
    7.4282    4.5273  -58.3852 H   0  0  0  0  0  0  0  0  0  0  0  0
    7.8320    5.4853  -59.8606 H   0  0  0  0  0  0  0  0  0  0  0  0
    6.2772    2.6690  -62.6935 H   0  0  0  0  0  0  0  0  0  0  0  0
    4.5012    1.9805  -64.3039 H   0  0  0  0  0  0  0  0  0  0  0  0
    2.3697    0.9984  -63.4645 H   0  0  0  0  0  0  0  0  0  0  0  0
    1.9996    0.7185  -61.0142 H   0  0  0  0  0  0  0  0  0  0  0  0
    3.7733    1.4045  -59.3951 H   0  0  0  0  0  0  0  0  0  0  0  0
  1  2  2  0
  2  3  1  0
  4  3  1  6
  4  5  1  0
  5  6  1  0
  6  7  1  0
  7  8  1  0
  8  9  1  0
  9 10  1  0
 10 11  1  0
 10 12  1  0
  8 13  1  0
  2 14  1  0
 14 15  2  0
 15 16  1  0
 16 17  2  0
 17 18  1  0
 18 19  2  0
 12  4  1  0
 19 14  1  0
 13  4  1  0
 11  6  1  0
  3 20  1  0
  5 21  1  0
  5 22  1  0
  6 23  1  6
  7 24  1  0
  7 25  1  0
  8 26  1  1
  9 27  1  0
  9 28  1  0
 10 29  1  1
 11 30  1  0
 11 31  1  0
 12 32  1  0
 12 33  1  0
 13 34  1  0
 13 35  1  0
 15 36  1  0
 16 37  1  0
 17 38  1  0
 18 39  1  0
 19 40  1  0
M  END
>  <meeko>  (1) 
{"is_sidechain": false}

$$$$

     RDKit          3D

 40 43  0  0  0  0  0  0  0  0999 V2000
    6.4480    2.2130  -56.4670 O   0  0  0  0  0  0  0  0  0  0  0  0
    7.4950    1.6180  -56.2440 C   0  0  0  0  0  0  0  0  0  0  0  0
    8.7140    1.9340  -56.8050 N   0  0  0  0  0  0  0  0  0  0  0  0
    8.9210    3.0090  -57.7850 C   0  0  2  0  0  0  0  0  0  0  0  0
    8.7600    4.4130  -57.1500 C   0  0  0  0  0  0  0  0  0  0  0  0
    9.0330    5.5130  -58.1910 C   0  0  1  0  0  0  0  0  0  0  0  0
   10.4700    5.3720  -58.7160 C   0  0  0  0  0  0  0  0  0  0  0  0
   10.6560    3.9940  -59.3700 C   0  0  2  0  0  0  0  0  0  0  0  0
    9.6680    3.8470  -60.5380 C   0  0  0  0  0  0  0  0  0  0  0  0
    8.2250    3.9800  -60.0250 C   0  0  2  0  0  0  0  0  0  0  0  0
    8.0470    5.3570  -59.3620 C   0  0  0  0  0  0  0  0  0  0  0  0
    7.9510    2.8780  -58.9860 C   0  0  0  0  0  0  0  0  0  0  0  0
   10.3720    2.9000  -58.3290 C   0  0  0  0  0  0  0  0  0  0  0  0
    7.4810    0.4390  -55.3360 C   0  0  0  0  0  0  0  0  0  0  0  0
    6.2910   -0.2060  -54.9810 C   0  0  0  0  0  0  0  0  0  0  0  0
    6.3270   -1.3170  -54.1320 C   0  0  0  0  0  0  0  0  0  0  0  0
    7.5480   -1.7900  -53.6420 C   0  0  0  0  0  0  0  0  0  0  0  0
    7.5120   -3.1640  -52.5940 Cl  0  0  0  0  0  0  0  0  0  0  0  0
    8.7400   -1.1550  -54.0080 C   0  0  0  0  0  0  0  0  0  0  0  0
   10.2830   -1.6890  -53.4440 Cl  0  0  0  0  0  0  0  0  0  0  0  0
    8.7060   -0.0460  -54.8580 C   0  0  0  0  0  0  0  0  0  0  0  0
    9.4460    1.2380  -56.7450 H   0  0  0  0  0  0  0  0  0  0  0  0
    7.7337    4.5221  -56.7695 H   0  0  0  0  0  0  0  0  0  0  0  0
    9.4836    4.5154  -56.3279 H   0  0  0  0  0  0  0  0  0  0  0  0
    8.9054    6.5020  -57.7267 H   0  0  0  0  0  0  0  0  0  0  0  0
   10.6650    6.1581  -59.4603 H   0  0  0  0  0  0  0  0  0  0  0  0
   11.1734    5.4718  -57.8762 H   0  0  0  0  0  0  0  0  0  0  0  0
   11.6864    3.8972  -59.7426 H   0  0  0  0  0  0  0  0  0  0  0  0
    9.8641    4.6329  -61.2822 H   0  0  0  0  0  0  0  0  0  0  0  0
    9.7979    2.8566  -60.9987 H   0  0  0  0  0  0  0  0  0  0  0  0
    7.5228    3.8793  -60.8657 H   0  0  0  0  0  0  0  0  0  0  0  0
    8.2372    6.1456  -60.1050 H   0  0  0  0  0  0  0  0  0  0  0  0
    7.0189    5.4418  -58.9800 H   0  0  0  0  0  0  0  0  0  0  0  0
    6.9155    2.9695  -58.6263 H   0  0  0  0  0  0  0  0  0  0  0  0
    8.1033    1.8972  -59.4601 H   0  0  0  0  0  0  0  0  0  0  0  0
   10.5068    1.9141  -58.7979 H   0  0  0  0  0  0  0  0  0  0  0  0
   11.0706    3.0272  -57.4889 H   0  0  0  0  0  0  0  0  0  0  0  0
    5.3290    0.1601  -55.3689 H   0  0  0  0  0  0  0  0  0  0  0  0
    5.3910   -1.8206  -53.8487 H   0  0  0  0  0  0  0  0  0  0  0  0
    9.6437    0.4477  -55.1528 H   0  0  0  0  0  0  0  0  0  0  0  0
  1  2  2  0
  2  3  1  0
  4  3  1  1
  4  5  1  0
  5  6  1  0
  6  7  1  0
  7  8  1  0
  8  9  1  0
  9 10  1  0
 10 11  1  0
 10 12  1  0
  8 13  1  0
  2 14  1  0
 14 15  1  0
 15 16  2  0
 16 17  1  0
 17 18  1  0
 17 19  2  0
 19 20  1  0
 19 21  1  0
 12  4  1  0
 21 14  2  0
 13  4  1  0
 11  6  1  0
  3 22  1  0
  5 23  1  0
  5 24  1  0
  6 25  1  1
  7 26  1  0
  7 27  1  0
  8 28  1  6
  9 29  1  0
  9 30  1  0
 10 31  1  6
 11 32  1  0
 11 33  1  0
 12 34  1  0
 12 35  1  0
 13 36  1  0
 13 37  1  0
 15 38  1  0
 16 39  1  0
 21 40  1  0
M  END
>  <meeko>  (2) 
{"is_sidechain": false}

$$$$

     RDKit          3D

 46 49  0  0  0  0  0  0  0  0999 V2000
    8.8910   -2.9190  -51.6490 C   0  0  0  0  0  0  0  0  0  0  0  0
    8.7930   -1.8700  -52.7240 C   0  0  0  0  0  0  0  0  0  0  0  0
    7.6970   -0.9940  -52.7260 C   0  0  0  0  0  0  0  0  0  0  0  0
    7.5760   -0.0040  -53.7030 C   0  0  0  0  0  0  0  0  0  0  0  0
    8.5470    0.1180  -54.6990 C   0  0  0  0  0  0  0  0  0  0  0  0
    8.3800    1.1830  -55.7260 C   0  0  0  0  0  0  0  0  0  0  0  0
    7.2560    1.4950  -56.0980 O   0  0  0  0  0  0  0  0  0  0  0  0
    9.5500    1.7270  -56.2210 N   0  0  0  0  0  0  0  0  0  0  0  0
    9.6100    2.7220  -57.2980 C   0  0  2  0  0  0  0  0  0  0  0  0
    9.1000    4.1100  -56.8360 C   0  0  0  0  0  0  0  0  0  0  0  0
    9.2260    5.1400  -57.9710 C   0  0  1  0  0  0  0  0  0  0  0  0
   10.7010    5.2700  -58.3790 C   0  0  0  0  0  0  0  0  0  0  0  0
   11.2320    3.9110  -58.8620 C   0  0  2  0  0  0  0  0  0  0  0  0
   10.4070    3.4410  -60.0700 C   0  0  0  0  0  0  0  0  0  0  0  0
    8.9280    3.3010  -59.6720 C   0  0  2  0  0  0  0  0  0  0  0  0
    8.4040    4.6620  -59.1820 C   0  0  0  0  0  0  0  0  0  0  0  0
    8.8010    2.2700  -58.5380 C   0  0  0  0  0  0  0  0  0  0  0  0
   11.0940    2.8850  -57.7270 C   0  0  0  0  0  0  0  0  0  0  0  0
    9.6550   -0.7390  -54.6950 C   0  0  0  0  0  0  0  0  0  0  0  0
    9.7870   -1.7390  -53.7150 C   0  0  0  0  0  0  0  0  0  0  0  0
   10.9940   -2.6370  -53.7370 C   0  0  0  0  0  0  0  0  0  0  0  0
    8.8460   -2.4371  -50.6612 H   0  0  0  0  0  0  0  0  0  0  0  0
    8.0551   -3.6268  -51.7501 H   0  0  0  0  0  0  0  0  0  0  0  0
    9.8436   -3.4597  -51.7501 H   0  0  0  0  0  0  0  0  0  0  0  0
    6.9242   -1.0883  -51.9489 H   0  0  0  0  0  0  0  0  0  0  0  0
    6.7150    0.6805  -53.6881 H   0  0  0  0  0  0  0  0  0  0  0  0
   10.4020    1.2200  -56.0260 H   0  0  0  0  0  0  0  0  0  0  0  0
    8.0440    4.0265  -56.5396 H   0  0  0  0  0  0  0  0  0  0  0  0
    9.7098    4.4456  -55.9842 H   0  0  0  0  0  0  0  0  0  0  0  0
    8.8506    6.1157  -57.6288 H   0  0  0  0  0  0  0  0  0  0  0  0
   10.7912    6.0064  -59.1912 H   0  0  0  0  0  0  0  0  0  0  0  0
   11.2892    5.6006  -57.5103 H   0  0  0  0  0  0  0  0  0  0  0  0
   12.2886    4.0083  -59.1520 H   0  0  0  0  0  0  0  0  0  0  0  0
   10.4979    4.1772  -60.8823 H   0  0  0  0  0  0  0  0  0  0  0  0
   10.7847    2.4649  -60.4085 H   0  0  0  0  0  0  0  0  0  0  0  0
    8.3411    2.9683  -60.5408 H   0  0  0  0  0  0  0  0  0  0  0  0
    8.4902    5.3989  -59.9941 H   0  0  0  0  0  0  0  0  0  0  0  0
    7.3507    4.5561  -58.8832 H   0  0  0  0  0  0  0  0  0  0  0  0
    7.7416    2.1664  -58.2605 H   0  0  0  0  0  0  0  0  0  0  0  0
    9.1983    1.3061  -58.8887 H   0  0  0  0  0  0  0  0  0  0  0  0
   11.4769    1.9134  -58.0725 H   0  0  0  0  0  0  0  0  0  0  0  0
   11.6708    3.2421  -56.8611 H   0  0  0  0  0  0  0  0  0  0  0  0
   10.4306   -0.6286  -55.4671 H   0  0  0  0  0  0  0  0  0  0  0  0
   11.3003   -2.8649  -52.7054 H   0  0  0  0  0  0  0  0  0  0  0  0
   10.7460   -3.5719  -54.2609 H   0  0  0  0  0  0  0  0  0  0  0  0
   11.8182   -2.1307  -54.2609 H   0  0  0  0  0  0  0  0  0  0  0  0
  1  2  1  0
  2  3  1  0
  3  4  2  0
  4  5  1  0
  5  6  1  0
  6  7  2  0
  6  8  1  0
  9  8  1  1
  9 10  1  0
 10 11  1  0
 11 12  1  0
 12 13  1  0
 13 14  1  0
 14 15  1  0
 15 16  1  0
 15 17  1  0
 13 18  1  0
  5 19  2  0
 19 20  1  0
 20 21  1  0
 20  2  2  0
 17  9  1  0
 18  9  1  0
 16 11  1  0
  1 22  1  0
  1 23  1  0
  1 24  1  0
  3 25  1  0
  4 26  1  0
  8 27  1  0
 10 28  1  0
 10 29  1  0
 11 30  1  1
 12 31  1  0
 12 32  1  0
 13 33  1  6
 14 34  1  0
 14 35  1  0
 15 36  1  6
 16 37  1  0
 16 38  1  0
 17 39  1  0
 17 40  1  0
 18 41  1  0
 18 42  1  0
 19 43  1  0
 21 44  1  0
 21 45  1  0
 21 46  1  0
M  END
>  <meeko>  (3) 
{"is_sidechain": false}

$$$$

     RDKit          3D

 44 47  0  0  0  0  0  0  0  0999 V2000
    7.8600   -2.2780  -51.1190 C   0  0  0  0  0  0  0  0  0  0  0  0
    7.2770   -2.4880  -52.3980 O   0  0  0  0  0  0  0  0  0  0  0  0
    7.4370   -1.4960  -53.3250 C   0  0  0  0  0  0  0  0  0  0  0  0
    8.6350   -0.8520  -53.6410 C   0  0  0  0  0  0  0  0  0  0  0  0
    8.6590    0.1540  -54.6140 C   0  0  0  0  0  0  0  0  0  0  0  0
    7.4810    0.5270  -55.2730 C   0  0  0  0  0  0  0  0  0  0  0  0
    7.4650    1.5900  -56.3160 C   0  0  0  0  0  0  0  0  0  0  0  0
    6.4070    2.1310  -56.6100 O   0  0  0  0  0  0  0  0  0  0  0  0
    8.6910    1.9160  -56.8590 N   0  0  0  0  0  0  0  0  0  0  0  0
    8.9060    2.9940  -57.8320 C   0  0  2  0  0  0  0  0  0  0  0  0
    7.9480    2.8810  -59.0460 C   0  0  0  0  0  0  0  0  0  0  0  0
    8.2340    3.9940  -60.0680 C   0  0  1  0  0  0  0  0  0  0  0  0
    8.0530    5.3630  -59.3910 C   0  0  0  0  0  0  0  0  0  0  0  0
    9.0250    5.5020  -58.2080 C   0  0  2  0  0  0  0  0  0  0  0  0
   10.4680    5.3620  -58.7190 C   0  0  0  0  0  0  0  0  0  0  0  0
   10.6570    3.9930  -59.3900 C   0  0  2  0  0  0  0  0  0  0  0  0
    9.6810    3.8640  -60.5700 C   0  0  0  0  0  0  0  0  0  0  0  0
   10.3600    2.8850  -58.3670 C   0  0  0  0  0  0  0  0  0  0  0  0
    8.7400    4.3900  -57.1820 C   0  0  0  0  0  0  0  0  0  0  0  0
    6.2850   -0.1300  -54.9690 C   0  0  0  0  0  0  0  0  0  0  0  0
    6.2670   -1.1320  -53.9960 C   0  0  0  0  0  0  0  0  0  0  0  0
    7.1323   -2.5401  -50.3368 H   0  0  0  0  0  0  0  0  0  0  0  0
    8.7538   -2.9107  -51.0151 H   0  0  0  0  0  0  0  0  0  0  0  0
    8.1451   -1.2207  -51.0151 H   0  0  0  0  0  0  0  0  0  0  0  0
    9.5631   -1.1362  -53.1235 H   0  0  0  0  0  0  0  0  0  0  0  0
    9.6071    0.6536  -54.8620 H   0  0  0  0  0  0  0  0  0  0  0  0
    9.5090    1.5890  -56.3630 H   0  0  0  0  0  0  0  0  0  0  0  0
    8.0897    1.9025  -59.5282 H   0  0  0  0  0  0  0  0  0  0  0  0
    6.9121    2.9842  -58.6906 H   0  0  0  0  0  0  0  0  0  0  0  0
    7.5391    3.9048  -60.9160 H   0  0  0  0  0  0  0  0  0  0  0  0
    8.2542    6.1596  -60.1223 H   0  0  0  0  0  0  0  0  0  0  0  0
    7.0209    5.4466  -59.0197 H   0  0  0  0  0  0  0  0  0  0  0  0
    8.8929    6.4858  -57.7339 H   0  0  0  0  0  0  0  0  0  0  0  0
   10.6744    6.1576  -59.4500 H   0  0  0  0  0  0  0  0  0  0  0  0
   11.1618    5.4468  -57.8696 H   0  0  0  0  0  0  0  0  0  0  0  0
   11.6909    3.8992  -59.7535 H   0  0  0  0  0  0  0  0  0  0  0  0
    9.8861    4.6593  -61.3017 H   0  0  0  0  0  0  0  0  0  0  0  0
    9.8132    2.8801  -61.0437 H   0  0  0  0  0  0  0  0  0  0  0  0
   10.4929    1.9054  -58.8494 H   0  0  0  0  0  0  0  0  0  0  0  0
   11.0534    2.9959  -57.5203 H   0  0  0  0  0  0  0  0  0  0  0  0
    9.4440    4.4838  -56.3420 H   0  0  0  0  0  0  0  0  0  0  0  0
    7.7051    4.4941  -56.8240 H   0  0  0  0  0  0  0  0  0  0  0  0
    5.3585    0.1420  -55.4959 H   0  0  0  0  0  0  0  0  0  0  0  0
    5.3214   -1.6399  -53.7555 H   0  0  0  0  0  0  0  0  0  0  0  0
  1  2  1  0
  2  3  1  0
  3  4  1  0
  4  5  2  0
  5  6  1  0
  6  7  1  0
  7  8  2  0
  7  9  1  0
 10  9  1  1
 10 11  1  0
 11 12  1  0
 12 13  1  0
 13 14  1  0
 14 15  1  0
 15 16  1  0
 16 17  1  0
 16 18  1  0
 14 19  1  0
  6 20  2  0
 20 21  1  0
 21  3  2  0
 18 10  1  0
 19 10  1  0
 17 12  1  0
  1 22  1  0
  1 23  1  0
  1 24  1  0
  4 25  1  0
  5 26  1  0
  9 27  1  0
 11 28  1  0
 11 29  1  0
 12 30  1  6
 13 31  1  0
 13 32  1  0
 14 33  1  1
 15 34  1  0
 15 35  1  0
 16 36  1  6
 17 37  1  0
 17 38  1  0
 18 39  1  0
 18 40  1  0
 19 41  1  0
 19 42  1  0
 20 43  1  0
 21 44  1  0
M  END
>  <meeko>  (4) 
{"is_sidechain": false}

$$$$

     RDKit          3D

 43 46  0  0  0  0  0  0  0  0999 V2000
    7.5260   -2.3820  -52.0860 C   0  0  0  0  0  0  0  0  0  0  0  0
    7.4920   -1.3810  -53.2030 C   0  0  0  0  0  0  0  0  0  0  0  0
    8.6140   -0.5890  -53.4770 C   0  0  0  0  0  0  0  0  0  0  0  0
    8.5720    0.3680  -54.4940 C   0  0  0  0  0  0  0  0  0  0  0  0
    7.4070    0.5450  -55.2470 C   0  0  0  0  0  0  0  0  0  0  0  0
    7.4050    1.5770  -56.3230 C   0  0  0  0  0  0  0  0  0  0  0  0
    6.3480    2.0870  -56.6700 O   0  0  0  0  0  0  0  0  0  0  0  0
    8.6440    1.9120  -56.8330 N   0  0  0  0  0  0  0  0  0  0  0  0
    8.8720    2.9650  -57.8300 C   0  0  2  0  0  0  0  0  0  0  0  0
    7.9020    2.8430  -59.0340 C   0  0  0  0  0  0  0  0  0  0  0  0
    8.2020    3.9290  -60.0830 C   0  0  1  0  0  0  0  0  0  0  0  0
    8.0500    5.3150  -59.4330 C   0  0  0  0  0  0  0  0  0  0  0  0
    9.0350    5.4610  -58.2610 C   0  0  2  0  0  0  0  0  0  0  0  0
   10.4700    5.2830  -58.7800 C   0  0  0  0  0  0  0  0  0  0  0  0
   10.6290    3.8970  -59.4220 C   0  0  2  0  0  0  0  0  0  0  0  0
    9.6420    3.7610  -60.5920 C   0  0  0  0  0  0  0  0  0  0  0  0
   10.3180    2.8170  -58.3730 C   0  0  0  0  0  0  0  0  0  0  0  0
    8.7360    4.3770  -57.2090 C   0  0  0  0  0  0  0  0  0  0  0  0
    6.2730   -0.2230  -54.9570 C   0  0  0  0  0  0  0  0  0  0  0  0
    6.3170   -1.1790  -53.9390 C   0  0  0  0  0  0  0  0  0  0  0  0
    7.5081   -1.8549  -51.1207 H   0  0  0  0  0  0  0  0  0  0  0  0
    6.6498   -3.0430  -52.1592 H   0  0  0  0  0  0  0  0  0  0  0  0
    8.4450   -2.9820  -52.1592 H   0  0  0  0  0  0  0  0  0  0  0  0
    9.5336   -0.7212  -52.8881 H   0  0  0  0  0  0  0  0  0  0  0  0
    9.4586    0.9846  -54.7032 H   0  0  0  0  0  0  0  0  0  0  0  0
    9.4500    1.6130  -56.3020 H   0  0  0  0  0  0  0  0  0  0  0  0
    8.0214    1.8517  -59.4955 H   0  0  0  0  0  0  0  0  0  0  0  0
    6.8709    2.9730  -58.6736 H   0  0  0  0  0  0  0  0  0  0  0  0
    7.5006    3.8351  -60.9252 H   0  0  0  0  0  0  0  0  0  0  0  0
    8.2585    6.0929  -60.1823 H   0  0  0  0  0  0  0  0  0  0  0  0
    7.0227    5.4243  -59.0552 H   0  0  0  0  0  0  0  0  0  0  0  0
    8.9268    6.4572  -57.8072 H   0  0  0  0  0  0  0  0  0  0  0  0
   10.6848    6.0585  -59.5300 H   0  0  0  0  0  0  0  0  0  0  0  0
   11.1720    5.3732  -57.9379 H   0  0  0  0  0  0  0  0  0  0  0  0
   11.6585    3.7759  -59.7901 H   0  0  0  0  0  0  0  0  0  0  0  0
    9.8565    4.5363  -61.3423 H   0  0  0  0  0  0  0  0  0  0  0  0
    9.7522    2.7647  -61.0451 H   0  0  0  0  0  0  0  0  0  0  0  0
   10.4283    1.8250  -58.8353 H   0  0  0  0  0  0  0  0  0  0  0  0
   11.0197    2.9329  -57.5338 H   0  0  0  0  0  0  0  0  0  0  0  0
    9.4471    4.4757  -56.3756 H   0  0  0  0  0  0  0  0  0  0  0  0
    7.7057    4.5081  -56.8466 H   0  0  0  0  0  0  0  0  0  0  0  0
    5.3466   -0.0737  -55.5310 H   0  0  0  0  0  0  0  0  0  0  0  0
    5.4222   -1.7777  -53.7136 H   0  0  0  0  0  0  0  0  0  0  0  0
  1  2  1  0
  2  3  1  0
  3  4  2  0
  4  5  1  0
  5  6  1  0
  6  7  2  0
  6  8  1  0
  9  8  1  1
  9 10  1  0
 10 11  1  0
 11 12  1  0
 12 13  1  0
 13 14  1  0
 14 15  1  0
 15 16  1  0
 15 17  1  0
 13 18  1  0
  5 19  2  0
 19 20  1  0
 20  2  2  0
 17  9  1  0
 18  9  1  0
 16 11  1  0
  1 21  1  0
  1 22  1  0
  1 23  1  0
  3 24  1  0
  4 25  1  0
  8 26  1  0
 10 27  1  0
 10 28  1  0
 11 29  1  6
 12 30  1  0
 12 31  1  0
 13 32  1  1
 14 33  1  0
 14 34  1  0
 15 35  1  6
 16 36  1  0
 16 37  1  0
 17 38  1  0
 17 39  1  0
 18 40  1  0
 18 41  1  0
 19 42  1  0
 20 43  1  0
M  END
>  <meeko>  (5) 
{"is_sidechain": false}

$$$$

     RDKit          3D

 44 47  0  0  0  0  0  0  0  0999 V2000
    7.3240    1.8810  -56.3090 O   0  0  0  0  0  0  0  0  0  0  0  0
    8.4870    1.5210  -56.1930 C   0  0  0  0  0  0  0  0  0  0  0  0
    8.9200    0.5650  -55.1410 C   0  0  0  0  0  0  0  0  0  0  0  0
    8.0010   -0.1200  -54.4430 C   0  0  0  0  0  0  0  0  0  0  0  0
    8.3280   -1.0720  -53.3750 C   0  0  0  0  0  0  0  0  0  0  0  0
    9.5470   -1.7590  -53.4320 C   0  0  0  0  0  0  0  0  0  0  0  0
    9.9060   -2.6570  -52.4230 C   0  0  0  0  0  0  0  0  0  0  0  0
    9.0540   -2.8660  -51.3410 C   0  0  0  0  0  0  0  0  0  0  0  0
    7.8470   -2.1760  -51.2640 C   0  0  0  0  0  0  0  0  0  0  0  0
    7.4880   -1.2790  -52.2730 C   0  0  0  0  0  0  0  0  0  0  0  0
    9.5280    1.9340  -56.9900 N   0  0  0  0  0  0  0  0  0  0  0  0
    9.3980    2.8830  -58.1020 C   0  0  2  0  0  0  0  0  0  0  0  0
   10.7710    2.9850  -58.8210 C   0  0  0  0  0  0  0  0  0  0  0  0
   10.7050    3.9680  -60.0010 C   0  0  1  0  0  0  0  0  0  0  0  0
    9.6490    3.4800  -61.0050 C   0  0  0  0  0  0  0  0  0  0  0  0
    8.2760    3.3950  -60.3210 C   0  0  2  0  0  0  0  0  0  0  0  0
    7.8870    4.7870  -59.7920 C   0  0  0  0  0  0  0  0  0  0  0  0
    8.9380    5.2840  -58.7860 C   0  0  2  0  0  0  0  0  0  0  0  0
   10.3080    5.3570  -59.4780 C   0  0  0  0  0  0  0  0  0  0  0  0
    9.0150    4.2990  -57.6060 C   0  0  0  0  0  0  0  0  0  0  0  0
    8.3520    2.4090  -59.1420 C   0  0  0  0  0  0  0  0  0  0  0  0
    9.9907    0.4192  -54.9350 H   0  0  0  0  0  0  0  0  0  0  0  0
    6.9403    0.0416  -54.6856 H   0  0  0  0  0  0  0  0  0  0  0  0
   10.2284   -1.5903  -54.2789 H   0  0  0  0  0  0  0  0  0  0  0  0
   10.8614   -3.1988  -52.4833 H   0  0  0  0  0  0  0  0  0  0  0  0
    9.3344   -3.5753  -50.5483 H   0  0  0  0  0  0  0  0  0  0  0  0
    7.1755   -2.3374  -50.4078 H   0  0  0  0  0  0  0  0  0  0  0  0
    6.5373   -0.7303  -52.2016 H   0  0  0  0  0  0  0  0  0  0  0  0
   10.4530    1.5840  -56.7900 H   0  0  0  0  0  0  0  0  0  0  0  0
   11.5274    3.3353  -58.1033 H   0  0  0  0  0  0  0  0  0  0  0  0
   11.0376    1.9907  -59.2086 H   0  0  0  0  0  0  0  0  0  0  0  0
   11.6861    4.0256  -60.4951 H   0  0  0  0  0  0  0  0  0  0  0  0
    9.5936    4.1851  -61.8475 H   0  0  0  0  0  0  0  0  0  0  0  0
    9.9326    2.4827  -61.3724 H   0  0  0  0  0  0  0  0  0  0  0  0
    7.5241    3.0476  -61.0449 H   0  0  0  0  0  0  0  0  0  0  0  0
    7.8275    5.4924  -60.6340 H   0  0  0  0  0  0  0  0  0  0  0  0
    6.9110    4.7205  -59.2889 H   0  0  0  0  0  0  0  0  0  0  0  0
    8.6569    6.2817  -58.4178 H   0  0  0  0  0  0  0  0  0  0  0  0
   10.2538    6.0621  -60.3206 H   0  0  0  0  0  0  0  0  0  0  0  0
   11.0615    5.6999  -58.7537 H   0  0  0  0  0  0  0  0  0  0  0  0
    9.7744    4.6495  -56.8916 H   0  0  0  0  0  0  0  0  0  0  0  0
    8.0293    4.2500  -57.1202 H   0  0  0  0  0  0  0  0  0  0  0  0
    7.3655    2.3455  -58.6595 H   0  0  0  0  0  0  0  0  0  0  0  0
    8.6529    1.4222  -59.5235 H   0  0  0  0  0  0  0  0  0  0  0  0
  1  2  2  0
  2  3  1  0
  3  4  2  0
  4  5  1  0
  5  6  2  0
  6  7  1  0
  7  8  2  0
  8  9  1  0
  9 10  2  0
  2 11  1  0
 12 11  1  1
 12 13  1  0
 13 14  1  0
 14 15  1  0
 15 16  1  0
 16 17  1  0
 17 18  1  0
 18 19  1  0
 18 20  1  0
 16 21  1  0
 10  5  1  0
 20 12  1  0
 21 12  1  0
 19 14  1  0
  3 22  1  0
  4 23  1  0
  6 24  1  0
  7 25  1  0
  8 26  1  0
  9 27  1  0
 10 28  1  0
 11 29  1  0
 13 30  1  0
 13 31  1  0
 14 32  1  6
 15 33  1  0
 15 34  1  0
 16 35  1  6
 17 36  1  0
 17 37  1  0
 18 38  1  1
 19 39  1  0
 19 40  1  0
 20 41  1  0
 20 42  1  0
 21 43  1  0
 21 44  1  0
M  END
>  <meeko>  (6) 
{"is_sidechain": false}

$$$$

     RDKit          3D

 40 43  0  0  0  0  0  0  0  0999 V2000
    6.4220    2.1020  -56.4790 O   0  0  0  0  0  0  0  0  0  0  0  0
    7.4980    1.5780  -56.2240 C   0  0  0  0  0  0  0  0  0  0  0  0
    8.7030    1.9400  -56.7890 N   0  0  0  0  0  0  0  0  0  0  0  0
    8.8580    2.9850  -57.8100 C   0  0  2  0  0  0  0  0  0  0  0  0
   10.3020    2.9030  -58.3770 C   0  0  0  0  0  0  0  0  0  0  0  0
   10.5320    3.9690  -59.4600 C   0  0  1  0  0  0  0  0  0  0  0  0
    9.5270    3.7520  -60.6030 C   0  0  0  0  0  0  0  0  0  0  0  0
    8.0900    3.8580  -60.0650 C   0  0  2  0  0  0  0  0  0  0  0  0
    7.8820    5.2500  -59.4480 C   0  0  0  0  0  0  0  0  0  0  0  0
    8.8830    5.4770  -58.3020 C   0  0  2  0  0  0  0  0  0  0  0  0
   10.3150    5.3620  -58.8490 C   0  0  0  0  0  0  0  0  0  0  0  0
    8.6640    4.4050  -57.2190 C   0  0  0  0  0  0  0  0  0  0  0  0
    7.8710    2.7850  -58.9850 C   0  0  0  0  0  0  0  0  0  0  0  0
    7.5420    0.4400  -55.2640 C   0  0  0  0  0  0  0  0  0  0  0  0
    6.3490   -0.2480  -54.9890 C   0  0  0  0  0  0  0  0  0  0  0  0
    6.3400   -1.3180  -54.0900 C   0  0  0  0  0  0  0  0  0  0  0  0
    7.5240   -1.6890  -53.4620 C   0  0  0  0  0  0  0  0  0  0  0  0
    7.5180   -2.7150  -52.6010 F   0  0  0  0  0  0  0  0  0  0  0  0
    8.7040   -0.9990  -53.7200 C   0  0  0  0  0  0  0  0  0  0  0  0
    9.8390   -1.3540  -53.1030 F   0  0  0  0  0  0  0  0  0  0  0  0
    8.7250    0.0680  -54.6140 C   0  0  0  0  0  0  0  0  0  0  0  0
    9.4760    1.2960  -56.6910 H   0  0  0  0  0  0  0  0  0  0  0  0
   11.0191    3.0620  -57.5582 H   0  0  0  0  0  0  0  0  0  0  0  0
   10.4446    1.9099  -58.8281 H   0  0  0  0  0  0  0  0  0  0  0  0
   11.5577    3.8910  -59.8497 H   0  0  0  0  0  0  0  0  0  0  0  0
    9.6840    4.5179  -61.3768 H   0  0  0  0  0  0  0  0  0  0  0  0
    9.6792    2.7512  -61.0334 H   0  0  0  0  0  0  0  0  0  0  0  0
    7.3745    3.7062  -60.8866 H   0  0  0  0  0  0  0  0  0  0  0  0
    8.0349    6.0170  -60.2215 H   0  0  0  0  0  0  0  0  0  0  0  0
    6.8587    5.3174  -59.0500 H   0  0  0  0  0  0  0  0  0  0  0  0
    8.7321    6.4771  -57.8695 H   0  0  0  0  0  0  0  0  0  0  0  0
   10.4724    6.1280  -59.6226 H   0  0  0  0  0  0  0  0  0  0  0  0
   11.0297    5.5115  -58.0263 H   0  0  0  0  0  0  0  0  0  0  0  0
    9.3878    4.5599  -56.4053 H   0  0  0  0  0  0  0  0  0  0  0  0
    7.6366    4.4925  -56.8360 H   0  0  0  0  0  0  0  0  0  0  0  0
    6.8403    2.8572  -58.6075 H   0  0  0  0  0  0  0  0  0  0  0  0
    8.0451    1.7940  -59.4295 H   0  0  0  0  0  0  0  0  0  0  0  0
    5.4155    0.0573  -55.4844 H   0  0  0  0  0  0  0  0  0  0  0  0
    5.4063   -1.8609  -53.8814 H   0  0  0  0  0  0  0  0  0  0  0  0
    9.6608    0.6128  -54.8076 H   0  0  0  0  0  0  0  0  0  0  0  0
  1  2  2  0
  2  3  1  0
  4  3  1  1
  4  5  1  0
  5  6  1  0
  6  7  1  0
  7  8  1  0
  8  9  1  0
  9 10  1  0
 10 11  1  0
 10 12  1  0
  8 13  1  0
  2 14  1  0
 14 15  1  0
 15 16  2  0
 16 17  1  0
 17 18  1  0
 17 19  2  0
 19 20  1  0
 19 21  1  0
 12  4  1  0
 21 14  2  0
 13  4  1  0
 11  6  1  0
  3 22  1  0
  5 23  1  0
  5 24  1  0
  6 25  1  6
  7 26  1  0
  7 27  1  0
  8 28  1  6
  9 29  1  0
  9 30  1  0
 10 31  1  1
 11 32  1  0
 11 33  1  0
 12 34  1  0
 12 35  1  0
 13 36  1  0
 13 37  1  0
 15 38  1  0
 16 39  1  0
 21 40  1  0
M  END
>  <meeko>  (7) 
{"is_sidechain": false}

$$$$

     RDKit          3D

 44 47  0  0  0  0  0  0  0  0999 V2000
    8.4360    0.0650  -54.4690 C   0  0  0  0  0  0  0  0  0  0  0  0
    8.1230   -1.3120  -54.2840 O   0  0  0  0  0  0  0  0  0  0  0  0
    8.2380   -1.8360  -53.0190 C   0  0  0  0  0  0  0  0  0  0  0  0
    7.2870   -1.6150  -52.0090 C   0  0  0  0  0  0  0  0  0  0  0  0
    7.4460   -2.1700  -50.7370 C   0  0  0  0  0  0  0  0  0  0  0  0
    8.5560   -2.9530  -50.4530 C   0  0  0  0  0  0  0  0  0  0  0  0
    9.5090   -3.1820  -51.4430 C   0  0  0  0  0  0  0  0  0  0  0  0
    9.3690   -2.6330  -52.7330 C   0  0  0  0  0  0  0  0  0  0  0  0
   10.4690   -2.9590  -53.7080 C   0  0  0  0  0  0  0  0  0  0  0  0
   11.5970   -2.5110  -53.5210 O   0  0  0  0  0  0  0  0  0  0  0  0
   10.1490   -3.7570  -54.7810 N   0  0  0  0  0  0  0  0  0  0  0  0
   11.0700   -4.1870  -55.8350 C   0  0  2  0  0  0  0  0  0  0  0  0
   10.2870   -5.0840  -56.8320 C   0  0  0  0  0  0  0  0  0  0  0  0
   11.1990   -5.5700  -57.9690 C   0  0  1  0  0  0  0  0  0  0  0  0
   11.7600   -4.3540  -58.7220 C   0  0  0  0  0  0  0  0  0  0  0  0
   12.5610   -3.4650  -57.7580 C   0  0  2  0  0  0  0  0  0  0  0  0
   13.7170   -4.2820  -57.1570 C   0  0  0  0  0  0  0  0  0  0  0  0
   13.1660   -5.5030  -56.4000 C   0  0  2  0  0  0  0  0  0  0  0  0
   12.3610   -6.3800  -57.3720 C   0  0  0  0  0  0  0  0  0  0  0  0
   12.2440   -5.0220  -55.2650 C   0  0  0  0  0  0  0  0  0  0  0  0
   11.6390   -2.9820  -56.6250 C   0  0  0  0  0  0  0  0  0  0  0  0
    8.5464    0.5509  -53.4883 H   0  0  0  0  0  0  0  0  0  0  0  0
    9.3775    0.1548  -55.0308 H   0  0  0  0  0  0  0  0  0  0  0  0
    7.6258    0.5529  -55.0308 H   0  0  0  0  0  0  0  0  0  0  0  0
    6.4036   -0.9954  -52.2230 H   0  0  0  0  0  0  0  0  0  0  0  0
    6.6902   -1.9861  -49.9592 H   0  0  0  0  0  0  0  0  0  0  0  0
    8.6827   -3.3904  -49.4517 H   0  0  0  0  0  0  0  0  0  0  0  0
   10.3873   -3.8031  -51.2132 H   0  0  0  0  0  0  0  0  0  0  0  0
    9.1860   -4.0710  -54.8350 H   0  0  0  0  0  0  0  0  0  0  0  0
    9.8874   -5.9561  -56.2937 H   0  0  0  0  0  0  0  0  0  0  0  0
    9.4688   -4.4919  -57.2679 H   0  0  0  0  0  0  0  0  0  0  0  0
   10.6253   -6.2017  -58.6631 H   0  0  0  0  0  0  0  0  0  0  0  0
   12.4189   -4.6991  -59.5324 H   0  0  0  0  0  0  0  0  0  0  0  0
   10.9263   -3.7725  -59.1424 H   0  0  0  0  0  0  0  0  0  0  0  0
   12.9629   -2.5979  -58.3026 H   0  0  0  0  0  0  0  0  0  0  0  0
   14.3793   -4.6242  -57.9659 H   0  0  0  0  0  0  0  0  0  0  0  0
   14.2787   -3.6477  -56.4555 H   0  0  0  0  0  0  0  0  0  0  0  0
   13.9983   -6.0858  -55.9786 H   0  0  0  0  0  0  0  0  0  0  0  0
   13.0196   -6.7247  -58.1828 H   0  0  0  0  0  0  0  0  0  0  0  0
   11.9563   -7.2459  -56.8276 H   0  0  0  0  0  0  0  0  0  0  0  0
   11.8411   -5.8955  -54.7314 H   0  0  0  0  0  0  0  0  0  0  0  0
   12.8267   -4.3921  -54.5768 H   0  0  0  0  0  0  0  0  0  0  0  0
   12.2128   -2.3395  -55.9409 H   0  0  0  0  0  0  0  0  0  0  0  0
   10.8025   -2.4185  -57.0640 H   0  0  0  0  0  0  0  0  0  0  0  0
  1  2  1  0
  2  3  1  0
  3  4  2  0
  4  5  1  0
  5  6  2  0
  6  7  1  0
  7  8  2  0
  8  9  1  0
  9 10  2  0
  9 11  1  0
 12 11  1  1
 12 13  1  0
 13 14  1  0
 14 15  1  0
 15 16  1  0
 16 17  1  0
 17 18  1  0
 18 19  1  0
 18 20  1  0
 16 21  1  0
  8  3  1  0
 20 12  1  0
 21 12  1  0
 19 14  1  0
  1 22  1  0
  1 23  1  0
  1 24  1  0
  4 25  1  0
  5 26  1  0
  6 27  1  0
  7 28  1  0
 11 29  1  0
 13 30  1  0
 13 31  1  0
 14 32  1  6
 15 33  1  0
 15 34  1  0
 16 35  1  6
 17 36  1  0
 17 37  1  0
 18 38  1  1
 19 39  1  0
 19 40  1  0
 20 41  1  0
 20 42  1  0
 21 43  1  0
 21 44  1  0
M  END
>  <meeko>  (8) 
{"is_sidechain": false}

$$$$

     RDKit          3D

 33 35  0  0  0  0  0  0  0  0999 V2000
    6.6360    0.4830  -55.6390 C   0  0  0  0  0  0  0  0  0  0  0  0
    6.8020    1.7390  -56.4530 C   0  0  0  0  0  0  0  0  0  0  0  0
    5.8910    2.5520  -56.5730 O   0  0  0  0  0  0  0  0  0  0  0  0
    8.0550    1.8780  -57.0040 N   0  0  0  0  0  0  0  0  0  0  0  0
    8.4980    3.0290  -57.8010 C   0  0  2  0  0  0  0  0  0  0  0  0
    8.5150    4.3300  -56.9630 C   0  0  0  0  0  0  0  0  0  0  0  0
    9.0330    5.5100  -57.8040 C   0  0  1  0  0  0  0  0  0  0  0  0
   10.4630    5.2090  -58.2770 C   0  0  0  0  0  0  0  0  0  0  0  0
   10.4750    3.9310  -59.1310 C   0  0  2  0  0  0  0  0  0  0  0  0
    9.5630    4.1250  -60.3520 C   0  0  0  0  0  0  0  0  0  0  0  0
    8.1270    4.4210  -59.8910 C   0  0  2  0  0  0  0  0  0  0  0  0
    8.1220    5.6950  -59.0300 C   0  0  0  0  0  0  0  0  0  0  0  0
    7.6090    3.2400  -59.0510 C   0  0  0  0  0  0  0  0  0  0  0  0
    9.9470    2.7570  -58.2900 C   0  0  0  0  0  0  0  0  0  0  0  0
    6.6690    0.7329  -54.5683 H   0  0  0  0  0  0  0  0  0  0  0  0
    5.6685    0.0170  -55.8771 H   0  0  0  0  0  0  0  0  0  0  0  0
    7.4493   -0.2184  -55.8771 H   0  0  0  0  0  0  0  0  0  0  0  0
    8.7580    1.1980  -56.7430 H   0  0  0  0  0  0  0  0  0  0  0  0
    7.4939    4.5519  -56.6194 H   0  0  0  0  0  0  0  0  0  0  0  0
    9.1843    4.1880  -56.1017 H   0  0  0  0  0  0  0  0  0  0  0  0
    9.0305    6.4270  -57.1964 H   0  0  0  0  0  0  0  0  0  0  0  0
   10.8332    6.0526  -58.8781 H   0  0  0  0  0  0  0  0  0  0  0  0
   11.1109    5.0639  -57.4000 H   0  0  0  0  0  0  0  0  0  0  0  0
   11.5015    3.7200  -59.4654 H   0  0  0  0  0  0  0  0  0  0  0  0
    9.9338    4.9678  -60.9539 H   0  0  0  0  0  0  0  0  0  0  0  0
    9.5670    3.2060  -60.9565 H   0  0  0  0  0  0  0  0  0  0  0  0
    7.4795    4.5641  -60.7686 H   0  0  0  0  0  0  0  0  0  0  0  0
    8.4878    6.5410  -59.6304 H   0  0  0  0  0  0  0  0  0  0  0  0
    7.0955    5.8938  -58.6883 H   0  0  0  0  0  0  0  0  0  0  0  0
    6.5779    3.4494  -58.7301 H   0  0  0  0  0  0  0  0  0  0  0  0
    7.6386    2.3280  -59.6653 H   0  0  0  0  0  0  0  0  0  0  0  0
    9.9541    1.8437  -58.9030 H   0  0  0  0  0  0  0  0  0  0  0  0
   10.5965    2.6363  -57.4105 H   0  0  0  0  0  0  0  0  0  0  0  0
  1  2  1  0
  2  3  2  0
  2  4  1  0
  5  4  1  1
  5  6  1  0
  6  7  1  0
  7  8  1  0
  8  9  1  0
  9 10  1  0
 10 11  1  0
 11 12  1  0
 11 13  1  0
  9 14  1  0
 13  5  1  0
 14  5  1  0
 12  7  1  0
  1 15  1  0
  1 16  1  0
  1 17  1  0
  4 18  1  0
  6 19  1  0
  6 20  1  0
  7 21  1  1
  8 22  1  0
  8 23  1  0
  9 24  1  6
 10 25  1  0
 10 26  1  0
 11 27  1  6
 12 28  1  0
 12 29  1  0
 13 30  1  0
 13 31  1  0
 14 32  1  0
 14 33  1  0
M  END
>  <meeko>  (9) 
{"is_sidechain": false}

$$$$

     RDKit          3D

 43 46  0  0  0  0  0  0  0  0999 V2000
    7.4740   -3.0100  -50.0740 C   0  0  0  0  0  0  0  0  0  0  0  0
    7.8630   -2.2920  -51.3330 C   0  0  0  0  0  0  0  0  0  0  0  0
    7.2030   -1.1140  -51.7070 C   0  0  0  0  0  0  0  0  0  0  0  0
    7.5950   -0.4130  -52.8480 C   0  0  0  0  0  0  0  0  0  0  0  0
    8.6520   -0.8820  -53.6270 C   0  0  0  0  0  0  0  0  0  0  0  0
    9.3190   -2.0590  -53.2680 C   0  0  0  0  0  0  0  0  0  0  0  0
   10.4470   -2.5240  -54.1230 C   0  0  0  0  0  0  0  0  0  0  0  0
   11.5320   -1.9610  -54.0530 O   0  0  0  0  0  0  0  0  0  0  0  0
   10.1560   -3.5630  -54.9850 N   0  0  0  0  0  0  0  0  0  0  0  0
   11.0960   -4.1080  -55.9710 C   0  0  2  0  0  0  0  0  0  0  0  0
   11.7020   -2.9940  -56.8590 C   0  0  0  0  0  0  0  0  0  0  0  0
   12.6380   -3.5970  -57.9210 C   0  0  1  0  0  0  0  0  0  0  0  0
   13.7680   -4.3710  -57.2200 C   0  0  0  0  0  0  0  0  0  0  0  0
   13.1800   -5.5070  -56.3650 C   0  0  2  0  0  0  0  0  0  0  0  0
   12.3810   -6.4590  -57.2670 C   0  0  0  0  0  0  0  0  0  0  0  0
   11.2440   -5.6930  -57.9610 C   0  0  2  0  0  0  0  0  0  0  0  0
   11.8400   -4.5610  -58.8130 C   0  0  0  0  0  0  0  0  0  0  0  0
   10.3190   -5.0870  -56.8940 C   0  0  0  0  0  0  0  0  0  0  0  0
   12.2440   -4.9060  -55.3010 C   0  0  0  0  0  0  0  0  0  0  0  0
    8.9340   -2.7510  -52.1120 C   0  0  0  0  0  0  0  0  0  0  0  0
    7.7934   -2.4204  -49.2020 H   0  0  0  0  0  0  0  0  0  0  0  0
    6.3820   -3.1401  -50.0486 H   0  0  0  0  0  0  0  0  0  0  0  0
    7.9614   -3.9958  -50.0486 H   0  0  0  0  0  0  0  0  0  0  0  0
    6.3688   -0.7387  -51.0960 H   0  0  0  0  0  0  0  0  0  0  0  0
    7.0697    0.5104  -53.1332 H   0  0  0  0  0  0  0  0  0  0  0  0
    8.9620   -0.3266  -54.5244 H   0  0  0  0  0  0  0  0  0  0  0  0
    9.1780   -3.7720  -55.1300 H   0  0  0  0  0  0  0  0  0  0  0  0
   10.8888   -2.4495  -57.3612 H   0  0  0  0  0  0  0  0  0  0  0  0
   12.2821   -2.3095  -56.2226 H   0  0  0  0  0  0  0  0  0  0  0  0
   13.0663   -2.7925  -58.5369 H   0  0  0  0  0  0  0  0  0  0  0  0
   14.4414   -4.7975  -57.9780 H   0  0  0  0  0  0  0  0  0  0  0  0
   14.3258   -3.6821  -56.5686 H   0  0  0  0  0  0  0  0  0  0  0  0
   13.9928   -6.0613  -55.8729 H   0  0  0  0  0  0  0  0  0  0  0  0
   13.0498   -6.8871  -58.0282 H   0  0  0  0  0  0  0  0  0  0  0  0
   11.9521   -7.2644  -56.6527 H   0  0  0  0  0  0  0  0  0  0  0  0
   10.6732   -6.3796  -58.6035 H   0  0  0  0  0  0  0  0  0  0  0  0
   12.5080   -4.9907  -59.5740 H   0  0  0  0  0  0  0  0  0  0  0  0
   11.0240   -4.0089  -59.3022 H   0  0  0  0  0  0  0  0  0  0  0  0
    9.5048   -4.5408  -57.3927 H   0  0  0  0  0  0  0  0  0  0  0  0
    9.9157   -5.9033  -56.2768 H   0  0  0  0  0  0  0  0  0  0  0  0
   11.8145   -5.7188  -54.6970 H   0  0  0  0  0  0  0  0  0  0  0  0
   12.8247   -4.2234  -54.6632 H   0  0  0  0  0  0  0  0  0  0  0  0
    9.4760   -3.6606  -51.8138 H   0  0  0  0  0  0  0  0  0  0  0  0
  1  2  1  0
  2  3  2  0
  3  4  1  0
  4  5  2  0
  5  6  1  0
  6  7  1  0
  7  8  2  0
  7  9  1  0
 10  9  1  1
 10 11  1  0
 11 12  1  0
 12 13  1  0
 13 14  1  0
 14 15  1  0
 15 16  1  0
 16 17  1  0
 16 18  1  0
 14 19  1  0
  6 20  2  0
 20  2  1  0
 18 10  1  0
 19 10  1  0
 17 12  1  0
  1 21  1  0
  1 22  1  0
  1 23  1  0
  3 24  1  0
  4 25  1  0
  5 26  1  0
  9 27  1  0
 11 28  1  0
 11 29  1  0
 12 30  1  6
 13 31  1  0
 13 32  1  0
 14 33  1  1
 15 34  1  0
 15 35  1  0
 16 36  1  6
 17 37  1  0
 17 38  1  0
 18 39  1  0
 18 40  1  0
 19 41  1  0
 19 42  1  0
 20 43  1  0
M  END
>  <meeko>  (10) 
{"is_sidechain": false}

$$$$

     RDKit          3D

 40 43  0  0  0  0  0  0  0  0999 V2000
    6.4380    2.0900  -56.4780 O   0  0  0  0  0  0  0  0  0  0  0  0
    7.5050    1.5510  -56.2150 C   0  0  0  0  0  0  0  0  0  0  0  0
    8.7200    1.9020  -56.7680 N   0  0  0  0  0  0  0  0  0  0  0  0
    8.8970    2.9440  -57.7870 C   0  0  2  0  0  0  0  0  0  0  0  0
   10.3510    2.8580  -58.3260 C   0  0  0  0  0  0  0  0  0  0  0  0
   10.6040    3.9210  -59.4060 C   0  0  1  0  0  0  0  0  0  0  0  0
    9.6210    3.7040  -60.5680 C   0  0  0  0  0  0  0  0  0  0  0  0
    8.1750    3.8140  -60.0590 C   0  0  2  0  0  0  0  0  0  0  0  0
    7.9560    5.2070  -59.4470 C   0  0  0  0  0  0  0  0  0  0  0  0
    8.9350    5.4340  -58.2830 C   0  0  2  0  0  0  0  0  0  0  0  0
   10.3780    5.3160  -58.8030 C   0  0  0  0  0  0  0  0  0  0  0  0
    8.6940    4.3660  -57.2030 C   0  0  0  0  0  0  0  0  0  0  0  0
    7.9310    2.7430  -58.9810 C   0  0  0  0  0  0  0  0  0  0  0  0
    7.5320    0.4040  -55.2640 C   0  0  0  0  0  0  0  0  0  0  0  0
    8.7510    0.0640  -54.6630 C   0  0  0  0  0  0  0  0  0  0  0  0
    8.8200   -1.0060  -53.7670 C   0  0  0  0  0  0  0  0  0  0  0  0
    7.6700   -1.7420  -53.4810 C   0  0  0  0  0  0  0  0  0  0  0  0
    7.7620   -3.1920  -52.2720 Br  0  0  0  0  0  0  0  0  0  0  0  0
    6.4550   -1.4240  -54.0880 C   0  0  0  0  0  0  0  0  0  0  0  0
    6.3850   -0.3530  -54.9830 C   0  0  0  0  0  0  0  0  0  0  0  0
    9.4760    1.2370  -56.6710 H   0  0  0  0  0  0  0  0  0  0  0  0
   11.0527    3.0171  -57.4939 H   0  0  0  0  0  0  0  0  0  0  0  0
   10.5000    1.8638  -58.7725 H   0  0  0  0  0  0  0  0  0  0  0  0
   11.6371    3.8397  -59.7749 H   0  0  0  0  0  0  0  0  0  0  0  0
    9.7948    4.4681  -61.3400 H   0  0  0  0  0  0  0  0  0  0  0  0
    9.7794    2.7020  -60.9934 H   0  0  0  0  0  0  0  0  0  0  0  0
    7.4773    3.6627  -60.8958 H   0  0  0  0  0  0  0  0  0  0  0  0
    8.1239    5.9734  -60.2180 H   0  0  0  0  0  0  0  0  0  0  0  0
    6.9254    5.2754  -59.0685 H   0  0  0  0  0  0  0  0  0  0  0  0
    8.7774    6.4351  -57.8552 H   0  0  0  0  0  0  0  0  0  0  0  0
   10.5509    6.0797  -59.5756 H   0  0  0  0  0  0  0  0  0  0  0  0
   11.0775    5.4672  -57.9677 H   0  0  0  0  0  0  0  0  0  0  0  0
    9.4025    4.5218  -56.3761 H   0  0  0  0  0  0  0  0  0  0  0  0
    7.6596    4.4559  -56.8398 H   0  0  0  0  0  0  0  0  0  0  0  0
    6.8934    2.8190  -58.6237 H   0  0  0  0  0  0  0  0  0  0  0  0
    8.1097    1.7502  -59.4195 H   0  0  0  0  0  0  0  0  0  0  0  0
    9.6573    0.6416  -54.8974 H   0  0  0  0  0  0  0  0  0  0  0  0
    9.7762   -1.2666  -53.2897 H   0  0  0  0  0  0  0  0  0  0  0  0
    5.5547   -2.0145  -53.8629 H   0  0  0  0  0  0  0  0  0  0  0  0
    5.4296   -0.1034  -55.4676 H   0  0  0  0  0  0  0  0  0  0  0  0
  1  2  2  0
  2  3  1  0
  4  3  1  1
  4  5  1  0
  5  6  1  0
  6  7  1  0
  7  8  1  0
  8  9  1  0
  9 10  1  0
 10 11  1  0
 10 12  1  0
  8 13  1  0
  2 14  1  0
 14 15  1  0
 15 16  2  0
 16 17  1  0
 17 18  1  0
 17 19  2  0
 19 20  1  0
 12  4  1  0
 20 14  2  0
 13  4  1  0
 11  6  1  0
  3 21  1  0
  5 22  1  0
  5 23  1  0
  6 24  1  6
  7 25  1  0
  7 26  1  0
  8 27  1  6
  9 28  1  0
  9 29  1  0
 10 30  1  1
 11 31  1  0
 11 32  1  0
 12 33  1  0
 12 34  1  0
 13 35  1  0
 13 36  1  0
 15 37  1  0
 16 38  1  0
 19 39  1  0
 20 40  1  0
M  END
>  <meeko>  (11) 
{"is_sidechain": false}

$$$$

     RDKit          3D

 36 38  0  0  0  0  0  0  0  0999 V2000
   13.0290    7.6290  -60.6150 C   0  0  0  0  0  0  0  0  0  0  0  0
   13.4070    6.6870  -59.4870 C   0  0  0  0  0  0  0  0  0  0  0  0
   12.5830    5.4120  -59.4960 C   0  0  0  0  0  0  0  0  0  0  0  0
   13.0770    4.2920  -59.4720 O   0  0  0  0  0  0  0  0  0  0  0  0
   11.2260    5.6650  -59.5320 N   0  0  0  0  0  0  0  0  0  0  0  0
   10.1800    4.6370  -59.5480 C   0  0  2  0  0  0  0  0  0  0  0  0
   10.0140    4.0100  -60.9550 C   0  0  0  0  0  0  0  0  0  0  0  0
    8.8760    2.9730  -60.9550 C   0  0  1  0  0  0  0  0  0  0  0  0
    9.1970    1.8710  -59.9300 C   0  0  0  0  0  0  0  0  0  0  0  0
    9.3270    2.4770  -58.5230 C   0  0  2  0  0  0  0  0  0  0  0  0
    8.0070    3.1690  -58.1450 C   0  0  0  0  0  0  0  0  0  0  0  0
    7.6880    4.2770  -59.1610 C   0  0  2  0  0  0  0  0  0  0  0  0
    7.5610    3.6620  -60.5630 C   0  0  0  0  0  0  0  0  0  0  0  0
    8.8310    5.3040  -59.1630 C   0  0  0  0  0  0  0  0  0  0  0  0
   10.4640    3.5140  -58.5210 C   0  0  0  0  0  0  0  0  0  0  0  0
   12.6506    8.5721  -60.1939 H   0  0  0  0  0  0  0  0  0  0  0  0
   13.9148    7.8334  -61.2344 H   0  0  0  0  0  0  0  0  0  0  0  0
   12.2477    7.1644  -61.2344 H   0  0  0  0  0  0  0  0  0  0  0  0
   14.4695    6.4215  -59.5898 H   0  0  0  0  0  0  0  0  0  0  0  0
   13.2108    7.2060  -58.5372 H   0  0  0  0  0  0  0  0  0  0  0  0
   10.9320    6.6330  -59.5500 H   0  0  0  0  0  0  0  0  0  0  0  0
    9.7796    4.8040  -61.6793 H   0  0  0  0  0  0  0  0  0  0  0  0
   10.9522    3.5071  -61.2322 H   0  0  0  0  0  0  0  0  0  0  0  0
    8.7767    2.5311  -61.9574 H   0  0  0  0  0  0  0  0  0  0  0  0
    8.3875    1.1262  -59.9316 H   0  0  0  0  0  0  0  0  0  0  0  0
   10.1484    1.3917  -60.2040 H   0  0  0  0  0  0  0  0  0  0  0  0
    9.5493    1.6824  -57.7956 H   0  0  0  0  0  0  0  0  0  0  0  0
    7.1937    2.4284  -58.1455 H   0  0  0  0  0  0  0  0  0  0  0  0
    8.1047    3.6131  -57.1434 H   0  0  0  0  0  0  0  0  0  0  0  0
    6.7436    4.7694  -58.8862 H   0  0  0  0  0  0  0  0  0  0  0  0
    6.7475    2.9216  -60.5637 H   0  0  0  0  0  0  0  0  0  0  0  0
    7.3406    4.4590  -61.2884 H   0  0  0  0  0  0  0  0  0  0  0  0
    8.6011    6.0962  -59.8907 H   0  0  0  0  0  0  0  0  0  0  0  0
    8.9250    5.7247  -58.1510 H   0  0  0  0  0  0  0  0  0  0  0  0
   10.5487    3.9554  -57.5170 H   0  0  0  0  0  0  0  0  0  0  0  0
   11.4027    3.0111  -58.7964 H   0  0  0  0  0  0  0  0  0  0  0  0
  1  2  1  0
  2  3  1  0
  3  4  2  0
  3  5  1  0
  6  5  1  6
  6  7  1  0
  7  8  1  0
  8  9  1  0
  9 10  1  0
 10 11  1  0
 11 12  1  0
 12 13  1  0
 12 14  1  0
 10 15  1  0
 14  6  1  0
 15  6  1  0
 13  8  1  0
  1 16  1  0
  1 17  1  0
  1 18  1  0
  2 19  1  0
  2 20  1  0
  5 21  1  0
  7 22  1  0
  7 23  1  0
  8 24  1  6
  9 25  1  0
  9 26  1  0
 10 27  1  1
 11 28  1  0
 11 29  1  0
 12 30  1  1
 13 31  1  0
 13 32  1  0
 14 33  1  0
 14 34  1  0
 15 35  1  0
 15 36  1  0
M  END
>  <meeko>  (12) 
{"is_sidechain": false}

$$$$

     RDKit          3D

 45 47  0  0  0  0  0  0  0  0999 V2000
   10.0630   -1.4280  -53.7470 C   0  0  0  0  0  0  0  0  0  0  0  0
    8.7500   -0.8080  -54.1480 C   0  0  0  0  0  0  0  0  0  0  0  0
    8.7360    0.1750  -55.1560 C   0  0  0  0  0  0  0  0  0  0  0  0
    7.5340    0.7780  -55.5520 C   0  0  0  0  0  0  0  0  0  0  0  0
    7.4850    1.8190  -56.6140 C   0  0  0  0  0  0  0  0  0  0  0  0
    6.4690    2.4860  -56.7720 O   0  0  0  0  0  0  0  0  0  0  0  0
    8.6140    1.9500  -57.3970 N   0  0  0  0  0  0  0  0  0  0  0  0
    8.7220    2.9790  -58.4210 C   0  0  0  0  0  0  0  0  0  0  0  0
    9.4050    2.4150  -59.6730 C   0  0  0  0  0  0  0  0  0  0  0  0
    9.5900    3.4850  -60.7450 C   0  0  0  0  0  0  0  0  0  0  0  0
   10.3420    4.6970  -60.2060 C   0  0  0  0  0  0  0  0  0  0  0  0
    9.6710    5.2650  -58.9590 C   0  0  0  0  0  0  0  0  0  0  0  0
    9.4840    4.1980  -57.8830 C   0  0  0  0  0  0  0  0  0  0  0  0
    6.3430    0.4220  -54.9190 C   0  0  0  0  0  0  0  0  0  0  0  0
    6.3470   -0.5490  -53.9150 C   0  0  0  0  0  0  0  0  0  0  0  0
    7.5390   -1.1780  -53.5180 C   0  0  0  0  0  0  0  0  0  0  0  0
    7.4880   -2.1890  -52.4530 C   0  0  0  0  0  0  0  0  0  0  0  0
    7.8020   -1.8500  -51.1280 C   0  0  0  0  0  0  0  0  0  0  0  0
    7.7510   -2.8110  -50.1160 C   0  0  0  0  0  0  0  0  0  0  0  0
    7.3820   -4.1210  -50.4150 C   0  0  0  0  0  0  0  0  0  0  0  0
    7.0640   -4.4710  -51.7250 C   0  0  0  0  0  0  0  0  0  0  0  0
    7.1150   -3.5110  -52.7380 C   0  0  0  0  0  0  0  0  0  0  0  0
   10.1330   -1.4610  -52.6497 H   0  0  0  0  0  0  0  0  0  0  0  0
   10.1239   -2.4500  -54.1492 H   0  0  0  0  0  0  0  0  0  0  0  0
   10.8909   -0.8257  -54.1492 H   0  0  0  0  0  0  0  0  0  0  0  0
    9.6787    0.4731  -55.6381 H   0  0  0  0  0  0  0  0  0  0  0  0
    9.4060    1.3420  -57.2430 H   0  0  0  0  0  0  0  0  0  0  0  0
    7.7092    3.3064  -58.6984 H   0  0  0  0  0  0  0  0  0  0  0  0
   10.3914    2.0171  -59.3924 H   0  0  0  0  0  0  0  0  0  0  0  0
    8.7635    1.6227  -60.0862 H   0  0  0  0  0  0  0  0  0  0  0  0
   10.1589    3.0559  -61.5830 H   0  0  0  0  0  0  0  0  0  0  0  0
    8.5944    3.8170  -61.0745 H   0  0  0  0  0  0  0  0  0  0  0  0
   11.3694    4.3962  -59.9530 H   0  0  0  0  0  0  0  0  0  0  0  0
   10.3409    5.4761  -60.9826 H   0  0  0  0  0  0  0  0  0  0  0  0
   10.2972    6.0737  -58.5542 H   0  0  0  0  0  0  0  0  0  0  0  0
    8.6778    5.6413  -59.2452 H   0  0  0  0  0  0  0  0  0  0  0  0
   10.4728    3.8724  -57.5278 H   0  0  0  0  0  0  0  0  0  0  0  0
    8.8962    4.6362  -57.0630 H   0  0  0  0  0  0  0  0  0  0  0  0
    5.3996    0.9065  -55.2109 H   0  0  0  0  0  0  0  0  0  0  0  0
    5.4009   -0.8259  -53.4269 H   0  0  0  0  0  0  0  0  0  0  0  0
    8.0912   -0.8171  -50.8841 H   0  0  0  0  0  0  0  0  0  0  0  0
    8.0024   -2.5335  -49.0817 H   0  0  0  0  0  0  0  0  0  0  0  0
    7.3419   -4.8776  -49.6175 H   0  0  0  0  0  0  0  0  0  0  0  0
    6.7723   -5.5048  -51.9620 H   0  0  0  0  0  0  0  0  0  0  0  0
    6.8601   -3.7943  -53.7699 H   0  0  0  0  0  0  0  0  0  0  0  0
  1  2  1  0
  2  3  1  0
  3  4  2  0
  4  5  1  0
  5  6  2  0
  5  7  1  0
  7  8  1  0
  8  9  1  0
  9 10  1  0
 10 11  1  0
 11 12  1  0
 12 13  1  0
  4 14  1  0
 14 15  2  0
 15 16  1  0
 16 17  1  0
 17 18  2  0
 18 19  1  0
 19 20  2  0
 20 21  1  0
 21 22  2  0
 16  2  2  0
 22 17  1  0
 13  8  1  0
  1 23  1  0
  1 24  1  0
  1 25  1  0
  3 26  1  0
  7 27  1  0
  8 28  1  0
  9 29  1  0
  9 30  1  0
 10 31  1  0
 10 32  1  0
 11 33  1  0
 11 34  1  0
 12 35  1  0
 12 36  1  0
 13 37  1  0
 13 38  1  0
 14 39  1  0
 15 40  1  0
 18 41  1  0
 19 42  1  0
 20 43  1  0
 21 44  1  0
 22 45  1  0
M  END
>  <meeko>  (13) 
{"is_sidechain": false}

$$$$

     RDKit          3D

 43 46  0  0  0  0  0  0  0  0999 V2000
    6.3650    2.0690  -56.6840 O   0  0  0  0  0  0  0  0  0  0  0  0
    7.4240    1.5610  -56.3380 C   0  0  0  0  0  0  0  0  0  0  0  0
    8.6600    1.8920  -56.8560 N   0  0  0  0  0  0  0  0  0  0  0  0
    8.8830    2.9340  -57.8640 C   0  0  2  0  0  0  0  0  0  0  0  0
   10.3370    2.7970  -58.3930 C   0  0  0  0  0  0  0  0  0  0  0  0
   10.6440    3.8670  -59.4520 C   0  0  1  0  0  0  0  0  0  0  0  0
    9.6690    3.7060  -60.6280 C   0  0  0  0  0  0  0  0  0  0  0  0
    8.2230    3.8620  -60.1340 C   0  0  2  0  0  0  0  0  0  0  0  0
    8.0480    5.2540  -59.5040 C   0  0  0  0  0  0  0  0  0  0  0  0
    9.0220    5.4270  -58.3250 C   0  0  2  0  0  0  0  0  0  0  0  0
   10.4640    5.2600  -58.8280 C   0  0  0  0  0  0  0  0  0  0  0  0
    8.7260    4.3530  -57.2620 C   0  0  0  0  0  0  0  0  0  0  0  0
    7.9270    2.7860  -59.0750 C   0  0  0  0  0  0  0  0  0  0  0  0
    7.4250    0.5360  -55.2570 C   0  0  0  0  0  0  0  0  0  0  0  0
    6.2890   -0.2250  -54.9560 C   0  0  0  0  0  0  0  0  0  0  0  0
    6.3340   -1.1730  -53.9290 C   0  0  0  0  0  0  0  0  0  0  0  0
    7.5110   -1.3720  -53.1880 C   0  0  0  0  0  0  0  0  0  0  0  0
    7.5470   -2.3790  -52.0630 C   0  0  0  0  0  0  0  0  0  0  0  0
    6.3590   -3.0230  -51.9040 F   0  0  0  0  0  0  0  0  0  0  0  0
    8.4790   -3.3560  -52.2560 F   0  0  0  0  0  0  0  0  0  0  0  0
    7.8390   -1.8230  -50.8550 F   0  0  0  0  0  0  0  0  0  0  0  0
    8.6360   -0.5870  -53.4800 C   0  0  0  0  0  0  0  0  0  0  0  0
    8.5930    0.3620  -54.5050 C   0  0  0  0  0  0  0  0  0  0  0  0
    9.4710    1.5960  -56.3280 H   0  0  0  0  0  0  0  0  0  0  0  0
   11.0373    2.9121  -57.5526 H   0  0  0  0  0  0  0  0  0  0  0  0
   10.4481    1.8054  -58.8561 H   0  0  0  0  0  0  0  0  0  0  0  0
   11.6778    3.7528  -59.8101 H   0  0  0  0  0  0  0  0  0  0  0  0
    9.8807    4.4754  -61.3851 H   0  0  0  0  0  0  0  0  0  0  0  0
    9.7951    2.7059  -61.0684 H   0  0  0  0  0  0  0  0  0  0  0  0
    7.5302    3.7484  -60.9808 H   0  0  0  0  0  0  0  0  0  0  0  0
    8.2532    6.0247  -60.2616 H   0  0  0  0  0  0  0  0  0  0  0  0
    7.0162    5.3558  -59.1366 H   0  0  0  0  0  0  0  0  0  0  0  0
    8.8983    6.4279  -57.8858 H   0  0  0  0  0  0  0  0  0  0  0  0
   10.6772    6.0289  -59.5852 H   0  0  0  0  0  0  0  0  0  0  0  0
   11.1572    5.3690  -57.9809 H   0  0  0  0  0  0  0  0  0  0  0  0
    9.4287    4.4702  -56.4239 H   0  0  0  0  0  0  0  0  0  0  0  0
    7.6912    4.4771  -56.9102 H   0  0  0  0  0  0  0  0  0  0  0  0
    6.8879    2.8942  -58.7305 H   0  0  0  0  0  0  0  0  0  0  0  0
    8.0774    1.7941  -59.5260 H   0  0  0  0  0  0  0  0  0  0  0  0
    5.3608   -0.0771  -55.5275 H   0  0  0  0  0  0  0  0  0  0  0  0
    5.4386   -1.7691  -53.6989 H   0  0  0  0  0  0  0  0  0  0  0  0
    9.5597   -0.7194  -52.8975 H   0  0  0  0  0  0  0  0  0  0  0  0
    9.4805    0.9747  -54.7218 H   0  0  0  0  0  0  0  0  0  0  0  0
  1  2  2  0
  2  3  1  0
  4  3  1  1
  4  5  1  0
  5  6  1  0
  6  7  1  0
  7  8  1  0
  8  9  1  0
  9 10  1  0
 10 11  1  0
 10 12  1  0
  8 13  1  0
  2 14  1  0
 14 15  1  0
 15 16  2  0
 16 17  1  0
 17 18  1  0
 18 19  1  0
 18 20  1  0
 18 21  1  0
 17 22  2  0
 22 23  1  0
 12  4  1  0
 23 14  2  0
 13  4  1  0
 11  6  1  0
  3 24  1  0
  5 25  1  0
  5 26  1  0
  6 27  1  6
  7 28  1  0
  7 29  1  0
  8 30  1  6
  9 31  1  0
  9 32  1  0
 10 33  1  1
 11 34  1  0
 11 35  1  0
 12 36  1  0
 12 37  1  0
 13 38  1  0
 13 39  1  0
 15 40  1  0
 16 41  1  0
 22 42  1  0
 23 43  1  0
M  END
>  <meeko>  (14) 
{"is_sidechain": false}

$$$$

     RDKit          3D

 42 44  0  0  0  0  0  0  0  0999 V2000
    6.4420    2.5340  -56.8260 O   0  0  0  0  0  0  0  0  0  0  0  0
    7.4340    1.8280  -56.6850 C   0  0  0  0  0  0  0  0  0  0  0  0
    8.5700    1.9380  -57.4640 N   0  0  0  0  0  0  0  0  0  0  0  0
    8.7000    2.9880  -58.4650 C   0  0  0  0  0  0  0  0  0  0  0  0
    9.4470    4.1980  -57.8900 C   0  0  0  0  0  0  0  0  0  0  0  0
    9.6600    5.2830  -58.9440 C   0  0  0  0  0  0  0  0  0  0  0  0
   10.3610    4.7340  -60.1830 C   0  0  0  0  0  0  0  0  0  0  0  0
    9.6220    3.5300  -60.7590 C   0  0  0  0  0  0  0  0  0  0  0  0
    9.4130    2.4440  -59.7090 C   0  0  0  0  0  0  0  0  0  0  0  0
    7.4770    0.8090  -55.6010 C   0  0  0  0  0  0  0  0  0  0  0  0
    6.2880    0.1640  -55.2440 C   0  0  0  0  0  0  0  0  0  0  0  0
    6.2870   -0.8000  -54.2300 C   0  0  0  0  0  0  0  0  0  0  0  0
    7.4700   -1.1470  -53.5590 C   0  0  0  0  0  0  0  0  0  0  0  0
    7.4670   -2.1650  -52.4950 C   0  0  0  0  0  0  0  0  0  0  0  0
    7.1020   -3.4950  -52.7650 C   0  0  0  0  0  0  0  0  0  0  0  0
    7.1000   -4.4610  -51.7560 C   0  0  0  0  0  0  0  0  0  0  0  0
    7.4630   -4.1140  -50.4580 C   0  0  0  0  0  0  0  0  0  0  0  0
    7.8280   -2.8020  -50.1670 C   0  0  0  0  0  0  0  0  0  0  0  0
    7.8300   -1.8370  -51.1780 C   0  0  0  0  0  0  0  0  0  0  0  0
    8.6590   -0.5030  -53.9400 C   0  0  0  0  0  0  0  0  0  0  0  0
    8.6680    0.4620  -54.9530 C   0  0  0  0  0  0  0  0  0  0  0  0
    9.4210    1.5160  -57.1200 H   0  0  0  0  0  0  0  0  0  0  0  0
    7.6938    3.3225  -58.7577 H   0  0  0  0  0  0  0  0  0  0  0  0
    8.8601    4.6178  -57.0597 H   0  0  0  0  0  0  0  0  0  0  0  0
   10.4340    3.8586  -57.5427 H   0  0  0  0  0  0  0  0  0  0  0  0
    8.6819    5.6910  -59.2388 H   0  0  0  0  0  0  0  0  0  0  0  0
   10.2973    6.0660  -58.5072 H   0  0  0  0  0  0  0  0  0  0  0  0
   10.4064    5.5241  -60.9470 H   0  0  0  0  0  0  0  0  0  0  0  0
   11.3713    4.4107  -59.8919 H   0  0  0  0  0  0  0  0  0  0  0  0
    8.6410    3.8587  -61.1327 H   0  0  0  0  0  0  0  0  0  0  0  0
   10.2316    3.1092  -61.5722 H   0  0  0  0  0  0  0  0  0  0  0  0
    8.8040    1.6386  -60.1454 H   0  0  0  0  0  0  0  0  0  0  0  0
   10.4005    2.0691  -59.4020 H   0  0  0  0  0  0  0  0  0  0  0  0
    5.3509    0.4156  -55.7622 H   0  0  0  0  0  0  0  0  0  0  0  0
    5.3437   -1.2940  -53.9541 H   0  0  0  0  0  0  0  0  0  0  0  0
    6.8132   -3.7799  -53.7875 H   0  0  0  0  0  0  0  0  0  0  0  0
    6.8113   -5.4969  -51.9875 H   0  0  0  0  0  0  0  0  0  0  0  0
    7.4616   -4.8747  -49.6634 H   0  0  0  0  0  0  0  0  0  0  0  0
    8.1147   -2.5252  -49.1417 H   0  0  0  0  0  0  0  0  0  0  0  0
    8.1206   -0.8035  -50.9386 H   0  0  0  0  0  0  0  0  0  0  0  0
    9.6000   -0.7622  -53.4327 H   0  0  0  0  0  0  0  0  0  0  0  0
    9.6119    0.9483  -55.2404 H   0  0  0  0  0  0  0  0  0  0  0  0
  1  2  2  0
  2  3  1  0
  3  4  1  0
  4  5  1  0
  5  6  1  0
  6  7  1  0
  7  8  1  0
  8  9  1  0
  2 10  1  0
 10 11  1  0
 11 12  2  0
 12 13  1  0
 13 14  1  0
 14 15  2  0
 15 16  1  0
 16 17  2  0
 17 18  1  0
 18 19  2  0
 13 20  2  0
 20 21  1  0
  9  4  1  0
 21 10  2  0
 19 14  1  0
  3 22  1  0
  4 23  1  0
  5 24  1  0
  5 25  1  0
  6 26  1  0
  6 27  1  0
  7 28  1  0
  7 29  1  0
  8 30  1  0
  8 31  1  0
  9 32  1  0
  9 33  1  0
 11 34  1  0
 12 35  1  0
 15 36  1  0
 16 37  1  0
 17 38  1  0
 18 39  1  0
 19 40  1  0
 20 41  1  0
 21 42  1  0
M  END
>  <meeko>  (15) 
{"is_sidechain": false}

$$$$

     RDKit          3D

 50 54  0  0  0  0  0  0  0  0999 V2000
    6.4910    2.2430  -56.7590 O   0  0  0  0  0  0  0  0  0  0  0  0
    7.5240    1.7180  -56.3610 C   0  0  0  0  0  0  0  0  0  0  0  0
    8.7860    2.0160  -56.8340 N   0  0  0  0  0  0  0  0  0  0  0  0
    9.0630    2.9680  -57.9160 C   0  0  2  0  0  0  0  0  0  0  0  0
    8.0630    2.8160  -59.0920 C   0  0  0  0  0  0  0  0  0  0  0  0
    8.3500    3.8620  -60.1840 C   0  0  1  0  0  0  0  0  0  0  0  0
    8.2000    5.2710  -59.5910 C   0  0  0  0  0  0  0  0  0  0  0  0
    9.1930    5.4600  -58.4330 C   0  0  2  0  0  0  0  0  0  0  0  0
   10.6250    5.2730  -58.9550 C   0  0  0  0  0  0  0  0  0  0  0  0
   10.7890    3.8640  -59.5460 C   0  0  2  0  0  0  0  0  0  0  0  0
    9.7870    3.6770  -60.6980 C   0  0  0  0  0  0  0  0  0  0  0  0
   10.5070    2.8170  -58.4540 C   0  0  0  0  0  0  0  0  0  0  0  0
    8.9090    4.4060  -57.3500 C   0  0  0  0  0  0  0  0  0  0  0  0
    7.4540    0.6540  -55.3220 C   0  0  0  0  0  0  0  0  0  0  0  0
    6.2860   -0.0810  -55.0900 C   0  0  0  0  0  0  0  0  0  0  0  0
    6.2690   -1.0730  -54.1030 C   0  0  0  0  0  0  0  0  0  0  0  0
    7.4120   -1.3600  -53.3380 C   0  0  0  0  0  0  0  0  0  0  0  0
    7.3880   -2.4070  -52.3040 C   0  0  0  0  0  0  0  0  0  0  0  0
    8.1170   -2.2630  -51.1110 C   0  0  0  0  0  0  0  0  0  0  0  0
    8.0970   -3.2580  -50.1300 C   0  0  0  0  0  0  0  0  0  0  0  0
    7.3460   -4.4150  -50.3240 C   0  0  0  0  0  0  0  0  0  0  0  0
    6.6160   -4.5770  -51.4980 C   0  0  0  0  0  0  0  0  0  0  0  0
    6.6380   -3.5820  -52.4800 C   0  0  0  0  0  0  0  0  0  0  0  0
    8.5800   -0.6250  -53.5960 C   0  0  0  0  0  0  0  0  0  0  0  0
    8.6040    0.3690  -54.5800 C   0  0  0  0  0  0  0  0  0  0  0  0
    9.5210    1.3550  -56.6170 H   0  0  0  0  0  0  0  0  0  0  0  0
    8.1606    1.8082  -59.5219 H   0  0  0  0  0  0  0  0  0  0  0  0
    7.0421    2.9698  -58.7123 H   0  0  0  0  0  0  0  0  0  0  0  0
    7.6402    3.7340  -61.0145 H   0  0  0  0  0  0  0  0  0  0  0  0
    8.4035    6.0188  -60.3716 H   0  0  0  0  0  0  0  0  0  0  0  0
    7.1747    5.3974  -59.2130 H   0  0  0  0  0  0  0  0  0  0  0  0
    9.0825    6.4697  -58.0108 H   0  0  0  0  0  0  0  0  0  0  0  0
   10.8290    6.0213  -59.7351 H   0  0  0  0  0  0  0  0  0  0  0  0
   11.3324    5.3999  -58.1223 H   0  0  0  0  0  0  0  0  0  0  0  0
   11.8150    3.7387  -59.9223 H   0  0  0  0  0  0  0  0  0  0  0  0
    9.9914    4.4208  -61.4822 H   0  0  0  0  0  0  0  0  0  0  0  0
    9.8948    2.6618  -61.1075 H   0  0  0  0  0  0  0  0  0  0  0  0
   10.6316    1.8096  -58.8779 H   0  0  0  0  0  0  0  0  0  0  0  0
   11.2129    2.9701  -57.6244 H   0  0  0  0  0  0  0  0  0  0  0  0
    9.6179    4.5434  -56.5202 H   0  0  0  0  0  0  0  0  0  0  0  0
    7.8743    4.5348  -56.9996 H   0  0  0  0  0  0  0  0  0  0  0  0
    5.3818    0.1208  -55.6831 H   0  0  0  0  0  0  0  0  0  0  0  0
    5.3431   -1.6388  -53.9227 H   0  0  0  0  0  0  0  0  0  0  0  0
    8.7126   -1.3529  -50.9470 H   0  0  0  0  0  0  0  0  0  0  0  0
    8.6751   -3.1274  -49.2033 H   0  0  0  0  0  0  0  0  0  0  0  0
    7.3299   -5.1982  -49.5518 H   0  0  0  0  0  0  0  0  0  0  0  0
    6.0210   -5.4890  -51.6534 H   0  0  0  0  0  0  0  0  0  0  0  0
    6.0590   -3.7213  -53.4049 H   0  0  0  0  0  0  0  0  0  0  0  0
    9.4905   -0.8340  -53.0153 H   0  0  0  0  0  0  0  0  0  0  0  0
    9.5316    0.9287  -54.7707 H   0  0  0  0  0  0  0  0  0  0  0  0
  1  2  2  0
  2  3  1  0
  4  3  1  1
  4  5  1  0
  5  6  1  0
  6  7  1  0
  7  8  1  0
  8  9  1  0
  9 10  1  0
 10 11  1  0
 10 12  1  0
  8 13  1  0
  2 14  1  0
 14 15  1  0
 15 16  2  0
 16 17  1  0
 17 18  1  0
 18 19  2  0
 19 20  1  0
 20 21  2  0
 21 22  1  0
 22 23  2  0
 17 24  2  0
 24 25  1  0
 12  4  1  0
 25 14  2  0
 13  4  1  0
 23 18  1  0
 11  6  1  0
  3 26  1  0
  5 27  1  0
  5 28  1  0
  6 29  1  6
  7 30  1  0
  7 31  1  0
  8 32  1  1
  9 33  1  0
  9 34  1  0
 10 35  1  6
 11 36  1  0
 11 37  1  0
 12 38  1  0
 12 39  1  0
 13 40  1  0
 13 41  1  0
 15 42  1  0
 16 43  1  0
 19 44  1  0
 20 45  1  0
 21 46  1  0
 22 47  1  0
 23 48  1  0
 24 49  1  0
 25 50  1  0
M  END
>  <meeko>  (16) 
{"is_sidechain": false}

$$$$

     RDKit          3D

 50 54  0  0  0  0  0  0  0  0999 V2000
    6.5390    2.3430  -56.5920 O   0  0  0  0  0  0  0  0  0  0  0  0
    7.5760    1.7510  -56.3190 C   0  0  0  0  0  0  0  0  0  0  0  0
    8.8040    2.0150  -56.8910 N   0  0  0  0  0  0  0  0  0  0  0  0
    9.0310    3.0140  -57.9420 C   0  0  2  0  0  0  0  0  0  0  0  0
    8.9490    4.4260  -57.2980 C   0  0  0  0  0  0  0  0  0  0  0  0
    9.1850    5.5260  -58.3450 C   0  0  1  0  0  0  0  0  0  0  0  0
   10.5750    5.3370  -58.9710 C   0  0  0  0  0  0  0  0  0  0  0  0
   10.6670    3.9560  -59.6390 C   0  0  2  0  0  0  0  0  0  0  0  0
    9.5870    3.8470  -60.7290 C   0  0  0  0  0  0  0  0  0  0  0  0
    8.1900    4.0350  -60.1110 C   0  0  2  0  0  0  0  0  0  0  0  0
    8.1140    5.4160  -59.4410 C   0  0  0  0  0  0  0  0  0  0  0  0
    7.9530    2.9420  -59.0540 C   0  0  0  0  0  0  0  0  0  0  0  0
   10.4330    2.8620  -58.5820 C   0  0  0  0  0  0  0  0  0  0  0  0
    7.5450    0.6330  -55.3350 C   0  0  0  0  0  0  0  0  0  0  0  0
    6.3600   -0.0370  -55.0130 C   0  0  0  0  0  0  0  0  0  0  0  0
    6.3790   -1.0850  -54.0860 C   0  0  0  0  0  0  0  0  0  0  0  0
    7.5750   -1.4910  -53.4690 C   0  0  0  0  0  0  0  0  0  0  0  0
    7.5900   -2.5960  -52.4970 C   0  0  0  0  0  0  0  0  0  0  0  0
    8.5130   -2.6120  -51.4340 C   0  0  0  0  0  0  0  0  0  0  0  0
    8.5290   -3.6620  -50.5130 C   0  0  0  0  0  0  0  0  0  0  0  0
    7.6200   -4.7030  -50.6450 C   0  0  0  0  0  0  0  0  0  0  0  0
    7.6350   -5.7090  -49.7620 F   0  0  0  0  0  0  0  0  0  0  0  0
    6.6980   -4.7160  -51.6830 C   0  0  0  0  0  0  0  0  0  0  0  0
    6.6830   -3.6660  -52.6040 C   0  0  0  0  0  0  0  0  0  0  0  0
    8.7580   -0.8170  -53.8170 C   0  0  0  0  0  0  0  0  0  0  0  0
    8.7460    0.2300  -54.7430 C   0  0  0  0  0  0  0  0  0  0  0  0
    9.5210    1.3110  -56.7770 H   0  0  0  0  0  0  0  0  0  0  0  0
    7.9518    4.5609  -56.8537 H   0  0  0  0  0  0  0  0  0  0  0  0
    9.7296    4.5043  -56.5269 H   0  0  0  0  0  0  0  0  0  0  0  0
    9.1261    6.5151  -57.8673 H   0  0  0  0  0  0  0  0  0  0  0  0
   10.7439    6.1189  -59.7261 H   0  0  0  0  0  0  0  0  0  0  0  0
   11.3389    5.4085  -58.1827 H   0  0  0  0  0  0  0  0  0  0  0  0
   11.6627    3.8286  -60.0888 H   0  0  0  0  0  0  0  0  0  0  0  0
    9.7566    4.6248  -61.4881 H   0  0  0  0  0  0  0  0  0  0  0  0
    9.6439    2.8515  -61.1935 H   0  0  0  0  0  0  0  0  0  0  0  0
    7.4232    3.9629  -60.8964 H   0  0  0  0  0  0  0  0  0  0  0  0
    8.2837    6.1975  -60.1963 H   0  0  0  0  0  0  0  0  0  0  0  0
    7.1194    5.5447  -58.9892 H   0  0  0  0  0  0  0  0  0  0  0  0
    6.9594    3.0841  -58.6038 H   0  0  0  0  0  0  0  0  0  0  0  0
    8.0129    1.9581  -59.5423 H   0  0  0  0  0  0  0  0  0  0  0  0
   10.5066    1.8746  -59.0612 H   0  0  0  0  0  0  0  0  0  0  0  0
   11.1950    2.9605  -57.7948 H   0  0  0  0  0  0  0  0  0  0  0  0
    5.4135    0.2599  -55.4884 H   0  0  0  0  0  0  0  0  0  0  0  0
    5.4403   -1.6009  -53.8354 H   0  0  0  0  0  0  0  0  0  0  0  0
    9.2316   -1.7860  -51.3273 H   0  0  0  0  0  0  0  0  0  0  0  0
    9.2571   -3.6641  -49.6885 H   0  0  0  0  0  0  0  0  0  0  0  0
    5.9843   -5.5475  -51.7794 H   0  0  0  0  0  0  0  0  0  0  0  0
    5.9511   -3.6759  -53.4251 H   0  0  0  0  0  0  0  0  0  0  0  0
    9.7088   -1.1182  -53.3532 H   0  0  0  0  0  0  0  0  0  0  0  0
    9.6848    0.7388  -55.0070 H   0  0  0  0  0  0  0  0  0  0  0  0
  1  2  2  0
  2  3  1  0
  4  3  1  1
  4  5  1  0
  5  6  1  0
  6  7  1  0
  7  8  1  0
  8  9  1  0
  9 10  1  0
 10 11  1  0
 10 12  1  0
  8 13  1  0
  2 14  1  0
 14 15  1  0
 15 16  2  0
 16 17  1  0
 17 18  1  0
 18 19  1  0
 19 20  2  0
 20 21  1  0
 21 22  1  0
 21 23  2  0
 23 24  1  0
 17 25  2  0
 25 26  1  0
 12  4  1  0
 26 14  2  0
 13  4  1  0
 24 18  2  0
 11  6  1  0
  3 27  1  0
  5 28  1  0
  5 29  1  0
  6 30  1  1
  7 31  1  0
  7 32  1  0
  8 33  1  6
  9 34  1  0
  9 35  1  0
 10 36  1  6
 11 37  1  0
 11 38  1  0
 12 39  1  0
 12 40  1  0
 13 41  1  0
 13 42  1  0
 15 43  1  0
 16 44  1  0
 19 45  1  0
 20 46  1  0
 23 47  1  0
 24 48  1  0
 25 49  1  0
 26 50  1  0
M  END
>  <meeko>  (17) 
{"is_sidechain": false}

$$$$

     RDKit          3D

 50 54  0  0  0  0  0  0  0  0999 V2000
    6.5140    2.4470  -56.5000 O   0  0  0  0  0  0  0  0  0  0  0  0
    7.5190    1.7580  -56.3780 C   0  0  0  0  0  0  0  0  0  0  0  0
    8.7030    1.9710  -57.0560 N   0  0  0  0  0  0  0  0  0  0  0  0
    8.9380    3.0810  -57.9860 C   0  0  2  0  0  0  0  0  0  0  0  0
   10.3540    2.9120  -58.6000 C   0  0  0  0  0  0  0  0  0  0  0  0
   10.6710    4.0510  -59.5830 C   0  0  1  0  0  0  0  0  0  0  0  0
    9.6330    4.0430  -60.7150 C   0  0  0  0  0  0  0  0  0  0  0  0
    8.2230    4.2330  -60.1350 C   0  0  2  0  0  0  0  0  0  0  0  0
    8.1600    5.5740  -59.3830 C   0  0  0  0  0  0  0  0  0  0  0  0
    9.1960    5.5930  -58.2460 C   0  0  2  0  0  0  0  0  0  0  0  0
   10.6010    5.3940  -58.8380 C   0  0  0  0  0  0  0  0  0  0  0  0
    8.8910    4.4500  -57.2620 C   0  0  0  0  0  0  0  0  0  0  0  0
    7.9170    3.0880  -59.1530 C   0  0  0  0  0  0  0  0  0  0  0  0
    7.5200    0.6260  -55.4110 C   0  0  0  0  0  0  0  0  0  0  0  0
    6.3390   -0.0040  -55.0060 C   0  0  0  0  0  0  0  0  0  0  0  0
    6.3890   -1.0620  -54.0900 C   0  0  0  0  0  0  0  0  0  0  0  0
    7.6100   -1.5060  -53.5550 C   0  0  0  0  0  0  0  0  0  0  0  0
    7.6570   -2.6160  -52.5910 C   0  0  0  0  0  0  0  0  0  0  0  0
    6.8750   -3.7690  -52.7760 C   0  0  0  0  0  0  0  0  0  0  0  0
    6.9200   -4.8270  -51.8620 C   0  0  0  0  0  0  0  0  0  0  0  0
    7.7490   -4.7420  -50.7470 C   0  0  0  0  0  0  0  0  0  0  0  0
    7.8050   -6.0400  -49.6210 Cl  0  0  0  0  0  0  0  0  0  0  0  0
    8.5330   -3.6100  -50.5400 C   0  0  0  0  0  0  0  0  0  0  0  0
    8.4860   -2.5560  -51.4570 C   0  0  0  0  0  0  0  0  0  0  0  0
    8.7860   -0.8510  -53.9620 C   0  0  0  0  0  0  0  0  0  0  0  0
    8.7420    0.2060  -54.8760 C   0  0  0  0  0  0  0  0  0  0  0  0
    9.5250    1.5040  -56.6960 H   0  0  0  0  0  0  0  0  0  0  0  0
   11.0993    2.9179  -57.7910 H   0  0  0  0  0  0  0  0  0  0  0  0
   10.3855    1.9588  -59.1481 H   0  0  0  0  0  0  0  0  0  0  0  0
   11.6781    3.9125  -60.0031 H   0  0  0  0  0  0  0  0  0  0  0  0
    9.8521    4.8618  -61.4161 H   0  0  0  0  0  0  0  0  0  0  0  0
    9.6802    3.0786  -61.2420 H   0  0  0  0  0  0  0  0  0  0  0  0
    7.4849    4.2287  -60.9506 H   0  0  0  0  0  0  0  0  0  0  0  0
    8.3742    6.3943  -60.0839 H   0  0  0  0  0  0  0  0  0  0  0  0
    7.1544    5.6994  -58.9552 H   0  0  0  0  0  0  0  0  0  0  0  0
    9.1501    6.5569  -57.7179 H   0  0  0  0  0  0  0  0  0  0  0  0
   10.8200    6.2121  -59.5400 H   0  0  0  0  0  0  0  0  0  0  0  0
   11.3401    5.3945  -58.0233 H   0  0  0  0  0  0  0  0  0  0  0  0
    9.6386    4.4583  -56.4552 H   0  0  0  0  0  0  0  0  0  0  0  0
    7.8828    4.5979  -56.8476 H   0  0  0  0  0  0  0  0  0  0  0  0
    6.9039    3.2221  -58.7460 H   0  0  0  0  0  0  0  0  0  0  0  0
    7.9878    2.1313  -59.6913 H   0  0  0  0  0  0  0  0  0  0  0  0
    5.3711    0.3314  -55.4068 H   0  0  0  0  0  0  0  0  0  0  0  0
    5.4546   -1.5549  -53.7835 H   0  0  0  0  0  0  0  0  0  0  0  0
    6.2165   -3.8407  -53.6542 H   0  0  0  0  0  0  0  0  0  0  0  0
    6.3025   -5.7229  -52.0238 H   0  0  0  0  0  0  0  0  0  0  0  0
    9.1871   -3.5454  -49.6579 H   0  0  0  0  0  0  0  0  0  0  0  0
    9.1081   -1.6646  -51.2886 H   0  0  0  0  0  0  0  0  0  0  0  0
    9.7552   -1.1752  -53.5551 H   0  0  0  0  0  0  0  0  0  0  0  0
    9.6729    0.7096  -55.1757 H   0  0  0  0  0  0  0  0  0  0  0  0
  1  2  2  0
  2  3  1  0
  4  3  1  1
  4  5  1  0
  5  6  1  0
  6  7  1  0
  7  8  1  0
  8  9  1  0
  9 10  1  0
 10 11  1  0
 10 12  1  0
  8 13  1  0
  2 14  1  0
 14 15  1  0
 15 16  2  0
 16 17  1  0
 17 18  1  0
 18 19  1  0
 19 20  2  0
 20 21  1  0
 21 22  1  0
 21 23  2  0
 23 24  1  0
 17 25  2  0
 25 26  1  0
 12  4  1  0
 26 14  2  0
 13  4  1  0
 24 18  2  0
 11  6  1  0
  3 27  1  0
  5 28  1  0
  5 29  1  0
  6 30  1  6
  7 31  1  0
  7 32  1  0
  8 33  1  6
  9 34  1  0
  9 35  1  0
 10 36  1  1
 11 37  1  0
 11 38  1  0
 12 39  1  0
 12 40  1  0
 13 41  1  0
 13 42  1  0
 15 43  1  0
 16 44  1  0
 19 45  1  0
 20 46  1  0
 23 47  1  0
 24 48  1  0
 25 49  1  0
 26 50  1  0
M  END
>  <meeko>  (18) 
{"is_sidechain": false}

$$$$

     RDKit          3D

 46 50  0  0  0  0  0  0  0  0999 V2000
    6.4360    2.0540  -56.6840 O   0  0  0  0  0  0  0  0  0  0  0  0
    7.5090    1.5630  -56.3550 C   0  0  0  0  0  0  0  0  0  0  0  0
    8.7320    1.9240  -56.8840 N   0  0  0  0  0  0  0  0  0  0  0  0
    8.9240    2.9830  -57.8810 C   0  0  2  0  0  0  0  0  0  0  0  0
    8.7600    4.3910  -57.2580 C   0  0  0  0  0  0  0  0  0  0  0  0
    9.0220    5.4820  -58.3120 C   0  0  1  0  0  0  0  0  0  0  0  0
   10.4570    5.3410  -58.8440 C   0  0  0  0  0  0  0  0  0  0  0  0
   10.6440    3.9580  -59.4890 C   0  0  2  0  0  0  0  0  0  0  0  0
    9.6490    3.8000  -60.6500 C   0  0  0  0  0  0  0  0  0  0  0  0
    8.2100    3.9310  -60.1280 C   0  0  2  0  0  0  0  0  0  0  0  0
    8.0300    5.3130  -59.4750 C   0  0  0  0  0  0  0  0  0  0  0  0
    7.9470    2.8370  -59.0770 C   0  0  0  0  0  0  0  0  0  0  0  0
   10.3700    2.8710  -58.4390 C   0  0  0  0  0  0  0  0  0  0  0  0
    7.5460    0.5300  -55.2840 C   0  0  0  0  0  0  0  0  0  0  0  0
    6.3400    0.1240  -54.7090 C   0  0  0  0  0  0  0  0  0  0  0  0
    6.3340   -0.8390  -53.6980 C   0  0  0  0  0  0  0  0  0  0  0  0
    7.5330   -1.4170  -53.2550 C   0  0  0  0  0  0  0  0  0  0  0  0
    7.5440   -2.3860  -52.2390 C   0  0  0  0  0  0  0  0  0  0  0  0
    8.7430   -2.9620  -51.8140 C   0  0  0  0  0  0  0  0  0  0  0  0
    9.9450   -2.5760  -52.3990 C   0  0  0  0  0  0  0  0  0  0  0  0
    9.9520   -1.6140  -53.4100 C   0  0  0  0  0  0  0  0  0  0  0  0
    8.7570   -1.0230  -53.8470 C   0  0  0  0  0  0  0  0  0  0  0  0
    8.7490   -0.0520  -54.8630 C   0  0  0  0  0  0  0  0  0  0  0  0
    9.5520    1.6420  -56.3640 H   0  0  0  0  0  0  0  0  0  0  0  0
    7.7354    4.4990  -56.8725 H   0  0  0  0  0  0  0  0  0  0  0  0
    9.4872    4.5047  -56.4406 H   0  0  0  0  0  0  0  0  0  0  0  0
    8.8928    6.4749  -57.8564 H   0  0  0  0  0  0  0  0  0  0  0  0
   10.6456    6.1220  -59.5953 H   0  0  0  0  0  0  0  0  0  0  0  0
   11.1645    5.4490  -58.0087 H   0  0  0  0  0  0  0  0  0  0  0  0
   11.6726    3.8613  -59.8667 H   0  0  0  0  0  0  0  0  0  0  0  0
    9.8372    4.5819  -61.4004 H   0  0  0  0  0  0  0  0  0  0  0  0
    9.7796    2.8075  -61.1059 H   0  0  0  0  0  0  0  0  0  0  0  0
    7.5033    3.8198  -60.9635 H   0  0  0  0  0  0  0  0  0  0  0  0
    8.2124    6.0964  -60.2254 H   0  0  0  0  0  0  0  0  0  0  0  0
    7.0039    5.3970  -59.0877 H   0  0  0  0  0  0  0  0  0  0  0  0
    6.9131    2.9270  -58.7123 H   0  0  0  0  0  0  0  0  0  0  0  0
    8.1016    1.8527  -59.5432 H   0  0  0  0  0  0  0  0  0  0  0  0
   10.5002    1.8823  -58.9032 H   0  0  0  0  0  0  0  0  0  0  0  0
   11.0767    3.0037  -57.6065 H   0  0  0  0  0  0  0  0  0  0  0  0
    5.3924    0.5639  -55.0534 H   0  0  0  0  0  0  0  0  0  0  0  0
    5.3803   -1.1473  -53.2447 H   0  0  0  0  0  0  0  0  0  0  0  0
    6.5971   -2.6951  -51.7723 H   0  0  0  0  0  0  0  0  0  0  0  0
    8.7372   -3.7204  -51.0173 H   0  0  0  0  0  0  0  0  0  0  0  0
   10.8899   -3.0292  -52.0646 H   0  0  0  0  0  0  0  0  0  0  0  0
   10.9058   -1.3156  -53.8697 H   0  0  0  0  0  0  0  0  0  0  0  0
    9.6958    0.2539  -55.3320 H   0  0  0  0  0  0  0  0  0  0  0  0
  1  2  2  0
  2  3  1  0
  4  3  1  1
  4  5  1  0
  5  6  1  0
  6  7  1  0
  7  8  1  0
  8  9  1  0
  9 10  1  0
 10 11  1  0
 10 12  1  0
  8 13  1  0
  2 14  1  0
 14 15  1  0
 15 16  2  0
 16 17  1  0
 17 18  2  0
 18 19  1  0
 19 20  2  0
 20 21  1  0
 21 22  2  0
 22 23  1  0
 12  4  1  0
 23 14  2  0
 13  4  1  0
 22 17  1  0
 11  6  1  0
  3 24  1  0
  5 25  1  0
  5 26  1  0
  6 27  1  1
  7 28  1  0
  7 29  1  0
  8 30  1  6
  9 31  1  0
  9 32  1  0
 10 33  1  6
 11 34  1  0
 11 35  1  0
 12 36  1  0
 12 37  1  0
 13 38  1  0
 13 39  1  0
 15 40  1  0
 16 41  1  0
 18 42  1  0
 19 43  1  0
 20 44  1  0
 21 45  1  0
 23 46  1  0
M  END
>  <meeko>  (19) 
{"is_sidechain": false}

$$$$

     RDKit          3D

 50 54  0  0  0  0  0  0  0  0999 V2000
   10.7650   -2.1280  -53.6910 C   0  0  0  0  0  0  0  0  0  0  0  0
    9.5870   -1.3460  -53.9930 N   0  0  0  0  0  0  0  0  0  0  0  0
    9.6810   -0.3640  -54.9150 N   0  0  0  0  0  0  0  0  0  0  0  0
    8.4220    0.1150  -55.0120 C   0  0  0  0  0  0  0  0  0  0  0  0
    8.0740    1.2080  -55.9360 C   0  0  0  0  0  0  0  0  0  0  0  0
    6.9250    1.6080  -56.0800 O   0  0  0  0  0  0  0  0  0  0  0  0
    9.1700    1.7110  -56.6020 N   0  0  0  0  0  0  0  0  0  0  0  0
    9.1650    2.7920  -57.5800 C   0  0  2  0  0  0  0  0  0  0  0  0
    8.9100    4.1650  -56.9100 C   0  0  0  0  0  0  0  0  0  0  0  0
    8.9570    5.2950  -57.9560 C   0  0  1  0  0  0  0  0  0  0  0  0
   10.3430    5.3150  -58.6200 C   0  0  0  0  0  0  0  0  0  0  0  0
   10.6130    3.9700  -59.3110 C   0  0  2  0  0  0  0  0  0  0  0  0
    9.5370    3.7200  -60.3790 C   0  0  0  0  0  0  0  0  0  0  0  0
    8.1460    3.6900  -59.7250 C   0  0  2  0  0  0  0  0  0  0  0  0
    7.8840    5.0370  -59.0270 C   0  0  0  0  0  0  0  0  0  0  0  0
    8.0990    2.5620  -58.6810 C   0  0  0  0  0  0  0  0  0  0  0  0
   10.5560    2.8450  -58.2660 C   0  0  0  0  0  0  0  0  0  0  0  0
    7.5520   -0.5680  -54.1310 C   0  0  0  0  0  0  0  0  0  0  0  0
    8.3280   -1.4930  -53.4610 C   0  0  0  0  0  0  0  0  0  0  0  0
    7.9520   -2.4590  -52.4360 C   0  0  0  0  0  0  0  0  0  0  0  0
    8.1570   -2.1840  -51.0790 C   0  0  0  0  0  0  0  0  0  0  0  0
    7.7920   -3.1150  -50.1050 C   0  0  0  0  0  0  0  0  0  0  0  0
    7.2140   -4.3270  -50.4800 C   0  0  0  0  0  0  0  0  0  0  0  0
    6.9950   -4.6050  -51.8280 C   0  0  0  0  0  0  0  0  0  0  0  0
    7.3590   -3.6740  -52.8020 C   0  0  0  0  0  0  0  0  0  0  0  0
   10.8833   -2.2065  -52.6002 H   0  0  0  0  0  0  0  0  0  0  0  0
   10.6573   -3.1345  -54.1215 H   0  0  0  0  0  0  0  0  0  0  0  0
   11.6507   -1.6379  -54.1215 H   0  0  0  0  0  0  0  0  0  0  0  0
   10.0440    1.2530  -56.3520 H   0  0  0  0  0  0  0  0  0  0  0  0
    7.9194    4.1557  -56.4319 H   0  0  0  0  0  0  0  0  0  0  0  0
    9.6931    4.3441  -56.1585 H   0  0  0  0  0  0  0  0  0  0  0  0
    8.7681    6.2619  -57.4667 H   0  0  0  0  0  0  0  0  0  0  0  0
   10.3777    6.1218  -59.3669 H   0  0  0  0  0  0  0  0  0  0  0  0
   11.1100    5.4864  -57.8504 H   0  0  0  0  0  0  0  0  0  0  0  0
   11.6059    3.9909  -59.7839 H   0  0  0  0  0  0  0  0  0  0  0  0
    9.5711    4.5263  -61.1265 H   0  0  0  0  0  0  0  0  0  0  0  0
    9.7287    2.7524  -60.8659 H   0  0  0  0  0  0  0  0  0  0  0  0
    7.3797    3.5149  -60.4944 H   0  0  0  0  0  0  0  0  0  0  0  0
    7.9129    5.8449  -59.7729 H   0  0  0  0  0  0  0  0  0  0  0  0
    6.8952    5.0068  -58.5459 H   0  0  0  0  0  0  0  0  0  0  0  0
    7.1011    2.5389  -58.2187 H   0  0  0  0  0  0  0  0  0  0  0  0
    8.3085    1.6058  -59.1828 H   0  0  0  0  0  0  0  0  0  0  0  0
   10.7488    1.8827  -58.7628 H   0  0  0  0  0  0  0  0  0  0  0  0
   11.3180    3.0420  -57.4976 H   0  0  0  0  0  0  0  0  0  0  0  0
    6.4728   -0.3967  -54.0047 H   0  0  0  0  0  0  0  0  0  0  0  0
    8.6090   -1.2274  -50.7779 H   0  0  0  0  0  0  0  0  0  0  0  0
    7.9605   -2.8922  -49.0411 H   0  0  0  0  0  0  0  0  0  0  0  0
    6.9312   -5.0629  -49.7129 H   0  0  0  0  0  0  0  0  0  0  0  0
    6.5348   -5.5591  -52.1246 H   0  0  0  0  0  0  0  0  0  0  0  0
    7.1790   -3.8959  -53.8642 H   0  0  0  0  0  0  0  0  0  0  0  0
  1  2  1  0
  2  3  1  0
  3  4  2  0
  4  5  1  0
  5  6  2  0
  5  7  1  0
  8  7  1  1
  8  9  1  0
  9 10  1  0
 10 11  1  0
 11 12  1  0
 12 13  1  0
 13 14  1  0
 14 15  1  0
 14 16  1  0
 12 17  1  0
  4 18  1  0
 18 19  2  0
 19 20  1  0
 20 21  2  0
 21 22  1  0
 22 23  2  0
 23 24  1  0
 24 25  2  0
 19  2  1  0
 25 20  1  0
 16  8  1  0
 17  8  1  0
 15 10  1  0
  1 26  1  0
  1 27  1  0
  1 28  1  0
  7 29  1  0
  9 30  1  0
  9 31  1  0
 10 32  1  1
 11 33  1  0
 11 34  1  0
 12 35  1  6
 13 36  1  0
 13 37  1  0
 14 38  1  6
 15 39  1  0
 15 40  1  0
 16 41  1  0
 16 42  1  0
 17 43  1  0
 17 44  1  0
 18 45  1  0
 21 46  1  0
 22 47  1  0
 23 48  1  0
 24 49  1  0
 25 50  1  0
M  END
>  <meeko>  (20) 
{"is_sidechain": false}

$$$$

     RDKit          3D

 56 60  0  0  0  0  0  0  0  0999 V2000
   10.8170   -3.7500  -54.6080 C   0  0  0  0  0  0  0  0  0  0  0  0
   10.9070   -2.4140  -53.8720 C   0  0  0  0  0  0  0  0  0  0  0  0
   11.2880   -2.5940  -52.4040 C   0  0  0  0  0  0  0  0  0  0  0  0
    9.7240   -1.5780  -54.0700 N   0  0  0  0  0  0  0  0  0  0  0  0
    9.8160   -0.5870  -54.9910 N   0  0  0  0  0  0  0  0  0  0  0  0
    8.6100    0.0140  -54.9680 C   0  0  0  0  0  0  0  0  0  0  0  0
    8.2930    1.1610  -55.8350 C   0  0  0  0  0  0  0  0  0  0  0  0
    7.1560    1.6030  -55.9560 O   0  0  0  0  0  0  0  0  0  0  0  0
    9.4040    1.6630  -56.4780 N   0  0  0  0  0  0  0  0  0  0  0  0
    9.4300    2.7900  -57.4030 C   0  0  2  0  0  0  0  0  0  0  0  0
    8.3810    2.6280  -58.5310 C   0  0  0  0  0  0  0  0  0  0  0  0
    8.4610    3.8060  -59.5170 C   0  0  1  0  0  0  0  0  0  0  0  0
    8.2060    5.1190  -58.7600 C   0  0  0  0  0  0  0  0  0  0  0  0
    9.2630    5.3110  -57.6590 C   0  0  2  0  0  0  0  0  0  0  0  0
   10.6600    5.3430  -58.2980 C   0  0  0  0  0  0  0  0  0  0  0  0
   10.9250    4.0290  -59.0490 C   0  0  2  0  0  0  0  0  0  0  0  0
    9.8630    3.8480  -60.1460 C   0  0  0  0  0  0  0  0  0  0  0  0
   10.8340    2.8560  -58.0610 C   0  0  0  0  0  0  0  0  0  0  0  0
    9.1820    4.1330  -56.6710 C   0  0  0  0  0  0  0  0  0  0  0  0
    7.7580   -0.6060  -54.0290 C   0  0  0  0  0  0  0  0  0  0  0  0
    8.4890   -1.6310  -53.4610 C   0  0  0  0  0  0  0  0  0  0  0  0
    8.0630   -2.5710  -52.4350 C   0  0  0  0  0  0  0  0  0  0  0  0
    7.5520   -3.8240  -52.7930 C   0  0  0  0  0  0  0  0  0  0  0  0
    7.1210   -4.7150  -51.8080 C   0  0  0  0  0  0  0  0  0  0  0  0
    7.1820   -4.3530  -50.4630 C   0  0  0  0  0  0  0  0  0  0  0  0
    7.6680   -3.0970  -50.1020 C   0  0  0  0  0  0  0  0  0  0  0  0
    8.1010   -2.2060  -51.0850 C   0  0  0  0  0  0  0  0  0  0  0  0
   10.7618   -4.5690  -53.8758 H   0  0  0  0  0  0  0  0  0  0  0  0
    9.9161   -3.7610  -55.2390 H   0  0  0  0  0  0  0  0  0  0  0  0
   11.7083   -3.8818  -55.2390 H   0  0  0  0  0  0  0  0  0  0  0  0
   11.7335   -1.8523  -54.3317 H   0  0  0  0  0  0  0  0  0  0  0  0
   10.4782   -2.2114  -51.7654 H   0  0  0  0  0  0  0  0  0  0  0  0
   11.4465   -3.6622  -52.1946 H   0  0  0  0  0  0  0  0  0  0  0  0
   12.2138   -2.0380  -52.1946 H   0  0  0  0  0  0  0  0  0  0  0  0
   10.2640    1.1660  -56.2550 H   0  0  0  0  0  0  0  0  0  0  0  0
    8.5737    1.6898  -59.0720 H   0  0  0  0  0  0  0  0  0  0  0  0
    7.3770    2.6086  -58.0819 H   0  0  0  0  0  0  0  0  0  0  0  0
    7.7050    3.6798  -60.3060 H   0  0  0  0  0  0  0  0  0  0  0  0
    8.2589    5.9614  -59.4654 H   0  0  0  0  0  0  0  0  0  0  0  0
    7.2088    5.0789  -58.2973 H   0  0  0  0  0  0  0  0  0  0  0  0
    9.0788    6.2557  -57.1265 H   0  0  0  0  0  0  0  0  0  0  0  0
   10.7182    6.1843  -59.0043 H   0  0  0  0  0  0  0  0  0  0  0  0
   11.4155    5.4659  -57.5080 H   0  0  0  0  0  0  0  0  0  0  0  0
   11.9264    4.0573  -59.5032 H   0  0  0  0  0  0  0  0  0  0  0  0
    9.9208    4.6898  -60.8517 H   0  0  0  0  0  0  0  0  0  0  0  0
   10.0494    2.9030  -60.6773 H   0  0  0  0  0  0  0  0  0  0  0  0
   11.0229    1.9161  -58.6003 H   0  0  0  0  0  0  0  0  0  0  0  0
   11.5845    3.0047  -57.2707 H   0  0  0  0  0  0  0  0  0  0  0  0
    9.9438    4.2644  -55.8884 H   0  0  0  0  0  0  0  0  0  0  0  0
    8.1771    4.1132  -56.2240 H   0  0  0  0  0  0  0  0  0  0  0  0
    6.7194   -0.3284  -53.7961 H   0  0  0  0  0  0  0  0  0  0  0  0
    7.4897   -4.1078  -53.8539 H   0  0  0  0  0  0  0  0  0  0  0  0
    6.7328   -5.7038  -52.0936 H   0  0  0  0  0  0  0  0  0  0  0  0
    6.8471   -5.0575  -49.6875 H   0  0  0  0  0  0  0  0  0  0  0  0
    7.7102   -2.8081  -49.0414 H   0  0  0  0  0  0  0  0  0  0  0  0
    8.4739   -1.2120  -50.7970 H   0  0  0  0  0  0  0  0  0  0  0  0
  1  2  1  0
  2  3  1  0
  2  4  1  0
  4  5  1  0
  5  6  2  0
  6  7  1  0
  7  8  2  0
  7  9  1  0
 10  9  1  1
 10 11  1  0
 11 12  1  0
 12 13  1  0
 13 14  1  0
 14 15  1  0
 15 16  1  0
 16 17  1  0
 16 18  1  0
 14 19  1  0
  6 20  1  0
 20 21  2  0
 21 22  1  0
 22 23  2  0
 23 24  1  0
 24 25  2  0
 25 26  1  0
 26 27  2  0
 21  4  1  0
 27 22  1  0
 18 10  1  0
 19 10  1  0
 17 12  1  0
  1 28  1  0
  1 29  1  0
  1 30  1  0
  2 31  1  0
  3 32  1  0
  3 33  1  0
  3 34  1  0
  9 35  1  0
 11 36  1  0
 11 37  1  0
 12 38  1  6
 13 39  1  0
 13 40  1  0
 14 41  1  1
 15 42  1  0
 15 43  1  0
 16 44  1  6
 17 45  1  0
 17 46  1  0
 18 47  1  0
 18 48  1  0
 19 49  1  0
 19 50  1  0
 20 51  1  0
 23 52  1  0
 24 53  1  0
 25 54  1  0
 26 55  1  0
 27 56  1  0
M  END
>  <meeko>  (21) 
{"is_sidechain": false}

$$$$

     RDKit          3D

 53 57  0  0  0  0  0  0  0  0999 V2000
   11.0290   -3.3100  -54.2460 C   0  0  0  0  0  0  0  0  0  0  0  0
   10.8090   -1.9950  -53.5190 C   0  0  0  0  0  0  0  0  0  0  0  0
    9.5830   -1.3340  -53.9320 N   0  0  0  0  0  0  0  0  0  0  0  0
    9.6570   -0.3680  -54.8760 N   0  0  0  0  0  0  0  0  0  0  0  0
    8.3890    0.0760  -54.9930 C   0  0  0  0  0  0  0  0  0  0  0  0
    8.0240    1.1510  -55.9300 C   0  0  0  0  0  0  0  0  0  0  0  0
    6.8660    1.5210  -56.0930 O   0  0  0  0  0  0  0  0  0  0  0  0
    9.1160    1.6780  -56.5850 N   0  0  0  0  0  0  0  0  0  0  0  0
    9.0960    2.7500  -57.5740 C   0  0  2  0  0  0  0  0  0  0  0  0
    8.0250    2.5000  -58.6650 C   0  0  0  0  0  0  0  0  0  0  0  0
    8.0570    3.6190  -59.7210 C   0  0  1  0  0  0  0  0  0  0  0  0
    7.7900    4.9690  -59.0350 C   0  0  0  0  0  0  0  0  0  0  0  0
    8.8680    5.2460  -57.9730 C   0  0  2  0  0  0  0  0  0  0  0  0
   10.2490    5.2700  -58.6470 C   0  0  0  0  0  0  0  0  0  0  0  0
   10.5250    3.9200  -59.3260 C   0  0  2  0  0  0  0  0  0  0  0  0
    9.4420    3.6520  -60.3840 C   0  0  0  0  0  0  0  0  0  0  0  0
   10.4820    2.8060  -58.2690 C   0  0  0  0  0  0  0  0  0  0  0  0
    8.8360    4.1270  -56.9160 C   0  0  0  0  0  0  0  0  0  0  0  0
    7.5240   -0.6210  -54.1150 C   0  0  0  0  0  0  0  0  0  0  0  0
    8.3120   -1.5360  -53.4470 C   0  0  0  0  0  0  0  0  0  0  0  0
    7.9440   -2.5070  -52.4270 C   0  0  0  0  0  0  0  0  0  0  0  0
    7.3880   -3.7360  -52.7970 C   0  0  0  0  0  0  0  0  0  0  0  0
    7.0310   -4.6690  -51.8230 C   0  0  0  0  0  0  0  0  0  0  0  0
    7.2340   -4.3810  -50.4730 C   0  0  0  0  0  0  0  0  0  0  0  0
    7.7990   -3.1630  -50.0980 C   0  0  0  0  0  0  0  0  0  0  0  0
    8.1560   -2.2290  -51.0720 C   0  0  0  0  0  0  0  0  0  0  0  0
   11.1640   -4.1172  -53.5110 H   0  0  0  0  0  0  0  0  0  0  0  0
   10.1553   -3.5309  -54.8768 H   0  0  0  0  0  0  0  0  0  0  0  0
   11.9270   -3.2345  -54.8768 H   0  0  0  0  0  0  0  0  0  0  0  0
   10.7572   -2.1929  -52.4382 H   0  0  0  0  0  0  0  0  0  0  0  0
   11.6493   -1.3296  -53.7663 H   0  0  0  0  0  0  0  0  0  0  0  0
    9.9980    1.2440  -56.3210 H   0  0  0  0  0  0  0  0  0  0  0  0
    8.2254    1.5353  -59.1541 H   0  0  0  0  0  0  0  0  0  0  0  0
    7.0322    2.4872  -58.1914 H   0  0  0  0  0  0  0  0  0  0  0  0
    7.2869    3.4314  -60.4838 H   0  0  0  0  0  0  0  0  0  0  0  0
    7.8080    5.7698  -59.7889 H   0  0  0  0  0  0  0  0  0  0  0  0
    6.8047    4.9357  -58.5470 H   0  0  0  0  0  0  0  0  0  0  0  0
    8.6753    6.2161  -57.4915 H   0  0  0  0  0  0  0  0  0  0  0  0
   10.2720    6.0693  -59.4024 H   0  0  0  0  0  0  0  0  0  0  0  0
   11.0200    5.4554  -57.8846 H   0  0  0  0  0  0  0  0  0  0  0  0
   11.5147    3.9424  -59.8056 H   0  0  0  0  0  0  0  0  0  0  0  0
    9.4652    4.4511  -61.1396 H   0  0  0  0  0  0  0  0  0  0  0  0
    9.6367    2.6807  -60.8622 H   0  0  0  0  0  0  0  0  0  0  0  0
   10.6788    1.8399  -58.7568 H   0  0  0  0  0  0  0  0  0  0  0  0
   11.2470    3.0169  -57.5072 H   0  0  0  0  0  0  0  0  0  0  0  0
    9.6129    4.3198  -56.1615 H   0  0  0  0  0  0  0  0  0  0  0  0
    7.8427    4.1130  -56.4436 H   0  0  0  0  0  0  0  0  0  0  0  0
    6.4423   -0.4647  -53.9905 H   0  0  0  0  0  0  0  0  0  0  0  0
    7.2315   -3.9680  -53.8608 H   0  0  0  0  0  0  0  0  0  0  0  0
    6.5894   -5.6318  -52.1195 H   0  0  0  0  0  0  0  0  0  0  0  0
    6.9483   -5.1147  -49.7049 H   0  0  0  0  0  0  0  0  0  0  0  0
    7.9636   -2.9378  -49.0340 H   0  0  0  0  0  0  0  0  0  0  0  0
    8.6058   -1.2706  -50.7732 H   0  0  0  0  0  0  0  0  0  0  0  0
  1  2  1  0
  2  3  1  0
  3  4  1  0
  4  5  2  0
  5  6  1  0
  6  7  2  0
  6  8  1  0
  9  8  1  1
  9 10  1  0
 10 11  1  0
 11 12  1  0
 12 13  1  0
 13 14  1  0
 14 15  1  0
 15 16  1  0
 15 17  1  0
 13 18  1  0
  5 19  1  0
 19 20  2  0
 20 21  1  0
 21 22  2  0
 22 23  1  0
 23 24  2  0
 24 25  1  0
 25 26  2  0
 20  3  1  0
 26 21  1  0
 17  9  1  0
 18  9  1  0
 16 11  1  0
  1 27  1  0
  1 28  1  0
  1 29  1  0
  2 30  1  0
  2 31  1  0
  8 32  1  0
 10 33  1  0
 10 34  1  0
 11 35  1  6
 12 36  1  0
 12 37  1  0
 13 38  1  1
 14 39  1  0
 14 40  1  0
 15 41  1  6
 16 42  1  0
 16 43  1  0
 17 44  1  0
 17 45  1  0
 18 46  1  0
 18 47  1  0
 19 48  1  0
 22 49  1  0
 23 50  1  0
 24 51  1  0
 25 52  1  0
 26 53  1  0
M  END
>  <meeko>  (22) 
{"is_sidechain": false}

$$$$

     RDKit          3D

 54 59  0  0  0  0  0  0  0  0999 V2000
    6.7100    1.7590  -56.0990 O   0  0  0  0  0  0  0  0  0  0  0  0
    7.8200    1.2710  -55.9100 C   0  0  0  0  0  0  0  0  0  0  0  0
    8.9650    1.7390  -56.5400 N   0  0  0  0  0  0  0  0  0  0  0  0
    8.9830    2.8090  -57.5430 C   0  0  2  0  0  0  0  0  0  0  0  0
    8.7620    4.2060  -56.9100 C   0  0  0  0  0  0  0  0  0  0  0  0
    8.8430    5.3070  -57.9820 C   0  0  1  0  0  0  0  0  0  0  0  0
   10.2310    5.2790  -58.6370 C   0  0  0  0  0  0  0  0  0  0  0  0
   10.4730    3.9100  -59.2930 C   0  0  2  0  0  0  0  0  0  0  0  0
    9.3970    3.6600  -60.3620 C   0  0  0  0  0  0  0  0  0  0  0  0
    8.0030    3.6800  -59.7170 C   0  0  2  0  0  0  0  0  0  0  0  0
    7.7690    5.0480  -59.0530 C   0  0  0  0  0  0  0  0  0  0  0  0
    7.9210    2.5760  -58.6460 C   0  0  0  0  0  0  0  0  0  0  0  0
   10.3810    2.8150  -58.2190 C   0  0  0  0  0  0  0  0  0  0  0  0
    8.0480    0.1240  -55.0050 C   0  0  0  0  0  0  0  0  0  0  0  0
    7.1800   -0.3960  -54.0010 C   0  0  0  0  0  0  0  0  0  0  0  0
    7.8450   -1.4610  -53.4210 C   0  0  0  0  0  0  0  0  0  0  0  0
    7.4230   -2.3520  -52.3480 C   0  0  0  0  0  0  0  0  0  0  0  0
    7.8400   -2.1100  -51.0320 C   0  0  0  0  0  0  0  0  0  0  0  0
    7.4460   -2.9610  -49.9970 C   0  0  0  0  0  0  0  0  0  0  0  0
    6.6390   -4.0640  -50.2700 C   0  0  0  0  0  0  0  0  0  0  0  0
    6.2270   -4.3180  -51.5770 C   0  0  0  0  0  0  0  0  0  0  0  0
    6.6200   -3.4680  -52.6130 C   0  0  0  0  0  0  0  0  0  0  0  0
    9.0200   -1.5510  -54.1260 N   0  0  0  0  0  0  0  0  0  0  0  0
   10.0590   -2.5900  -53.9230 C   0  0  0  0  0  0  0  0  0  0  0  0
   11.1510   -2.4340  -52.8890 C   0  0  0  0  0  0  0  0  0  0  0  0
   11.4970   -2.3950  -54.3460 C   0  0  0  0  0  0  0  0  0  0  0  0
    9.1810   -0.5980  -55.0520 N   0  0  0  0  0  0  0  0  0  0  0  0
    9.7800    1.1440  -56.4960 H   0  0  0  0  0  0  0  0  0  0  0  0
    7.7695    4.2351  -56.4365 H   0  0  0  0  0  0  0  0  0  0  0  0
    9.5474    4.3833  -56.1605 H   0  0  0  0  0  0  0  0  0  0  0  0
    8.6756    6.2900  -57.5176 H   0  0  0  0  0  0  0  0  0  0  0  0
   10.2884    6.0659  -59.4035 H   0  0  0  0  0  0  0  0  0  0  0  0
   10.9978    5.4523  -57.8676 H   0  0  0  0  0  0  0  0  0  0  0  0
   11.4688    3.8934  -59.7601 H   0  0  0  0  0  0  0  0  0  0  0  0
    9.4552    4.4466  -61.1287 H   0  0  0  0  0  0  0  0  0  0  0  0
    9.5677    2.6764  -60.8239 H   0  0  0  0  0  0  0  0  0  0  0  0
    7.2376    3.5062  -60.4877 H   0  0  0  0  0  0  0  0  0  0  0  0
    7.8202    5.8370  -59.8177 H   0  0  0  0  0  0  0  0  0  0  0  0
    6.7775    5.0519  -58.5767 H   0  0  0  0  0  0  0  0  0  0  0  0
    6.9192    2.5863  -58.1917 H   0  0  0  0  0  0  0  0  0  0  0  0
    8.1116    1.6033  -59.1230 H   0  0  0  0  0  0  0  0  0  0  0  0
   10.5569    1.8359  -58.6885 H   0  0  0  0  0  0  0  0  0  0  0  0
   11.1399    3.0172  -57.4489 H   0  0  0  0  0  0  0  0  0  0  0  0
    6.1786   -0.0236  -53.7391 H   0  0  0  0  0  0  0  0  0  0  0  0
    8.4819   -1.2440  -50.8128 H   0  0  0  0  0  0  0  0  0  0  0  0
    7.7728   -2.7606  -48.9660 H   0  0  0  0  0  0  0  0  0  0  0  0
    6.3275   -4.7335  -49.4547 H   0  0  0  0  0  0  0  0  0  0  0  0
    5.5913   -5.1894  -51.7928 H   0  0  0  0  0  0  0  0  0  0  0  0
    6.2967   -3.6765  -53.6435 H   0  0  0  0  0  0  0  0  0  0  0  0
    9.2800   -3.3366  -54.1369 H   0  0  0  0  0  0  0  0  0  0  0  0
   11.2092   -1.5159  -52.2859 H   0  0  0  0  0  0  0  0  0  0  0  0
   11.4925   -3.0241  -52.0257 H   0  0  0  0  0  0  0  0  0  0  0  0
   11.8090   -1.4483  -54.8112 H   0  0  0  0  0  0  0  0  0  0  0  0
   12.1971   -2.9447  -54.9923 H   0  0  0  0  0  0  0  0  0  0  0  0
  1  2  2  0
  2  3  1  0
  4  3  1  1
  4  5  1  0
  5  6  1  0
  6  7  1  0
  7  8  1  0
  8  9  1  0
  9 10  1  0
 10 11  1  0
 10 12  1  0
  8 13  1  0
  2 14  1  0
 14 15  1  0
 15 16  2  0
 16 17  1  0
 17 18  2  0
 18 19  1  0
 19 20  2  0
 20 21  1  0
 21 22  2  0
 16 23  1  0
 23 24  1  0
 24 25  1  0
 25 26  1  0
 23 27  1  0
 12  4  1  0
 27 14  2  0
 13  4  1  0
 22 17  1  0
 26 24  1  0
 11  6  1  0
  3 28  1  0
  5 29  1  0
  5 30  1  0
  6 31  1  1
  7 32  1  0
  7 33  1  0
  8 34  1  6
  9 35  1  0
  9 36  1  0
 10 37  1  6
 11 38  1  0
 11 39  1  0
 12 40  1  0
 12 41  1  0
 13 42  1  0
 13 43  1  0
 15 44  1  0
 18 45  1  0
 19 46  1  0
 20 47  1  0
 21 48  1  0
 22 49  1  0
 24 50  1  0
 25 51  1  0
 25 52  1  0
 26 53  1  0
 26 54  1  0
M  END
>  <meeko>  (23) 
{"is_sidechain": false}

$$$$

     RDKit          3D

 47 51  0  0  0  0  0  0  0  0999 V2000
    6.7010    1.6740  -56.1760 O   0  0  0  0  0  0  0  0  0  0  0  0
    7.8400    1.2610  -55.9890 C   0  0  0  0  0  0  0  0  0  0  0  0
    8.9620    1.7300  -56.6360 N   0  0  0  0  0  0  0  0  0  0  0  0
    8.9990    2.7860  -57.6430 C   0  0  2  0  0  0  0  0  0  0  0  0
   10.4030    2.7900  -58.3020 C   0  0  0  0  0  0  0  0  0  0  0  0
   10.5070    3.8850  -59.3750 C   0  0  1  0  0  0  0  0  0  0  0  0
    9.4440    3.6320  -60.4570 C   0  0  0  0  0  0  0  0  0  0  0  0
    8.0410    3.6510  -59.8280 C   0  0  2  0  0  0  0  0  0  0  0  0
    7.7970    5.0200  -59.1720 C   0  0  0  0  0  0  0  0  0  0  0  0
    8.8550    5.2810  -58.0860 C   0  0  2  0  0  0  0  0  0  0  0  0
   10.2530    5.2540  -58.7240 C   0  0  0  0  0  0  0  0  0  0  0  0
    8.7630    4.1820  -57.0140 C   0  0  0  0  0  0  0  0  0  0  0  0
    7.9490    2.5510  -58.7570 C   0  0  0  0  0  0  0  0  0  0  0  0
    8.1460    0.1900  -55.0260 C   0  0  0  0  0  0  0  0  0  0  0  0
    7.2480   -0.4200  -54.1130 C   0  0  0  0  0  0  0  0  0  0  0  0
    7.9790   -1.3700  -53.4280 C   0  0  0  0  0  0  0  0  0  0  0  0
    7.6050   -2.2990  -52.3630 C   0  0  0  0  0  0  0  0  0  0  0  0
    8.1220   -2.1670  -51.0660 C   0  0  0  0  0  0  0  0  0  0  0  0
    7.7540   -3.0620  -50.0570 C   0  0  0  0  0  0  0  0  0  0  0  0
    6.8680   -4.1000  -50.3340 C   0  0  0  0  0  0  0  0  0  0  0  0
    6.3520   -4.2480  -51.6190 C   0  0  0  0  0  0  0  0  0  0  0  0
    6.7210   -3.3540  -52.6280 C   0  0  0  0  0  0  0  0  0  0  0  0
    9.2450   -1.2640  -53.9430 N   0  0  0  0  0  0  0  0  0  0  0  0
    9.3800   -0.3440  -54.9150 N   0  0  0  0  0  0  0  0  0  0  0  0
    9.8220    1.2700  -56.3510 H   0  0  0  0  0  0  0  0  0  0  0  0
   11.1628    2.9723  -57.5278 H   0  0  0  0  0  0  0  0  0  0  0  0
   10.5667    1.8138  -58.7818 H   0  0  0  0  0  0  0  0  0  0  0  0
   11.5091    3.8703  -59.8285 H   0  0  0  0  0  0  0  0  0  0  0  0
    9.5103    4.4177  -61.2240 H   0  0  0  0  0  0  0  0  0  0  0  0
    9.6216    2.6481  -60.9156 H   0  0  0  0  0  0  0  0  0  0  0  0
    7.2844    3.4735  -60.6065 H   0  0  0  0  0  0  0  0  0  0  0  0
    7.8598    5.8070  -59.9379 H   0  0  0  0  0  0  0  0  0  0  0  0
    6.7983    5.0258  -58.7110 H   0  0  0  0  0  0  0  0  0  0  0  0
    8.6784    6.2635  -57.6240 H   0  0  0  0  0  0  0  0  0  0  0  0
   10.3188    6.0399  -59.4908 H   0  0  0  0  0  0  0  0  0  0  0  0
   11.0092    5.4292  -57.9446 H   0  0  0  0  0  0  0  0  0  0  0  0
    9.5256    4.3646  -56.2426 H   0  0  0  0  0  0  0  0  0  0  0  0
    7.7577    4.2048  -56.5680 H   0  0  0  0  0  0  0  0  0  0  0  0
    6.9425    2.5617  -58.3133 H   0  0  0  0  0  0  0  0  0  0  0  0
    8.1457    1.5777  -59.2303 H   0  0  0  0  0  0  0  0  0  0  0  0
    6.1823   -0.1834  -53.9778 H   0  0  0  0  0  0  0  0  0  0  0  0
    8.8242   -1.3509  -50.8403 H   0  0  0  0  0  0  0  0  0  0  0  0
    8.1648   -2.9461  -49.0432 H   0  0  0  0  0  0  0  0  0  0  0  0
    6.5761   -4.8020  -49.5390 H   0  0  0  0  0  0  0  0  0  0  0  0
    5.6538   -5.0688  -51.8400 H   0  0  0  0  0  0  0  0  0  0  0  0
    6.3130   -3.4798  -53.6417 H   0  0  0  0  0  0  0  0  0  0  0  0
   10.0670   -1.7870  -53.6620 H   0  0  0  0  0  0  0  0  0  0  0  0
  1  2  2  0
  2  3  1  0
  4  3  1  1
  4  5  1  0
  5  6  1  0
  6  7  1  0
  7  8  1  0
  8  9  1  0
  9 10  1  0
 10 11  1  0
 10 12  1  0
  8 13  1  0
  2 14  1  0
 14 15  1  0
 15 16  2  0
 16 17  1  0
 17 18  2  0
 18 19  1  0
 19 20  2  0
 20 21  1  0
 21 22  2  0
 16 23  1  0
 23 24  1  0
 12  4  1  0
 24 14  2  0
 13  4  1  0
 22 17  1  0
 11  6  1  0
  3 25  1  0
  5 26  1  0
  5 27  1  0
  6 28  1  6
  7 29  1  0
  7 30  1  0
  8 31  1  6
  9 32  1  0
  9 33  1  0
 10 34  1  1
 11 35  1  0
 11 36  1  0
 12 37  1  0
 12 38  1  0
 13 39  1  0
 13 40  1  0
 15 41  1  0
 18 42  1  0
 19 43  1  0
 20 44  1  0
 21 45  1  0
 22 46  1  0
 23 47  1  0
M  END
>  <meeko>  (24) 
{"is_sidechain": false}

$$$$

     RDKit          3D

 47 51  0  0  0  0  0  0  0  0999 V2000
    6.7700    2.0470  -56.6650 O   0  0  0  0  0  0  0  0  0  0  0  0
    7.7640    1.4960  -56.2070 C   0  0  0  0  0  0  0  0  0  0  0  0
    9.0480    1.7960  -56.6000 N   0  0  0  0  0  0  0  0  0  0  0  0
    9.4100    2.7990  -57.6070 C   0  0  2  0  0  0  0  0  0  0  0  0
    9.0770    4.2350  -57.1320 C   0  0  0  0  0  0  0  0  0  0  0  0
    9.5150    5.2690  -58.1840 C   0  0  1  0  0  0  0  0  0  0  0  0
   11.0320    5.1610  -58.4030 C   0  0  0  0  0  0  0  0  0  0  0  0
   11.3920    3.7510  -58.8950 C   0  0  2  0  0  0  0  0  0  0  0  0
   10.6640    3.4720  -60.2190 C   0  0  0  0  0  0  0  0  0  0  0  0
    9.1440    3.5690  -60.0120 C   0  0  2  0  0  0  0  0  0  0  0  0
    8.7890    4.9810  -59.5100 C   0  0  0  0  0  0  0  0  0  0  0  0
    8.7050    2.5340  -58.9610 C   0  0  0  0  0  0  0  0  0  0  0  0
   10.9430    2.7210  -57.8450 C   0  0  0  0  0  0  0  0  0  0  0  0
    7.6570    0.4720  -55.2010 C   0  0  0  0  0  0  0  0  0  0  0  0
    8.4570    0.0650  -54.1510 C   0  0  0  0  0  0  0  0  0  0  0  0
    7.7760   -1.0200  -53.5240 C   0  0  0  0  0  0  0  0  0  0  0  0
    8.1950   -1.8120  -52.3590 C   0  0  0  0  0  0  0  0  0  0  0  0
    7.4130   -1.8240  -51.1920 C   0  0  0  0  0  0  0  0  0  0  0  0
    7.7980   -2.5730  -50.0750 C   0  0  0  0  0  0  0  0  0  0  0  0
    8.9720   -3.3200  -50.1090 C   0  0  0  0  0  0  0  0  0  0  0  0
    9.7590   -3.3210  -51.2580 C   0  0  0  0  0  0  0  0  0  0  0  0
    9.3740   -2.5720  -52.3750 C   0  0  0  0  0  0  0  0  0  0  0  0
    6.6170   -1.2610  -54.1590 N   0  0  0  0  0  0  0  0  0  0  0  0
    6.5750   -0.3590  -55.1500 N   0  0  0  0  0  0  0  0  0  0  0  0
    9.8020    1.2870  -56.1640 H   0  0  0  0  0  0  0  0  0  0  0  0
    7.9921    4.3201  -56.9713 H   0  0  0  0  0  0  0  0  0  0  0  0
    9.6173    4.4325  -56.1944 H   0  0  0  0  0  0  0  0  0  0  0  0
    9.2635    6.2814  -57.8349 H   0  0  0  0  0  0  0  0  0  0  0  0
   11.3452    5.9003  -59.1549 H   0  0  0  0  0  0  0  0  0  0  0  0
   11.5492    5.3548  -57.4517 H   0  0  0  0  0  0  0  0  0  0  0  0
   12.4788    3.6787  -59.0486 H   0  0  0  0  0  0  0  0  0  0  0  0
   10.9775    4.2117  -60.9703 H   0  0  0  0  0  0  0  0  0  0  0  0
   10.9180    2.4592  -60.5650 H   0  0  0  0  0  0  0  0  0  0  0  0
    8.6289    3.3717  -60.9637 H   0  0  0  0  0  0  0  0  0  0  0  0
    9.0969    5.7225  -60.2619 H   0  0  0  0  0  0  0  0  0  0  0  0
    7.7030    5.0425  -59.3465 H   0  0  0  0  0  0  0  0  0  0  0  0
    7.6160    2.6008  -58.8207 H   0  0  0  0  0  0  0  0  0  0  0  0
    8.9823    1.5300  -59.3146 H   0  0  0  0  0  0  0  0  0  0  0  0
   11.2011    1.7117  -58.1982 H   0  0  0  0  0  0  0  0  0  0  0  0
   11.4560    2.9411  -56.8972 H   0  0  0  0  0  0  0  0  0  0  0  0
    9.4268    0.4928  -53.8568 H   0  0  0  0  0  0  0  0  0  0  0  0
    6.4842   -1.2357  -51.1560 H   0  0  0  0  0  0  0  0  0  0  0  0
    7.1730   -2.5716  -49.1698 H   0  0  0  0  0  0  0  0  0  0  0  0
    9.2773   -3.9079  -49.2308 H   0  0  0  0  0  0  0  0  0  0  0  0
   10.6860   -3.9124  -51.2873 H   0  0  0  0  0  0  0  0  0  0  0  0
   10.0035   -2.5791  -53.2770 H   0  0  0  0  0  0  0  0  0  0  0  0
    5.7750   -0.3510  -55.7750 H   0  0  0  0  0  0  0  0  0  0  0  0
  1  2  2  0
  2  3  1  0
  4  3  1  1
  4  5  1  0
  5  6  1  0
  6  7  1  0
  7  8  1  0
  8  9  1  0
  9 10  1  0
 10 11  1  0
 10 12  1  0
  8 13  1  0
  2 14  1  0
 14 15  2  0
 15 16  1  0
 16 17  1  0
 17 18  2  0
 18 19  1  0
 19 20  2  0
 20 21  1  0
 21 22  2  0
 16 23  2  0
 23 24  1  0
 12  4  1  0
 24 14  1  0
 13  4  1  0
 22 17  1  0
 11  6  1  0
  3 25  1  0
  5 26  1  0
  5 27  1  0
  6 28  1  1
  7 29  1  0
  7 30  1  0
  8 31  1  6
  9 32  1  0
  9 33  1  0
 10 34  1  6
 11 35  1  0
 11 36  1  0
 12 37  1  0
 12 38  1  0
 13 39  1  0
 13 40  1  0
 15 41  1  0
 18 42  1  0
 19 43  1  0
 20 44  1  0
 21 45  1  0
 22 46  1  0
 24 47  1  0
M  END
>  <meeko>  (25) 
{"is_sidechain": false}

$$$$

     RDKit          3D

 59 63  0  0  0  0  0  0  0  0999 V2000
   10.7680   -4.7670  -56.6210 C   0  0  0  0  0  0  0  0  0  0  0  0
   10.3020   -4.0740  -55.3500 C   0  0  0  0  0  0  0  0  0  0  0  0
   11.2630   -2.9560  -54.9390 C   0  0  0  0  0  0  0  0  0  0  0  0
   10.7640   -2.1530  -53.7360 C   0  0  0  0  0  0  0  0  0  0  0  0
    9.5680   -1.3750  -54.0100 N   0  0  0  0  0  0  0  0  0  0  0  0
    9.6410   -0.3900  -54.9350 N   0  0  0  0  0  0  0  0  0  0  0  0
    8.3860    0.1010  -54.9960 C   0  0  0  0  0  0  0  0  0  0  0  0
    8.0220    1.1940  -55.9120 C   0  0  0  0  0  0  0  0  0  0  0  0
    6.8660    1.5740  -56.0600 O   0  0  0  0  0  0  0  0  0  0  0  0
    9.1120    1.7220  -56.5680 N   0  0  0  0  0  0  0  0  0  0  0  0
    9.0910    2.8090  -57.5390 C   0  0  2  0  0  0  0  0  0  0  0  0
    8.0120    2.5830  -58.6260 C   0  0  0  0  0  0  0  0  0  0  0  0
    8.0420    3.7180  -59.6650 C   0  0  1  0  0  0  0  0  0  0  0  0
    7.7890    5.0590  -58.9560 C   0  0  0  0  0  0  0  0  0  0  0  0
    8.8760    5.3140  -57.8990 C   0  0  2  0  0  0  0  0  0  0  0  0
   10.2510    5.3400  -58.5810 C   0  0  0  0  0  0  0  0  0  0  0  0
   10.5150    3.9990  -59.2840 C   0  0  2  0  0  0  0  0  0  0  0  0
    9.4230    3.7530  -60.3380 C   0  0  0  0  0  0  0  0  0  0  0  0
   10.4740    2.8670  -58.2440 C   0  0  0  0  0  0  0  0  0  0  0  0
    8.8450    4.1790  -56.8590 C   0  0  0  0  0  0  0  0  0  0  0  0
    7.5340   -0.5720  -54.0890 C   0  0  0  0  0  0  0  0  0  0  0  0
    8.3210   -1.5060  -53.4450 C   0  0  0  0  0  0  0  0  0  0  0  0
    7.9560   -2.4690  -52.4150 C   0  0  0  0  0  0  0  0  0  0  0  0
    8.1270   -2.1600  -51.0610 C   0  0  0  0  0  0  0  0  0  0  0  0
    7.7760   -3.0870  -50.0770 C   0  0  0  0  0  0  0  0  0  0  0  0
    7.2480   -4.3240  -50.4420 C   0  0  0  0  0  0  0  0  0  0  0  0
    7.0630   -4.6330  -51.7890 C   0  0  0  0  0  0  0  0  0  0  0  0
    7.4130   -3.7070  -52.7730 C   0  0  0  0  0  0  0  0  0  0  0  0
   11.3640   -5.6533  -56.3579 H   0  0  0  0  0  0  0  0  0  0  0  0
    9.8932   -5.0756  -57.2122 H   0  0  0  0  0  0  0  0  0  0  0  0
   11.3838   -4.0733  -57.2122 H   0  0  0  0  0  0  0  0  0  0  0  0
    9.3046   -3.6433  -55.5223 H   0  0  0  0  0  0  0  0  0  0  0  0
   10.2711   -4.8187  -54.5410 H   0  0  0  0  0  0  0  0  0  0  0  0
   12.2341   -3.4047  -54.6829 H   0  0  0  0  0  0  0  0  0  0  0  0
   11.3436   -2.2617  -55.7884 H   0  0  0  0  0  0  0  0  0  0  0  0
   10.5426   -2.8542  -52.9179 H   0  0  0  0  0  0  0  0  0  0  0  0
   11.5589   -1.4396  -53.4730 H   0  0  0  0  0  0  0  0  0  0  0  0
    9.9930    1.2780  -56.3180 H   0  0  0  0  0  0  0  0  0  0  0  0
    8.2037    1.6251  -59.1317 H   0  0  0  0  0  0  0  0  0  0  0  0
    7.0227    2.5690  -58.1454 H   0  0  0  0  0  0  0  0  0  0  0  0
    7.2647    3.5469  -60.4243 H   0  0  0  0  0  0  0  0  0  0  0  0
    7.8058    5.8711  -59.6978 H   0  0  0  0  0  0  0  0  0  0  0  0
    6.8076    5.0235  -58.4604 H   0  0  0  0  0  0  0  0  0  0  0  0
    8.6925    6.2782  -57.4024 H   0  0  0  0  0  0  0  0  0  0  0  0
   10.2739    6.1512  -59.3236 H   0  0  0  0  0  0  0  0  0  0  0  0
   11.0279    5.5079  -57.8206 H   0  0  0  0  0  0  0  0  0  0  0  0
   11.5013    4.0246  -59.7704 H   0  0  0  0  0  0  0  0  0  0  0  0
    9.4454    4.5631  -61.0818 H   0  0  0  0  0  0  0  0  0  0  0  0
    9.6087    2.7879  -60.8321 H   0  0  0  0  0  0  0  0  0  0  0  0
   10.6610    1.9077  -58.7488 H   0  0  0  0  0  0  0  0  0  0  0  0
   11.2465    3.0600  -57.4851 H   0  0  0  0  0  0  0  0  0  0  0  0
    9.6289    4.3556  -56.1078 H   0  0  0  0  0  0  0  0  0  0  0  0
    7.8549    4.1642  -56.3799 H   0  0  0  0  0  0  0  0  0  0  0  0
    6.4613   -0.3883  -53.9291 H   0  0  0  0  0  0  0  0  0  0  0  0
    8.5397   -1.1827  -50.7703 H   0  0  0  0  0  0  0  0  0  0  0  0
    7.9163   -2.8407  -49.0141 H   0  0  0  0  0  0  0  0  0  0  0  0
    6.9772   -5.0566  -49.6674 H   0  0  0  0  0  0  0  0  0  0  0  0
    6.6409   -5.6073  -52.0764 H   0  0  0  0  0  0  0  0  0  0  0  0
    7.2611   -3.9521  -53.8345 H   0  0  0  0  0  0  0  0  0  0  0  0
  1  2  1  0
  2  3  1  0
  3  4  1  0
  4  5  1  0
  5  6  1  0
  6  7  2  0
  7  8  1  0
  8  9  2  0
  8 10  1  0
 11 10  1  1
 11 12  1  0
 12 13  1  0
 13 14  1  0
 14 15  1  0
 15 16  1  0
 16 17  1  0
 17 18  1  0
 17 19  1  0
 15 20  1  0
  7 21  1  0
 21 22  2  0
 22 23  1  0
 23 24  2  0
 24 25  1  0
 25 26  2  0
 26 27  1  0
 27 28  2  0
 22  5  1  0
 28 23  1  0
 19 11  1  0
 20 11  1  0
 18 13  1  0
  1 29  1  0
  1 30  1  0
  1 31  1  0
  2 32  1  0
  2 33  1  0
  3 34  1  0
  3 35  1  0
  4 36  1  0
  4 37  1  0
 10 38  1  0
 12 39  1  0
 12 40  1  0
 13 41  1  6
 14 42  1  0
 14 43  1  0
 15 44  1  1
 16 45  1  0
 16 46  1  0
 17 47  1  6
 18 48  1  0
 18 49  1  0
 19 50  1  0
 19 51  1  0
 20 52  1  0
 20 53  1  0
 21 54  1  0
 24 55  1  0
 25 56  1  0
 26 57  1  0
 27 58  1  0
 28 59  1  0
M  END
>  <meeko>  (26) 
{"is_sidechain": false}

$$$$

     RDKit          3D

 56 60  0  0  0  0  0  0  0  0999 V2000
   10.2610   -3.9960  -55.0520 C   0  0  0  0  0  0  0  0  0  0  0  0
   11.1600   -2.8100  -54.7430 C   0  0  0  0  0  0  0  0  0  0  0  0
   10.5880   -1.9570  -53.6140 C   0  0  0  0  0  0  0  0  0  0  0  0
    9.3800   -1.2560  -54.0140 N   0  0  0  0  0  0  0  0  0  0  0  0
    9.4710   -0.3200  -54.9770 N   0  0  0  0  0  0  0  0  0  0  0  0
    8.2340    0.1930  -55.0900 C   0  0  0  0  0  0  0  0  0  0  0  0
    7.9250    1.2720  -56.0540 C   0  0  0  0  0  0  0  0  0  0  0  0
    6.8160    1.7910  -56.1400 O   0  0  0  0  0  0  0  0  0  0  0  0
    9.0000    1.6620  -56.8410 N   0  0  0  0  0  0  0  0  0  0  0  0
    8.9670    2.7660  -57.8050 C   0  0  2  0  0  0  0  0  0  0  0  0
   10.3040    2.7540  -58.5990 C   0  0  0  0  0  0  0  0  0  0  0  0
   10.3460    3.8930  -59.6290 C   0  0  1  0  0  0  0  0  0  0  0  0
    9.1800    3.7230  -60.6150 C   0  0  0  0  0  0  0  0  0  0  0  0
    7.8440    3.7560  -59.8570 C   0  0  2  0  0  0  0  0  0  0  0  0
    7.7100    5.1010  -59.1210 C   0  0  0  0  0  0  0  0  0  0  0  0
    8.8740    5.2810  -58.1320 C   0  0  2  0  0  0  0  0  0  0  0  0
   10.2040    5.2390  -58.9000 C   0  0  0  0  0  0  0  0  0  0  0  0
    8.8440    4.1390  -57.1000 C   0  0  0  0  0  0  0  0  0  0  0  0
    7.8140    2.6120  -58.8290 C   0  0  0  0  0  0  0  0  0  0  0  0
    7.3580   -0.4480  -54.1690 C   0  0  0  0  0  0  0  0  0  0  0  0
    8.1140   -1.3900  -53.5000 C   0  0  0  0  0  0  0  0  0  0  0  0
    7.7250   -2.3150  -52.4460 C   0  0  0  0  0  0  0  0  0  0  0  0
    7.8290   -1.9430  -51.1000 C   0  0  0  0  0  0  0  0  0  0  0  0
    7.4530   -2.8350  -50.0940 C   0  0  0  0  0  0  0  0  0  0  0  0
    6.9770   -4.1020  -50.4250 C   0  0  0  0  0  0  0  0  0  0  0  0
    6.8790   -4.4810  -51.7630 C   0  0  0  0  0  0  0  0  0  0  0  0
    7.2550   -3.5910  -52.7720 C   0  0  0  0  0  0  0  0  0  0  0  0
    9.9168   -4.4501  -54.1111 H   0  0  0  0  0  0  0  0  0  0  0  0
    9.3921   -3.6555  -55.6343 H   0  0  0  0  0  0  0  0  0  0  0  0
   10.8236   -4.7406  -55.6343 H   0  0  0  0  0  0  0  0  0  0  0  0
   12.1516   -3.1808  -54.4443 H   0  0  0  0  0  0  0  0  0  0  0  0
   11.2324   -2.1859  -55.6459 H   0  0  0  0  0  0  0  0  0  0  0  0
   10.3525   -2.6102  -52.7608 H   0  0  0  0  0  0  0  0  0  0  0  0
   11.3425   -1.2032  -53.3447 H   0  0  0  0  0  0  0  0  0  0  0  0
    9.9110    1.3360  -56.5510 H   0  0  0  0  0  0  0  0  0  0  0  0
   11.1408    2.8750  -57.8953 H   0  0  0  0  0  0  0  0  0  0  0  0
   10.3840    1.7962  -59.1340 H   0  0  0  0  0  0  0  0  0  0  0  0
   11.3004    3.8675  -60.1753 H   0  0  0  0  0  0  0  0  0  0  0  0
    9.2022    4.5408  -61.3504 H   0  0  0  0  0  0  0  0  0  0  0  0
    9.2799    2.7562  -61.1302 H   0  0  0  0  0  0  0  0  0  0  0  0
    7.0132    3.6376  -60.5682 H   0  0  0  0  0  0  0  0  0  0  0  0
    7.7261    5.9204  -59.8548 H   0  0  0  0  0  0  0  0  0  0  0  0
    6.7606    5.1143  -58.5656 H   0  0  0  0  0  0  0  0  0  0  0  0
    8.7765    6.2478  -57.6164 H   0  0  0  0  0  0  0  0  0  0  0  0
   10.2260    6.0563  -59.6359 H   0  0  0  0  0  0  0  0  0  0  0  0
   11.0358    5.3552  -58.1896 H   0  0  0  0  0  0  0  0  0  0  0  0
    9.6830    4.2624  -56.3994 H   0  0  0  0  0  0  0  0  0  0  0  0
    7.8877    4.1754  -56.5576 H   0  0  0  0  0  0  0  0  0  0  0  0
    6.8522    2.6309  -58.2955 H   0  0  0  0  0  0  0  0  0  0  0  0
    7.9372    1.6563  -59.3595 H   0  0  0  0  0  0  0  0  0  0  0  0
    6.2892   -0.2348  -54.0197 H   0  0  0  0  0  0  0  0  0  0  0  0
    8.2080   -0.9451  -50.8345 H   0  0  0  0  0  0  0  0  0  0  0  0
    7.5327   -2.5370  -49.0381 H   0  0  0  0  0  0  0  0  0  0  0  0
    6.6788   -4.8027  -49.6312 H   0  0  0  0  0  0  0  0  0  0  0  0
    6.5052   -5.4819  -52.0245 H   0  0  0  0  0  0  0  0  0  0  0  0
    7.1811   -3.8950  -53.8266 H   0  0  0  0  0  0  0  0  0  0  0  0
  1  2  1  0
  2  3  1  0
  3  4  1  0
  4  5  1  0
  5  6  2  0
  6  7  1  0
  7  8  2  0
  7  9  1  0
 10  9  1  1
 10 11  1  0
 11 12  1  0
 12 13  1  0
 13 14  1  0
 14 15  1  0
 15 16  1  0
 16 17  1  0
 16 18  1  0
 14 19  1  0
  6 20  1  0
 20 21  2  0
 21 22  1  0
 22 23  2  0
 23 24  1  0
 24 25  2  0
 25 26  1  0
 26 27  2  0
 21  4  1  0
 27 22  1  0
 18 10  1  0
 19 10  1  0
 17 12  1  0
  1 28  1  0
  1 29  1  0
  1 30  1  0
  2 31  1  0
  2 32  1  0
  3 33  1  0
  3 34  1  0
  9 35  1  0
 11 36  1  0
 11 37  1  0
 12 38  1  6
 13 39  1  0
 13 40  1  0
 14 41  1  6
 15 42  1  0
 15 43  1  0
 16 44  1  1
 17 45  1  0
 17 46  1  0
 18 47  1  0
 18 48  1  0
 19 49  1  0
 19 50  1  0
 20 51  1  0
 23 52  1  0
 24 53  1  0
 25 54  1  0
 26 55  1  0
 27 56  1  0
M  END
>  <meeko>  (27) 
{"is_sidechain": false}

$$$$

     RDKit          3D

 27 29  0  0  0  0  0  0  0  0999 V2000
   10.6330    2.0710  -57.1600 O   0  0  0  0  0  0  0  0  0  0  0  0
   10.2250    3.0110  -58.1430 C   0  0  2  0  0  0  0  0  0  0  0  0
   11.4450    3.4160  -58.9870 C   0  0  0  0  0  0  0  0  0  0  0  0
   11.0280    4.4340  -60.0610 C   0  0  1  0  0  0  0  0  0  0  0  0
    9.9580    3.8020  -60.9680 C   0  0  0  0  0  0  0  0  0  0  0  0
    8.7290    3.3970  -60.1340 C   0  0  2  0  0  0  0  0  0  0  0  0
    8.1510    4.6460  -59.4450 C   0  0  0  0  0  0  0  0  0  0  0  0
    9.2110    5.2850  -58.5300 C   0  0  2  0  0  0  0  0  0  0  0  0
   10.4370    5.6790  -59.3740 C   0  0  0  0  0  0  0  0  0  0  0  0
    9.6400    4.2630  -57.4640 C   0  0  0  0  0  0  0  0  0  0  0  0
    9.1600    2.3830  -59.0610 C   0  0  0  0  0  0  0  0  0  0  0  0
    9.8430    1.5880  -56.8610 H   0  0  0  0  0  0  0  0  0  0  0  0
   12.2062    3.8673  -58.3336 H   0  0  0  0  0  0  0  0  0  0  0  0
   11.8568    2.5219  -59.4780 H   0  0  0  0  0  0  0  0  0  0  0  0
   11.9034    4.7205  -60.6624 H   0  0  0  0  0  0  0  0  0  0  0  0
    9.6538    4.5306  -61.7339 H   0  0  0  0  0  0  0  0  0  0  0  0
   10.3775    2.9061  -61.4491 H   0  0  0  0  0  0  0  0  0  0  0  0
    7.9674    2.9471  -60.7879 H   0  0  0  0  0  0  0  0  0  0  0  0
    7.8445    5.3743  -60.2102 H   0  0  0  0  0  0  0  0  0  0  0  0
    7.2821    4.3520  -58.8379 H   0  0  0  0  0  0  0  0  0  0  0  0
    8.7920    6.1779  -58.0429 H   0  0  0  0  0  0  0  0  0  0  0  0
   10.1326    6.4073  -60.1401 H   0  0  0  0  0  0  0  0  0  0  0  0
   11.1989    6.1237  -58.7169 H   0  0  0  0  0  0  0  0  0  0  0  0
   10.4026    4.7143  -56.8122 H   0  0  0  0  0  0  0  0  0  0  0  0
    8.7631    3.9741  -56.8660 H   0  0  0  0  0  0  0  0  0  0  0  0
    8.2851    2.0941  -58.4600 H   0  0  0  0  0  0  0  0  0  0  0  0
    9.5840    1.4947  -59.5521 H   0  0  0  0  0  0  0  0  0  0  0  0
  2  1  1  1
  2  3  1  0
  3  4  1  0
  4  5  1  0
  5  6  1  0
  6  7  1  0
  7  8  1  0
  8  9  1  0
  8 10  1  0
  6 11  1  0
 10  2  1  0
 11  2  1  0
  9  4  1  0
  1 12  1  0
  3 13  1  0
  3 14  1  0
  4 15  1  6
  5 16  1  0
  5 17  1  0
  6 18  1  6
  7 19  1  0
  7 20  1  0
  8 21  1  1
  9 22  1  0
  9 23  1  0
 10 24  1  0
 10 25  1  0
 11 26  1  0
 11 27  1  0
M  END
>  <meeko>  (28) 
{"is_sidechain": false}

$$$$

     RDKit          3D

 52 55  0  0  0  0  0  0  0  0999 V2000
    5.8400    1.5840  -56.0780 O   0  0  0  0  0  0  0  0  0  0  0  0
    7.0290    1.3000  -55.9630 C   0  0  0  0  0  0  0  0  0  0  0  0
    8.0470    1.9680  -56.6090 N   0  0  0  0  0  0  0  0  0  0  0  0
    7.8380    3.1970  -57.3470 C   0  0  0  0  0  0  0  0  0  0  0  0
    8.7270    4.3250  -56.7950 C   0  0  0  0  0  0  0  0  0  0  0  0
    9.0660    5.4000  -57.8310 C   0  0  0  0  0  0  0  0  0  0  0  0
    7.9790    5.5360  -58.8880 C   0  0  0  0  0  0  0  0  0  0  0  0
    7.7720    4.2320  -59.6600 C   0  0  0  0  0  0  0  0  0  0  0  0
    8.0840    2.9780  -58.8400 C   0  0  0  0  0  0  0  0  0  0  0  0
    7.5130    0.2110  -55.1010 C   0  0  0  0  0  0  0  0  0  0  0  0
    6.8110   -0.4230  -54.0500 C   0  0  0  0  0  0  0  0  0  0  0  0
    7.6760   -1.3610  -53.5220 C   0  0  0  0  0  0  0  0  0  0  0  0
    7.4740   -2.2800  -52.4100 C   0  0  0  0  0  0  0  0  0  0  0  0
    8.0550   -2.0240  -51.1620 C   0  0  0  0  0  0  0  0  0  0  0  0
    7.8600   -2.9080  -50.0990 C   0  0  0  0  0  0  0  0  0  0  0  0
    7.0780   -4.0490  -50.2760 C   0  0  0  0  0  0  0  0  0  0  0  0
    6.4870   -4.3050  -51.5120 C   0  0  0  0  0  0  0  0  0  0  0  0
    6.6810   -3.4210  -52.5750 C   0  0  0  0  0  0  0  0  0  0  0  0
    8.8130   -1.2780  -54.2940 N   0  0  0  0  0  0  0  0  0  0  0  0
   10.0140   -2.0980  -54.1950 C   0  0  0  0  0  0  0  0  0  0  0  0
   11.0870   -1.6700  -55.2130 C   0  0  0  0  0  0  0  0  0  0  0  0
   11.5700   -2.9590  -55.8640 C   0  0  0  0  0  0  0  0  0  0  0  0
   10.3510   -3.8650  -55.8270 C   0  0  0  0  0  0  0  0  0  0  0  0
    9.7650   -3.5950  -54.4490 C   0  0  0  0  0  0  0  0  0  0  0  0
    8.7520   -0.3040  -55.2330 N   0  0  0  0  0  0  0  0  0  0  0  0
    8.9800    1.6960  -56.3080 H   0  0  0  0  0  0  0  0  0  0  0  0
    6.7895    3.5039  -57.2183 H   0  0  0  0  0  0  0  0  0  0  0  0
    8.2006    4.8039  -55.9562 H   0  0  0  0  0  0  0  0  0  0  0  0
    9.6767    3.8649  -56.4845 H   0  0  0  0  0  0  0  0  0  0  0  0
    9.1835    6.3649  -57.3161 H   0  0  0  0  0  0  0  0  0  0  0  0
    9.9966    5.1031  -58.3368 H   0  0  0  0  0  0  0  0  0  0  0  0
    7.0352    5.8116  -58.3949 H   0  0  0  0  0  0  0  0  0  0  0  0
    8.2921    6.3110  -59.6031 H   0  0  0  0  0  0  0  0  0  0  0  0
    6.7221    4.1829  -59.9845 H   0  0  0  0  0  0  0  0  0  0  0  0
    8.4721    4.2449  -60.5084 H   0  0  0  0  0  0  0  0  0  0  0  0
    7.4420    2.1559  -59.1893 H   0  0  0  0  0  0  0  0  0  0  0  0
    9.1482    2.7365  -58.9782 H   0  0  0  0  0  0  0  0  0  0  0  0
    5.7833   -0.2117  -53.7197 H   0  0  0  0  0  0  0  0  0  0  0  0
    8.6681   -1.1220  -51.0183 H   0  0  0  0  0  0  0  0  0  0  0  0
    8.3231   -2.7045  -49.1222 H   0  0  0  0  0  0  0  0  0  0  0  0
    6.9275   -4.7474  -49.4396 H   0  0  0  0  0  0  0  0  0  0  0  0
    5.8677   -5.2036  -51.6500 H   0  0  0  0  0  0  0  0  0  0  0  0
    6.2079   -3.6225  -53.5474 H   0  0  0  0  0  0  0  0  0  0  0  0
   10.3489   -1.9445  -53.1585 H   0  0  0  0  0  0  0  0  0  0  0  0
   10.6537   -0.9974  -55.9679 H   0  0  0  0  0  0  0  0  0  0  0  0
   11.9110   -1.1236  -54.7309 H   0  0  0  0  0  0  0  0  0  0  0  0
   11.8917   -2.7777  -56.9001 H   0  0  0  0  0  0  0  0  0  0  0  0
   12.4388   -3.3950  -55.3492 H   0  0  0  0  0  0  0  0  0  0  0  0
    9.6363   -3.5986  -56.6196 H   0  0  0  0  0  0  0  0  0  0  0  0
   10.5935   -4.9248  -55.9947 H   0  0  0  0  0  0  0  0  0  0  0  0
    8.6872   -3.8148  -54.4377 H   0  0  0  0  0  0  0  0  0  0  0  0
   10.2241   -4.2268  -53.6744 H   0  0  0  0  0  0  0  0  0  0  0  0
  1  2  2  0
  2  3  1  0
  3  4  1  0
  4  5  1  0
  5  6  1  0
  6  7  1  0
  7  8  1  0
  8  9  1  0
  2 10  1  0
 10 11  1  0
 11 12  2  0
 12 13  1  0
 13 14  2  0
 14 15  1  0
 15 16  2  0
 16 17  1  0
 17 18  2  0
 12 19  1  0
 19 20  1  0
 20 21  1  0
 21 22  1  0
 22 23  1  0
 23 24  1  0
 19 25  1  0
  9  4  1  0
 25 10  2  0
 18 13  1  0
 24 20  1  0
  3 26  1  0
  4 27  1  0
  5 28  1  0
  5 29  1  0
  6 30  1  0
  6 31  1  0
  7 32  1  0
  7 33  1  0
  8 34  1  0
  8 35  1  0
  9 36  1  0
  9 37  1  0
 11 38  1  0
 14 39  1  0
 15 40  1  0
 16 41  1  0
 17 42  1  0
 18 43  1  0
 20 44  1  0
 21 45  1  0
 21 46  1  0
 22 47  1  0
 22 48  1  0
 23 49  1  0
 23 50  1  0
 24 51  1  0
 24 52  1  0
M  END
>  <meeko>  (29) 
{"is_sidechain": false}

$$$$

     RDKit          3D

 55 58  0  0  0  0  0  0  0  0999 V2000
    5.9310    1.5760  -56.0120 O   0  0  0  0  0  0  0  0  0  0  0  0
    7.1100    1.2520  -55.9140 C   0  0  0  0  0  0  0  0  0  0  0  0
    8.1400    1.8730  -56.5900 N   0  0  0  0  0  0  0  0  0  0  0  0
    7.9240    2.8670  -57.6320 C   0  0  0  0  0  0  0  0  0  0  0  0
    8.9640    2.7010  -58.7490 C   0  0  0  0  0  0  0  0  0  0  0  0
    9.0150    3.9060  -59.6900 C   0  0  0  0  0  0  0  0  0  0  0  0
    9.5890    5.1930  -59.0860 C   0  0  0  0  0  0  0  0  0  0  0  0
   10.2620    5.0350  -57.7230 C   0  0  0  0  0  0  0  0  0  0  0  0
    9.2590    4.8570  -56.5890 C   0  0  0  0  0  0  0  0  0  0  0  0
    7.9130    4.2600  -56.9920 C   0  0  0  0  0  0  0  0  0  0  0  0
    7.5680    0.1400  -55.0670 C   0  0  0  0  0  0  0  0  0  0  0  0
    6.8940   -0.4230  -53.9580 C   0  0  0  0  0  0  0  0  0  0  0  0
    7.6980   -1.4480  -53.5010 C   0  0  0  0  0  0  0  0  0  0  0  0
    7.4780   -2.3710  -52.3950 C   0  0  0  0  0  0  0  0  0  0  0  0
    8.0870   -2.1410  -51.1570 C   0  0  0  0  0  0  0  0  0  0  0  0
    7.8810   -3.0240  -50.0950 C   0  0  0  0  0  0  0  0  0  0  0  0
    7.0570   -4.1370  -50.2630 C   0  0  0  0  0  0  0  0  0  0  0  0
    6.4360   -4.3650  -51.4910 C   0  0  0  0  0  0  0  0  0  0  0  0
    6.6430   -3.4840  -52.5540 C   0  0  0  0  0  0  0  0  0  0  0  0
    8.8110   -1.4210  -54.3120 N   0  0  0  0  0  0  0  0  0  0  0  0
    9.9980   -2.2620  -54.2150 C   0  0  0  0  0  0  0  0  0  0  0  0
    9.7000   -3.7220  -54.5990 C   0  0  0  0  0  0  0  0  0  0  0  0
   10.8150   -4.1300  -55.5550 C   0  0  0  0  0  0  0  0  0  0  0  0
   11.1840   -2.8340  -56.2560 C   0  0  0  0  0  0  0  0  0  0  0  0
   11.1540   -1.8110  -55.1290 C   0  0  0  0  0  0  0  0  0  0  0  0
    8.7370   -0.4920  -55.2930 N   0  0  0  0  0  0  0  0  0  0  0  0
    9.0380    1.4020  -56.5000 H   0  0  0  0  0  0  0  0  0  0  0  0
    6.9464    2.7262  -58.1162 H   0  0  0  0  0  0  0  0  0  0  0  0
    9.9553    2.5699  -58.2906 H   0  0  0  0  0  0  0  0  0  0  0  0
    8.6738    1.8242  -59.3464 H   0  0  0  0  0  0  0  0  0  0  0  0
    9.6349    3.6329  -60.5567 H   0  0  0  0  0  0  0  0  0  0  0  0
    7.9695    4.1332  -59.9457 H   0  0  0  0  0  0  0  0  0  0  0  0
   10.3348    5.5940  -59.7881 H   0  0  0  0  0  0  0  0  0  0  0  0
    8.7300    5.8607  -58.9239 H   0  0  0  0  0  0  0  0  0  0  0  0
   10.9179    4.1525  -57.7545 H   0  0  0  0  0  0  0  0  0  0  0  0
   10.8291    5.9562  -57.5236 H   0  0  0  0  0  0  0  0  0  0  0  0
    9.7120    4.1950  -55.8363 H   0  0  0  0  0  0  0  0  0  0  0  0
    9.0418    5.8685  -56.2154 H   0  0  0  0  0  0  0  0  0  0  0  0
    7.2927    4.2020  -56.0854 H   0  0  0  0  0  0  0  0  0  0  0  0
    7.5321    4.9285  -57.7781 H   0  0  0  0  0  0  0  0  0  0  0  0
    5.9251   -0.1078  -53.5435 H   0  0  0  0  0  0  0  0  0  0  0  0
    8.7314   -1.2602  -51.0193 H   0  0  0  0  0  0  0  0  0  0  0  0
    8.3685   -2.8419  -49.1259 H   0  0  0  0  0  0  0  0  0  0  0  0
    6.8971   -4.8344  -49.4275 H   0  0  0  0  0  0  0  0  0  0  0  0
    5.7824   -5.2400  -51.6220 H   0  0  0  0  0  0  0  0  0  0  0  0
    6.1485   -3.6647  -53.5198 H   0  0  0  0  0  0  0  0  0  0  0  0
   10.2969   -2.1700  -53.1604 H   0  0  0  0  0  0  0  0  0  0  0  0
    9.7067   -4.3632  -53.7052 H   0  0  0  0  0  0  0  0  0  0  0  0
    8.7079   -3.8267  -55.0624 H   0  0  0  0  0  0  0  0  0  0  0  0
   11.6756   -4.5356  -55.0029 H   0  0  0  0  0  0  0  0  0  0  0  0
   10.5065   -4.9197  -56.2559 H   0  0  0  0  0  0  0  0  0  0  0  0
   12.1866   -2.8989  -56.7038 H   0  0  0  0  0  0  0  0  0  0  0  0
   10.5067   -2.5832  -57.0856 H   0  0  0  0  0  0  0  0  0  0  0  0
   12.1063   -1.8136  -54.5785 H   0  0  0  0  0  0  0  0  0  0  0  0
   11.0106   -0.7866  -55.5032 H   0  0  0  0  0  0  0  0  0  0  0  0
  1  2  2  0
  2  3  1  0
  3  4  1  0
  4  5  1  0
  5  6  1  0
  6  7  1  0
  7  8  1  0
  8  9  1  0
  9 10  1  0
  2 11  1  0
 11 12  1  0
 12 13  2  0
 13 14  1  0
 14 15  2  0
 15 16  1  0
 16 17  2  0
 17 18  1  0
 18 19  2  0
 13 20  1  0
 20 21  1  0
 21 22  1  0
 22 23  1  0
 23 24  1  0
 24 25  1  0
 20 26  1  0
 10  4  1  0
 26 11  2  0
 19 14  1  0
 25 21  1  0
  3 27  1  0
  4 28  1  0
  5 29  1  0
  5 30  1  0
  6 31  1  0
  6 32  1  0
  7 33  1  0
  7 34  1  0
  8 35  1  0
  8 36  1  0
  9 37  1  0
  9 38  1  0
 10 39  1  0
 10 40  1  0
 12 41  1  0
 15 42  1  0
 16 43  1  0
 17 44  1  0
 18 45  1  0
 19 46  1  0
 21 47  1  0
 22 48  1  0
 22 49  1  0
 23 50  1  0
 23 51  1  0
 24 52  1  0
 24 53  1  0
 25 54  1  0
 25 55  1  0
M  END
>  <meeko>  (30) 
{"is_sidechain": false}

$$$$

     RDKit          3D

 49 52  0  0  0  0  0  0  0  0999 V2000
    9.0790    0.6840  -55.2380 O   0  0  0  0  0  0  0  0  0  0  0  0
    9.9320    0.6510  -56.1200 C   0  0  0  0  0  0  0  0  0  0  0  0
   10.8140   -0.3880  -56.3020 N   0  0  0  0  0  0  0  0  0  0  0  0
   10.9560   -1.4650  -55.3600 C   0  0  0  0  0  0  0  0  0  0  0  0
   11.1890   -2.7740  -56.0680 C   0  0  0  0  0  0  0  0  0  0  0  0
   10.7400   -3.9800  -55.5120 C   0  0  0  0  0  0  0  0  0  0  0  0
   10.9410   -5.1870  -56.1840 C   0  0  0  0  0  0  0  0  0  0  0  0
   11.5850   -5.2000  -57.4200 C   0  0  0  0  0  0  0  0  0  0  0  0
   12.0260   -4.0060  -57.9870 C   0  0  0  0  0  0  0  0  0  0  0  0
   11.8270   -2.7980  -57.3180 C   0  0  0  0  0  0  0  0  0  0  0  0
   10.1180    1.7390  -57.0940 C   0  0  0  0  0  0  0  0  0  0  0  0
   11.2890    2.5020  -57.3060 C   0  0  0  0  0  0  0  0  0  0  0  0
   10.9840    3.4030  -58.3070 C   0  0  0  0  0  0  0  0  0  0  0  0
   11.8160    4.4400  -58.9020 C   0  0  0  0  0  0  0  0  0  0  0  0
   13.1830    4.2160  -59.0980 C   0  0  0  0  0  0  0  0  0  0  0  0
   13.9850    5.2070  -59.6700 C   0  0  0  0  0  0  0  0  0  0  0  0
   13.4240    6.4280  -60.0420 C   0  0  0  0  0  0  0  0  0  0  0  0
   12.0660    6.6640  -59.8390 C   0  0  0  0  0  0  0  0  0  0  0  0
   11.2630    5.6740  -59.2680 C   0  0  0  0  0  0  0  0  0  0  0  0
    9.6890    3.1080  -58.6720 N   0  0  0  0  0  0  0  0  0  0  0  0
    8.9050    3.7260  -59.7360 C   0  0  0  0  0  0  0  0  0  0  0  0
    7.4010    3.4370  -59.5830 C   0  0  0  0  0  0  0  0  0  0  0  0
    6.9250    3.0050  -60.9640 C   0  0  0  0  0  0  0  0  0  0  0  0
    8.1430    2.3330  -61.5750 C   0  0  0  0  0  0  0  0  0  0  0  0
    9.2870    3.2410  -61.1470 C   0  0  0  0  0  0  0  0  0  0  0  0
    9.1310    2.1280  -57.9240 N   0  0  0  0  0  0  0  0  0  0  0  0
   11.5390   -0.2160  -56.9920 H   0  0  0  0  0  0  0  0  0  0  0  0
   11.8110   -1.2556  -54.7004 H   0  0  0  0  0  0  0  0  0  0  0  0
   10.0280   -1.5434  -54.7747 H   0  0  0  0  0  0  0  0  0  0  0  0
   10.2258   -3.9752  -54.5396 H   0  0  0  0  0  0  0  0  0  0  0  0
   10.5906   -6.1292  -55.7374 H   0  0  0  0  0  0  0  0  0  0  0  0
   11.7450   -6.1520  -57.9474 H   0  0  0  0  0  0  0  0  0  0  0  0
   12.5319   -4.0159  -58.9637 H   0  0  0  0  0  0  0  0  0  0  0  0
   12.1724   -1.8581  -57.7732 H   0  0  0  0  0  0  0  0  0  0  0  0
   12.2494    2.3988  -56.7797 H   0  0  0  0  0  0  0  0  0  0  0  0
   13.6285    3.2553  -58.8004 H   0  0  0  0  0  0  0  0  0  0  0  0
   15.0583    5.0239  -59.8267 H   0  0  0  0  0  0  0  0  0  0  0  0
   14.0546    7.2063  -60.4965 H   0  0  0  0  0  0  0  0  0  0  0  0
   11.6263    7.6299  -60.1284 H   0  0  0  0  0  0  0  0  0  0  0  0
   10.1919    5.8641  -59.1050 H   0  0  0  0  0  0  0  0  0  0  0  0
    9.1271    4.7986  -59.6347 H   0  0  0  0  0  0  0  0  0  0  0  0
    7.2370    2.6324  -58.8511 H   0  0  0  0  0  0  0  0  0  0  0  0
    6.8518    4.3183  -59.2201 H   0  0  0  0  0  0  0  0  0  0  0  0
    6.0858    2.2981  -60.8856 H   0  0  0  0  0  0  0  0  0  0  0  0
    6.5561    3.8466  -61.5687 H   0  0  0  0  0  0  0  0  0  0  0  0
    8.2750    1.3163  -61.1763 H   0  0  0  0  0  0  0  0  0  0  0  0
    8.0699    2.2134  -62.6660 H   0  0  0  0  0  0  0  0  0  0  0  0
   10.2344    2.6828  -61.1205 H   0  0  0  0  0  0  0  0  0  0  0  0
    9.4337    4.0778  -61.8457 H   0  0  0  0  0  0  0  0  0  0  0  0
  1  2  2  0
  2  3  1  0
  3  4  1  0
  4  5  1  0
  5  6  2  0
  6  7  1  0
  7  8  2  0
  8  9  1  0
  9 10  2  0
  2 11  1  0
 11 12  1  0
 12 13  2  0
 13 14  1  0
 14 15  2  0
 15 16  1  0
 16 17  2  0
 17 18  1  0
 18 19  2  0
 13 20  1  0
 20 21  1  0
 21 22  1  0
 22 23  1  0
 23 24  1  0
 24 25  1  0
 20 26  1  0
 10  5  1  0
 26 11  2  0
 19 14  1  0
 25 21  1  0
  3 27  1  0
  4 28  1  0
  4 29  1  0
  6 30  1  0
  7 31  1  0
  8 32  1  0
  9 33  1  0
 10 34  1  0
 12 35  1  0
 15 36  1  0
 16 37  1  0
 17 38  1  0
 18 39  1  0
 19 40  1  0
 21 41  1  0
 22 42  1  0
 22 43  1  0
 23 44  1  0
 23 45  1  0
 24 46  1  0
 24 47  1  0
 25 48  1  0
 25 49  1  0
M  END
>  <meeko>  (31) 
{"is_sidechain": false}

$$$$

     RDKit          3D

 43 46  0  0  0  0  0  0  0  0999 V2000
    6.9580    2.3690  -62.9170 O   0  0  0  0  0  0  0  0  0  0  0  0
    6.8030    2.5240  -61.7100 C   0  0  0  0  0  0  0  0  0  0  0  0
    5.6080    2.3290  -61.0460 N   0  0  0  0  0  0  0  0  0  0  0  0
    4.4070    1.9090  -61.6810 C   0  0  0  0  0  0  0  0  0  0  0  0
    3.1210    1.8180  -60.9060 C   0  0  0  0  0  0  0  0  0  0  0  0
    3.8100    0.5670  -61.3680 C   0  0  0  0  0  0  0  0  0  0  0  0
    7.8890    2.9440  -60.8110 C   0  0  0  0  0  0  0  0  0  0  0  0
    9.1180    3.5400  -61.1770 C   0  0  0  0  0  0  0  0  0  0  0  0
    9.7990    3.7710  -59.9990 C   0  0  0  0  0  0  0  0  0  0  0  0
   11.1040    4.3840  -59.7920 C   0  0  0  0  0  0  0  0  0  0  0  0
   12.2240    3.5940  -59.4990 C   0  0  0  0  0  0  0  0  0  0  0  0
   13.4720    4.1870  -59.3020 C   0  0  0  0  0  0  0  0  0  0  0  0
   13.6090    5.5720  -59.3920 C   0  0  0  0  0  0  0  0  0  0  0  0
   12.4970    6.3650  -59.6720 C   0  0  0  0  0  0  0  0  0  0  0  0
   11.2470    5.7740  -59.8690 C   0  0  0  0  0  0  0  0  0  0  0  0
    8.9830    3.2700  -59.0080 N   0  0  0  0  0  0  0  0  0  0  0  0
    9.2620    3.2110  -57.5780 C   0  0  0  0  0  0  0  0  0  0  0  0
    8.1430    2.4890  -56.8060 C   0  0  0  0  0  0  0  0  0  0  0  0
    8.8520    1.5050  -55.8830 C   0  0  0  0  0  0  0  0  0  0  0  0
   10.1120    1.1350  -56.6460 C   0  0  0  0  0  0  0  0  0  0  0  0
   10.5640    2.4650  -57.2320 C   0  0  0  0  0  0  0  0  0  0  0  0
    7.8040    2.7960  -59.4740 N   0  0  0  0  0  0  0  0  0  0  0  0
    5.6390    2.5040  -60.0440 H   0  0  0  0  0  0  0  0  0  0  0  0
    4.7267    2.4253  -62.5982 H   0  0  0  0  0  0  0  0  0  0  0  0
    3.1041    2.0737  -59.8363 H   0  0  0  0  0  0  0  0  0  0  0  0
    2.1111    2.2383  -61.0222 H   0  0  0  0  0  0  0  0  0  0  0  0
    4.2974   -0.0943  -60.6364 H   0  0  0  0  0  0  0  0  0  0  0  0
    3.5130   -0.3093  -61.9630 H   0  0  0  0  0  0  0  0  0  0  0  0
    9.4620    3.7727  -62.1956 H   0  0  0  0  0  0  0  0  0  0  0  0
   12.1189    2.5016  -59.4240 H   0  0  0  0  0  0  0  0  0  0  0  0
   14.3481    3.5616  -59.0756 H   0  0  0  0  0  0  0  0  0  0  0  0
   14.5939    6.0385  -59.2421 H   0  0  0  0  0  0  0  0  0  0  0  0
   12.6043    7.4578  -59.7379 H   0  0  0  0  0  0  0  0  0  0  0  0
   10.3714    6.4036  -60.0855 H   0  0  0  0  0  0  0  0  0  0  0  0
    9.3463    4.2675  -57.2835 H   0  0  0  0  0  0  0  0  0  0  0  0
    7.5542    3.2097  -56.2196 H   0  0  0  0  0  0  0  0  0  0  0  0
    7.4434    1.9792  -57.4847 H   0  0  0  0  0  0  0  0  0  0  0  0
    9.1009    1.9789  -54.9220 H   0  0  0  0  0  0  0  0  0  0  0  0
    8.2318    0.6305  -55.6369 H   0  0  0  0  0  0  0  0  0  0  0  0
   10.8754    0.7212  -55.9707 H   0  0  0  0  0  0  0  0  0  0  0  0
    9.9436    0.3611  -57.4094 H   0  0  0  0  0  0  0  0  0  0  0  0
   11.1508    3.0328  -56.4949 H   0  0  0  0  0  0  0  0  0  0  0  0
   11.2097    2.3306  -58.1124 H   0  0  0  0  0  0  0  0  0  0  0  0
  1  2  2  0
  2  3  1  0
  3  4  1  0
  4  5  1  0
  5  6  1  0
  2  7  1  0
  7  8  1  0
  8  9  2  0
  9 10  1  0
 10 11  2  0
 11 12  1  0
 12 13  2  0
 13 14  1  0
 14 15  2  0
  9 16  1  0
 16 17  1  0
 17 18  1  0
 18 19  1  0
 19 20  1  0
 20 21  1  0
 16 22  1  0
  6  4  1  0
 22  7  2  0
 15 10  1  0
 21 17  1  0
  3 23  1  0
  4 24  1  0
  5 25  1  0
  5 26  1  0
  6 27  1  0
  6 28  1  0
  8 29  1  0
 11 30  1  0
 12 31  1  0
 13 32  1  0
 14 33  1  0
 15 34  1  0
 17 35  1  0
 18 36  1  0
 18 37  1  0
 19 38  1  0
 19 39  1  0
 20 40  1  0
 20 41  1  0
 21 42  1  0
 21 43  1  0
M  END
>  <meeko>  (32) 
{"is_sidechain": false}

$$$$

     RDKit          3D

 48 50  0  0  0  0  0  0  0  0999 V2000
   12.2830   -6.7320  -57.2160 C   0  0  0  0  0  0  0  0  0  0  0  0
   12.3840   -5.2050  -57.3930 C   0  0  0  0  0  0  0  0  0  0  0  0
   13.8570   -4.8020  -57.2190 C   0  0  0  0  0  0  0  0  0  0  0  0
   11.8990   -4.8450  -58.8060 C   0  0  0  0  0  0  0  0  0  0  0  0
   11.5320   -4.5770  -56.3720 N   0  0  0  0  0  0  0  0  0  0  0  0
   11.3230   -3.2100  -56.2540 C   0  0  0  0  0  0  0  0  0  0  0  0
   11.8920   -2.3860  -56.9650 O   0  0  0  0  0  0  0  0  0  0  0  0
   10.3450   -2.8300  -55.2080 C   0  0  0  0  0  0  0  0  0  0  0  0
    9.7910   -3.6390  -54.1810 C   0  0  0  0  0  0  0  0  0  0  0  0
    8.9220   -2.8330  -53.4730 C   0  0  0  0  0  0  0  0  0  0  0  0
    8.0890   -3.1550  -52.3230 C   0  0  0  0  0  0  0  0  0  0  0  0
    8.4510   -2.7060  -51.0480 C   0  0  0  0  0  0  0  0  0  0  0  0
    7.6560   -3.0120  -49.9410 C   0  0  0  0  0  0  0  0  0  0  0  0
    6.4990   -3.7730  -50.1040 C   0  0  0  0  0  0  0  0  0  0  0  0
    6.1380   -4.2320  -51.3700 C   0  0  0  0  0  0  0  0  0  0  0  0
    6.9320   -3.9260  -52.4770 C   0  0  0  0  0  0  0  0  0  0  0  0
    9.0230   -1.5930  -54.0660 N   0  0  0  0  0  0  0  0  0  0  0  0
    8.3550   -0.3630  -53.6540 C   0  0  0  0  0  0  0  0  0  0  0  0
    8.5270    0.8100  -54.6240 C   0  0  0  0  0  0  0  0  0  0  0  0
    7.3210    0.7650  -55.5650 C   0  0  0  0  0  0  0  0  0  0  0  0
    6.3260   -0.2210  -54.9580 C   0  0  0  0  0  0  0  0  0  0  0  0
    6.8380   -0.5180  -53.5540 C   0  0  0  0  0  0  0  0  0  0  0  0
    9.8550   -1.5830  -55.1250 N   0  0  0  0  0  0  0  0  0  0  0  0
   12.2668   -6.9765  -56.1436 H   0  0  0  0  0  0  0  0  0  0  0  0
   11.3588   -7.0956  -57.6890 H   0  0  0  0  0  0  0  0  0  0  0  0
   13.1512   -7.2142  -57.6890 H   0  0  0  0  0  0  0  0  0  0  0  0
   14.0951   -4.7368  -56.1471 H   0  0  0  0  0  0  0  0  0  0  0  0
   14.5020   -5.5567  -57.6927 H   0  0  0  0  0  0  0  0  0  0  0  0
   14.0280   -3.8241  -57.6927 H   0  0  0  0  0  0  0  0  0  0  0  0
   11.0175   -4.1907  -58.7355 H   0  0  0  0  0  0  0  0  0  0  0  0
   12.7014   -4.3221  -59.3470 H   0  0  0  0  0  0  0  0  0  0  0  0
   11.6308   -5.7645  -59.3470 H   0  0  0  0  0  0  0  0  0  0  0  0
   10.8650   -5.1740  -55.9050 H   0  0  0  0  0  0  0  0  0  0  0  0
   10.0109   -4.6993  -53.9875 H   0  0  0  0  0  0  0  0  0  0  0  0
    9.3658   -2.1094  -50.9169 H   0  0  0  0  0  0  0  0  0  0  0  0
    7.9424   -2.6529  -48.9415 H   0  0  0  0  0  0  0  0  0  0  0  0
    5.8707   -4.0113  -49.2331 H   0  0  0  0  0  0  0  0  0  0  0  0
    5.2271   -4.8355  -51.4968 H   0  0  0  0  0  0  0  0  0  0  0  0
    6.6466   -4.2926  -53.4741 H   0  0  0  0  0  0  0  0  0  0  0  0
    8.8362   -0.1596  -52.6860 H   0  0  0  0  0  0  0  0  0  0  0  0
    8.5452    1.7616  -54.0725 H   0  0  0  0  0  0  0  0  0  0  0  0
    9.4730    0.7352  -55.1803 H   0  0  0  0  0  0  0  0  0  0  0  0
    6.8650    1.7629  -55.6445 H   0  0  0  0  0  0  0  0  0  0  0  0
    7.6203    0.4523  -56.5763 H   0  0  0  0  0  0  0  0  0  0  0  0
    5.3224    0.2269  -54.9127 H   0  0  0  0  0  0  0  0  0  0  0  0
    6.2455   -1.1373  -55.5613 H   0  0  0  0  0  0  0  0  0  0  0  0
    6.4218    0.1977  -52.8297 H   0  0  0  0  0  0  0  0  0  0  0  0
    6.5438   -1.5194  -53.2066 H   0  0  0  0  0  0  0  0  0  0  0  0
  1  2  1  0
  2  3  1  0
  2  4  1  0
  2  5  1  0
  5  6  1  0
  6  7  2  0
  6  8  1  0
  8  9  1  0
  9 10  2  0
 10 11  1  0
 11 12  2  0
 12 13  1  0
 13 14  2  0
 14 15  1  0
 15 16  2  0
 10 17  1  0
 17 18  1  0
 18 19  1  0
 19 20  1  0
 20 21  1  0
 21 22  1  0
 17 23  1  0
 23  8  2  0
 16 11  1  0
 22 18  1  0
  1 24  1  0
  1 25  1  0
  1 26  1  0
  3 27  1  0
  3 28  1  0
  3 29  1  0
  4 30  1  0
  4 31  1  0
  4 32  1  0
  5 33  1  0
  9 34  1  0
 12 35  1  0
 13 36  1  0
 14 37  1  0
 15 38  1  0
 16 39  1  0
 18 40  1  0
 19 41  1  0
 19 42  1  0
 20 43  1  0
 20 44  1  0
 21 45  1  0
 21 46  1  0
 22 47  1  0
 22 48  1  0
M  END
>  <meeko>  (33) 
{"is_sidechain": false}

$$$$

     RDKit          3D

 48 50  0  0  0  0  0  0  0  0999 V2000
    7.7600   -2.5740  -49.7820 C   0  0  0  0  0  0  0  0  0  0  0  0
    8.8910   -3.3450  -50.4480 C   0  0  0  0  0  0  0  0  0  0  0  0
    9.1970   -2.8700  -51.8680 C   0  0  0  0  0  0  0  0  0  0  0  0
    7.9440   -2.6160  -52.7030 C   0  0  0  0  0  0  0  0  0  0  0  0
    8.1120   -1.4760  -53.5720 N   0  0  0  0  0  0  0  0  0  0  0  0
    7.0580   -0.8320  -54.1840 C   0  0  0  0  0  0  0  0  0  0  0  0
    5.8790   -1.1070  -53.9850 O   0  0  0  0  0  0  0  0  0  0  0  0
    7.4910    0.2210  -55.1150 C   0  0  0  0  0  0  0  0  0  0  0  0
    8.7800    0.7960  -55.2120 C   0  0  0  0  0  0  0  0  0  0  0  0
    8.7010    1.7480  -56.2090 C   0  0  0  0  0  0  0  0  0  0  0  0
    9.7300    2.6520  -56.7050 C   0  0  0  0  0  0  0  0  0  0  0  0
   10.9360    2.1520  -57.2080 C   0  0  0  0  0  0  0  0  0  0  0  0
   11.9190    3.0230  -57.6810 C   0  0  0  0  0  0  0  0  0  0  0  0
   11.6980    4.3990  -57.6600 C   0  0  0  0  0  0  0  0  0  0  0  0
   10.4950    4.9060  -57.1720 C   0  0  0  0  0  0  0  0  0  0  0  0
    9.5110    4.0350  -56.6990 C   0  0  0  0  0  0  0  0  0  0  0  0
    7.4110    1.6670  -56.6820 N   0  0  0  0  0  0  0  0  0  0  0  0
    6.8210    2.4200  -57.7830 C   0  0  0  0  0  0  0  0  0  0  0  0
    7.2110    1.8920  -59.1760 C   0  0  0  0  0  0  0  0  0  0  0  0
    5.9600    1.2020  -59.7000 C   0  0  0  0  0  0  0  0  0  0  0  0
    4.8380    2.0690  -59.1570 C   0  0  0  0  0  0  0  0  0  0  0  0
    5.2830    2.3960  -57.7370 C   0  0  0  0  0  0  0  0  0  0  0  0
    6.6480    0.7740  -56.0100 N   0  0  0  0  0  0  0  0  0  0  0  0
    7.8625   -2.6439  -48.6890 H   0  0  0  0  0  0  0  0  0  0  0  0
    7.8060   -1.5184  -50.0879 H   0  0  0  0  0  0  0  0  0  0  0  0
    6.7942   -3.0026  -50.0879 H   0  0  0  0  0  0  0  0  0  0  0  0
    9.7989   -3.2279  -49.8381 H   0  0  0  0  0  0  0  0  0  0  0  0
    8.5698   -4.3946  -50.5194 H   0  0  0  0  0  0  0  0  0  0  0  0
    9.7715   -1.9340  -51.8069 H   0  0  0  0  0  0  0  0  0  0  0  0
    9.7628   -3.6718  -52.3650 H   0  0  0  0  0  0  0  0  0  0  0  0
    7.7360   -3.5055  -53.3158 H   0  0  0  0  0  0  0  0  0  0  0  0
    7.1081   -2.4091  -52.0185 H   0  0  0  0  0  0  0  0  0  0  0  0
    9.0340   -1.1890  -53.8890 H   0  0  0  0  0  0  0  0  0  0  0  0
    9.6661    0.5370  -54.6140 H   0  0  0  0  0  0  0  0  0  0  0  0
   11.1106    1.0662  -57.2309 H   0  0  0  0  0  0  0  0  0  0  0  0
   12.8673    2.6237  -58.0700 H   0  0  0  0  0  0  0  0  0  0  0  0
   12.4741    5.0857  -58.0291 H   0  0  0  0  0  0  0  0  0  0  0  0
   10.3205    5.9920  -57.1594 H   0  0  0  0  0  0  0  0  0  0  0  0
    8.5598    4.4372  -56.3201 H   0  0  0  0  0  0  0  0  0  0  0  0
    7.2180    3.4364  -57.6438 H   0  0  0  0  0  0  0  0  0  0  0  0
    7.5003    2.7222  -59.8371 H   0  0  0  0  0  0  0  0  0  0  0  0
    8.0722    1.2090  -59.1328 H   0  0  0  0  0  0  0  0  0  0  0  0
    5.9494    1.1849  -60.7998 H   0  0  0  0  0  0  0  0  0  0  0  0
    5.8834    0.1496  -59.3893 H   0  0  0  0  0  0  0  0  0  0  0  0
    4.7282    2.9864  -59.7539 H   0  0  0  0  0  0  0  0  0  0  0  0
    3.8597    1.5672  -59.1903 H   0  0  0  0  0  0  0  0  0  0  0  0
    4.8923    3.3768  -57.4280 H   0  0  0  0  0  0  0  0  0  0  0  0
    4.9080    1.6586  -57.0120 H   0  0  0  0  0  0  0  0  0  0  0  0
  1  2  1  0
  2  3  1  0
  3  4  1  0
  4  5  1  0
  5  6  1  0
  6  7  2  0
  6  8  1  0
  8  9  1  0
  9 10  2  0
 10 11  1  0
 11 12  2  0
 12 13  1  0
 13 14  2  0
 14 15  1  0
 15 16  2  0
 10 17  1  0
 17 18  1  0
 18 19  1  0
 19 20  1  0
 20 21  1  0
 21 22  1  0
 17 23  1  0
 23  8  2  0
 16 11  1  0
 22 18  1  0
  1 24  1  0
  1 25  1  0
  1 26  1  0
  2 27  1  0
  2 28  1  0
  3 29  1  0
  3 30  1  0
  4 31  1  0
  4 32  1  0
  5 33  1  0
  9 34  1  0
 12 35  1  0
 13 36  1  0
 14 37  1  0
 15 38  1  0
 16 39  1  0
 18 40  1  0
 19 41  1  0
 19 42  1  0
 20 43  1  0
 20 44  1  0
 21 45  1  0
 21 46  1  0
 22 47  1  0
 22 48  1  0
M  END
>  <meeko>  (34) 
{"is_sidechain": false}

$$$$

     RDKit          3D

 49 52  0  0  0  0  0  0  0  0999 V2000
    7.1340    0.0110  -53.8500 O   0  0  0  0  0  0  0  0  0  0  0  0
    8.0200    0.0470  -54.7010 C   0  0  0  0  0  0  0  0  0  0  0  0
    9.0900   -0.8370  -54.6820 N   0  0  0  0  0  0  0  0  0  0  0  0
    9.2720   -1.7640  -53.5780 C   0  0  0  0  0  0  0  0  0  0  0  0
   10.7480   -1.9760  -53.2480 C   0  0  0  0  0  0  0  0  0  0  0  0
   11.2300   -2.9860  -54.2860 C   0  0  0  0  0  0  0  0  0  0  0  0
    9.9940   -3.7880  -54.6980 C   0  0  0  0  0  0  0  0  0  0  0  0
    8.8140   -3.1700  -53.9510 C   0  0  0  0  0  0  0  0  0  0  0  0
    8.0500    1.0290  -55.8060 C   0  0  0  0  0  0  0  0  0  0  0  0
    9.1790    1.6420  -56.4130 C   0  0  0  0  0  0  0  0  0  0  0  0
    8.6890    2.4940  -57.3820 C   0  0  0  0  0  0  0  0  0  0  0  0
    9.4100    3.3800  -58.2860 C   0  0  0  0  0  0  0  0  0  0  0  0
    9.9240    2.8960  -59.4960 C   0  0  0  0  0  0  0  0  0  0  0  0
   10.6110    3.7500  -60.3600 C   0  0  0  0  0  0  0  0  0  0  0  0
   10.7850    5.0920  -60.0240 C   0  0  0  0  0  0  0  0  0  0  0  0
   10.2680    5.5820  -58.8260 C   0  0  0  0  0  0  0  0  0  0  0  0
    9.5800    4.7300  -57.9610 C   0  0  0  0  0  0  0  0  0  0  0  0
    7.3250    2.3170  -57.3530 N   0  0  0  0  0  0  0  0  0  0  0  0
    6.3290    2.9340  -58.2210 C   0  0  0  0  0  0  0  0  0  0  0  0
    6.3860    2.4420  -59.6800 C   0  0  0  0  0  0  0  0  0  0  0  0
    5.1580    1.5570  -59.8440 C   0  0  0  0  0  0  0  0  0  0  0  0
    4.1170    2.2460  -58.9800 C   0  0  0  0  0  0  0  0  0  0  0  0
    4.8950    2.6600  -57.7370 C   0  0  0  0  0  0  0  0  0  0  0  0
    6.9210    1.4690  -56.3870 N   0  0  0  0  0  0  0  0  0  0  0  0
    9.8930   -0.6110  -55.2500 H   0  0  0  0  0  0  0  0  0  0  0  0
    8.7028   -1.3191  -52.7485 H   0  0  0  0  0  0  0  0  0  0  0  0
   11.3056   -1.0319  -53.3358 H   0  0  0  0  0  0  0  0  0  0  0  0
   10.8998   -2.3301  -52.2177 H   0  0  0  0  0  0  0  0  0  0  0  0
   11.6560   -2.4659  -55.1566 H   0  0  0  0  0  0  0  0  0  0  0  0
   12.0169   -3.6382  -53.8792 H   0  0  0  0  0  0  0  0  0  0  0  0
    9.8374   -3.7153  -55.7844 H   0  0  0  0  0  0  0  0  0  0  0  0
   10.1088   -4.8541  -54.4524 H   0  0  0  0  0  0  0  0  0  0  0  0
    7.9262   -3.1277  -54.5990 H   0  0  0  0  0  0  0  0  0  0  0  0
    8.5319   -3.7597  -53.0663 H   0  0  0  0  0  0  0  0  0  0  0  0
   10.2359    1.4711  -56.1603 H   0  0  0  0  0  0  0  0  0  0  0  0
    9.7856    1.8387  -59.7662 H   0  0  0  0  0  0  0  0  0  0  0  0
   11.0157    3.3639  -61.3072 H   0  0  0  0  0  0  0  0  0  0  0  0
   11.3299    5.7635  -60.7039 H   0  0  0  0  0  0  0  0  0  0  0  0
   10.4024    6.6414  -58.5621 H   0  0  0  0  0  0  0  0  0  0  0  0
    9.1693    5.1219  -57.0188 H   0  0  0  0  0  0  0  0  0  0  0  0
    6.5760    4.0051  -58.1780 H   0  0  0  0  0  0  0  0  0  0  0  0
    6.3460    3.2922  -60.3768 H   0  0  0  0  0  0  0  0  0  0  0  0
    7.3184    1.9006  -59.8980 H   0  0  0  0  0  0  0  0  0  0  0  0
    4.8362    1.5195  -60.8952 H   0  0  0  0  0  0  0  0  0  0  0  0
    5.3373    0.5115  -59.5528 H   0  0  0  0  0  0  0  0  0  0  0  0
    3.7011    3.1255  -59.4934 H   0  0  0  0  0  0  0  0  0  0  0  0
    3.2585    1.5982  -58.7491 H   0  0  0  0  0  0  0  0  0  0  0  0
    4.4585    3.5679  -57.2951 H   0  0  0  0  0  0  0  0  0  0  0  0
    4.8685    1.8808  -56.9610 H   0  0  0  0  0  0  0  0  0  0  0  0
  1  2  2  0
  2  3  1  0
  3  4  1  0
  4  5  1  0
  5  6  1  0
  6  7  1  0
  7  8  1  0
  2  9  1  0
  9 10  1  0
 10 11  2  0
 11 12  1  0
 12 13  2  0
 13 14  1  0
 14 15  2  0
 15 16  1  0
 16 17  2  0
 11 18  1  0
 18 19  1  0
 19 20  1  0
 20 21  1  0
 21 22  1  0
 22 23  1  0
 18 24  1  0
  8  4  1  0
 24  9  2  0
 17 12  1  0
 23 19  1  0
  3 25  1  0
  4 26  1  0
  5 27  1  0
  5 28  1  0
  6 29  1  0
  6 30  1  0
  7 31  1  0
  7 32  1  0
  8 33  1  0
  8 34  1  0
 10 35  1  0
 13 36  1  0
 14 37  1  0
 15 38  1  0
 16 39  1  0
 17 40  1  0
 19 41  1  0
 20 42  1  0
 20 43  1  0
 21 44  1  0
 21 45  1  0
 22 46  1  0
 22 47  1  0
 23 48  1  0
 23 49  1  0
M  END
>  <meeko>  (35) 
{"is_sidechain": false}

$$$$

     RDKit          3D

 55 58  0  0  0  0  0  0  0  0999 V2000
    9.0750   -0.7370  -54.0930 O   0  0  0  0  0  0  0  0  0  0  0  0
    9.7250   -0.4840  -55.1030 C   0  0  0  0  0  0  0  0  0  0  0  0
   10.7830   -1.2460  -55.5520 N   0  0  0  0  0  0  0  0  0  0  0  0
   11.0980   -2.5360  -54.9870 C   0  0  0  0  0  0  0  0  0  0  0  0
   11.1740   -3.6640  -56.0260 C   0  0  0  0  0  0  0  0  0  0  0  0
   11.7400   -3.1810  -57.3720 C   0  0  0  0  0  0  0  0  0  0  0  0
   11.7840   -4.3120  -58.3980 C   0  0  0  0  0  0  0  0  0  0  0  0
   12.5600   -5.5170  -57.8750 C   0  0  0  0  0  0  0  0  0  0  0  0
   12.0090   -6.0010  -56.5370 C   0  0  0  0  0  0  0  0  0  0  0  0
   11.9630   -4.8760  -55.5050 C   0  0  0  0  0  0  0  0  0  0  0  0
    9.4400    0.6660  -55.9750 C   0  0  0  0  0  0  0  0  0  0  0  0
   10.3560    1.3730  -56.7880 C   0  0  0  0  0  0  0  0  0  0  0  0
    9.6300    2.3770  -57.3980 C   0  0  0  0  0  0  0  0  0  0  0  0
   10.0790    3.4100  -58.3220 C   0  0  0  0  0  0  0  0  0  0  0  0
   10.5960    4.6190  -57.8420 C   0  0  0  0  0  0  0  0  0  0  0  0
   11.0240    5.6060  -58.7320 C   0  0  0  0  0  0  0  0  0  0  0  0
   10.9430    5.3880  -60.1070 C   0  0  0  0  0  0  0  0  0  0  0  0
   10.4400    4.1820  -60.5930 C   0  0  0  0  0  0  0  0  0  0  0  0
   10.0120    3.1940  -59.7030 C   0  0  0  0  0  0  0  0  0  0  0  0
    8.3340    2.1980  -56.9680 N   0  0  0  0  0  0  0  0  0  0  0  0
    7.1530    2.9550  -57.3650 C   0  0  0  0  0  0  0  0  0  0  0  0
    5.9050    2.5300  -56.5710 C   0  0  0  0  0  0  0  0  0  0  0  0
    4.8080    2.3260  -57.6100 C   0  0  0  0  0  0  0  0  0  0  0  0
    5.5600    1.8880  -58.8550 C   0  0  0  0  0  0  0  0  0  0  0  0
    6.7850    2.7900  -58.8510 C   0  0  0  0  0  0  0  0  0  0  0  0
    8.2040    1.1930  -56.0710 N   0  0  0  0  0  0  0  0  0  0  0  0
   11.1030   -0.9880  -56.4820 H   0  0  0  0  0  0  0  0  0  0  0  0
   12.0717   -2.4646  -54.4803 H   0  0  0  0  0  0  0  0  0  0  0  0
   10.2820   -2.7913  -54.2950 H   0  0  0  0  0  0  0  0  0  0  0  0
   10.1375   -3.9882  -56.2010 H   0  0  0  0  0  0  0  0  0  0  0  0
   11.1025   -2.3722  -57.7585 H   0  0  0  0  0  0  0  0  0  0  0  0
   12.7673   -2.8242  -57.2068 H   0  0  0  0  0  0  0  0  0  0  0  0
   10.7548   -4.6237  -58.6296 H   0  0  0  0  0  0  0  0  0  0  0  0
   12.2945   -3.9393  -59.2983 H   0  0  0  0  0  0  0  0  0  0  0  0
   12.4873   -6.3341  -58.6078 H   0  0  0  0  0  0  0  0  0  0  0  0
   13.6072   -5.2146  -57.7272 H   0  0  0  0  0  0  0  0  0  0  0  0
   10.9902   -6.3868  -56.6895 H   0  0  0  0  0  0  0  0  0  0  0  0
   12.6758   -6.7887  -56.1562 H   0  0  0  0  0  0  0  0  0  0  0  0
   11.4803   -5.2500  -54.5901 H   0  0  0  0  0  0  0  0  0  0  0  0
   12.9946   -4.5536  -55.3004 H   0  0  0  0  0  0  0  0  0  0  0  0
   11.4293    1.1653  -56.9098 H   0  0  0  0  0  0  0  0  0  0  0  0
   10.6654    4.7924  -56.7580 H   0  0  0  0  0  0  0  0  0  0  0  0
   11.4252    6.5557  -58.3485 H   0  0  0  0  0  0  0  0  0  0  0  0
   11.2759    6.1675  -60.8081 H   0  0  0  0  0  0  0  0  0  0  0  0
   10.3801    4.0084  -61.6776 H   0  0  0  0  0  0  0  0  0  0  0  0
    9.6204    2.2415  -60.0896 H   0  0  0  0  0  0  0  0  0  0  0  0
    7.4306    3.9995  -57.1603 H   0  0  0  0  0  0  0  0  0  0  0  0
    6.0968    1.5938  -56.0263 H   0  0  0  0  0  0  0  0  0  0  0  0
    5.6218    3.2851  -55.8229 H   0  0  0  0  0  0  0  0  0  0  0  0
    4.1016    1.5477  -57.2855 H   0  0  0  0  0  0  0  0  0  0  0  0
    4.2064    3.2320  -57.7749 H   0  0  0  0  0  0  0  0  0  0  0  0
    5.8490    0.8286  -58.7899 H   0  0  0  0  0  0  0  0  0  0  0  0
    4.9623    1.9733  -59.7745 H   0  0  0  0  0  0  0  0  0  0  0  0
    7.6121    2.3214  -59.4045 H   0  0  0  0  0  0  0  0  0  0  0  0
    6.5882    3.7565  -59.3379 H   0  0  0  0  0  0  0  0  0  0  0  0
  1  2  2  0
  2  3  1  0
  3  4  1  0
  4  5  1  0
  5  6  1  0
  6  7  1  0
  7  8  1  0
  8  9  1  0
  9 10  1  0
  2 11  1  0
 11 12  1  0
 12 13  2  0
 13 14  1  0
 14 15  2  0
 15 16  1  0
 16 17  2  0
 17 18  1  0
 18 19  2  0
 13 20  1  0
 20 21  1  0
 21 22  1  0
 22 23  1  0
 23 24  1  0
 24 25  1  0
 20 26  1  0
 10  5  1  0
 26 11  2  0
 19 14  1  0
 25 21  1  0
  3 27  1  0
  4 28  1  0
  4 29  1  0
  5 30  1  0
  6 31  1  0
  6 32  1  0
  7 33  1  0
  7 34  1  0
  8 35  1  0
  8 36  1  0
  9 37  1  0
  9 38  1  0
 10 39  1  0
 10 40  1  0
 12 41  1  0
 15 42  1  0
 16 43  1  0
 17 44  1  0
 18 45  1  0
 19 46  1  0
 21 47  1  0
 22 48  1  0
 22 49  1  0
 23 50  1  0
 23 51  1  0
 24 52  1  0
 24 53  1  0
 25 54  1  0
 25 55  1  0
M  END
>  <meeko>  (36) 
{"is_sidechain": false}

$$$$

     RDKit          3D

 60 65  0  0  0  0  0  0  0  0999 V2000
    6.8000    2.0320  -56.1490 O   0  0  0  0  0  0  0  0  0  0  0  0
    7.8660    1.4230  -56.0960 C   0  0  0  0  0  0  0  0  0  0  0  0
    8.9660    1.7690  -56.8660 N   0  0  0  0  0  0  0  0  0  0  0  0
    9.0180    2.9200  -57.7750 C   0  0  2  0  0  0  0  0  0  0  0  0
    7.9210    2.8480  -58.8680 C   0  0  0  0  0  0  0  0  0  0  0  0
    8.0400    4.0410  -59.8340 C   0  0  1  0  0  0  0  0  0  0  0  0
    7.8980    5.3510  -59.0410 C   0  0  0  0  0  0  0  0  0  0  0  0
    9.0070    5.4490  -57.9790 C   0  0  2  0  0  0  0  0  0  0  0  0
   10.3780    5.4060  -58.6730 C   0  0  0  0  0  0  0  0  0  0  0  0
   10.5260    4.0950  -59.4600 C   0  0  2  0  0  0  0  0  0  0  0  0
    9.4150    4.0060  -60.5160 C   0  0  0  0  0  0  0  0  0  0  0  0
   10.3970    2.9080  -58.4910 C   0  0  0  0  0  0  0  0  0  0  0  0
    8.8890    4.2600  -57.0100 C   0  0  0  0  0  0  0  0  0  0  0  0
    8.0880    0.2720  -55.1920 C   0  0  0  0  0  0  0  0  0  0  0  0
    7.2500   -0.2090  -54.1470 C   0  0  0  0  0  0  0  0  0  0  0  0
    7.9050   -1.2870  -53.5860 C   0  0  0  0  0  0  0  0  0  0  0  0
    7.5120   -2.1270  -52.4640 C   0  0  0  0  0  0  0  0  0  0  0  0
    6.6150   -3.1860  -52.6500 C   0  0  0  0  0  0  0  0  0  0  0  0
    6.2400   -3.9890  -51.5720 C   0  0  0  0  0  0  0  0  0  0  0  0
    6.7620   -3.7420  -50.3030 C   0  0  0  0  0  0  0  0  0  0  0  0
    7.6620   -2.6940  -50.1110 C   0  0  0  0  0  0  0  0  0  0  0  0
    8.0390   -1.8900  -51.1900 C   0  0  0  0  0  0  0  0  0  0  0  0
    9.0610   -1.4230  -54.3180 N   0  0  0  0  0  0  0  0  0  0  0  0
   10.1000   -2.4320  -54.1600 C   0  0  0  0  0  0  0  0  0  0  0  0
    9.6590   -3.8500  -54.5680 C   0  0  0  0  0  0  0  0  0  0  0  0
   10.3800   -4.1270  -55.8800 C   0  0  0  0  0  0  0  0  0  0  0  0
   11.7150   -3.4270  -55.6920 C   0  0  0  0  0  0  0  0  0  0  0  0
   11.3440   -2.1160  -55.0080 C   0  0  0  0  0  0  0  0  0  0  0  0
    9.1990   -0.4800  -55.2710 N   0  0  0  0  0  0  0  0  0  0  0  0
    9.8470    1.3490  -56.6120 H   0  0  0  0  0  0  0  0  0  0  0  0
    8.0353    1.9117  -59.4339 H   0  0  0  0  0  0  0  0  0  0  0  0
    6.9342    2.8812  -58.3830 H   0  0  0  0  0  0  0  0  0  0  0  0
    7.2486    3.9819  -60.5957 H   0  0  0  0  0  0  0  0  0  0  0  0
    7.9782    6.2043  -59.7306 H   0  0  0  0  0  0  0  0  0  0  0  0
    6.9184    5.3648  -58.5409 H   0  0  0  0  0  0  0  0  0  0  0  0
    8.9041    6.3914  -57.4211 H   0  0  0  0  0  0  0  0  0  0  0  0
   10.4637    6.2576  -59.3640 H   0  0  0  0  0  0  0  0  0  0  0  0
   11.1704    5.4626  -57.9122 H   0  0  0  0  0  0  0  0  0  0  0  0
   11.5084    4.0695  -59.9542 H   0  0  0  0  0  0  0  0  0  0  0  0
    9.5006    4.8570  -61.2077 H   0  0  0  0  0  0  0  0  0  0  0  0
    9.5191    3.0624  -61.0717 H   0  0  0  0  0  0  0  0  0  0  0  0
   10.5007    1.9698  -59.0558 H   0  0  0  0  0  0  0  0  0  0  0  0
   11.1873    2.9896  -57.7302 H   0  0  0  0  0  0  0  0  0  0  0  0
    9.6890    4.3256  -56.2579 H   0  0  0  0  0  0  0  0  0  0  0  0
    7.9042    4.2965  -56.5214 H   0  0  0  0  0  0  0  0  0  0  0  0
    6.2734    0.1978  -53.8458 H   0  0  0  0  0  0  0  0  0  0  0  0
    6.2040   -3.3859  -53.6505 H   0  0  0  0  0  0  0  0  0  0  0  0
    5.5322   -4.8173  -51.7236 H   0  0  0  0  0  0  0  0  0  0  0  0
    6.4640   -4.3737  -49.4532 H   0  0  0  0  0  0  0  0  0  0  0  0
    8.0751   -2.5003  -49.1101 H   0  0  0  0  0  0  0  0  0  0  0  0
    8.7531   -1.0674  -51.0369 H   0  0  0  0  0  0  0  0  0  0  0  0
   10.3223   -2.4055  -53.0830 H   0  0  0  0  0  0  0  0  0  0  0  0
    9.9555   -4.5820  -53.8023 H   0  0  0  0  0  0  0  0  0  0  0  0
    8.5668   -3.9278  -54.6733 H   0  0  0  0  0  0  0  0  0  0  0  0
   10.5185   -5.2073  -56.0344 H   0  0  0  0  0  0  0  0  0  0  0  0
    9.8258   -3.7730  -56.7618 H   0  0  0  0  0  0  0  0  0  0  0  0
   12.3850   -4.0248  -55.0566 H   0  0  0  0  0  0  0  0  0  0  0  0
   12.2534   -3.2756  -56.6392 H   0  0  0  0  0  0  0  0  0  0  0  0
   12.1684   -1.7702  -54.3670 H   0  0  0  0  0  0  0  0  0  0  0  0
   11.1480   -1.3165  -55.7376 H   0  0  0  0  0  0  0  0  0  0  0  0
  1  2  2  0
  2  3  1  0
  4  3  1  1
  4  5  1  0
  5  6  1  0
  6  7  1  0
  7  8  1  0
  8  9  1  0
  9 10  1  0
 10 11  1  0
 10 12  1  0
  8 13  1  0
  2 14  1  0
 14 15  1  0
 15 16  2  0
 16 17  1  0
 17 18  2  0
 18 19  1  0
 19 20  2  0
 20 21  1  0
 21 22  2  0
 16 23  1  0
 23 24  1  0
 24 25  1  0
 25 26  1  0
 26 27  1  0
 27 28  1  0
 23 29  1  0
 12  4  1  0
 29 14  2  0
 13  4  1  0
 22 17  1  0
 28 24  1  0
 11  6  1  0
  3 30  1  0
  5 31  1  0
  5 32  1  0
  6 33  1  6
  7 34  1  0
  7 35  1  0
  8 36  1  1
  9 37  1  0
  9 38  1  0
 10 39  1  6
 11 40  1  0
 11 41  1  0
 12 42  1  0
 12 43  1  0
 13 44  1  0
 13 45  1  0
 15 46  1  0
 18 47  1  0
 19 48  1  0
 20 49  1  0
 21 50  1  0
 22 51  1  0
 24 52  1  0
 25 53  1  0
 25 54  1  0
 26 55  1  0
 26 56  1  0
 27 57  1  0
 27 58  1  0
 28 59  1  0
 28 60  1  0
M  END
>  <meeko>  (37) 
{"is_sidechain": false}

$$$$

     RDKit          3D

 59 63  0  0  0  0  0  0  0  0999 V2000
    9.9370   -4.0860  -55.0880 C   0  0  0  0  0  0  0  0  0  0  0  0
   11.0080   -3.0250  -54.8370 C   0  0  0  0  0  0  0  0  0  0  0  0
   11.4580   -2.4000  -56.1580 C   0  0  0  0  0  0  0  0  0  0  0  0
   10.5750   -1.9790  -53.7920 C   0  0  0  0  0  0  0  0  0  0  0  0
    9.3830   -1.2140  -54.1140 N   0  0  0  0  0  0  0  0  0  0  0  0
    9.4840   -0.2360  -55.0340 N   0  0  0  0  0  0  0  0  0  0  0  0
    8.2470    0.2800  -55.1440 C   0  0  0  0  0  0  0  0  0  0  0  0
    7.9480    1.3790  -56.0880 C   0  0  0  0  0  0  0  0  0  0  0  0
    6.8420    1.9080  -56.1670 O   0  0  0  0  0  0  0  0  0  0  0  0
    9.0260    1.7760  -56.8660 N   0  0  0  0  0  0  0  0  0  0  0  0
    9.0010    2.8950  -57.8150 C   0  0  2  0  0  0  0  0  0  0  0  0
    7.8770    2.7380  -58.8710 C   0  0  0  0  0  0  0  0  0  0  0  0
    7.9160    3.8990  -59.8800 C   0  0  1  0  0  0  0  0  0  0  0  0
    7.7390    5.2300  -59.1270 C   0  0  0  0  0  0  0  0  0  0  0  0
    8.8730    5.4140  -58.1040 C   0  0  2  0  0  0  0  0  0  0  0  0
   10.2240    5.4050  -58.8370 C   0  0  0  0  0  0  0  0  0  0  0  0
   10.4070    4.0750  -59.5830 C   0  0  2  0  0  0  0  0  0  0  0  0
    9.2720    3.9010  -60.6030 C   0  0  0  0  0  0  0  0  0  0  0  0
   10.3580    2.9190  -58.5710 C   0  0  0  0  0  0  0  0  0  0  0  0
    8.8350    4.2540  -57.0920 C   0  0  0  0  0  0  0  0  0  0  0  0
    7.3700   -0.3750  -54.2360 C   0  0  0  0  0  0  0  0  0  0  0  0
    8.1280   -1.3120  -53.5620 C   0  0  0  0  0  0  0  0  0  0  0  0
    7.7290   -2.2280  -52.5030 C   0  0  0  0  0  0  0  0  0  0  0  0
    8.1050   -1.9760  -51.1780 C   0  0  0  0  0  0  0  0  0  0  0  0
    7.7320   -2.8550  -50.1600 C   0  0  0  0  0  0  0  0  0  0  0  0
    6.9890   -3.9960  -50.4610 C   0  0  0  0  0  0  0  0  0  0  0  0
    6.6240   -4.2620  -51.7790 C   0  0  0  0  0  0  0  0  0  0  0  0
    6.9960   -3.3830  -52.7980 C   0  0  0  0  0  0  0  0  0  0  0  0
    9.5591   -4.4604  -54.1252 H   0  0  0  0  0  0  0  0  0  0  0  0
    9.1085   -3.6426  -55.6597 H   0  0  0  0  0  0  0  0  0  0  0  0
   10.3726   -4.9187  -55.6597 H   0  0  0  0  0  0  0  0  0  0  0  0
   11.8813   -3.5248  -54.3926 H   0  0  0  0  0  0  0  0  0  0  0  0
   12.0894   -1.5230  -55.9524 H   0  0  0  0  0  0  0  0  0  0  0  0
   12.0330   -3.1385  -56.7359 H   0  0  0  0  0  0  0  0  0  0  0  0
   10.5753   -2.0889  -56.7359 H   0  0  0  0  0  0  0  0  0  0  0  0
   10.3910   -2.5061  -52.8442 H   0  0  0  0  0  0  0  0  0  0  0  0
   11.3947   -1.2468  -53.7475 H   0  0  0  0  0  0  0  0  0  0  0  0
    9.9330    1.4280  -56.5950 H   0  0  0  0  0  0  0  0  0  0  0  0
    8.0153    1.7878  -59.4077 H   0  0  0  0  0  0  0  0  0  0  0  0
    6.9042    2.7469  -58.3576 H   0  0  0  0  0  0  0  0  0  0  0  0
    7.1069    3.7776  -60.6153 H   0  0  0  0  0  0  0  0  0  0  0  0
    7.7605    6.0611  -59.8473 H   0  0  0  0  0  0  0  0  0  0  0  0
    6.7750    5.2183  -58.5974 H   0  0  0  0  0  0  0  0  0  0  0  0
    8.7455    6.3707  -57.5763 H   0  0  0  0  0  0  0  0  0  0  0  0
   10.2526    6.2346  -59.5588 H   0  0  0  0  0  0  0  0  0  0  0  0
   11.0345    5.5220  -58.1026 H   0  0  0  0  0  0  0  0  0  0  0  0
   11.3752    4.0743  -60.1051 H   0  0  0  0  0  0  0  0  0  0  0  0
    9.2995    4.7308  -61.3246 H   0  0  0  0  0  0  0  0  0  0  0  0
    9.4026    2.9450  -61.1311 H   0  0  0  0  0  0  0  0  0  0  0  0
   10.4879    1.9669  -59.1065 H   0  0  0  0  0  0  0  0  0  0  0  0
   11.1645    3.0627  -57.8369 H   0  0  0  0  0  0  0  0  0  0  0  0
    9.6524    4.3800  -56.3667 H   0  0  0  0  0  0  0  0  0  0  0  0
    7.8636    4.2650  -56.5759 H   0  0  0  0  0  0  0  0  0  0  0  0
    6.2973   -0.1744  -54.0976 H   0  0  0  0  0  0  0  0  0  0  0  0
    8.6974   -1.0807  -50.9381 H   0  0  0  0  0  0  0  0  0  0  0  0
    8.0242   -2.6476  -49.1200 H   0  0  0  0  0  0  0  0  0  0  0  0
    6.6911   -4.6860  -49.6578 H   0  0  0  0  0  0  0  0  0  0  0  0
    6.0425   -5.1649  -52.0169 H   0  0  0  0  0  0  0  0  0  0  0  0
    6.7114   -3.5995  -53.8382 H   0  0  0  0  0  0  0  0  0  0  0  0
  1  2  1  0
  2  3  1  0
  2  4  1  0
  4  5  1  0
  5  6  1  0
  6  7  2  0
  7  8  1  0
  8  9  2  0
  8 10  1  0
 11 10  1  1
 11 12  1  0
 12 13  1  0
 13 14  1  0
 14 15  1  0
 15 16  1  0
 16 17  1  0
 17 18  1  0
 17 19  1  0
 15 20  1  0
  7 21  1  0
 21 22  2  0
 22 23  1  0
 23 24  2  0
 24 25  1  0
 25 26  2  0
 26 27  1  0
 27 28  2  0
 22  5  1  0
 28 23  1  0
 19 11  1  0
 20 11  1  0
 18 13  1  0
  1 29  1  0
  1 30  1  0
  1 31  1  0
  2 32  1  0
  3 33  1  0
  3 34  1  0
  3 35  1  0
  4 36  1  0
  4 37  1  0
 10 38  1  0
 12 39  1  0
 12 40  1  0
 13 41  1  6
 14 42  1  0
 14 43  1  0
 15 44  1  1
 16 45  1  0
 16 46  1  0
 17 47  1  6
 18 48  1  0
 18 49  1  0
 19 50  1  0
 19 51  1  0
 20 52  1  0
 20 53  1  0
 21 54  1  0
 24 55  1  0
 25 56  1  0
 26 57  1  0
 27 58  1  0
 28 59  1  0
M  END
>  <meeko>  (38) 
{"is_sidechain": false}

$$$$

     RDKit          3D

 46 49  0  0  0  0  0  0  0  0999 V2000
    5.9740    1.5920  -56.0200 O   0  0  0  0  0  0  0  0  0  0  0  0
    7.1580    1.3140  -55.8540 C   0  0  0  0  0  0  0  0  0  0  0  0
    8.2210    1.9800  -56.4510 N   0  0  0  0  0  0  0  0  0  0  0  0
    8.1690    3.1060  -57.2990 C   0  0  0  0  0  0  0  0  0  0  0  0
    8.8600    4.2510  -56.8790 C   0  0  0  0  0  0  0  0  0  0  0  0
    8.8590    5.4140  -57.6560 C   0  0  0  0  0  0  0  0  0  0  0  0
    8.1640    5.4430  -58.8610 C   0  0  0  0  0  0  0  0  0  0  0  0
    7.4720    4.3110  -59.2860 C   0  0  0  0  0  0  0  0  0  0  0  0
    7.4740    3.1480  -58.5090 C   0  0  0  0  0  0  0  0  0  0  0  0
    7.5790    0.1890  -54.9800 C   0  0  0  0  0  0  0  0  0  0  0  0
    6.8840   -0.4000  -53.8870 C   0  0  0  0  0  0  0  0  0  0  0  0
    7.6840   -1.4240  -53.4190 C   0  0  0  0  0  0  0  0  0  0  0  0
    7.4430   -2.3690  -52.3390 C   0  0  0  0  0  0  0  0  0  0  0  0
    7.9940   -2.1520  -51.0710 C   0  0  0  0  0  0  0  0  0  0  0  0
    7.7600   -3.0600  -50.0370 C   0  0  0  0  0  0  0  0  0  0  0  0
    6.9790   -4.1920  -50.2670 C   0  0  0  0  0  0  0  0  0  0  0  0
    6.4340   -4.4190  -51.5290 C   0  0  0  0  0  0  0  0  0  0  0  0
    6.6670   -3.5110  -52.5640 C   0  0  0  0  0  0  0  0  0  0  0  0
    8.8080   -1.3880  -54.2100 N   0  0  0  0  0  0  0  0  0  0  0  0
    9.9860   -2.2410  -54.1210 C   0  0  0  0  0  0  0  0  0  0  0  0
    9.6900   -3.6800  -54.5780 C   0  0  0  0  0  0  0  0  0  0  0  0
   10.8430   -4.0610  -55.4990 C   0  0  0  0  0  0  0  0  0  0  0  0
   11.2430   -2.7430  -56.1390 C   0  0  0  0  0  0  0  0  0  0  0  0
   11.1710   -1.7600  -54.9790 C   0  0  0  0  0  0  0  0  0  0  0  0
    8.7500   -0.4420  -55.1680 N   0  0  0  0  0  0  0  0  0  0  0  0
    9.1390    1.5880  -56.3070 H   0  0  0  0  0  0  0  0  0  0  0  0
    9.4099    4.2347  -55.9265 H   0  0  0  0  0  0  0  0  0  0  0  0
    9.4070    6.3047  -57.3148 H   0  0  0  0  0  0  0  0  0  0  0  0
    8.1609    6.3555  -59.4753 H   0  0  0  0  0  0  0  0  0  0  0  0
    6.9210    4.3320  -60.2378 H   0  0  0  0  0  0  0  0  0  0  0  0
    6.9240    2.2600  -58.8538 H   0  0  0  0  0  0  0  0  0  0  0  0
    5.9024   -0.0989  -53.4923 H   0  0  0  0  0  0  0  0  0  0  0  0
    8.6142   -1.2620  -50.8884 H   0  0  0  0  0  0  0  0  0  0  0  0
    8.1916   -2.8826  -49.0409 H   0  0  0  0  0  0  0  0  0  0  0  0
    6.7930   -4.9063  -49.4514 H   0  0  0  0  0  0  0  0  0  0  0  0
    5.8201   -5.3136  -51.7101 H   0  0  0  0  0  0  0  0  0  0  0  0
    6.2386   -3.6945  -53.5604 H   0  0  0  0  0  0  0  0  0  0  0  0
   10.2554   -2.1973  -53.0554 H   0  0  0  0  0  0  0  0  0  0  0  0
    9.6497   -4.3575  -53.7123 H   0  0  0  0  0  0  0  0  0  0  0  0
    8.7186   -3.7539  -55.0888 H   0  0  0  0  0  0  0  0  0  0  0  0
   11.6787   -4.4881  -54.9252 H   0  0  0  0  0  0  0  0  0  0  0  0
   10.5634   -4.8263  -56.2380 H   0  0  0  0  0  0  0  0  0  0  0  0
   12.2625   -2.7963  -56.5487 H   0  0  0  0  0  0  0  0  0  0  0  0
   10.5999   -2.4607  -56.9856 H   0  0  0  0  0  0  0  0  0  0  0  0
   12.1037   -1.7809  -54.3962 H   0  0  0  0  0  0  0  0  0  0  0  0
   11.0376   -0.7239  -55.3235 H   0  0  0  0  0  0  0  0  0  0  0  0
  1  2  2  0
  2  3  1  0
  3  4  1  0
  4  5  2  0
  5  6  1  0
  6  7  2  0
  7  8  1  0
  8  9  2  0
  2 10  1  0
 10 11  1  0
 11 12  2  0
 12 13  1  0
 13 14  2  0
 14 15  1  0
 15 16  2  0
 16 17  1  0
 17 18  2  0
 12 19  1  0
 19 20  1  0
 20 21  1  0
 21 22  1  0
 22 23  1  0
 23 24  1  0
 19 25  1  0
  9  4  1  0
 25 10  2  0
 18 13  1  0
 24 20  1  0
  3 26  1  0
  5 27  1  0
  6 28  1  0
  7 29  1  0
  8 30  1  0
  9 31  1  0
 11 32  1  0
 14 33  1  0
 15 34  1  0
 16 35  1  0
 17 36  1  0
 18 37  1  0
 20 38  1  0
 21 39  1  0
 21 40  1  0
 22 41  1  0
 22 42  1  0
 23 43  1  0
 23 44  1  0
 24 45  1  0
 24 46  1  0
M  END
>  <meeko>  (39) 
{"is_sidechain": false}

$$$$

     RDKit          3D

 57 62  0  0  0  0  0  0  0  0999 V2000
    6.6500    1.9140  -56.0890 O   0  0  0  0  0  0  0  0  0  0  0  0
    7.7550    1.3870  -56.0190 C   0  0  0  0  0  0  0  0  0  0  0  0
    8.8570    1.7690  -56.7510 N   0  0  0  0  0  0  0  0  0  0  0  0
    8.9100    2.8500  -57.7300 C   0  0  2  0  0  0  0  0  0  0  0  0
    7.7820    2.7220  -58.7840 C   0  0  0  0  0  0  0  0  0  0  0  0
    7.8880    3.8450  -59.8300 C   0  0  1  0  0  0  0  0  0  0  0  0
    7.7820    5.2080  -59.1240 C   0  0  0  0  0  0  0  0  0  0  0  0
    8.9200    5.3620  -58.0990 C   0  0  2  0  0  0  0  0  0  0  0  0
   10.2720    5.2560  -58.8210 C   0  0  0  0  0  0  0  0  0  0  0  0
   10.3860    3.8930  -59.5230 C   0  0  2  0  0  0  0  0  0  0  0  0
    9.2470    3.7480  -60.5430 C   0  0  0  0  0  0  0  0  0  0  0  0
   10.2700    2.7760  -58.4740 C   0  0  0  0  0  0  0  0  0  0  0  0
    8.8120    4.2390  -57.0520 C   0  0  0  0  0  0  0  0  0  0  0  0
    8.0350    0.2560  -55.1190 C   0  0  0  0  0  0  0  0  0  0  0  0
    7.2250   -0.2090  -54.0560 C   0  0  0  0  0  0  0  0  0  0  0  0
    7.8850   -1.2960  -53.5170 C   0  0  0  0  0  0  0  0  0  0  0  0
    7.4910   -2.1640  -52.4160 C   0  0  0  0  0  0  0  0  0  0  0  0
    7.9250   -1.9070  -51.1090 C   0  0  0  0  0  0  0  0  0  0  0  0
    7.5420   -2.7450  -50.0600 C   0  0  0  0  0  0  0  0  0  0  0  0
    6.7280   -3.8480  -50.3100 C   0  0  0  0  0  0  0  0  0  0  0  0
    6.3000   -4.1190  -51.6090 C   0  0  0  0  0  0  0  0  0  0  0  0
    6.6840   -3.2820  -52.6590 C   0  0  0  0  0  0  0  0  0  0  0  0
    9.0630   -1.3820  -54.2300 N   0  0  0  0  0  0  0  0  0  0  0  0
   10.1220   -2.3910  -53.9880 C   0  0  0  0  0  0  0  0  0  0  0  0
   11.3050   -2.2990  -54.9880 C   0  0  0  0  0  0  0  0  0  0  0  0
   11.3360   -3.8420  -54.9690 C   0  0  0  0  0  0  0  0  0  0  0  0
    9.8370   -3.7870  -54.6070 C   0  0  0  0  0  0  0  0  0  0  0  0
    9.1520   -0.4880  -55.2370 N   0  0  0  0  0  0  0  0  0  0  0  0
    9.6890    1.2140  -56.5630 H   0  0  0  0  0  0  0  0  0  0  0  0
    7.8678    1.7485  -59.2889 H   0  0  0  0  0  0  0  0  0  0  0  0
    6.8103    2.8024  -58.2748 H   0  0  0  0  0  0  0  0  0  0  0  0
    7.0759    3.7440  -60.5650 H   0  0  0  0  0  0  0  0  0  0  0  0
    7.8543    6.0117  -59.8716 H   0  0  0  0  0  0  0  0  0  0  0  0
    6.8159    5.2690  -58.6016 H   0  0  0  0  0  0  0  0  0  0  0  0
    8.8432    6.3407  -57.6028 H   0  0  0  0  0  0  0  0  0  0  0  0
   10.3498    6.0589  -59.5689 H   0  0  0  0  0  0  0  0  0  0  0  0
   11.0837    5.3528  -58.0850 H   0  0  0  0  0  0  0  0  0  0  0  0
   11.3547    3.8220  -60.0394 H   0  0  0  0  0  0  0  0  0  0  0  0
    9.3239    4.5503  -61.2916 H   0  0  0  0  0  0  0  0  0  0  0  0
    9.3268    2.7684  -61.0370 H   0  0  0  0  0  0  0  0  0  0  0  0
   10.3525    1.8009  -58.9764 H   0  0  0  0  0  0  0  0  0  0  0  0
   11.0786    2.9007  -57.7388 H   0  0  0  0  0  0  0  0  0  0  0  0
    9.6295    4.3441  -56.3235 H   0  0  0  0  0  0  0  0  0  0  0  0
    7.8386    4.3186  -56.5459 H   0  0  0  0  0  0  0  0  0  0  0  0
    6.2634    0.2107  -53.7255 H   0  0  0  0  0  0  0  0  0  0  0  0
    8.5713   -1.0399  -50.9081 H   0  0  0  0  0  0  0  0  0  0  0  0
    7.8830   -2.5344  -49.0356 H   0  0  0  0  0  0  0  0  0  0  0  0
    6.4230   -4.5051  -49.4823 H   0  0  0  0  0  0  0  0  0  0  0  0
    5.6602   -4.9917  -51.8067 H   0  0  0  0  0  0  0  0  0  0  0  0
    6.3502   -3.5026  -53.6837 H   0  0  0  0  0  0  0  0  0  0  0  0
   10.2437   -2.2483  -52.9041 H   0  0  0  0  0  0  0  0  0  0  0  0
   11.0513   -1.8554  -55.9621 H   0  0  0  0  0  0  0  0  0  0  0  0
   12.2003   -1.6956  -54.7775 H   0  0  0  0  0  0  0  0  0  0  0  0
   11.5587   -4.3103  -55.9391 H   0  0  0  0  0  0  0  0  0  0  0  0
   12.0620   -4.4029  -54.3621 H   0  0  0  0  0  0  0  0  0  0  0  0
    9.1547   -3.7779  -55.4698 H   0  0  0  0  0  0  0  0  0  0  0  0
    9.3452   -4.5885  -54.0362 H   0  0  0  0  0  0  0  0  0  0  0  0
  1  2  2  0
  2  3  1  0
  4  3  1  1
  4  5  1  0
  5  6  1  0
  6  7  1  0
  7  8  1  0
  8  9  1  0
  9 10  1  0
 10 11  1  0
 10 12  1  0
  8 13  1  0
  2 14  1  0
 14 15  1  0
 15 16  2  0
 16 17  1  0
 17 18  2  0
 18 19  1  0
 19 20  2  0
 20 21  1  0
 21 22  2  0
 16 23  1  0
 23 24  1  0
 24 25  1  0
 25 26  1  0
 26 27  1  0
 23 28  1  0
 12  4  1  0
 28 14  2  0
 13  4  1  0
 22 17  1  0
 27 24  1  0
 11  6  1  0
  3 29  1  0
  5 30  1  0
  5 31  1  0
  6 32  1  6
  7 33  1  0
  7 34  1  0
  8 35  1  1
  9 36  1  0
  9 37  1  0
 10 38  1  6
 11 39  1  0
 11 40  1  0
 12 41  1  0
 12 42  1  0
 13 43  1  0
 13 44  1  0
 15 45  1  0
 18 46  1  0
 19 47  1  0
 20 48  1  0
 21 49  1  0
 22 50  1  0
 24 51  1  0
 25 52  1  0
 25 53  1  0
 26 54  1  0
 26 55  1  0
 27 56  1  0
 27 57  1  0
M  END
>  <meeko>  (40) 
{"is_sidechain": false}

$$$$

     RDKit          3D

 59 63  0  0  0  0  0  0  0  0999 V2000
    6.4380   -0.3440  -53.9350 C   0  0  0  0  0  0  0  0  0  0  0  0
    7.8880   -0.5630  -54.1770 C   0  0  0  0  0  0  0  0  0  0  0  0
    8.7070    0.1100  -55.1440 C   0  0  0  0  0  0  0  0  0  0  0  0
    8.3260    1.2010  -56.0660 C   0  0  0  0  0  0  0  0  0  0  0  0
    7.1630    1.5410  -56.2550 O   0  0  0  0  0  0  0  0  0  0  0  0
    9.4080    1.7770  -56.7140 N   0  0  0  0  0  0  0  0  0  0  0  0
    9.3060    2.7930  -57.7620 C   0  0  2  0  0  0  0  0  0  0  0  0
    8.8330    4.1590  -57.2030 C   0  0  0  0  0  0  0  0  0  0  0  0
    8.7890    5.2180  -58.3200 C   0  0  1  0  0  0  0  0  0  0  0  0
   10.1960    5.3890  -58.9120 C   0  0  0  0  0  0  0  0  0  0  0  0
   10.6860    4.0540  -59.4930 C   0  0  2  0  0  0  0  0  0  0  0  0
    9.7200    3.5930  -60.5940 C   0  0  0  0  0  0  0  0  0  0  0  0
    8.3090    3.4110  -60.0130 C   0  0  2  0  0  0  0  0  0  0  0  0
    7.8270    4.7470  -59.4240 C   0  0  0  0  0  0  0  0  0  0  0  0
    8.3510    2.3500  -58.8980 C   0  0  0  0  0  0  0  0  0  0  0  0
   10.7180    3.0010  -58.3750 C   0  0  0  0  0  0  0  0  0  0  0  0
    9.9580   -0.3700  -55.1240 N   0  0  0  0  0  0  0  0  0  0  0  0
    9.9490   -1.3240  -54.1830 N   0  0  0  0  0  0  0  0  0  0  0  0
   11.1640   -2.0710  -53.9500 C   0  0  0  0  0  0  0  0  0  0  0  0
    8.7400   -1.4640  -53.5460 C   0  0  0  0  0  0  0  0  0  0  0  0
    8.5140   -2.4540  -52.4310 C   0  0  0  0  0  0  0  0  0  0  0  0
    7.8080   -1.8240  -51.2240 C   0  0  0  0  0  0  0  0  0  0  0  0
    7.7250   -2.7990  -50.0460 C   0  0  0  0  0  0  0  0  0  0  0  0
    7.5930   -4.2630  -50.4710 C   0  0  0  0  0  0  0  0  0  0  0  0
    6.9510   -4.4050  -51.8440 C   0  0  0  0  0  0  0  0  0  0  0  0
    7.7750   -3.7090  -52.9330 C   0  0  0  0  0  0  0  0  0  0  0  0
    6.2473   -0.3152  -52.8520 H   0  0  0  0  0  0  0  0  0  0  0  0
    6.1309    0.6107  -54.3869 H   0  0  0  0  0  0  0  0  0  0  0  0
    5.8627   -1.1654  -54.3869 H   0  0  0  0  0  0  0  0  0  0  0  0
   10.2650    1.2410  -56.6710 H   0  0  0  0  0  0  0  0  0  0  0  0
    7.8266    4.0447  -56.7739 H   0  0  0  0  0  0  0  0  0  0  0  0
    9.5421    4.4896  -56.4298 H   0  0  0  0  0  0  0  0  0  0  0  0
    8.4420    6.1776  -57.9093 H   0  0  0  0  0  0  0  0  0  0  0  0
   10.1661    6.1450  -59.7105 H   0  0  0  0  0  0  0  0  0  0  0  0
   10.8854    5.7127  -58.1183 H   0  0  0  0  0  0  0  0  0  0  0  0
   11.6936    4.1808  -59.9157 H   0  0  0  0  0  0  0  0  0  0  0  0
    9.6904    4.3489  -61.3926 H   0  0  0  0  0  0  0  0  0  0  0  0
   10.0691    2.6329  -61.0018 H   0  0  0  0  0  0  0  0  0  0  0  0
    7.6207    3.0862  -60.8072 H   0  0  0  0  0  0  0  0  0  0  0  0
    7.7906    5.5037  -60.2215 H   0  0  0  0  0  0  0  0  0  0  0  0
    6.8249    4.6084  -58.9921 H   0  0  0  0  0  0  0  0  0  0  0  0
    7.3391    2.2156  -58.4882 H   0  0  0  0  0  0  0  0  0  0  0  0
    8.7179    1.4035  -59.3218 H   0  0  0  0  0  0  0  0  0  0  0  0
   11.0734    2.0465  -58.7906 H   0  0  0  0  0  0  0  0  0  0  0  0
   11.3945    3.3534  -57.5824 H   0  0  0  0  0  0  0  0  0  0  0  0
   11.3298   -2.1730  -52.8674 H   0  0  0  0  0  0  0  0  0  0  0  0
   11.0731   -3.0694  -54.4026 H   0  0  0  0  0  0  0  0  0  0  0  0
   12.0139   -1.5392  -54.4026 H   0  0  0  0  0  0  0  0  0  0  0  0
    9.5074   -2.7715  -52.0812 H   0  0  0  0  0  0  0  0  0  0  0  0
    8.3679   -0.9310  -50.9093 H   0  0  0  0  0  0  0  0  0  0  0  0
    6.7833   -1.5601  -51.5245 H   0  0  0  0  0  0  0  0  0  0  0  0
    8.6382   -2.6932  -49.4419 H   0  0  0  0  0  0  0  0  0  0  0  0
    6.8171   -2.5443  -49.4797 H   0  0  0  0  0  0  0  0  0  0  0  0
    8.5951   -4.7158  -50.4994 H   0  0  0  0  0  0  0  0  0  0  0  0
    6.9462   -4.7708  -49.7404 H   0  0  0  0  0  0  0  0  0  0  0  0
    6.8678   -5.4741  -52.0892 H   0  0  0  0  0  0  0  0  0  0  0  0
    5.9600   -3.9289  -51.8087 H   0  0  0  0  0  0  0  0  0  0  0  0
    8.5194   -4.4222  -53.3166 H   0  0  0  0  0  0  0  0  0  0  0  0
    7.0723   -3.3823  -53.7137 H   0  0  0  0  0  0  0  0  0  0  0  0
  1  2  1  0
  2  3  1  0
  3  4  1  0
  4  5  2  0
  4  6  1  0
  7  6  1  1
  7  8  1  0
  8  9  1  0
  9 10  1  0
 10 11  1  0
 11 12  1  0
 12 13  1  0
 13 14  1  0
 13 15  1  0
 11 16  1  0
  3 17  2  0
 17 18  1  0
 18 19  1  0
 18 20  1  0
 20 21  1  0
 21 22  1  0
 22 23  1  0
 23 24  1  0
 24 25  1  0
 25 26  1  0
 20  2  2  0
 26 21  1  0
 15  7  1  0
 16  7  1  0
 14  9  1  0
  1 27  1  0
  1 28  1  0
  1 29  1  0
  6 30  1  0
  8 31  1  0
  8 32  1  0
  9 33  1  1
 10 34  1  0
 10 35  1  0
 11 36  1  6
 12 37  1  0
 12 38  1  0
 13 39  1  6
 14 40  1  0
 14 41  1  0
 15 42  1  0
 15 43  1  0
 16 44  1  0
 16 45  1  0
 19 46  1  0
 19 47  1  0
 19 48  1  0
 21 49  1  0
 22 50  1  0
 22 51  1  0
 23 52  1  0
 23 53  1  0
 24 54  1  0
 24 55  1  0
 25 56  1  0
 25 57  1  0
 26 58  1  0
 26 59  1  0
M  END
>  <meeko>  (41) 
{"is_sidechain": false}

$$$$

     RDKit          3D

 59 63  0  0  0  0  0  0  0  0999 V2000
   12.1880    3.2530  -57.5990 C   0  0  0  0  0  0  0  0  0  0  0  0
   11.0080    3.0370  -58.5530 C   0  0  2  0  0  0  0  0  0  0  0  0
   10.9700    4.1450  -59.6430 C   0  0  2  0  0  0  0  0  0  0  0  0
   10.5590    5.4990  -59.0350 C   0  0  0  0  0  0  0  0  0  0  0  0
    9.1640    5.3940  -58.3990 C   0  0  1  0  0  0  0  0  0  0  0  0
    8.1460    4.9960  -59.4770 C   0  0  0  0  0  0  0  0  0  0  0  0
    8.5420    3.6460  -60.0900 C   0  0  1  0  0  0  0  0  0  0  0  0
    9.9390    3.7580  -60.7170 C   0  0  0  0  0  0  0  0  0  0  0  0
    8.5720    2.5840  -58.9820 C   0  0  0  0  0  0  0  0  0  0  0  0
    9.6040    2.9420  -57.8660 C   0  0  1  0  0  0  0  0  0  0  0  0
    9.5310    1.8520  -56.8790 N   0  0  0  0  0  0  0  0  0  0  0  0
    8.3990    1.4060  -56.2330 C   0  0  0  0  0  0  0  0  0  0  0  0
    7.2720    1.8310  -56.4500 O   0  0  0  0  0  0  0  0  0  0  0  0
    8.6640    0.4140  -55.2200 C   0  0  0  0  0  0  0  0  0  0  0  0
    7.8500    0.0350  -54.1690 C   0  0  0  0  0  0  0  0  0  0  0  0
    8.5740   -0.9460  -53.4520 C   0  0  0  0  0  0  0  0  0  0  0  0
    8.1770   -1.6760  -52.2020 C   0  0  0  0  0  0  0  0  0  0  0  0
    9.2250   -2.7100  -51.7720 C   0  0  0  0  0  0  0  0  0  0  0  0
    8.8870   -3.3370  -50.4170 C   0  0  0  0  0  0  0  0  0  0  0  0
    7.3860   -3.4160  -50.1370 C   0  0  0  0  0  0  0  0  0  0  0  0
    6.5750   -3.5320  -51.4190 C   0  0  0  0  0  0  0  0  0  0  0  0
    6.7840   -2.3250  -52.3400 C   0  0  0  0  0  0  0  0  0  0  0  0
    9.7560   -1.1910  -54.0300 N   0  0  0  0  0  0  0  0  0  0  0  0
    9.7550   -0.4130  -55.1300 N   0  0  0  0  0  0  0  0  0  0  0  0
   10.8300   -0.5660  -56.0830 C   0  0  0  0  0  0  0  0  0  0  0  0
    9.1840    4.3230  -57.2940 C   0  0  0  0  0  0  0  0  0  0  0  0
   11.8353    3.1884  -56.5591 H   0  0  0  0  0  0  0  0  0  0  0  0
   12.9495    2.4793  -57.7766 H   0  0  0  0  0  0  0  0  0  0  0  0
   12.6261    4.2463  -57.7766 H   0  0  0  0  0  0  0  0  0  0  0  0
   11.1961    2.0502  -59.0011 H   0  0  0  0  0  0  0  0  0  0  0  0
   11.9748    4.2387  -60.0808 H   0  0  0  0  0  0  0  0  0  0  0  0
   11.2888    5.7877  -58.2643 H   0  0  0  0  0  0  0  0  0  0  0  0
   10.5340    6.2572  -59.8316 H   0  0  0  0  0  0  0  0  0  0  0  0
    8.8822    6.3640  -57.9636 H   0  0  0  0  0  0  0  0  0  0  0  0
    7.1472    4.9127  -59.0236 H   0  0  0  0  0  0  0  0  0  0  0  0
    8.1315    5.7634  -60.2650 H   0  0  0  0  0  0  0  0  0  0  0  0
    7.8132    3.3629  -60.8638 H   0  0  0  0  0  0  0  0  0  0  0  0
   10.2187    2.7899  -61.1580 H   0  0  0  0  0  0  0  0  0  0  0  0
    9.9228    4.5334  -61.4970 H   0  0  0  0  0  0  0  0  0  0  0  0
    7.5711    2.5105  -58.5316 H   0  0  0  0  0  0  0  0  0  0  0  0
    8.8729    1.6268  -59.4328 H   0  0  0  0  0  0  0  0  0  0  0  0
   10.3980    1.6550  -56.3960 H   0  0  0  0  0  0  0  0  0  0  0  0
    6.8451    0.4179  -53.9377 H   0  0  0  0  0  0  0  0  0  0  0  0
    8.1211   -0.9202  -51.4047 H   0  0  0  0  0  0  0  0  0  0  0  0
    9.2713   -3.5056  -52.5302 H   0  0  0  0  0  0  0  0  0  0  0  0
   10.1924   -2.1952  -51.6772 H   0  0  0  0  0  0  0  0  0  0  0  0
    9.2995   -4.3565  -50.3929 H   0  0  0  0  0  0  0  0  0  0  0  0
    9.3260   -2.6899  -49.6434 H   0  0  0  0  0  0  0  0  0  0  0  0
    7.1872   -4.2973  -49.5095 H   0  0  0  0  0  0  0  0  0  0  0  0
    7.0853   -2.4894  -49.6261 H   0  0  0  0  0  0  0  0  0  0  0  0
    6.8821   -4.4436  -51.9526 H   0  0  0  0  0  0  0  0  0  0  0  0
    5.5102   -3.5714  -51.1458 H   0  0  0  0  0  0  0  0  0  0  0  0
    6.6562   -2.6559  -53.3812 H   0  0  0  0  0  0  0  0  0  0  0  0
    6.0440   -1.5651  -52.0485 H   0  0  0  0  0  0  0  0  0  0  0  0
   11.7801   -0.7012  -55.5454 H   0  0  0  0  0  0  0  0  0  0  0  0
   10.6376   -1.4458  -56.7146 H   0  0  0  0  0  0  0  0  0  0  0  0
   10.8907    0.3326  -56.7146 H   0  0  0  0  0  0  0  0  0  0  0  0
    8.1788    4.2400  -56.8551 H   0  0  0  0  0  0  0  0  0  0  0  0
    9.9149    4.6225  -56.5285 H   0  0  0  0  0  0  0  0  0  0  0  0
  1  2  1  0
  2  3  1  0
  3  4  1  0
  4  5  1  0
  5  6  1  0
  6  7  1  0
  7  8  1  0
  7  9  1  0
  9 10  1  0
 10 11  1  1
 11 12  1  0
 12 13  2  0
 12 14  1  0
 14 15  2  0
 15 16  1  0
 16 17  1  0
 17 18  1  0
 18 19  1  0
 19 20  1  0
 20 21  1  0
 21 22  1  0
 16 23  2  0
 23 24  1  0
 24 25  1  0
 10 26  1  0
 10  2  1  0
 24 14  1  0
  8  3  1  0
 22 17  1  0
 26  5  1  0
  1 27  1  0
  1 28  1  0
  1 29  1  0
  2 30  1  6
  3 31  1  6
  4 32  1  0
  4 33  1  0
  5 34  1  1
  6 35  1  0
  6 36  1  0
  7 37  1  6
  8 38  1  0
  8 39  1  0
  9 40  1  0
  9 41  1  0
 11 42  1  0
 15 43  1  0
 17 44  1  0
 18 45  1  0
 18 46  1  0
 19 47  1  0
 19 48  1  0
 20 49  1  0
 20 50  1  0
 21 51  1  0
 21 52  1  0
 22 53  1  0
 22 54  1  0
 25 55  1  0
 25 56  1  0
 25 57  1  0
 26 58  1  0
 26 59  1  0
M  END
>  <meeko>  (42) 
{"is_sidechain": false}

$$$$

     RDKit          3D

 53 57  0  0  0  0  0  0  0  0999 V2000
    5.9570   -0.3450  -53.9290 C   0  0  0  0  0  0  0  0  0  0  0  0
    7.4210   -0.5570  -54.0730 C   0  0  0  0  0  0  0  0  0  0  0  0
    8.3020    0.1430  -54.9520 C   0  0  0  0  0  0  0  0  0  0  0  0
    7.9630    1.2170  -55.9090 C   0  0  0  0  0  0  0  0  0  0  0  0
    6.8120    1.5810  -56.1260 O   0  0  0  0  0  0  0  0  0  0  0  0
    9.0780    1.7510  -56.5180 N   0  0  0  0  0  0  0  0  0  0  0  0
    9.0930    2.8180  -57.5140 C   0  0  2  0  0  0  0  0  0  0  0  0
    8.0680    2.5570  -58.6440 C   0  0  0  0  0  0  0  0  0  0  0  0
    8.1360    3.6710  -59.7040 C   0  0  1  0  0  0  0  0  0  0  0  0
    7.8370    5.0240  -59.0380 C   0  0  0  0  0  0  0  0  0  0  0  0
    8.8700    5.3110  -57.9340 C   0  0  2  0  0  0  0  0  0  0  0  0
   10.2770    5.3370  -58.5530 C   0  0  0  0  0  0  0  0  0  0  0  0
   10.5850    3.9850  -59.2140 C   0  0  2  0  0  0  0  0  0  0  0  0
    9.5470    3.7070  -60.3120 C   0  0  0  0  0  0  0  0  0  0  0  0
   10.5060    2.8760  -58.1530 C   0  0  0  0  0  0  0  0  0  0  0  0
    8.8010    4.1980  -56.8740 C   0  0  0  0  0  0  0  0  0  0  0  0
    9.5720   -0.2940  -54.8210 N   0  0  0  0  0  0  0  0  0  0  0  0
    9.4930   -1.2620  -53.8890 N   0  0  0  0  0  0  0  0  0  0  0  0
   10.6930   -1.9800  -53.5230 C   0  0  0  0  0  0  0  0  0  0  0  0
    8.2280   -1.4580  -53.3930 C   0  0  0  0  0  0  0  0  0  0  0  0
    7.8950   -2.4430  -52.3710 C   0  0  0  0  0  0  0  0  0  0  0  0
    7.4280   -3.7090  -52.7430 C   0  0  0  0  0  0  0  0  0  0  0  0
    7.1130   -4.6570  -51.7690 C   0  0  0  0  0  0  0  0  0  0  0  0
    7.2610   -4.3440  -50.4170 C   0  0  0  0  0  0  0  0  0  0  0  0
    7.7200   -3.0830  -50.0400 C   0  0  0  0  0  0  0  0  0  0  0  0
    8.0340   -2.1330  -51.0140 C   0  0  0  0  0  0  0  0  0  0  0  0
    5.6953   -0.3071  -52.8613 H   0  0  0  0  0  0  0  0  0  0  0  0
    5.6748    0.6034  -54.4096 H   0  0  0  0  0  0  0  0  0  0  0  0
    5.4174   -1.1744  -54.4096 H   0  0  0  0  0  0  0  0  0  0  0  0
    9.9500    1.3200  -56.2180 H   0  0  0  0  0  0  0  0  0  0  0  0
    8.2924    1.5909  -59.1198 H   0  0  0  0  0  0  0  0  0  0  0  0
    7.0574    2.5413  -58.2099 H   0  0  0  0  0  0  0  0  0  0  0  0
    7.3965    3.4754  -60.4945 H   0  0  0  0  0  0  0  0  0  0  0  0
    7.8836    5.8203  -59.7954 H   0  0  0  0  0  0  0  0  0  0  0  0
    6.8326    4.9904  -58.5907 H   0  0  0  0  0  0  0  0  0  0  0  0
    8.6534    6.2822  -57.4652 H   0  0  0  0  0  0  0  0  0  0  0  0
   10.3270    6.1328  -59.3108 H   0  0  0  0  0  0  0  0  0  0  0  0
   11.0163    5.5288  -57.7614 H   0  0  0  0  0  0  0  0  0  0  0  0
   11.5924    4.0094  -59.6550 H   0  0  0  0  0  0  0  0  0  0  0  0
    9.5968    4.5024  -61.0702 H   0  0  0  0  0  0  0  0  0  0  0  0
    9.7648    2.7342  -60.7771 H   0  0  0  0  0  0  0  0  0  0  0  0
   10.7265    1.9082  -58.6270 H   0  0  0  0  0  0  0  0  0  0  0  0
   11.2395    3.0938  -57.3628 H   0  0  0  0  0  0  0  0  0  0  0  0
    9.5465    4.3982  -56.0903 H   0  0  0  0  0  0  0  0  0  0  0  0
    7.7897    4.1819  -56.4415 H   0  0  0  0  0  0  0  0  0  0  0  0
   10.7721   -2.0273  -52.4269 H   0  0  0  0  0  0  0  0  0  0  0  0
   10.6489   -3.0003  -53.9318 H   0  0  0  0  0  0  0  0  0  0  0  0
   11.5712   -1.4588  -53.9318 H   0  0  0  0  0  0  0  0  0  0  0  0
    7.3088   -3.9576  -53.8079 H   0  0  0  0  0  0  0  0  0  0  0  0
    6.7480   -5.6511  -52.0667 H   0  0  0  0  0  0  0  0  0  0  0  0
    7.0155   -5.0923  -49.6490 H   0  0  0  0  0  0  0  0  0  0  0  0
    7.8350   -2.8360  -48.9743 H   0  0  0  0  0  0  0  0  0  0  0  0
    8.3919   -1.1373  -50.7132 H   0  0  0  0  0  0  0  0  0  0  0  0
  1  2  1  0
  2  3  1  0
  3  4  1  0
  4  5  2  0
  4  6  1  0
  7  6  1  1
  7  8  1  0
  8  9  1  0
  9 10  1  0
 10 11  1  0
 11 12  1  0
 12 13  1  0
 13 14  1  0
 13 15  1  0
 11 16  1  0
  3 17  2  0
 17 18  1  0
 18 19  1  0
 18 20  1  0
 20 21  1  0
 21 22  2  0
 22 23  1  0
 23 24  2  0
 24 25  1  0
 25 26  2  0
 20  2  2  0
 26 21  1  0
 15  7  1  0
 16  7  1  0
 14  9  1  0
  1 27  1  0
  1 28  1  0
  1 29  1  0
  6 30  1  0
  8 31  1  0
  8 32  1  0
  9 33  1  6
 10 34  1  0
 10 35  1  0
 11 36  1  1
 12 37  1  0
 12 38  1  0
 13 39  1  6
 14 40  1  0
 14 41  1  0
 15 42  1  0
 15 43  1  0
 16 44  1  0
 16 45  1  0
 19 46  1  0
 19 47  1  0
 19 48  1  0
 22 49  1  0
 23 50  1  0
 24 51  1  0
 25 52  1  0
 26 53  1  0
M  END
>  <meeko>  (43) 
{"is_sidechain": false}

$$$$

     RDKit          3D

 59 63  0  0  0  0  0  0  0  0999 V2000
    9.7630   -0.6870  -55.0870 C   0  0  0  0  0  0  0  0  0  0  0  0
    8.4030   -0.4920  -54.5230 C   0  0  0  0  0  0  0  0  0  0  0  0
    7.3650    0.3690  -55.0170 C   0  0  0  0  0  0  0  0  0  0  0  0
    7.3760    1.2170  -56.2270 C   0  0  0  0  0  0  0  0  0  0  0  0
    6.6060    1.0520  -57.1680 O   0  0  0  0  0  0  0  0  0  0  0  0
    8.3640    2.1900  -56.2100 N   0  0  0  0  0  0  0  0  0  0  0  0
    8.6720    3.0880  -57.3280 C   0  0  1  0  0  0  0  0  0  0  0  0
    8.9410    4.5060  -56.7470 C   0  0  0  0  0  0  0  0  0  0  0  0
    9.2450    5.5170  -57.8660 C   0  0  2  0  0  0  0  0  0  0  0  0
    8.0350    5.6010  -58.8070 C   0  0  0  0  0  0  0  0  0  0  0  0
    7.7550    4.2200  -59.4190 C   0  0  1  0  0  0  0  0  0  0  0  0
    8.9920    3.7510  -60.2030 C   0  0  0  0  0  0  0  0  0  0  0  0
   10.2120    3.6580  -59.2650 C   0  0  1  0  0  0  0  0  0  0  0  0
   10.4730    5.0500  -58.6610 C   0  0  0  0  0  0  0  0  0  0  0  0
    9.9120    2.6170  -58.1550 C   0  0  1  0  0  0  0  0  0  0  0  0
   11.1560    2.3240  -57.3030 C   0  0  0  0  0  0  0  0  0  0  0  0
    7.4580    3.2170  -58.2910 C   0  0  0  0  0  0  0  0  0  0  0  0
    6.2880    0.3200  -54.2160 N   0  0  0  0  0  0  0  0  0  0  0  0
    6.6220   -0.5360  -53.2470 N   0  0  0  0  0  0  0  0  0  0  0  0
    7.8680   -1.0800  -53.3880 C   0  0  0  0  0  0  0  0  0  0  0  0
    8.4340   -2.0770  -52.4160 C   0  0  0  0  0  0  0  0  0  0  0  0
    7.8420   -1.8650  -51.0100 C   0  0  0  0  0  0  0  0  0  0  0  0
    8.0490   -3.0940  -50.1340 C   0  0  0  0  0  0  0  0  0  0  0  0
    7.3460   -4.3270  -50.7030 C   0  0  0  0  0  0  0  0  0  0  0  0
    7.1650   -4.2850  -52.2210 C   0  0  0  0  0  0  0  0  0  0  0  0
    8.2960   -3.5320  -52.9140 C   0  0  0  0  0  0  0  0  0  0  0  0
   10.4886   -0.7910  -54.2668 H   0  0  0  0  0  0  0  0  0  0  0  0
    9.7764   -1.5962  -55.7059 H   0  0  0  0  0  0  0  0  0  0  0  0
   10.0313    0.1819  -55.7059 H   0  0  0  0  0  0  0  0  0  0  0  0
    9.0880    2.0520  -55.5170 H   0  0  0  0  0  0  0  0  0  0  0  0
    8.0521    4.8411  -56.1924 H   0  0  0  0  0  0  0  0  0  0  0  0
    9.8150    4.4498  -56.0814 H   0  0  0  0  0  0  0  0  0  0  0  0
    9.4478    6.5048  -57.4266 H   0  0  0  0  0  0  0  0  0  0  0  0
    7.1536    5.9345  -58.2396 H   0  0  0  0  0  0  0  0  0  0  0  0
    8.2504    6.3184  -59.6126 H   0  0  0  0  0  0  0  0  0  0  0  0
    6.8905    4.2832  -60.0963 H   0  0  0  0  0  0  0  0  0  0  0  0
    8.7923    2.7610  -60.6389 H   0  0  0  0  0  0  0  0  0  0  0  0
    9.2073    4.4760  -61.0017 H   0  0  0  0  0  0  0  0  0  0  0  0
   11.1087    3.3354  -59.8144 H   0  0  0  0  0  0  0  0  0  0  0  0
   11.3431    4.9985  -57.9900 H   0  0  0  0  0  0  0  0  0  0  0  0
   10.6699    5.7647  -59.4736 H   0  0  0  0  0  0  0  0  0  0  0  0
    9.6522    1.6500  -58.6104 H   0  0  0  0  0  0  0  0  0  0  0  0
   10.8930    2.3859  -56.2367 H   0  0  0  0  0  0  0  0  0  0  0  0
   11.5270    1.3139  -57.5311 H   0  0  0  0  0  0  0  0  0  0  0  0
   11.9388    3.0623  -57.5311 H   0  0  0  0  0  0  0  0  0  0  0  0
    6.5826    3.5637  -57.7222 H   0  0  0  0  0  0  0  0  0  0  0  0
    7.2598    2.2325  -58.7398 H   0  0  0  0  0  0  0  0  0  0  0  0
    5.9420   -0.7080  -52.5140 H   0  0  0  0  0  0  0  0  0  0  0  0
    9.5168   -1.8970  -52.3442 H   0  0  0  0  0  0  0  0  0  0  0  0
    8.3353   -1.0018  -50.5394 H   0  0  0  0  0  0  0  0  0  0  0  0
    6.7612   -1.6869  -51.1104 H   0  0  0  0  0  0  0  0  0  0  0  0
    9.1269   -3.3013  -50.0617 H   0  0  0  0  0  0  0  0  0  0  0  0
    7.6176   -2.8829  -49.1444 H   0  0  0  0  0  0  0  0  0  0  0  0
    7.9428   -5.2154  -50.4488 H   0  0  0  0  0  0  0  0  0  0  0  0
    6.3397   -4.3568  -50.2597 H   0  0  0  0  0  0  0  0  0  0  0  0
    7.1389   -5.3160  -52.6036 H   0  0  0  0  0  0  0  0  0  0  0  0
    6.2249   -3.7554  -52.4351 H   0  0  0  0  0  0  0  0  0  0  0  0
    9.2410   -4.0612  -52.7218 H   0  0  0  0  0  0  0  0  0  0  0  0
    8.0623   -3.4954  -53.9883 H   0  0  0  0  0  0  0  0  0  0  0  0
  1  2  1  0
  2  3  1  0
  3  4  1  0
  4  5  2  0
  4  6  1  0
  7  6  1  1
  7  8  1  0
  8  9  1  0
  9 10  1  0
 10 11  1  0
 11 12  1  0
 12 13  1  0
 13 14  1  0
 13 15  1  0
 15 16  1  0
 11 17  1  0
  3 18  2  0
 18 19  1  0
 19 20  1  0
 20 21  1  0
 21 22  1  0
 22 23  1  0
 23 24  1  0
 24 25  1  0
 25 26  1  0
 20  2  2  0
 26 21  1  0
 15  7  1  0
 17  7  1  0
 14  9  1  0
  1 27  1  0
  1 28  1  0
  1 29  1  0
  6 30  1  0
  8 31  1  0
  8 32  1  0
  9 33  1  1
 10 34  1  0
 10 35  1  0
 11 36  1  6
 12 37  1  0
 12 38  1  0
 13 39  1  6
 14 40  1  0
 14 41  1  0
 15 42  1  6
 16 43  1  0
 16 44  1  0
 16 45  1  0
 17 46  1  0
 17 47  1  0
 19 48  1  0
 21 49  1  0
 22 50  1  0
 22 51  1  0
 23 52  1  0
 23 53  1  0
 24 54  1  0
 24 55  1  0
 25 56  1  0
 25 57  1  0
 26 58  1  0
 26 59  1  0
M  END
>  <meeko>  (44) 
{"is_sidechain": false}

$$$$

     RDKit          3D

 59 63  0  0  0  0  0  0  0  0999 V2000
    6.5120   -0.1720  -53.6920 C   0  0  0  0  0  0  0  0  0  0  0  0
    7.9030   -0.4960  -54.1030 C   0  0  0  0  0  0  0  0  0  0  0  0
    8.7820   -1.4920  -53.5760 C   0  0  0  0  0  0  0  0  0  0  0  0
    8.5630   -2.4900  -52.4680 C   0  0  0  0  0  0  0  0  0  0  0  0
    7.8250   -3.7530  -52.9560 C   0  0  0  0  0  0  0  0  0  0  0  0
    7.0110   -4.4450  -51.8590 C   0  0  0  0  0  0  0  0  0  0  0  0
    7.6790   -4.3170  -50.4970 C   0  0  0  0  0  0  0  0  0  0  0  0
    7.8290   -2.8580  -50.0650 C   0  0  0  0  0  0  0  0  0  0  0  0
    7.8870   -1.8720  -51.2360 C   0  0  0  0  0  0  0  0  0  0  0  0
    9.9650   -1.4790  -54.2050 N   0  0  0  0  0  0  0  0  0  0  0  0
    9.8610   -0.4730  -55.0790 N   0  0  0  0  0  0  0  0  0  0  0  0
    8.6360    0.1290  -55.1040 C   0  0  0  0  0  0  0  0  0  0  0  0
    8.2780    1.2280  -55.9690 C   0  0  0  0  0  0  0  0  0  0  0  0
    7.1270    1.6290  -56.0890 O   0  0  0  0  0  0  0  0  0  0  0  0
    9.3470    1.7580  -56.6680 N   0  0  0  0  0  0  0  0  0  0  0  0
    9.2380    2.8280  -57.6720 C   0  0  1  0  0  0  0  0  0  0  0  0
    8.9520    4.2140  -57.0340 C   0  0  0  0  0  0  0  0  0  0  0  0
    8.8620    5.3060  -58.1160 C   0  0  2  0  0  0  0  0  0  0  0  0
    7.7260    4.9540  -59.0920 C   0  0  0  0  0  0  0  0  0  0  0  0
    8.0100    3.6010  -59.7640 C   0  0  1  0  0  0  0  0  0  0  0  0
    9.3420    3.6820  -60.5240 C   0  0  0  0  0  0  0  0  0  0  0  0
   10.4860    4.0220  -59.5510 C   0  0  1  0  0  0  0  0  0  0  0  0
   10.1840    5.3810  -58.8930 C   0  0  0  0  0  0  0  0  0  0  0  0
   10.5830    2.9050  -58.4820 C   0  0  1  0  0  0  0  0  0  0  0  0
   11.8340    3.0720  -57.6070 C   0  0  0  0  0  0  0  0  0  0  0  0
    8.1030    2.5100  -58.6850 C   0  0  0  0  0  0  0  0  0  0  0  0
    6.4481   -0.1571  -52.5940 H   0  0  0  0  0  0  0  0  0  0  0  0
    6.2329    0.8152  -54.0889 H   0  0  0  0  0  0  0  0  0  0  0  0
    5.8254   -0.9343  -54.0889 H   0  0  0  0  0  0  0  0  0  0  0  0
    9.5653   -2.8083  -52.1453 H   0  0  0  0  0  0  0  0  0  0  0  0
    7.1413   -3.4651  -53.7682 H   0  0  0  0  0  0  0  0  0  0  0  0
    8.5915   -4.4675  -53.2906 H   0  0  0  0  0  0  0  0  0  0  0  0
    6.0131   -3.9846  -51.8114 H   0  0  0  0  0  0  0  0  0  0  0  0
    6.9402   -5.5143  -52.1072 H   0  0  0  0  0  0  0  0  0  0  0  0
    7.0682   -4.8468  -49.7512 H   0  0  0  0  0  0  0  0  0  0  0  0
    8.6859   -4.7536  -50.5711 H   0  0  0  0  0  0  0  0  0  0  0  0
    6.9702   -2.5936  -49.4306 H   0  0  0  0  0  0  0  0  0  0  0  0
    8.7866   -2.7780  -49.5296 H   0  0  0  0  0  0  0  0  0  0  0  0
    6.8619   -1.5758  -51.5033 H   0  0  0  0  0  0  0  0  0  0  0  0
    8.4805   -1.0011  -50.9209 H   0  0  0  0  0  0  0  0  0  0  0  0
   10.6770   -0.2320  -55.6270 H   0  0  0  0  0  0  0  0  0  0  0  0
   10.1270    1.1280  -56.7940 H   0  0  0  0  0  0  0  0  0  0  0  0
    7.9989    4.1693  -56.4866 H   0  0  0  0  0  0  0  0  0  0  0  0
    9.7757    4.4635  -56.3489 H   0  0  0  0  0  0  0  0  0  0  0  0
    8.6642    6.2767  -57.6379 H   0  0  0  0  0  0  0  0  0  0  0  0
    6.7767    4.8941  -58.5395 H   0  0  0  0  0  0  0  0  0  0  0  0
    7.6596    5.7339  -59.8649 H   0  0  0  0  0  0  0  0  0  0  0  0
    7.1995    3.3575  -60.4667 H   0  0  0  0  0  0  0  0  0  0  0  0
    9.5473    2.7132  -61.0028 H   0  0  0  0  0  0  0  0  0  0  0  0
    9.2732    4.4699  -61.2885 H   0  0  0  0  0  0  0  0  0  0  0  0
   11.4466    4.0870  -60.0831 H   0  0  0  0  0  0  0  0  0  0  0  0
   10.9990    5.6398  -58.2011 H   0  0  0  0  0  0  0  0  0  0  0  0
   10.1001    6.1501  -59.6750 H   0  0  0  0  0  0  0  0  0  0  0  0
   10.7124    1.9303  -58.9751 H   0  0  0  0  0  0  0  0  0  0  0  0
   11.5470    3.0337  -56.5458 H   0  0  0  0  0  0  0  0  0  0  0  0
   12.5444    2.2607  -57.8242 H   0  0  0  0  0  0  0  0  0  0  0  0
   12.3067    4.0412  -57.8242 H   0  0  0  0  0  0  0  0  0  0  0  0
    7.1453    2.4530  -58.1468 H   0  0  0  0  0  0  0  0  0  0  0  0
    8.3265    1.5502  -59.1737 H   0  0  0  0  0  0  0  0  0  0  0  0
  1  2  1  0
  2  3  1  0
  3  4  1  0
  4  5  1  0
  5  6  1  0
  6  7  1  0
  7  8  1  0
  8  9  1  0
  3 10  2  0
 10 11  1  0
 11 12  1  0
 12 13  1  0
 13 14  2  0
 13 15  1  0
 16 15  1  1
 16 17  1  0
 17 18  1  0
 18 19  1  0
 19 20  1  0
 20 21  1  0
 21 22  1  0
 22 23  1  0
 22 24  1  0
 24 25  1  0
 20 26  1  0
 12  2  2  0
 24 16  1  0
  9  4  1  0
 26 16  1  0
 23 18  1  0
  1 27  1  0
  1 28  1  0
  1 29  1  0
  4 30  1  0
  5 31  1  0
  5 32  1  0
  6 33  1  0
  6 34  1  0
  7 35  1  0
  7 36  1  0
  8 37  1  0
  8 38  1  0
  9 39  1  0
  9 40  1  0
 11 41  1  0
 15 42  1  0
 17 43  1  0
 17 44  1  0
 18 45  1  1
 19 46  1  0
 19 47  1  0
 20 48  1  6
 21 49  1  0
 21 50  1  0
 22 51  1  6
 23 52  1  0
 23 53  1  0
 24 54  1  6
 25 55  1  0
 25 56  1  0
 25 57  1  0
 26 58  1  0
 26 59  1  0
M  END
>  <meeko>  (45) 
{"is_sidechain": false}

$$$$

     RDKit          3D

 59 63  0  0  0  0  0  0  0  0999 V2000
   11.9730    3.1860  -57.5980 C   0  0  0  0  0  0  0  0  0  0  0  0
   10.7730    3.0090  -58.5390 C   0  0  2  0  0  0  0  0  0  0  0  0
   10.6290    4.2090  -59.5140 C   0  0  2  0  0  0  0  0  0  0  0  0
   10.2070    5.4830  -58.7600 C   0  0  0  0  0  0  0  0  0  0  0  0
    8.8640    5.2550  -58.0510 C   0  0  1  0  0  0  0  0  0  0  0  0
    7.7910    4.9170  -59.0970 C   0  0  0  0  0  0  0  0  0  0  0  0
    8.1920    3.6450  -59.8600 C   0  0  1  0  0  0  0  0  0  0  0  0
    9.5440    3.8740  -60.5560 C   0  0  0  0  0  0  0  0  0  0  0  0
    8.3230    2.4780  -58.8660 C   0  0  0  0  0  0  0  0  0  0  0  0
    9.4140    2.7780  -57.8000 C   0  0  1  0  0  0  0  0  0  0  0  0
    9.4870    1.6970  -56.8210 N   0  0  0  0  0  0  0  0  0  0  0  0
    8.4440    1.2080  -56.0630 C   0  0  0  0  0  0  0  0  0  0  0  0
    7.2950    1.6360  -56.0980 O   0  0  0  0  0  0  0  0  0  0  0  0
    8.8520    0.0930  -55.1930 C   0  0  0  0  0  0  0  0  0  0  0  0
    8.1180   -0.4650  -54.1210 C   0  0  0  0  0  0  0  0  0  0  0  0
    8.8980   -1.4850  -53.6090 C   0  0  0  0  0  0  0  0  0  0  0  0
    8.5820   -2.4080  -52.4640 C   0  0  0  0  0  0  0  0  0  0  0  0
    7.9490   -3.7300  -52.9330 C   0  0  0  0  0  0  0  0  0  0  0  0
    7.0300   -4.3630  -51.8860 C   0  0  0  0  0  0  0  0  0  0  0  0
    7.5510   -4.1390  -50.4730 C   0  0  0  0  0  0  0  0  0  0  0  0
    7.6480   -2.6520  -50.1210 C   0  0  0  0  0  0  0  0  0  0  0  0
    7.7810   -1.7380  -51.3420 C   0  0  0  0  0  0  0  0  0  0  0  0
   10.0380   -1.4800  -54.3770 N   0  0  0  0  0  0  0  0  0  0  0  0
   11.1950   -2.3420  -54.2920 C   0  0  0  0  0  0  0  0  0  0  0  0
   10.0290   -0.5430  -55.3480 N   0  0  0  0  0  0  0  0  0  0  0  0
    8.9930    4.0820  -57.0660 C   0  0  0  0  0  0  0  0  0  0  0  0
   11.6307    3.1355  -56.5538 H   0  0  0  0  0  0  0  0  0  0  0  0
   12.7051    2.3861  -57.7830 H   0  0  0  0  0  0  0  0  0  0  0  0
   12.4430    4.1632  -57.7830 H   0  0  0  0  0  0  0  0  0  0  0  0
   10.9957    2.0927  -59.1053 H   0  0  0  0  0  0  0  0  0  0  0  0
   11.6004    4.3873  -59.9984 H   0  0  0  0  0  0  0  0  0  0  0  0
   10.9745    5.7352  -58.0135 H   0  0  0  0  0  0  0  0  0  0  0  0
   10.0994    6.3084  -59.4791 H   0  0  0  0  0  0  0  0  0  0  0  0
    8.5803    6.1659  -57.5034 H   0  0  0  0  0  0  0  0  0  0  0  0
    6.8278    4.7519  -58.5921 H   0  0  0  0  0  0  0  0  0  0  0  0
    7.6986    5.7527  -59.8063 H   0  0  0  0  0  0  0  0  0  0  0  0
    7.4254    3.4071  -60.6121 H   0  0  0  0  0  0  0  0  0  0  0  0
    9.8317    2.9622  -61.0999 H   0  0  0  0  0  0  0  0  0  0  0  0
    9.4484    4.7155  -61.2579 H   0  0  0  0  0  0  0  0  0  0  0  0
    7.3580    2.3251  -58.3607 H   0  0  0  0  0  0  0  0  0  0  0  0
    8.6130    1.5738  -59.4213 H   0  0  0  0  0  0  0  0  0  0  0  0
   10.3640    1.2020  -56.6720 H   0  0  0  0  0  0  0  0  0  0  0  0
    7.1256   -0.1506  -53.7658 H   0  0  0  0  0  0  0  0  0  0  0  0
    9.5532   -2.6652  -52.0160 H   0  0  0  0  0  0  0  0  0  0  0  0
    7.3606   -3.5330  -53.8413 H   0  0  0  0  0  0  0  0  0  0  0  0
    8.7702   -4.4381  -53.1181 H   0  0  0  0  0  0  0  0  0  0  0  0
    6.0290   -3.9152  -51.9724 H   0  0  0  0  0  0  0  0  0  0  0  0
    6.9933   -5.4467  -52.0710 H   0  0  0  0  0  0  0  0  0  0  0  0
    6.8683   -4.6275  -49.7622 H   0  0  0  0  0  0  0  0  0  0  0  0
    8.5629   -4.5664  -50.4146 H   0  0  0  0  0  0  0  0  0  0  0  0
    6.7400   -2.3656  -49.5700 H   0  0  0  0  0  0  0  0  0  0  0  0
    8.5611   -2.5224  -49.5214 H   0  0  0  0  0  0  0  0  0  0  0  0
    6.7759   -1.4949  -51.7171 H   0  0  0  0  0  0  0  0  0  0  0  0
    8.3161   -0.8277  -51.0336 H   0  0  0  0  0  0  0  0  0  0  0  0
   11.4396   -2.5242  -53.2351 H   0  0  0  0  0  0  0  0  0  0  0  0
   10.9764   -3.2991  -54.7881 H   0  0  0  0  0  0  0  0  0  0  0  0
   12.0496   -1.8587  -54.7881 H   0  0  0  0  0  0  0  0  0  0  0  0
    8.0236    3.9193  -56.5723 H   0  0  0  0  0  0  0  0  0  0  0  0
    9.7672    4.3314  -56.3255 H   0  0  0  0  0  0  0  0  0  0  0  0
  1  2  1  0
  2  3  1  0
  3  4  1  0
  4  5  1  0
  5  6  1  0
  6  7  1  0
  7  8  1  0
  7  9  1  0
  9 10  1  0
 10 11  1  1
 11 12  1  0
 12 13  2  0
 12 14  1  0
 14 15  1  0
 15 16  2  0
 16 17  1  0
 17 18  1  0
 18 19  1  0
 19 20  1  0
 20 21  1  0
 21 22  1  0
 16 23  1  0
 23 24  1  0
 23 25  1  0
 10 26  1  0
 10  2  1  0
 25 14  2  0
  8  3  1  0
 22 17  1  0
 26  5  1  0
  1 27  1  0
  1 28  1  0
  1 29  1  0
  2 30  1  6
  3 31  1  6
  4 32  1  0
  4 33  1  0
  5 34  1  1
  6 35  1  0
  6 36  1  0
  7 37  1  6
  8 38  1  0
  8 39  1  0
  9 40  1  0
  9 41  1  0
 11 42  1  0
 15 43  1  0
 17 44  1  0
 18 45  1  0
 18 46  1  0
 19 47  1  0
 19 48  1  0
 20 49  1  0
 20 50  1  0
 21 51  1  0
 21 52  1  0
 22 53  1  0
 22 54  1  0
 24 55  1  0
 24 56  1  0
 24 57  1  0
 26 58  1  0
 26 59  1  0
M  END
>  <meeko>  (46) 
{"is_sidechain": false}

$$$$

     RDKit          3D

 59 63  0  0  0  0  0  0  0  0999 V2000
    6.3920   -0.7960  -53.2780 C   0  0  0  0  0  0  0  0  0  0  0  0
    7.8110   -1.0410  -53.6490 C   0  0  0  0  0  0  0  0  0  0  0  0
    8.5420   -0.3310  -54.6470 C   0  0  0  0  0  0  0  0  0  0  0  0
    8.0740    0.7740  -55.5090 C   0  0  0  0  0  0  0  0  0  0  0  0
    6.8950    1.0960  -55.6050 O   0  0  0  0  0  0  0  0  0  0  0  0
    9.1080    1.3790  -56.1940 N   0  0  0  0  0  0  0  0  0  0  0  0
    8.9850    2.4000  -57.2320 C   0  0  1  0  0  0  0  0  0  0  0  0
    8.7080    3.8090  -56.6430 C   0  0  0  0  0  0  0  0  0  0  0  0
    8.5850    4.8560  -57.7640 C   0  0  2  0  0  0  0  0  0  0  0  0
    7.4230    4.4640  -58.6920 C   0  0  0  0  0  0  0  0  0  0  0  0
    7.6920    3.0860  -59.3170 C   0  0  1  0  0  0  0  0  0  0  0  0
    9.0020    3.1370  -60.1170 C   0  0  0  0  0  0  0  0  0  0  0  0
   10.1710    3.5190  -59.1910 C   0  0  1  0  0  0  0  0  0  0  0  0
    9.8840    4.9020  -58.5810 C   0  0  0  0  0  0  0  0  0  0  0  0
   10.3030    2.4450  -58.0810 C   0  0  1  0  0  0  0  0  0  0  0  0
   11.5810    2.6560  -57.2520 C   0  0  0  0  0  0  0  0  0  0  0  0
    7.8210    2.0410  -58.1960 C   0  0  0  0  0  0  0  0  0  0  0  0
    9.8010   -0.7980  -54.7440 N   0  0  0  0  0  0  0  0  0  0  0  0
    9.8710   -1.7850  -53.8310 N   0  0  0  0  0  0  0  0  0  0  0  0
   11.1370   -2.4710  -53.7120 C   0  0  0  0  0  0  0  0  0  0  0  0
    8.7050   -1.9690  -53.1240 C   0  0  0  0  0  0  0  0  0  0  0  0
    8.4880   -2.9740  -52.0290 C   0  0  0  0  0  0  0  0  0  0  0  0
    8.1320   -2.3690  -50.6620 C   0  0  0  0  0  0  0  0  0  0  0  0
    6.9710   -3.2050  -50.1240 C   0  0  0  0  0  0  0  0  0  0  0  0
    7.0050   -4.4950  -50.9290 C   0  0  0  0  0  0  0  0  0  0  0  0
    7.4200   -4.0320  -52.3180 C   0  0  0  0  0  0  0  0  0  0  0  0
    6.2971   -0.7796  -52.1822 H   0  0  0  0  0  0  0  0  0  0  0  0
    6.0674    0.1715  -53.6887 H   0  0  0  0  0  0  0  0  0  0  0  0
    5.7618   -1.5986  -53.6887 H   0  0  0  0  0  0  0  0  0  0  0  0
    9.9940    0.8950  -56.0660 H   0  0  0  0  0  0  0  0  0  0  0  0
    7.7693    3.7821  -56.0702 H   0  0  0  0  0  0  0  0  0  0  0  0
    9.5476    4.0891  -55.9898 H   0  0  0  0  0  0  0  0  0  0  0  0
    8.3988    5.8448  -57.3194 H   0  0  0  0  0  0  0  0  0  0  0  0
    6.4899    4.4246  -58.1108 H   0  0  0  0  0  0  0  0  0  0  0  0
    7.3320    5.2125  -59.4930 H   0  0  0  0  0  0  0  0  0  0  0  0
    6.8626    2.8134  -59.9862 H   0  0  0  0  0  0  0  0  0  0  0  0
    9.1965    2.1493  -60.5604 H   0  0  0  0  0  0  0  0  0  0  0  0
    8.9100    3.8918  -60.9119 H   0  0  0  0  0  0  0  0  0  0  0  0
   11.1160    3.5652  -59.7521 H   0  0  0  0  0  0  0  0  0  0  0  0
   10.7177    5.1904  -57.9239 H   0  0  0  0  0  0  0  0  0  0  0  0
    9.7754    5.6384  -59.3908 H   0  0  0  0  0  0  0  0  0  0  0  0
   10.4204    1.4493  -58.5337 H   0  0  0  0  0  0  0  0  0  0  0  0
   11.3341    2.6152  -56.1808 H   0  0  0  0  0  0  0  0  0  0  0  0
   12.3078    1.8657  -57.4911 H   0  0  0  0  0  0  0  0  0  0  0  0
   12.0152    3.6380  -57.4911 H   0  0  0  0  0  0  0  0  0  0  0  0
    6.8803    2.0059  -57.6269 H   0  0  0  0  0  0  0  0  0  0  0  0
    8.0323    1.0623  -58.6516 H   0  0  0  0  0  0  0  0  0  0  0  0
   11.3832   -2.6044  -52.6482 H   0  0  0  0  0  0  0  0  0  0  0  0
   11.0679   -3.4551  -54.1986 H   0  0  0  0  0  0  0  0  0  0  0  0
   11.9237   -1.8758  -54.1986 H   0  0  0  0  0  0  0  0  0  0  0  0
    9.4816   -3.4445  -51.9933 H   0  0  0  0  0  0  0  0  0  0  0  0
    8.9939   -2.4281  -49.9811 H   0  0  0  0  0  0  0  0  0  0  0  0
    7.8590   -1.3070  -50.7489 H   0  0  0  0  0  0  0  0  0  0  0  0
    7.1097   -3.4144  -49.0531 H   0  0  0  0  0  0  0  0  0  0  0  0
    6.0075   -2.6834  -50.2220 H   0  0  0  0  0  0  0  0  0  0  0  0
    7.7401   -5.1996  -50.5128 H   0  0  0  0  0  0  0  0  0  0  0  0
    6.0441   -5.0304  -50.9237 H   0  0  0  0  0  0  0  0  0  0  0  0
    7.8377   -4.8647  -52.9030 H   0  0  0  0  0  0  0  0  0  0  0  0
    6.5795   -3.6454  -52.9131 H   0  0  0  0  0  0  0  0  0  0  0  0
  1  2  1  0
  2  3  1  0
  3  4  1  0
  4  5  2  0
  4  6  1  0
  7  6  1  1
  7  8  1  0
  8  9  1  0
  9 10  1  0
 10 11  1  0
 11 12  1  0
 12 13  1  0
 13 14  1  0
 13 15  1  0
 15 16  1  0
 11 17  1  0
  3 18  2  0
 18 19  1  0
 19 20  1  0
 19 21  1  0
 21 22  1  0
 22 23  1  0
 23 24  1  0
 24 25  1  0
 25 26  1  0
 21  2  2  0
 26 22  1  0
 15  7  1  0
 17  7  1  0
 14  9  1  0
  1 27  1  0
  1 28  1  0
  1 29  1  0
  6 30  1  0
  8 31  1  0
  8 32  1  0
  9 33  1  1
 10 34  1  0
 10 35  1  0
 11 36  1  6
 12 37  1  0
 12 38  1  0
 13 39  1  6
 14 40  1  0
 14 41  1  0
 15 42  1  6
 16 43  1  0
 16 44  1  0
 16 45  1  0
 17 46  1  0
 17 47  1  0
 20 48  1  0
 20 49  1  0
 20 50  1  0
 22 51  1  0
 23 52  1  0
 23 53  1  0
 24 54  1  0
 24 55  1  0
 25 56  1  0
 25 57  1  0
 26 58  1  0
 26 59  1  0
M  END
>  <meeko>  (47) 
{"is_sidechain": false}

$$$$

     RDKit          3D

 56 60  0  0  0  0  0  0  0  0999 V2000
   11.7420    3.0090  -57.4410 C   0  0  0  0  0  0  0  0  0  0  0  0
   10.5810    2.8030  -58.4250 C   0  0  2  0  0  0  0  0  0  0  0  0
   10.5720    3.8890  -59.5330 C   0  0  2  0  0  0  0  0  0  0  0  0
   10.2060    5.2670  -58.9520 C   0  0  0  0  0  0  0  0  0  0  0  0
    8.8170    5.2120  -58.3000 C   0  0  1  0  0  0  0  0  0  0  0  0
    7.7760    4.8260  -59.3630 C   0  0  0  0  0  0  0  0  0  0  0  0
    8.1210    3.4520  -59.9540 C   0  0  1  0  0  0  0  0  0  0  0  0
    9.5190    3.5080  -60.5920 C   0  0  0  0  0  0  0  0  0  0  0  0
    8.1180    2.4020  -58.8290 C   0  0  0  0  0  0  0  0  0  0  0  0
    9.1740    2.7500  -57.7440 C   0  0  1  0  0  0  0  0  0  0  0  0
    9.1190    1.7860  -56.6460 N   0  0  0  0  0  0  0  0  0  0  0  0
    7.9810    1.3110  -56.0330 C   0  0  0  0  0  0  0  0  0  0  0  0
    6.8380    1.6480  -56.3240 O   0  0  0  0  0  0  0  0  0  0  0  0
    8.2740    0.3300  -54.9750 C   0  0  0  0  0  0  0  0  0  0  0  0
    7.4660    0.0160  -53.8530 C   0  0  0  0  0  0  0  0  0  0  0  0
    8.1530   -0.9540  -53.1560 C   0  0  0  0  0  0  0  0  0  0  0  0
    7.8140   -1.6830  -51.8890 C   0  0  0  0  0  0  0  0  0  0  0  0
    6.4720   -2.4380  -51.9910 C   0  0  0  0  0  0  0  0  0  0  0  0
    6.6580   -3.9370  -52.2040 C   0  0  0  0  0  0  0  0  0  0  0  0
    7.4680   -4.5820  -51.0780 C   0  0  0  0  0  0  0  0  0  0  0  0
    8.5070   -3.6480  -50.4560 C   0  0  0  0  0  0  0  0  0  0  0  0
    8.9790   -2.5870  -51.4420 C   0  0  0  0  0  0  0  0  0  0  0  0
    9.3010   -1.1660  -53.8700 N   0  0  0  0  0  0  0  0  0  0  0  0
    9.4050   -0.4080  -54.9750 N   0  0  0  0  0  0  0  0  0  0  0  0
    8.8110    4.1540  -57.1860 C   0  0  0  0  0  0  0  0  0  0  0  0
   11.3649    2.9421  -56.4098 H   0  0  0  0  0  0  0  0  0  0  0  0
   12.5032    2.2319  -57.6042 H   0  0  0  0  0  0  0  0  0  0  0  0
   12.1894    4.0006  -57.6042 H   0  0  0  0  0  0  0  0  0  0  0  0
   10.7655    1.8150  -58.8719 H   0  0  0  0  0  0  0  0  0  0  0  0
   11.5768    3.9462  -59.9770 H   0  0  0  0  0  0  0  0  0  0  0  0
   10.9519    5.5529  -58.1958 H   0  0  0  0  0  0  0  0  0  0  0  0
   10.1936    6.0087  -59.7642 H   0  0  0  0  0  0  0  0  0  0  0  0
    8.5736    6.1965  -57.8740 H   0  0  0  0  0  0  0  0  0  0  0  0
    6.7792    4.7844  -58.8997 H   0  0  0  0  0  0  0  0  0  0  0  0
    7.7806    5.5781  -60.1657 H   0  0  0  0  0  0  0  0  0  0  0  0
    7.3775    3.1805  -60.7179 H   0  0  0  0  0  0  0  0  0  0  0  0
    9.7665    2.5220  -61.0123 H   0  0  0  0  0  0  0  0  0  0  0  0
    9.5201    4.2666  -61.3886 H   0  0  0  0  0  0  0  0  0  0  0  0
    7.1209    2.3737  -58.3653 H   0  0  0  0  0  0  0  0  0  0  0  0
    8.3681    1.4221  -59.2618 H   0  0  0  0  0  0  0  0  0  0  0  0
    9.9780    1.3790  -56.2850 H   0  0  0  0  0  0  0  0  0  0  0  0
    6.4919    0.4559  -53.5927 H   0  0  0  0  0  0  0  0  0  0  0  0
    7.6709   -0.9313  -51.0988 H   0  0  0  0  0  0  0  0  0  0  0  0
    5.9079   -2.2816  -51.0597 H   0  0  0  0  0  0  0  0  0  0  0  0
    5.9318   -2.0416  -52.8634 H   0  0  0  0  0  0  0  0  0  0  0  0
    5.6681   -4.4146  -52.2474 H   0  0  0  0  0  0  0  0  0  0  0  0
    7.2114   -4.0795  -53.1439 H   0  0  0  0  0  0  0  0  0  0  0  0
    6.7719   -4.9021  -50.2887 H   0  0  0  0  0  0  0  0  0  0  0  0
    8.0178   -5.4261  -51.5199 H   0  0  0  0  0  0  0  0  0  0  0  0
    8.0598   -3.1491  -49.5836 H   0  0  0  0  0  0  0  0  0  0  0  0
    9.3777   -4.2531  -50.1633 H   0  0  0  0  0  0  0  0  0  0  0  0
    9.7495   -1.9671  -50.9603 H   0  0  0  0  0  0  0  0  0  0  0  0
    9.3868   -3.0933  -52.3293 H   0  0  0  0  0  0  0  0  0  0  0  0
   10.0550   -1.8110  -53.6590 H   0  0  0  0  0  0  0  0  0  0  0  0
    7.8084    4.1130  -56.7353 H   0  0  0  0  0  0  0  0  0  0  0  0
    9.5626    4.4353  -56.4338 H   0  0  0  0  0  0  0  0  0  0  0  0
  1  2  1  0
  2  3  1  0
  3  4  1  0
  4  5  1  0
  5  6  1  0
  6  7  1  0
  7  8  1  0
  7  9  1  0
  9 10  1  0
 10 11  1  1
 11 12  1  0
 12 13  2  0
 12 14  1  0
 14 15  1  0
 15 16  2  0
 16 17  1  0
 17 18  1  0
 18 19  1  0
 19 20  1  0
 20 21  1  0
 21 22  1  0
 16 23  1  0
 23 24  1  0
 10 25  1  0
 10  2  1  0
 24 14  2  0
  8  3  1  0
 22 17  1  0
 25  5  1  0
  1 26  1  0
  1 27  1  0
  1 28  1  0
  2 29  1  6
  3 30  1  6
  4 31  1  0
  4 32  1  0
  5 33  1  1
  6 34  1  0
  6 35  1  0
  7 36  1  6
  8 37  1  0
  8 38  1  0
  9 39  1  0
  9 40  1  0
 11 41  1  0
 15 42  1  0
 17 43  1  0
 18 44  1  0
 18 45  1  0
 19 46  1  0
 19 47  1  0
 20 48  1  0
 20 49  1  0
 21 50  1  0
 21 51  1  0
 22 52  1  0
 22 53  1  0
 23 54  1  0
 25 55  1  0
 25 56  1  0
M  END
>  <meeko>  (48) 
{"is_sidechain": false}

$$$$

     RDKit          3D

 56 60  0  0  0  0  0  0  0  0999 V2000
   11.4410    2.6570  -57.2600 C   0  0  0  0  0  0  0  0  0  0  0  0
   10.2990    2.7080  -58.2850 C   0  0  2  0  0  0  0  0  0  0  0  0
   10.4840    3.8760  -59.2900 C   0  0  2  0  0  0  0  0  0  0  0  0
   10.2970    5.2370  -58.5940 C   0  0  0  0  0  0  0  0  0  0  0  0
    8.8920    5.3270  -57.9820 C   0  0  1  0  0  0  0  0  0  0  0  0
    7.8460    5.1910  -59.0990 C   0  0  0  0  0  0  0  0  0  0  0  0
    8.0120    3.8360  -59.8050 C   0  0  1  0  0  0  0  0  0  0  0  0
    9.4260    3.7460  -60.4030 C   0  0  0  0  0  0  0  0  0  0  0  0
    7.8190    2.7040  -58.7820 C   0  0  0  0  0  0  0  0  0  0  0  0
    8.8740    2.7980  -57.6450 C   0  0  1  0  0  0  0  0  0  0  0  0
    8.6420    1.7590  -56.6330 N   0  0  0  0  0  0  0  0  0  0  0  0
    7.4150    1.4140  -56.1160 C   0  0  0  0  0  0  0  0  0  0  0  0
    6.3650    1.9510  -56.4470 O   0  0  0  0  0  0  0  0  0  0  0  0
    7.4420    0.3520  -55.1440 C   0  0  0  0  0  0  0  0  0  0  0  0
    8.4210   -0.1850  -54.3330 C   0  0  0  0  0  0  0  0  0  0  0  0
    7.7880   -1.2220  -53.6010 C   0  0  0  0  0  0  0  0  0  0  0  0
    8.3810   -2.1440  -52.5680 C   0  0  0  0  0  0  0  0  0  0  0  0
    8.2340   -3.6310  -52.9560 C   0  0  0  0  0  0  0  0  0  0  0  0
    7.1020   -4.3250  -52.2040 C   0  0  0  0  0  0  0  0  0  0  0  0
    7.2990   -4.2650  -50.6890 C   0  0  0  0  0  0  0  0  0  0  0  0
    8.0360   -3.0120  -50.2150 C   0  0  0  0  0  0  0  0  0  0  0  0
    7.8250   -1.8380  -51.1630 C   0  0  0  0  0  0  0  0  0  0  0  0
    6.4970   -1.3300  -53.9320 N   0  0  0  0  0  0  0  0  0  0  0  0
    6.3160   -0.3740  -54.8580 N   0  0  0  0  0  0  0  0  0  0  0  0
    8.6970    4.1870  -56.9700 C   0  0  0  0  0  0  0  0  0  0  0  0
   11.0221    2.6757  -56.2431 H   0  0  0  0  0  0  0  0  0  0  0  0
   12.0195    1.7321  -57.4013 H   0  0  0  0  0  0  0  0  0  0  0  0
   12.0996    3.5266  -57.4013 H   0  0  0  0  0  0  0  0  0  0  0  0
   10.3581    1.7465  -58.8160 H   0  0  0  0  0  0  0  0  0  0  0  0
   11.5017    3.8246  -59.7042 H   0  0  0  0  0  0  0  0  0  0  0  0
   11.0484    5.3450  -57.7979 H   0  0  0  0  0  0  0  0  0  0  0  0
   10.4194    6.0406  -59.3351 H   0  0  0  0  0  0  0  0  0  0  0  0
    8.7749    6.2952  -57.4731 H   0  0  0  0  0  0  0  0  0  0  0  0
    6.8374    5.2554  -58.6647 H   0  0  0  0  0  0  0  0  0  0  0  0
    7.9872    6.0011  -59.8296 H   0  0  0  0  0  0  0  0  0  0  0  0
    7.2647    3.7411  -60.6066 H   0  0  0  0  0  0  0  0  0  0  0  0
    9.5462    2.7757  -60.9070 H   0  0  0  0  0  0  0  0  0  0  0  0
    9.5628    4.5641  -61.1255 H   0  0  0  0  0  0  0  0  0  0  0  0
    6.8120    2.7804  -58.3461 H   0  0  0  0  0  0  0  0  0  0  0  0
    7.9426    1.7400  -59.2972 H   0  0  0  0  0  0  0  0  0  0  0  0
    9.4460    1.2390  -56.3140 H   0  0  0  0  0  0  0  0  0  0  0  0
    9.4739    0.1266  -54.2678 H   0  0  0  0  0  0  0  0  0  0  0  0
    9.4632   -1.9496  -52.5351 H   0  0  0  0  0  0  0  0  0  0  0  0
    8.0311   -3.6950  -54.0352 H   0  0  0  0  0  0  0  0  0  0  0  0
    9.1722   -4.1392  -52.6885 H   0  0  0  0  0  0  0  0  0  0  0  0
    6.1521   -3.8320  -52.4583 H   0  0  0  0  0  0  0  0  0  0  0  0
    7.0939   -5.3833  -52.5037 H   0  0  0  0  0  0  0  0  0  0  0  0
    6.3096   -4.2887  -50.2088 H   0  0  0  0  0  0  0  0  0  0  0  0
    7.9208   -5.1287  -50.4109 H   0  0  0  0  0  0  0  0  0  0  0  0
    7.6632   -2.7356  -49.2177 H   0  0  0  0  0  0  0  0  0  0  0  0
    9.1120   -3.2388  -50.1863 H   0  0  0  0  0  0  0  0  0  0  0  0
    6.7476   -1.6304  -51.2416 H   0  0  0  0  0  0  0  0  0  0  0  0
    8.3616   -0.9663  -50.7601 H   0  0  0  0  0  0  0  0  0  0  0  0
    5.3950   -0.2530  -55.2710 H   0  0  0  0  0  0  0  0  0  0  0  0
    7.6841    4.2532  -56.5461 H   0  0  0  0  0  0  0  0  0  0  0  0
    9.4560    4.2892  -56.1804 H   0  0  0  0  0  0  0  0  0  0  0  0
  1  2  1  0
  2  3  1  0
  3  4  1  0
  4  5  1  0
  5  6  1  0
  6  7  1  0
  7  8  1  0
  7  9  1  0
  9 10  1  0
 10 11  1  1
 11 12  1  0
 12 13  2  0
 12 14  1  0
 14 15  2  0
 15 16  1  0
 16 17  1  0
 17 18  1  0
 18 19  1  0
 19 20  1  0
 20 21  1  0
 21 22  1  0
 16 23  2  0
 23 24  1  0
 10 25  1  0
 10  2  1  0
 24 14  1  0
  8  3  1  0
 22 17  1  0
 25  5  1  0
  1 26  1  0
  1 27  1  0
  1 28  1  0
  2 29  1  6
  3 30  1  6
  4 31  1  0
  4 32  1  0
  5 33  1  1
  6 34  1  0
  6 35  1  0
  7 36  1  6
  8 37  1  0
  8 38  1  0
  9 39  1  0
  9 40  1  0
 11 41  1  0
 15 42  1  0
 17 43  1  0
 18 44  1  0
 18 45  1  0
 19 46  1  0
 19 47  1  0
 20 48  1  0
 20 49  1  0
 21 50  1  0
 21 51  1  0
 22 52  1  0
 22 53  1  0
 24 54  1  0
 25 55  1  0
 25 56  1  0
M  END
>  <meeko>  (49) 
{"is_sidechain": false}

$$$$

     RDKit          3D

 56 60  0  0  0  0  0  0  0  0999 V2000
   11.6360    2.7880  -57.2380 C   0  0  0  0  0  0  0  0  0  0  0  0
   10.4490    2.7430  -58.2080 C   0  0  2  0  0  0  0  0  0  0  0  0
   10.5260    3.9140  -59.2270 C   0  0  2  0  0  0  0  0  0  0  0  0
   10.2450    5.2620  -58.5380 C   0  0  0  0  0  0  0  0  0  0  0  0
    8.8420    5.2540  -57.9090 C   0  0  1  0  0  0  0  0  0  0  0  0
    7.7980    5.0230  -59.0100 C   0  0  0  0  0  0  0  0  0  0  0  0
    8.0640    3.6800  -59.7040 C   0  0  1  0  0  0  0  0  0  0  0  0
    9.4680    3.6940  -60.3240 C   0  0  0  0  0  0  0  0  0  0  0  0
    7.9830    2.5540  -58.6650 C   0  0  0  0  0  0  0  0  0  0  0  0
    9.0380    2.7430  -57.5310 C   0  0  1  0  0  0  0  0  0  0  0  0
    8.8630    1.6180  -56.6090 N   0  0  0  0  0  0  0  0  0  0  0  0
    7.7030    1.2040  -55.9910 C   0  0  0  0  0  0  0  0  0  0  0  0
    6.5820    1.6380  -56.2260 O   0  0  0  0  0  0  0  0  0  0  0  0
    7.9480    0.1620  -54.9770 C   0  0  0  0  0  0  0  0  0  0  0  0
    7.0030   -0.4240  -54.1070 C   0  0  0  0  0  0  0  0  0  0  0  0
    7.6970   -1.3390  -53.3380 C   0  0  0  0  0  0  0  0  0  0  0  0
    7.1570   -2.2240  -52.2560 C   0  0  0  0  0  0  0  0  0  0  0  0
    7.7500   -1.9960  -50.8580 C   0  0  0  0  0  0  0  0  0  0  0  0
    8.2480   -3.3590  -50.3880 C   0  0  0  0  0  0  0  0  0  0  0  0
    7.4120   -4.3570  -51.1720 C   0  0  0  0  0  0  0  0  0  0  0  0
    7.3040   -3.7200  -52.5500 C   0  0  0  0  0  0  0  0  0  0  0  0
    8.9950   -1.2630  -53.7850 N   0  0  0  0  0  0  0  0  0  0  0  0
   10.1570   -1.9920  -53.3310 C   0  0  0  0  0  0  0  0  0  0  0  0
    9.1750   -0.3520  -54.7650 N   0  0  0  0  0  0  0  0  0  0  0  0
    8.7520    4.1190  -56.8730 C   0  0  0  0  0  0  0  0  0  0  0  0
   11.2643    2.7739  -56.2028 H   0  0  0  0  0  0  0  0  0  0  0  0
   12.2816    1.9137  -57.4077 H   0  0  0  0  0  0  0  0  0  0  0  0
   12.2135    3.7087  -57.4077 H   0  0  0  0  0  0  0  0  0  0  0  0
   10.5458    1.7721  -58.7159 H   0  0  0  0  0  0  0  0  0  0  0  0
   11.5381    3.9369  -59.6573 H   0  0  0  0  0  0  0  0  0  0  0  0
   10.9950    5.4314  -57.7514 H   0  0  0  0  0  0  0  0  0  0  0  0
   10.2983    6.0660  -59.2868 H   0  0  0  0  0  0  0  0  0  0  0  0
    8.6522    6.2178  -57.4139 H   0  0  0  0  0  0  0  0  0  0  0  0
    6.7928    5.0107  -58.5635 H   0  0  0  0  0  0  0  0  0  0  0  0
    7.8645    5.8341  -59.7500 H   0  0  0  0  0  0  0  0  0  0  0  0
    7.3150    3.5167  -60.4929 H   0  0  0  0  0  0  0  0  0  0  0  0
    9.6554    2.7318  -60.8231 H   0  0  0  0  0  0  0  0  0  0  0  0
    9.5313    4.5126  -61.0560 H   0  0  0  0  0  0  0  0  0  0  0  0
    6.9771    2.5504  -58.2199 H   0  0  0  0  0  0  0  0  0  0  0  0
    8.1907    1.6008  -59.1732 H   0  0  0  0  0  0  0  0  0  0  0  0
    9.6910    1.1980  -56.1920 H   0  0  0  0  0  0  0  0  0  0  0  0
    5.9280   -0.1974  -54.0521 H   0  0  0  0  0  0  0  0  0  0  0  0
    6.0983   -1.9254  -52.2515 H   0  0  0  0  0  0  0  0  0  0  0  0
    8.5839   -1.2804  -50.9081 H   0  0  0  0  0  0  0  0  0  0  0  0
    7.0041   -1.5779  -50.1661 H   0  0  0  0  0  0  0  0  0  0  0  0
    9.3170   -3.4827  -50.6157 H   0  0  0  0  0  0  0  0  0  0  0  0
    8.1475   -3.4902  -49.3005 H   0  0  0  0  0  0  0  0  0  0  0  0
    7.9148   -5.3337  -51.2281 H   0  0  0  0  0  0  0  0  0  0  0  0
    6.4326   -4.5529  -50.7112 H   0  0  0  0  0  0  0  0  0  0  0  0
    8.2098   -3.9148  -53.1429 H   0  0  0  0  0  0  0  0  0  0  0  0
    6.4645   -4.1207  -53.1371 H   0  0  0  0  0  0  0  0  0  0  0  0
   10.1758   -2.0038  -52.2312 H   0  0  0  0  0  0  0  0  0  0  0  0
   10.1126   -3.0244  -53.7081 H   0  0  0  0  0  0  0  0  0  0  0  0
   11.0672   -1.5028  -53.7081 H   0  0  0  0  0  0  0  0  0  0  0  0
    7.7414    4.1073  -56.4389 H   0  0  0  0  0  0  0  0  0  0  0  0
    9.5047    4.2972  -56.0909 H   0  0  0  0  0  0  0  0  0  0  0  0
  1  2  1  0
  2  3  1  0
  3  4  1  0
  4  5  1  0
  5  6  1  0
  6  7  1  0
  7  8  1  0
  7  9  1  0
  9 10  1  0
 10 11  1  1
 11 12  1  0
 12 13  2  0
 12 14  1  0
 14 15  1  0
 15 16  2  0
 16 17  1  0
 17 18  1  0
 18 19  1  0
 19 20  1  0
 20 21  1  0
 16 22  1  0
 22 23  1  0
 22 24  1  0
 10 25  1  0
 10  2  1  0
 24 14  2  0
  8  3  1  0
 21 17  1  0
 25  5  1  0
  1 26  1  0
  1 27  1  0
  1 28  1  0
  2 29  1  6
  3 30  1  6
  4 31  1  0
  4 32  1  0
  5 33  1  1
  6 34  1  0
  6 35  1  0
  7 36  1  6
  8 37  1  0
  8 38  1  0
  9 39  1  0
  9 40  1  0
 11 41  1  0
 15 42  1  0
 17 43  1  0
 18 44  1  0
 18 45  1  0
 19 46  1  0
 19 47  1  0
 20 48  1  0
 20 49  1  0
 21 50  1  0
 21 51  1  0
 23 52  1  0
 23 53  1  0
 23 54  1  0
 25 55  1  0
 25 56  1  0
M  END
>  <meeko>  (50) 
{"is_sidechain": false}

$$$$

     RDKit          3D

 55 58  0  0  0  0  0  0  0  0999 V2000
    6.3140   -0.2460  -53.5640 C   0  0  0  0  0  0  0  0  0  0  0  0
    7.7220   -0.5810  -53.9010 C   0  0  0  0  0  0  0  0  0  0  0  0
    8.5050    0.0610  -54.9090 C   0  0  0  0  0  0  0  0  0  0  0  0
    8.1050    1.1580  -55.8160 C   0  0  0  0  0  0  0  0  0  0  0  0
    6.9350    1.4620  -56.0230 O   0  0  0  0  0  0  0  0  0  0  0  0
    9.1890    1.7740  -56.4050 N   0  0  0  0  0  0  0  0  0  0  0  0
    9.1490    2.7890  -57.4570 C   0  0  1  0  0  0  0  0  0  0  0  0
    8.8660    4.2070  -56.8950 C   0  0  0  0  0  0  0  0  0  0  0  0
    8.8300    5.2470  -58.0300 C   0  0  2  0  0  0  0  0  0  0  0  0
    7.7190    4.8690  -59.0240 C   0  0  0  0  0  0  0  0  0  0  0  0
    7.9980    3.4810  -59.6210 C   0  0  1  0  0  0  0  0  0  0  0  0
    9.3540    3.5000  -60.3410 C   0  0  0  0  0  0  0  0  0  0  0  0
   10.4740    3.8670  -59.3490 C   0  0  1  0  0  0  0  0  0  0  0  0
   10.1770    5.2610  -58.7670 C   0  0  0  0  0  0  0  0  0  0  0  0
   10.5170    2.8000  -58.2250 C   0  0  1  0  0  0  0  0  0  0  0  0
   11.7460    2.9940  -57.3220 C   0  0  0  0  0  0  0  0  0  0  0  0
    8.0380    2.4430  -58.4870 C   0  0  0  0  0  0  0  0  0  0  0  0
    9.7420   -0.4690  -54.9730 N   0  0  0  0  0  0  0  0  0  0  0  0
    9.7480   -1.4200  -54.0260 N   0  0  0  0  0  0  0  0  0  0  0  0
   10.9590   -2.1870  -53.8280 C   0  0  0  0  0  0  0  0  0  0  0  0
    8.5590   -1.5440  -53.3470 C   0  0  0  0  0  0  0  0  0  0  0  0
    8.3490   -2.5590  -52.2500 C   0  0  0  0  0  0  0  0  0  0  0  0
    7.4650   -3.7170  -52.7130 C   0  0  0  0  0  0  0  0  0  0  0  0
    7.8040   -1.9090  -50.9790 C   0  0  0  0  0  0  0  0  0  0  0  0
    6.1954   -0.2178  -52.4708 H   0  0  0  0  0  0  0  0  0  0  0  0
    6.0601    0.7376  -53.9859 H   0  0  0  0  0  0  0  0  0  0  0  0
    5.6443   -1.0099  -53.9859 H   0  0  0  0  0  0  0  0  0  0  0  0
   10.0660    1.3000  -56.1970 H   0  0  0  0  0  0  0  0  0  0  0  0
    7.8949    4.2031  -56.3783 H   0  0  0  0  0  0  0  0  0  0  0  0
    9.6707    4.4763  -56.1950 H   0  0  0  0  0  0  0  0  0  0  0  0
    8.6354    6.2428  -57.6051 H   0  0  0  0  0  0  0  0  0  0  0  0
    6.7518    4.8526  -58.5003 H   0  0  0  0  0  0  0  0  0  0  0  0
    7.6917    5.6119  -59.8347 H   0  0  0  0  0  0  0  0  0  0  0  0
    7.2052    3.2186  -60.3369 H   0  0  0  0  0  0  0  0  0  0  0  0
    9.5549    2.5051  -60.7650 H   0  0  0  0  0  0  0  0  0  0  0  0
    9.3246    4.2501  -61.1450 H   0  0  0  0  0  0  0  0  0  0  0  0
   11.4519    3.8900  -59.8522 H   0  0  0  0  0  0  0  0  0  0  0  0
   10.9747    5.5390  -58.0625 H   0  0  0  0  0  0  0  0  0  0  0  0
   10.1318    5.9924  -59.5874 H   0  0  0  0  0  0  0  0  0  0  0  0
   10.6414    1.7981  -58.6617 H   0  0  0  0  0  0  0  0  0  0  0  0
   11.4374    2.9453  -56.2673 H   0  0  0  0  0  0  0  0  0  0  0  0
   12.4800    2.2006  -57.5263 H   0  0  0  0  0  0  0  0  0  0  0  0
   12.1999    3.9749  -57.5263 H   0  0  0  0  0  0  0  0  0  0  0  0
    7.0641    2.4306  -57.9757 H   0  0  0  0  0  0  0  0  0  0  0  0
    8.2566    1.4563  -58.9214 H   0  0  0  0  0  0  0  0  0  0  0  0
   11.1460   -2.3054  -52.7505 H   0  0  0  0  0  0  0  0  0  0  0  0
   10.8452   -3.1781  -54.2915 H   0  0  0  0  0  0  0  0  0  0  0  0
   11.8064   -1.6606  -54.2915 H   0  0  0  0  0  0  0  0  0  0  0  0
    9.3349   -2.9807  -52.0047 H   0  0  0  0  0  0  0  0  0  0  0  0
    7.0624   -4.2444  -51.8357 H   0  0  0  0  0  0  0  0  0  0  0  0
    6.6344   -3.3249  -53.3182 H   0  0  0  0  0  0  0  0  0  0  0  0
    8.0622   -4.4149  -53.3182 H   0  0  0  0  0  0  0  0  0  0  0  0
    8.2275   -2.4140  -50.0983 H   0  0  0  0  0  0  0  0  0  0  0  0
    8.0843   -0.8455  -50.9619 H   0  0  0  0  0  0  0  0  0  0  0  0
    6.7079   -1.9996  -50.9619 H   0  0  0  0  0  0  0  0  0  0  0  0
  1  2  1  0
  2  3  1  0
  3  4  1  0
  4  5  2  0
  4  6  1  0
  7  6  1  1
  7  8  1  0
  8  9  1  0
  9 10  1  0
 10 11  1  0
 11 12  1  0
 12 13  1  0
 13 14  1  0
 13 15  1  0
 15 16  1  0
 11 17  1  0
  3 18  2  0
 18 19  1  0
 19 20  1  0
 19 21  1  0
 21 22  1  0
 22 23  1  0
 22 24  1  0
 21  2  2  0
 15  7  1  0
 17  7  1  0
 14  9  1  0
  1 25  1  0
  1 26  1  0
  1 27  1  0
  6 28  1  0
  8 29  1  0
  8 30  1  0
  9 31  1  1
 10 32  1  0
 10 33  1  0
 11 34  1  6
 12 35  1  0
 12 36  1  0
 13 37  1  6
 14 38  1  0
 14 39  1  0
 15 40  1  6
 16 41  1  0
 16 42  1  0
 16 43  1  0
 17 44  1  0
 17 45  1  0
 20 46  1  0
 20 47  1  0
 20 48  1  0
 22 49  1  0
 23 50  1  0
 23 51  1  0
 23 52  1  0
 24 53  1  0
 24 54  1  0
 24 55  1  0
M  END
>  <meeko>  (51) 
{"is_sidechain": false}

$$$$

     RDKit          3D

 58 61  0  0  0  0  0  0  0  0999 V2000
   11.1530   -1.4690  -55.7580 C   0  0  0  0  0  0  0  0  0  0  0  0
   10.0190   -0.8480  -55.0190 C   0  0  0  0  0  0  0  0  0  0  0  0
    9.4190    0.4130  -55.3310 C   0  0  0  0  0  0  0  0  0  0  0  0
    9.8330    1.4110  -56.3390 C   0  0  0  0  0  0  0  0  0  0  0  0
   11.0050    1.6130  -56.6370 O   0  0  0  0  0  0  0  0  0  0  0  0
    8.7650    2.0650  -56.9340 N   0  0  0  0  0  0  0  0  0  0  0  0
    8.8790    2.9780  -58.0760 C   0  0  1  0  0  0  0  0  0  0  0  0
    7.4460    3.2730  -58.6050 C   0  0  0  0  0  0  0  0  0  0  0  0
    7.4840    4.1890  -59.8380 C   0  0  2  0  0  0  0  0  0  0  0  0
    8.2840    3.4970  -60.9510 C   0  0  0  0  0  0  0  0  0  0  0  0
    9.7160    3.2190  -60.4700 C   0  0  1  0  0  0  0  0  0  0  0  0
   10.3910    4.5490  -60.0930 C   0  0  0  0  0  0  0  0  0  0  0  0
    9.5980    5.2490  -58.9710 C   0  0  1  0  0  0  0  0  0  0  0  0
    8.1680    5.5140  -59.4740 C   0  0  0  0  0  0  0  0  0  0  0  0
    9.5870    4.3290  -57.7200 C   0  0  1  0  0  0  0  0  0  0  0  0
    8.9920    5.0440  -56.5000 C   0  0  0  0  0  0  0  0  0  0  0  0
    9.6660    2.3050  -59.2340 C   0  0  0  0  0  0  0  0  0  0  0  0
    8.3620    0.6360  -54.5440 N   0  0  0  0  0  0  0  0  0  0  0  0
    8.2510   -0.4630  -53.7850 N   0  0  0  0  0  0  0  0  0  0  0  0
    7.0560   -0.5650  -52.9810 C   0  0  0  0  0  0  0  0  0  0  0  0
    9.3070   -1.3460  -53.9210 C   0  0  0  0  0  0  0  0  0  0  0  0
    9.5210   -2.6100  -53.0700 C   0  0  0  0  0  0  0  0  0  0  0  0
    8.7950   -2.5450  -51.7080 C   0  0  0  0  0  0  0  0  0  0  0  0
   11.0160   -2.8090  -52.7210 C   0  0  0  0  0  0  0  0  0  0  0  0
    9.0390   -3.8440  -53.8510 C   0  0  0  0  0  0  0  0  0  0  0  0
   11.8836   -1.8691  -55.0396 H   0  0  0  0  0  0  0  0  0  0  0  0
   10.7751   -2.2861  -56.3901 H   0  0  0  0  0  0  0  0  0  0  0  0
   11.6379   -0.7105  -56.3901 H   0  0  0  0  0  0  0  0  0  0  0  0
    7.8650    1.6320  -56.7800 H   0  0  0  0  0  0  0  0  0  0  0  0
    6.9625    2.3236  -58.8786 H   0  0  0  0  0  0  0  0  0  0  0  0
    6.8807    3.7828  -57.8109 H   0  0  0  0  0  0  0  0  0  0  0  0
    6.4581    4.3890  -60.1808 H   0  0  0  0  0  0  0  0  0  0  0  0
    7.7965    2.5466  -61.2137 H   0  0  0  0  0  0  0  0  0  0  0  0
    8.3192    4.1531  -61.8332 H   0  0  0  0  0  0  0  0  0  0  0  0
   10.2886    2.7278  -61.2706 H   0  0  0  0  0  0  0  0  0  0  0  0
   11.4154    4.3507  -59.7447 H   0  0  0  0  0  0  0  0  0  0  0  0
   10.4151    5.2028  -60.9773 H   0  0  0  0  0  0  0  0  0  0  0  0
   10.0613    6.2085  -58.6978 H   0  0  0  0  0  0  0  0  0  0  0  0
    7.5912    6.0162  -58.6834 H   0  0  0  0  0  0  0  0  0  0  0  0
    8.2130    6.1538  -60.3676 H   0  0  0  0  0  0  0  0  0  0  0  0
   10.6187    4.0863  -57.4256 H   0  0  0  0  0  0  0  0  0  0  0  0
    9.3773    4.5810  -55.5796 H   0  0  0  0  0  0  0  0  0  0  0  0
    9.2764    6.1064  -56.5228 H   0  0  0  0  0  0  0  0  0  0  0  0
    7.8957    4.9573  -56.5228 H   0  0  0  0  0  0  0  0  0  0  0  0
    9.1707    1.3608  -59.5045 H   0  0  0  0  0  0  0  0  0  0  0  0
   10.6955    2.1167  -58.8953 H   0  0  0  0  0  0  0  0  0  0  0  0
    7.3279   -0.5418  -51.9154 H   0  0  0  0  0  0  0  0  0  0  0  0
    6.3885    0.2794  -53.2075 H   0  0  0  0  0  0  0  0  0  0  0  0
    6.5412   -1.5103  -53.2075 H   0  0  0  0  0  0  0  0  0  0  0  0
    9.5334   -2.6111  -50.8954 H   0  0  0  0  0  0  0  0  0  0  0  0
    8.2474   -1.5942  -51.6294 H   0  0  0  0  0  0  0  0  0  0  0  0
    8.0872   -3.3834  -51.6294 H   0  0  0  0  0  0  0  0  0  0  0  0
   11.1383   -2.8253  -51.6279 H   0  0  0  0  0  0  0  0  0  0  0  0
   11.3675   -3.7619  -53.1435 H   0  0  0  0  0  0  0  0  0  0  0  0
   11.6045   -1.9813  -53.1435 H   0  0  0  0  0  0  0  0  0  0  0  0
    8.7325   -4.6288  -53.1438 H   0  0  0  0  0  0  0  0  0  0  0  0
    8.1833   -3.5662  -54.4839 H   0  0  0  0  0  0  0  0  0  0  0  0
    9.8565   -4.2197  -54.4839 H   0  0  0  0  0  0  0  0  0  0  0  0
  1  2  1  0
  2  3  1  0
  3  4  1  0
  4  5  2  0
  4  6  1  0
  7  6  1  1
  7  8  1  0
  8  9  1  0
  9 10  1  0
 10 11  1  0
 11 12  1  0
 12 13  1  0
 13 14  1  0
 13 15  1  0
 15 16  1  0
 11 17  1  0
  3 18  2  0
 18 19  1  0
 19 20  1  0
 19 21  1  0
 21 22  1  0
 22 23  1  0
 22 24  1  0
 22 25  1  0
 21  2  2  0
 15  7  1  0
 17  7  1  0
 14  9  1  0
  1 26  1  0
  1 27  1  0
  1 28  1  0
  6 29  1  0
  8 30  1  0
  8 31  1  0
  9 32  1  6
 10 33  1  0
 10 34  1  0
 11 35  1  6
 12 36  1  0
 12 37  1  0
 13 38  1  1
 14 39  1  0
 14 40  1  0
 15 41  1  1
 16 42  1  0
 16 43  1  0
 16 44  1  0
 17 45  1  0
 17 46  1  0
 20 47  1  0
 20 48  1  0
 20 49  1  0
 23 50  1  0
 23 51  1  0
 23 52  1  0
 24 53  1  0
 24 54  1  0
 24 55  1  0
 25 56  1  0
 25 57  1  0
 25 58  1  0
M  END
>  <meeko>  (52) 
{"is_sidechain": false}

$$$$

     RDKit          3D

 49 52  0  0  0  0  0  0  0  0999 V2000
   11.5260   -1.5360  -56.1080 C   0  0  0  0  0  0  0  0  0  0  0  0
   10.3740   -1.0260  -55.3190 C   0  0  0  0  0  0  0  0  0  0  0  0
    9.7460    0.2500  -55.4560 C   0  0  0  0  0  0  0  0  0  0  0  0
   10.0750    1.3330  -56.4090 C   0  0  0  0  0  0  0  0  0  0  0  0
   11.2260    1.5980  -56.7350 O   0  0  0  0  0  0  0  0  0  0  0  0
    8.9520    1.9790  -56.8760 N   0  0  0  0  0  0  0  0  0  0  0  0
    8.8660    2.9710  -57.9510 C   0  0  1  0  0  0  0  0  0  0  0  0
    7.4070    3.2900  -58.3690 C   0  0  0  0  0  0  0  0  0  0  0  0
    7.3770    4.2510  -59.5720 C   0  0  2  0  0  0  0  0  0  0  0  0
    8.0860    3.5950  -60.7660 C   0  0  0  0  0  0  0  0  0  0  0  0
    9.5450    3.2890  -60.3980 C   0  0  1  0  0  0  0  0  0  0  0  0
   10.2640    4.5940  -60.0270 C   0  0  0  0  0  0  0  0  0  0  0  0
    9.5690    5.2540  -58.8210 C   0  0  1  0  0  0  0  0  0  0  0  0
    8.1070    5.5540  -59.2050 C   0  0  0  0  0  0  0  0  0  0  0  0
    9.6370    4.2900  -57.6060 C   0  0  1  0  0  0  0  0  0  0  0  0
    9.1760    4.9960  -56.3250 C   0  0  0  0  0  0  0  0  0  0  0  0
    9.5690    2.3400  -59.1930 C   0  0  0  0  0  0  0  0  0  0  0  0
    8.7350    0.3860  -54.5740 N   0  0  0  0  0  0  0  0  0  0  0  0
    8.7260   -0.7710  -53.8880 N   0  0  0  0  0  0  0  0  0  0  0  0
    7.7510   -0.9410  -52.8320 C   0  0  0  0  0  0  0  0  0  0  0  0
    9.6670   -1.6660  -54.3110 C   0  0  0  0  0  0  0  0  0  0  0  0
    9.7830   -3.0060  -53.6990 C   0  0  0  0  0  0  0  0  0  0  0  0
   10.7680   -3.7560  -54.2480 F   0  0  0  0  0  0  0  0  0  0  0  0
    8.6340   -3.7170  -53.8280 F   0  0  0  0  0  0  0  0  0  0  0  0
   10.0410   -2.9200  -52.3700 F   0  0  0  0  0  0  0  0  0  0  0  0
   12.3135   -1.8846  -55.4237 H   0  0  0  0  0  0  0  0  0  0  0  0
   11.1949   -2.3716  -56.7421 H   0  0  0  0  0  0  0  0  0  0  0  0
   11.9221   -0.7291  -56.7421 H   0  0  0  0  0  0  0  0  0  0  0  0
    8.0920    1.5340  -56.5590 H   0  0  0  0  0  0  0  0  0  0  0  0
    6.8982    2.3541  -58.6431 H   0  0  0  0  0  0  0  0  0  0  0  0
    6.8963    3.7715  -57.5220 H   0  0  0  0  0  0  0  0  0  0  0  0
    6.3328    4.4738  -59.8367 H   0  0  0  0  0  0  0  0  0  0  0  0
    7.5710    2.6589  -61.0277 H   0  0  0  0  0  0  0  0  0  0  0  0
    8.0636    4.2819  -61.6249 H   0  0  0  0  0  0  0  0  0  0  0  0
   10.0521    2.8207  -61.2545 H   0  0  0  0  0  0  0  0  0  0  0  0
   11.3100    4.3728  -59.7684 H   0  0  0  0  0  0  0  0  0  0  0  0
   10.2292    5.2818  -60.8847 H   0  0  0  0  0  0  0  0  0  0  0  0
   10.0684    6.1948  -58.5464 H   0  0  0  0  0  0  0  0  0  0  0  0
    7.5976    6.0286  -58.3534 H   0  0  0  0  0  0  0  0  0  0  0  0
    8.0949    6.2293  -60.0732 H   0  0  0  0  0  0  0  0  0  0  0  0
   10.6755    3.9931  -57.3980 H   0  0  0  0  0  0  0  0  0  0  0  0
    9.5394    4.4395  -55.4485 H   0  0  0  0  0  0  0  0  0  0  0  0
    9.5810    6.0185  -56.3038 H   0  0  0  0  0  0  0  0  0  0  0  0
    8.0769    5.0364  -56.3038 H   0  0  0  0  0  0  0  0  0  0  0  0
    9.0499    1.4082  -59.4620 H   0  0  0  0  0  0  0  0  0  0  0  0
   10.6190    2.1430  -58.9310 H   0  0  0  0  0  0  0  0  0  0  0  0
    8.2494   -0.8541  -51.8553 H   0  0  0  0  0  0  0  0  0  0  0  0
    6.9770   -0.1643  -52.9191 H   0  0  0  0  0  0  0  0  0  0  0  0
    7.2855   -1.9339  -52.9191 H   0  0  0  0  0  0  0  0  0  0  0  0
  1  2  1  0
  2  3  1  0
  3  4  1  0
  4  5  2  0
  4  6  1  0
  7  6  1  1
  7  8  1  0
  8  9  1  0
  9 10  1  0
 10 11  1  0
 11 12  1  0
 12 13  1  0
 13 14  1  0
 13 15  1  0
 15 16  1  0
 11 17  1  0
  3 18  2  0
 18 19  1  0
 19 20  1  0
 19 21  1  0
 21 22  1  0
 22 23  1  0
 22 24  1  0
 22 25  1  0
 21  2  2  0
 15  7  1  0
 17  7  1  0
 14  9  1  0
  1 26  1  0
  1 27  1  0
  1 28  1  0
  6 29  1  0
  8 30  1  0
  8 31  1  0
  9 32  1  6
 10 33  1  0
 10 34  1  0
 11 35  1  6
 12 36  1  0
 12 37  1  0
 13 38  1  1
 14 39  1  0
 14 40  1  0
 15 41  1  1
 16 42  1  0
 16 43  1  0
 16 44  1  0
 17 45  1  0
 17 46  1  0
 20 47  1  0
 20 48  1  0
 20 49  1  0
M  END
>  <meeko>  (53) 
{"is_sidechain": false}

$$$$

     RDKit          3D

 51 53  0  0  0  0  0  0  0  0999 V2000
   10.0370    3.3300  -56.2750 C   0  0  0  0  0  0  0  0  0  0  0  0
    9.3410    2.9270  -57.5250 C   0  0  0  0  0  0  0  0  0  0  0  0
    8.1210    2.1760  -57.6160 C   0  0  0  0  0  0  0  0  0  0  0  0
    7.2580    1.6920  -56.5220 C   0  0  0  0  0  0  0  0  0  0  0  0
    6.0980    2.0600  -56.3610 O   0  0  0  0  0  0  0  0  0  0  0  0
    7.8780    0.7870  -55.6780 N   0  0  0  0  0  0  0  0  0  0  0  0
    7.1750    0.1450  -54.5770 C   0  0  0  0  0  0  0  0  0  0  0  0
    6.6520   -1.2330  -55.0230 C   0  0  0  0  0  0  0  0  0  0  0  0
    6.5560   -2.2120  -53.8600 C   0  0  0  0  0  0  0  0  0  0  0  0
    7.9220   -2.4570  -53.2160 C   0  0  0  0  0  0  0  0  0  0  0  0
    8.8540   -1.2460  -53.2820 C   0  0  0  0  0  0  0  0  0  0  0  0
    8.0770    0.0640  -53.3330 C   0  0  0  0  0  0  0  0  0  0  0  0
    7.8050    1.9390  -58.8980 N   0  0  0  0  0  0  0  0  0  0  0  0
    8.7810    2.5170  -59.6090 N   0  0  0  0  0  0  0  0  0  0  0  0
    8.7400    2.4020  -61.0490 C   0  0  0  0  0  0  0  0  0  0  0  0
    9.7220    3.1620  -58.8420 C   0  0  0  0  0  0  0  0  0  0  0  0
   10.8900    3.9020  -59.4480 C   0  0  0  0  0  0  0  0  0  0  0  0
   12.2170    3.4810  -58.7980 C   0  0  0  0  0  0  0  0  0  0  0  0
   13.4030    4.2210  -59.4140 C   0  0  0  0  0  0  0  0  0  0  0  0
   13.2090    5.7340  -59.3720 C   0  0  0  0  0  0  0  0  0  0  0  0
   11.8960    6.1520  -60.0260 C   0  0  0  0  0  0  0  0  0  0  0  0
   10.7030    5.4280  -59.4040 C   0  0  0  0  0  0  0  0  0  0  0  0
    9.4539    2.9924  -55.4055 H   0  0  0  0  0  0  0  0  0  0  0  0
   11.0361    2.8707  -56.2472 H   0  0  0  0  0  0  0  0  0  0  0  0
   10.1360    4.4252  -56.2472 H   0  0  0  0  0  0  0  0  0  0  0  0
    8.8510    0.5670  -55.8420 H   0  0  0  0  0  0  0  0  0  0  0  0
    6.3021    0.7509  -54.2927 H   0  0  0  0  0  0  0  0  0  0  0  0
    5.6524   -1.1073  -55.4645 H   0  0  0  0  0  0  0  0  0  0  0  0
    7.3622   -1.6447  -55.7552 H   0  0  0  0  0  0  0  0  0  0  0  0
    5.8728   -1.8005  -53.1024 H   0  0  0  0  0  0  0  0  0  0  0  0
    6.1813   -3.1709  -54.2474 H   0  0  0  0  0  0  0  0  0  0  0  0
    7.7666   -2.7195  -52.1591 H   0  0  0  0  0  0  0  0  0  0  0  0
    8.4050   -3.2680  -53.7808 H   0  0  0  0  0  0  0  0  0  0  0  0
    9.4982   -1.2434  -52.3903 H   0  0  0  0  0  0  0  0  0  0  0  0
    9.4523   -1.3247  -54.2017 H   0  0  0  0  0  0  0  0  0  0  0  0
    7.4497    0.1413  -52.4327 H   0  0  0  0  0  0  0  0  0  0  0  0
    8.8019    0.8899  -53.3817 H   0  0  0  0  0  0  0  0  0  0  0  0
    8.3826    1.3995  -61.3267 H   0  0  0  0  0  0  0  0  0  0  0  0
    8.0571    3.1611  -61.4582 H   0  0  0  0  0  0  0  0  0  0  0  0
    9.7491    2.5579  -61.4582 H   0  0  0  0  0  0  0  0  0  0  0  0
   10.9293    3.6182  -60.5100 H   0  0  0  0  0  0  0  0  0  0  0  0
   12.1751    3.7063  -57.7221 H   0  0  0  0  0  0  0  0  0  0  0  0
   12.3573    2.4033  -58.9678 H   0  0  0  0  0  0  0  0  0  0  0  0
   14.3139    3.9629  -58.8539 H   0  0  0  0  0  0  0  0  0  0  0  0
   13.4875    3.9157  -60.4674 H   0  0  0  0  0  0  0  0  0  0  0  0
   13.2057    6.0641  -58.3227 H   0  0  0  0  0  0  0  0  0  0  0  0
   14.0341    6.2014  -59.9293 H   0  0  0  0  0  0  0  0  0  0  0  0
   11.7623    7.2363  -59.8974 H   0  0  0  0  0  0  0  0  0  0  0  0
   11.9425    5.8859  -61.0923 H   0  0  0  0  0  0  0  0  0  0  0  0
   10.5975    5.7459  -58.3562 H   0  0  0  0  0  0  0  0  0  0  0  0
    9.8023    5.6840  -59.9812 H   0  0  0  0  0  0  0  0  0  0  0  0
  1  2  1  0
  2  3  1  0
  3  4  1  0
  4  5  2  0
  4  6  1  0
  6  7  1  0
  7  8  1  0
  8  9  1  0
  9 10  1  0
 10 11  1  0
 11 12  1  0
  3 13  2  0
 13 14  1  0
 14 15  1  0
 14 16  1  0
 16 17  1  0
 17 18  1  0
 18 19  1  0
 19 20  1  0
 20 21  1  0
 21 22  1  0
 16  2  2  0
 22 17  1  0
 12  7  1  0
  1 23  1  0
  1 24  1  0
  1 25  1  0
  6 26  1  0
  7 27  1  0
  8 28  1  0
  8 29  1  0
  9 30  1  0
  9 31  1  0
 10 32  1  0
 10 33  1  0
 11 34  1  0
 11 35  1  0
 12 36  1  0
 12 37  1  0
 15 38  1  0
 15 39  1  0
 15 40  1  0
 17 41  1  0
 18 42  1  0
 18 43  1  0
 19 44  1  0
 19 45  1  0
 20 46  1  0
 20 47  1  0
 21 48  1  0
 21 49  1  0
 22 50  1  0
 22 51  1  0
M  END
>  <meeko>  (54) 
{"is_sidechain": false}

$$$$

     RDKit          3D

 49 52  0  0  0  0  0  0  0  0999 V2000
    6.3010    0.2750  -53.4900 C   0  0  0  0  0  0  0  0  0  0  0  0
    7.6470   -0.2040  -53.9000 C   0  0  0  0  0  0  0  0  0  0  0  0
    8.4440    0.2570  -54.9980 C   0  0  0  0  0  0  0  0  0  0  0  0
    8.1020    1.2720  -56.0170 C   0  0  0  0  0  0  0  0  0  0  0  0
    6.9500    1.6230  -56.2500 O   0  0  0  0  0  0  0  0  0  0  0  0
    9.2100    1.7990  -56.6620 N   0  0  0  0  0  0  0  0  0  0  0  0
    9.1750    2.8720  -57.6640 C   0  0  1  0  0  0  0  0  0  0  0  0
    8.8560    4.2500  -57.0270 C   0  0  0  0  0  0  0  0  0  0  0  0
    8.8210    5.3530  -58.1000 C   0  0  2  0  0  0  0  0  0  0  0  0
    7.7360    5.0160  -59.1360 C   0  0  0  0  0  0  0  0  0  0  0  0
    8.0530    3.6710  -59.8110 C   0  0  1  0  0  0  0  0  0  0  0  0
    9.4200    3.7580  -60.5040 C   0  0  0  0  0  0  0  0  0  0  0  0
   10.5120    4.0840  -59.4700 C   0  0  1  0  0  0  0  0  0  0  0  0
   10.1800    5.4340  -58.8100 C   0  0  0  0  0  0  0  0  0  0  0  0
   10.5580    2.9510  -58.4090 C   0  0  1  0  0  0  0  0  0  0  0  0
   11.7780    3.1240  -57.4880 C   0  0  0  0  0  0  0  0  0  0  0  0
    8.0940    2.5680  -58.7420 C   0  0  0  0  0  0  0  0  0  0  0  0
    9.6260   -0.3820  -55.0290 N   0  0  0  0  0  0  0  0  0  0  0  0
    9.5930   -1.2180  -53.9830 N   0  0  0  0  0  0  0  0  0  0  0  0
   10.7450   -2.0480  -53.7160 C   0  0  0  0  0  0  0  0  0  0  0  0
    8.4160   -1.1790  -53.2840 C   0  0  0  0  0  0  0  0  0  0  0  0
    8.1470   -2.0390  -52.1030 C   0  0  0  0  0  0  0  0  0  0  0  0
    6.2385    0.2972  -52.3920 H   0  0  0  0  0  0  0  0  0  0  0  0
    6.1353    1.2873  -53.8873 H   0  0  0  0  0  0  0  0  0  0  0  0
    5.5331   -0.4050  -53.8873 H   0  0  0  0  0  0  0  0  0  0  0  0
   10.0960    1.5800  -56.2310 H   0  0  0  0  0  0  0  0  0  0  0  0
    7.8761    4.1993  -56.5298 H   0  0  0  0  0  0  0  0  0  0  0  0
    9.6432    4.4922  -56.2978 H   0  0  0  0  0  0  0  0  0  0  0  0
    8.6001    6.3179  -57.6202 H   0  0  0  0  0  0  0  0  0  0  0  0
    6.7600    4.9501  -58.6330 H   0  0  0  0  0  0  0  0  0  0  0  0
    7.7090    5.8063  -59.9007 H   0  0  0  0  0  0  0  0  0  0  0  0
    7.2777    3.4383  -60.5559 H   0  0  0  0  0  0  0  0  0  0  0  0
    9.6478    2.7945  -60.9835 H   0  0  0  0  0  0  0  0  0  0  0  0
    9.3911    4.5536  -61.2630 H   0  0  0  0  0  0  0  0  0  0  0  0
   11.4972    4.1546  -59.9541 H   0  0  0  0  0  0  0  0  0  0  0  0
   10.9603    5.6817  -58.0753 H   0  0  0  0  0  0  0  0  0  0  0  0
   10.1358    6.2131  -59.5853 H   0  0  0  0  0  0  0  0  0  0  0  0
   10.7012    1.9722  -58.8900 H   0  0  0  0  0  0  0  0  0  0  0  0
   11.4540    3.0781  -56.4378 H   0  0  0  0  0  0  0  0  0  0  0  0
   12.5023    2.3196  -57.6838 H   0  0  0  0  0  0  0  0  0  0  0  0
   12.2501    4.0981  -57.6838 H   0  0  0  0  0  0  0  0  0  0  0  0
    7.1097    2.5027  -58.2553 H   0  0  0  0  0  0  0  0  0  0  0  0
    8.3471    1.6161  -59.2318 H   0  0  0  0  0  0  0  0  0  0  0  0
   10.8819   -2.1466  -52.6290 H   0  0  0  0  0  0  0  0  0  0  0  0
   10.5901   -3.0434  -54.1578 H   0  0  0  0  0  0  0  0  0  0  0  0
   11.6401   -1.5860  -54.1578 H   0  0  0  0  0  0  0  0  0  0  0  0
    8.3267   -1.4644  -51.1824 H   0  0  0  0  0  0  0  0  0  0  0  0
    7.1003   -2.3766  -52.1260 H   0  0  0  0  0  0  0  0  0  0  0  0
    8.8147   -2.9129  -52.1260 H   0  0  0  0  0  0  0  0  0  0  0  0
  1  2  1  0
  2  3  1  0
  3  4  1  0
  4  5  2  0
  4  6  1  0
  7  6  1  1
  7  8  1  0
  8  9  1  0
  9 10  1  0
 10 11  1  0
 11 12  1  0
 12 13  1  0
 13 14  1  0
 13 15  1  0
 15 16  1  0
 11 17  1  0
  3 18  2  0
 18 19  1  0
 19 20  1  0
 19 21  1  0
 21 22  1  0
 21  2  2  0
 15  7  1  0
 17  7  1  0
 14  9  1  0
  1 23  1  0
  1 24  1  0
  1 25  1  0
  6 26  1  0
  8 27  1  0
  8 28  1  0
  9 29  1  1
 10 30  1  0
 10 31  1  0
 11 32  1  6
 12 33  1  0
 12 34  1  0
 13 35  1  6
 14 36  1  0
 14 37  1  0
 15 38  1  6
 16 39  1  0
 16 40  1  0
 16 41  1  0
 17 42  1  0
 17 43  1  0
 20 44  1  0
 20 45  1  0
 20 46  1  0
 22 47  1  0
 22 48  1  0
 22 49  1  0
M  END
>  <meeko>  (55) 
{"is_sidechain": false}

$$$$

     RDKit          3D

 53 57  0  0  0  0  0  0  0  0999 V2000
    6.1930   -0.4320  -53.7270 C   0  0  0  0  0  0  0  0  0  0  0  0
    7.6230   -0.7010  -54.0180 C   0  0  0  0  0  0  0  0  0  0  0  0
    8.4530   -0.0030  -54.9520 C   0  0  0  0  0  0  0  0  0  0  0  0
    8.0860    1.1390  -55.8150 C   0  0  0  0  0  0  0  0  0  0  0  0
    6.9310    1.5240  -55.9610 O   0  0  0  0  0  0  0  0  0  0  0  0
    9.1830    1.7010  -56.4360 N   0  0  0  0  0  0  0  0  0  0  0  0
    9.1650    2.7460  -57.4580 C   0  0  1  0  0  0  0  0  0  0  0  0
    8.8880    4.1500  -56.8560 C   0  0  0  0  0  0  0  0  0  0  0  0
    8.8760    5.2240  -57.9580 C   0  0  2  0  0  0  0  0  0  0  0  0
    7.7730    4.8880  -58.9770 C   0  0  0  0  0  0  0  0  0  0  0  0
    8.0470    3.5150  -59.6130 C   0  0  1  0  0  0  0  0  0  0  0  0
    9.4120    3.5430  -60.3150 C   0  0  0  0  0  0  0  0  0  0  0  0
   10.5230    3.8700  -59.3000 C   0  0  1  0  0  0  0  0  0  0  0  0
   10.2310    5.2480  -58.6790 C   0  0  0  0  0  0  0  0  0  0  0  0
   10.5420    2.7690  -58.2080 C   0  0  1  0  0  0  0  0  0  0  0  0
   11.7610    2.9240  -57.2850 C   0  0  0  0  0  0  0  0  0  0  0  0
    8.0630    2.4430  -58.5110 C   0  0  0  0  0  0  0  0  0  0  0  0
    9.6990   -0.5250  -54.9870 N   0  0  0  0  0  0  0  0  0  0  0  0
    9.6610   -1.5290  -54.0930 N   0  0  0  0  0  0  0  0  0  0  0  0
   10.8380   -2.3380  -53.8910 C   0  0  0  0  0  0  0  0  0  0  0  0
    8.4570   -1.6490  -53.4630 C   0  0  0  0  0  0  0  0  0  0  0  0
    8.0800   -2.6840  -52.3690 C   0  0  0  0  0  0  0  0  0  0  0  0
    9.0470   -2.9520  -51.2440 C   0  0  0  0  0  0  0  0  0  0  0  0
    7.7800   -2.1990  -50.9750 C   0  0  0  0  0  0  0  0  0  0  0  0
    6.0395   -0.4031  -52.6381 H   0  0  0  0  0  0  0  0  0  0  0  0
    5.9058    0.5359  -54.1636 H   0  0  0  0  0  0  0  0  0  0  0  0
    5.5737   -1.2294  -54.1636 H   0  0  0  0  0  0  0  0  0  0  0  0
   10.0370    1.1710  -56.2730 H   0  0  0  0  0  0  0  0  0  0  0  0
    7.9105    4.1398  -56.3517 H   0  0  0  0  0  0  0  0  0  0  0  0
    9.6864    4.3899  -56.1384 H   0  0  0  0  0  0  0  0  0  0  0  0
    8.6863    6.2078  -57.5039 H   0  0  0  0  0  0  0  0  0  0  0  0
    6.7992    4.8652  -58.4659 H   0  0  0  0  0  0  0  0  0  0  0  0
    7.7623    5.6558  -59.7647 H   0  0  0  0  0  0  0  0  0  0  0  0
    7.2610    3.2820  -60.3464 H   0  0  0  0  0  0  0  0  0  0  0  0
    9.6093    2.5593  -60.7660 H   0  0  0  0  0  0  0  0  0  0  0  0
    9.3990    4.3173  -61.0962 H   0  0  0  0  0  0  0  0  0  0  0  0
   11.5069    3.8997  -59.7909 H   0  0  0  0  0  0  0  0  0  0  0  0
   11.0229    5.4973  -57.9574 H   0  0  0  0  0  0  0  0  0  0  0  0
   10.2012    6.0042  -59.4773 H   0  0  0  0  0  0  0  0  0  0  0  0
   10.6627    1.7797  -58.6736 H   0  0  0  0  0  0  0  0  0  0  0  0
   11.4339    2.8824  -56.2356 H   0  0  0  0  0  0  0  0  0  0  0  0
   12.4741    2.1093  -57.4794 H   0  0  0  0  0  0  0  0  0  0  0  0
   12.2475    3.8912  -57.4794 H   0  0  0  0  0  0  0  0  0  0  0  0
    7.0830    2.4252  -58.0117 H   0  0  0  0  0  0  0  0  0  0  0  0
    8.2769    1.4678  -58.9727 H   0  0  0  0  0  0  0  0  0  0  0  0
   11.0175   -2.4614  -52.8128 H   0  0  0  0  0  0  0  0  0  0  0  0
   10.6883   -3.3249  -54.3531 H   0  0  0  0  0  0  0  0  0  0  0  0
   11.7058   -1.8446  -54.3531 H   0  0  0  0  0  0  0  0  0  0  0  0
    7.5552   -3.3051  -53.1098 H   0  0  0  0  0  0  0  0  0  0  0  0
    9.1712   -3.9745  -50.8579 H   0  0  0  0  0  0  0  0  0  0  0  0
   10.1167   -2.7581  -51.0761 H   0  0  0  0  0  0  0  0  0  0  0  0
    6.9750   -2.6691  -50.3911 H   0  0  0  0  0  0  0  0  0  0  0  0
    7.5363   -1.2240  -50.5278 H   0  0  0  0  0  0  0  0  0  0  0  0
  1  2  1  0
  2  3  1  0
  3  4  1  0
  4  5  2  0
  4  6  1  0
  7  6  1  1
  7  8  1  0
  8  9  1  0
  9 10  1  0
 10 11  1  0
 11 12  1  0
 12 13  1  0
 13 14  1  0
 13 15  1  0
 15 16  1  0
 11 17  1  0
  3 18  2  0
 18 19  1  0
 19 20  1  0
 19 21  1  0
 21 22  1  0
 22 23  1  0
 23 24  1  0
 21  2  2  0
 24 22  1  0
 15  7  1  0
 17  7  1  0
 14  9  1  0
  1 25  1  0
  1 26  1  0
  1 27  1  0
  6 28  1  0
  8 29  1  0
  8 30  1  0
  9 31  1  1
 10 32  1  0
 10 33  1  0
 11 34  1  6
 12 35  1  0
 12 36  1  0
 13 37  1  6
 14 38  1  0
 14 39  1  0
 15 40  1  6
 16 41  1  0
 16 42  1  0
 16 43  1  0
 17 44  1  0
 17 45  1  0
 20 46  1  0
 20 47  1  0
 20 48  1  0
 22 49  1  0
 23 50  1  0
 23 51  1  0
 24 52  1  0
 24 53  1  0
M  END
>  <meeko>  (56) 
{"is_sidechain": false}

$$$$

     RDKit          3D

 48 50  0  0  0  0  0  0  0  0999 V2000
    9.6020    3.9010  -56.4440 C   0  0  0  0  0  0  0  0  0  0  0  0
    9.0920    3.1780  -57.6390 C   0  0  0  0  0  0  0  0  0  0  0  0
    7.9590    2.3130  -57.6710 C   0  0  0  0  0  0  0  0  0  0  0  0
    7.0650    1.9370  -56.5580 C   0  0  0  0  0  0  0  0  0  0  0  0
    5.9300    2.3830  -56.4170 O   0  0  0  0  0  0  0  0  0  0  0  0
    7.6360    1.0200  -55.6990 N   0  0  0  0  0  0  0  0  0  0  0  0
    6.8880    0.3560  -54.6530 C   0  0  0  0  0  0  0  0  0  0  0  0
    6.7590   -1.1430  -54.9110 C   0  0  0  0  0  0  0  0  0  0  0  0
    8.0910   -1.7250  -54.4450 C   0  0  0  0  0  0  0  0  0  0  0  0
    8.6280   -0.7580  -53.3900 C   0  0  0  0  0  0  0  0  0  0  0  0
    7.6320    0.3980  -53.3230 C   0  0  0  0  0  0  0  0  0  0  0  0
    7.7560    1.8330  -58.9120 N   0  0  0  0  0  0  0  0  0  0  0  0
    8.7380    2.3760  -59.6550 N   0  0  0  0  0  0  0  0  0  0  0  0
    8.7610    2.0340  -61.0590 C   0  0  0  0  0  0  0  0  0  0  0  0
    9.5970    3.1740  -58.9370 C   0  0  0  0  0  0  0  0  0  0  0  0
   10.8150    3.8920  -59.4750 C   0  0  0  0  0  0  0  0  0  0  0  0
   12.1000    3.4850  -58.7390 C   0  0  0  0  0  0  0  0  0  0  0  0
   13.3280    4.1610  -59.3490 C   0  0  0  0  0  0  0  0  0  0  0  0
   13.1640    5.6760  -59.4270 C   0  0  0  0  0  0  0  0  0  0  0  0
   11.8920    6.0670  -60.1770 C   0  0  0  0  0  0  0  0  0  0  0  0
   10.6550    5.4170  -59.5590 C   0  0  0  0  0  0  0  0  0  0  0  0
    9.2473    3.3982  -55.5322 H   0  0  0  0  0  0  0  0  0  0  0  0
   10.7019    3.9021  -56.4579 H   0  0  0  0  0  0  0  0  0  0  0  0
    9.2341    4.9375  -56.4579 H   0  0  0  0  0  0  0  0  0  0  0  0
    8.5320    0.6580  -56.0180 H   0  0  0  0  0  0  0  0  0  0  0  0
    5.9197    0.8775  -54.6326 H   0  0  0  0  0  0  0  0  0  0  0  0
    5.9252   -1.5671  -54.3323 H   0  0  0  0  0  0  0  0  0  0  0  0
    6.5489   -1.3700  -55.9666 H   0  0  0  0  0  0  0  0  0  0  0  0
    7.9398   -2.7227  -54.0071 H   0  0  0  0  0  0  0  0  0  0  0  0
    8.7954   -1.8393  -55.2821 H   0  0  0  0  0  0  0  0  0  0  0  0
    8.6963   -1.2592  -52.4132 H   0  0  0  0  0  0  0  0  0  0  0  0
    9.6364   -0.4029  -53.6489 H   0  0  0  0  0  0  0  0  0  0  0  0
    6.9335    0.2583  -52.4848 H   0  0  0  0  0  0  0  0  0  0  0  0
    8.1313    1.3644  -53.1594 H   0  0  0  0  0  0  0  0  0  0  0  0
    8.8344    0.9420  -61.1692 H   0  0  0  0  0  0  0  0  0  0  0  0
    7.8369    2.3896  -61.5382 H   0  0  0  0  0  0  0  0  0  0  0  0
    9.6292    2.5101  -61.5382 H   0  0  0  0  0  0  0  0  0  0  0  0
   10.9120    3.5535  -60.5171 H   0  0  0  0  0  0  0  0  0  0  0  0
   12.0165    3.7799  -57.6826 H   0  0  0  0  0  0  0  0  0  0  0  0
   12.2222    2.3957  -58.8307 H   0  0  0  0  0  0  0  0  0  0  0  0
   14.2062    3.9299  -58.7282 H   0  0  0  0  0  0  0  0  0  0  0  0
   13.4541    3.7787  -60.3727 H   0  0  0  0  0  0  0  0  0  0  0  0
   13.1155    6.0827  -58.4061 H   0  0  0  0  0  0  0  0  0  0  0  0
   14.0254    6.0872  -59.9737 H   0  0  0  0  0  0  0  0  0  0  0  0
   11.7773    7.1604  -60.1403 H   0  0  0  0  0  0  0  0  0  0  0  0
   11.9828    5.7173  -61.2160 H   0  0  0  0  0  0  0  0  0  0  0  0
   10.5063    5.8189  -58.5459 H   0  0  0  0  0  0  0  0  0  0  0  0
    9.7869    5.6425  -60.1959 H   0  0  0  0  0  0  0  0  0  0  0  0
  1  2  1  0
  2  3  1  0
  3  4  1  0
  4  5  2  0
  4  6  1  0
  6  7  1  0
  7  8  1  0
  8  9  1  0
  9 10  1  0
 10 11  1  0
  3 12  2  0
 12 13  1  0
 13 14  1  0
 13 15  1  0
 15 16  1  0
 16 17  1  0
 17 18  1  0
 18 19  1  0
 19 20  1  0
 20 21  1  0
 15  2  2  0
 21 16  1  0
 11  7  1  0
  1 22  1  0
  1 23  1  0
  1 24  1  0
  6 25  1  0
  7 26  1  0
  8 27  1  0
  8 28  1  0
  9 29  1  0
  9 30  1  0
 10 31  1  0
 10 32  1  0
 11 33  1  0
 11 34  1  0
 14 35  1  0
 14 36  1  0
 14 37  1  0
 16 38  1  0
 17 39  1  0
 17 40  1  0
 18 41  1  0
 18 42  1  0
 19 43  1  0
 19 44  1  0
 20 45  1  0
 20 46  1  0
 21 47  1  0
 21 48  1  0
M  END
>  <meeko>  (57) 
{"is_sidechain": false}

$$$$

     RDKit          3D

 54 56  0  0  0  0  0  0  0  0999 V2000
    6.3060   -0.6710  -53.8800 C   0  0  0  0  0  0  0  0  0  0  0  0
    7.7650   -0.8660  -54.0880 C   0  0  0  0  0  0  0  0  0  0  0  0
    8.5900   -0.1260  -54.9850 C   0  0  0  0  0  0  0  0  0  0  0  0
    8.2020    0.9890  -55.8730 C   0  0  0  0  0  0  0  0  0  0  0  0
    7.0550    1.4120  -55.9690 O   0  0  0  0  0  0  0  0  0  0  0  0
    9.2720    1.5150  -56.5680 N   0  0  0  0  0  0  0  0  0  0  0  0
    9.1920    2.7400  -57.3500 C   0  0  0  0  0  0  0  0  0  0  0  0
    9.5640    3.9450  -56.4710 C   0  0  0  0  0  0  0  0  0  0  0  0
    9.5100    5.2710  -57.2240 C   0  0  0  0  0  0  0  0  0  0  0  0
   10.3690    5.3390  -58.4830 C   0  0  0  0  0  0  0  0  0  0  0  0
    9.7490    4.8200  -59.7760 C   0  0  0  0  0  0  0  0  0  0  0  0
    9.5520    3.3040  -59.8510 C   0  0  0  0  0  0  0  0  0  0  0  0
   10.0590    2.5800  -58.6040 C   0  0  0  0  0  0  0  0  0  0  0  0
    9.8650   -0.5590  -54.9350 N   0  0  0  0  0  0  0  0  0  0  0  0
    9.8500   -1.5630  -54.0400 N   0  0  0  0  0  0  0  0  0  0  0  0
   11.0980   -2.2460  -53.7940 C   0  0  0  0  0  0  0  0  0  0  0  0
    8.6170   -1.7730  -53.4650 C   0  0  0  0  0  0  0  0  0  0  0  0
    8.3040   -2.7920  -52.3970 C   0  0  0  0  0  0  0  0  0  0  0  0
    8.1630   -2.1520  -51.0030 C   0  0  0  0  0  0  0  0  0  0  0  0
    7.2470   -2.9430  -50.0690 C   0  0  0  0  0  0  0  0  0  0  0  0
    7.3670   -4.4440  -50.2990 C   0  0  0  0  0  0  0  0  0  0  0  0
    6.9800   -4.8450  -51.7250 C   0  0  0  0  0  0  0  0  0  0  0  0
    7.1240   -3.7090  -52.7430 C   0  0  0  0  0  0  0  0  0  0  0  0
    6.0900   -0.6421  -52.8018 H   0  0  0  0  0  0  0  0  0  0  0  0
    5.9932    0.2769  -54.3421 H   0  0  0  0  0  0  0  0  0  0  0  0
    5.7552   -1.5035  -54.3421 H   0  0  0  0  0  0  0  0  0  0  0  0
   10.1730    1.1420  -56.2790 H   0  0  0  0  0  0  0  0  0  0  0  0
    8.1659    2.9329  -57.6962 H   0  0  0  0  0  0  0  0  0  0  0  0
    8.8614    3.9928  -55.6260 H   0  0  0  0  0  0  0  0  0  0  0  0
   10.6011    3.7994  -56.1346 H   0  0  0  0  0  0  0  0  0  0  0  0
    8.4652    5.4549  -57.5147 H   0  0  0  0  0  0  0  0  0  0  0  0
    9.9151    6.0286  -56.5370 H   0  0  0  0  0  0  0  0  0  0  0  0
   10.6376    6.3934  -58.6443 H   0  0  0  0  0  0  0  0  0  0  0  0
   11.2177    4.6678  -58.2850 H   0  0  0  0  0  0  0  0  0  0  0  0
    8.7643    5.2958  -59.8944 H   0  0  0  0  0  0  0  0  0  0  0  0
   10.4623    5.0714  -60.5747 H   0  0  0  0  0  0  0  0  0  0  0  0
    8.4785    3.0941  -59.9675 H   0  0  0  0  0  0  0  0  0  0  0  0
   10.1344    2.9357  -60.7084 H   0  0  0  0  0  0  0  0  0  0  0  0
   10.1226    1.5069  -58.8374 H   0  0  0  0  0  0  0  0  0  0  0  0
   11.0287    3.0391  -58.3614 H   0  0  0  0  0  0  0  0  0  0  0  0
   11.2599   -2.3346  -52.7096 H   0  0  0  0  0  0  0  0  0  0  0  0
   11.0613   -3.2497  -54.2425 H   0  0  0  0  0  0  0  0  0  0  0  0
   11.9236   -1.6740  -54.2425 H   0  0  0  0  0  0  0  0  0  0  0  0
    9.1816   -3.4541  -52.3589 H   0  0  0  0  0  0  0  0  0  0  0  0
    9.1608   -2.0893  -50.5442 H   0  0  0  0  0  0  0  0  0  0  0  0
    7.7103   -1.1592  -51.1425 H   0  0  0  0  0  0  0  0  0  0  0  0
    7.5210   -2.7191  -49.0275 H   0  0  0  0  0  0  0  0  0  0  0  0
    6.2081   -2.6467  -50.2762 H   0  0  0  0  0  0  0  0  0  0  0  0
    8.4082   -4.7480  -50.1161 H   0  0  0  0  0  0  0  0  0  0  0  0
    6.6748   -4.9472  -49.6078 H   0  0  0  0  0  0  0  0  0  0  0  0
    7.6264   -5.6776  -52.0395 H   0  0  0  0  0  0  0  0  0  0  0  0
    5.9166   -5.1255  -51.7035 H   0  0  0  0  0  0  0  0  0  0  0  0
    7.2879   -4.1417  -53.7410 H   0  0  0  0  0  0  0  0  0  0  0  0
    6.2025   -3.1087  -52.7237 H   0  0  0  0  0  0  0  0  0  0  0  0
  1  2  1  0
  2  3  1  0
  3  4  1  0
  4  5  2  0
  4  6  1  0
  6  7  1  0
  7  8  1  0
  8  9  1  0
  9 10  1  0
 10 11  1  0
 11 12  1  0
 12 13  1  0
  3 14  2  0
 14 15  1  0
 15 16  1  0
 15 17  1  0
 17 18  1  0
 18 19  1  0
 19 20  1  0
 20 21  1  0
 21 22  1  0
 22 23  1  0
 17  2  2  0
 23 18  1  0
 13  7  1  0
  1 24  1  0
  1 25  1  0
  1 26  1  0
  6 27  1  0
  7 28  1  0
  8 29  1  0
  8 30  1  0
  9 31  1  0
  9 32  1  0
 10 33  1  0
 10 34  1  0
 11 35  1  0
 11 36  1  0
 12 37  1  0
 12 38  1  0
 13 39  1  0
 13 40  1  0
 16 41  1  0
 16 42  1  0
 16 43  1  0
 18 44  1  0
 19 45  1  0
 19 46  1  0
 20 47  1  0
 20 48  1  0
 21 49  1  0
 21 50  1  0
 22 51  1  0
 22 52  1  0
 23 53  1  0
 23 54  1  0
M  END
>  <meeko>  (58) 
{"is_sidechain": false}

$$$$

     RDKit          3D

 47 48  0  0  0  0  0  0  0  0999 V2000
    6.8910    0.0170  -53.5040 C   0  0  0  0  0  0  0  0  0  0  0  0
    8.1880   -0.5800  -53.9210 C   0  0  0  0  0  0  0  0  0  0  0  0
    9.0460   -0.0840  -54.9460 C   0  0  0  0  0  0  0  0  0  0  0  0
    8.8440    1.0930  -55.8170 C   0  0  0  0  0  0  0  0  0  0  0  0
    7.7360    1.5260  -56.1150 O   0  0  0  0  0  0  0  0  0  0  0  0
   10.0340    1.6380  -56.2500 N   0  0  0  0  0  0  0  0  0  0  0  0
   10.1900    2.7870  -57.1410 C   0  0  0  0  0  0  0  0  0  0  0  0
   11.6900    2.9590  -57.4410 C   0  0  0  0  0  0  0  0  0  0  0  0
    9.6770    4.0720  -56.4740 C   0  0  0  0  0  0  0  0  0  0  0  0
    9.4510    2.5520  -58.4680 C   0  0  0  0  0  0  0  0  0  0  0  0
   10.1470   -0.8510  -55.0640 N   0  0  0  0  0  0  0  0  0  0  0  0
    9.9970   -1.8090  -54.1320 N   0  0  0  0  0  0  0  0  0  0  0  0
   11.0570   -2.7850  -54.0130 C   0  0  0  0  0  0  0  0  0  0  0  0
    8.8170   -1.7190  -53.4300 C   0  0  0  0  0  0  0  0  0  0  0  0
    8.3560   -2.6740  -52.3570 C   0  0  0  0  0  0  0  0  0  0  0  0
    7.3250   -3.6900  -52.8820 C   0  0  0  0  0  0  0  0  0  0  0  0
    6.3770   -4.2010  -51.7950 C   0  0  0  0  0  0  0  0  0  0  0  0
    7.0820   -4.3350  -50.4510 C   0  0  0  0  0  0  0  0  0  0  0  0
    7.6340   -2.9980  -49.9500 C   0  0  0  0  0  0  0  0  0  0  0  0
    7.8960   -1.9840  -51.0670 C   0  0  0  0  0  0  0  0  0  0  0  0
    6.8354    0.0426  -52.4057 H   0  0  0  0  0  0  0  0  0  0  0  0
    6.8148    1.0408  -53.8990 H   0  0  0  0  0  0  0  0  0  0  0  0
    6.0637   -0.5909  -53.8990 H   0  0  0  0  0  0  0  0  0  0  0  0
   10.8540    1.1320  -55.9190 H   0  0  0  0  0  0  0  0  0  0  0  0
   12.2481    3.0230  -56.4953 H   0  0  0  0  0  0  0  0  0  0  0  0
   12.0492    2.0962  -58.0211 H   0  0  0  0  0  0  0  0  0  0  0  0
   11.8446    3.8808  -58.0211 H   0  0  0  0  0  0  0  0  0  0  0  0
    9.7215    3.9605  -55.3806 H   0  0  0  0  0  0  0  0  0  0  0  0
   10.3052    4.9209  -56.7819 H   0  0  0  0  0  0  0  0  0  0  0  0
    8.6369    4.2549  -56.7819 H   0  0  0  0  0  0  0  0  0  0  0  0
    8.4214    2.2246  -58.2613 H   0  0  0  0  0  0  0  0  0  0  0  0
    9.4292    3.4875  -59.0462 H   0  0  0  0  0  0  0  0  0  0  0  0
    9.9735    1.7757  -59.0462 H   0  0  0  0  0  0  0  0  0  0  0  0
   11.2630   -2.9747  -52.9492 H   0  0  0  0  0  0  0  0  0  0  0  0
   10.7489   -3.7222  -54.4996 H   0  0  0  0  0  0  0  0  0  0  0  0
   11.9656   -2.4007  -54.4996 H   0  0  0  0  0  0  0  0  0  0  0  0
    9.2520   -3.2450  -52.0722 H   0  0  0  0  0  0  0  0  0  0  0  0
    6.7271   -3.2069  -53.6689 H   0  0  0  0  0  0  0  0  0  0  0  0
    7.8844   -4.5572  -53.2629 H   0  0  0  0  0  0  0  0  0  0  0  0
    5.5407   -3.4942  -51.6901 H   0  0  0  0  0  0  0  0  0  0  0  0
    6.0164   -5.1962  -52.0942 H   0  0  0  0  0  0  0  0  0  0  0  0
    6.3646   -4.7210  -49.7119 H   0  0  0  0  0  0  0  0  0  0  0  0
    7.9309   -5.0220  -50.5827 H   0  0  0  0  0  0  0  0  0  0  0  0
    6.9067   -2.5626  -49.2490 H   0  0  0  0  0  0  0  0  0  0  0  0
    8.6024   -3.2082  -49.4724 H   0  0  0  0  0  0  0  0  0  0  0  0
    6.9685   -1.4286  -51.2701 H   0  0  0  0  0  0  0  0  0  0  0  0
    8.6951   -1.3047  -50.7355 H   0  0  0  0  0  0  0  0  0  0  0  0
  1  2  1  0
  2  3  1  0
  3  4  1  0
  4  5  2  0
  4  6  1  0
  6  7  1  0
  7  8  1  0
  7  9  1  0
  7 10  1  0
  3 11  2  0
 11 12  1  0
 12 13  1  0
 12 14  1  0
 14 15  1  0
 15 16  1  0
 16 17  1  0
 17 18  1  0
 18 19  1  0
 19 20  1  0
 14  2  2  0
 20 15  1  0
  1 21  1  0
  1 22  1  0
  1 23  1  0
  6 24  1  0
  8 25  1  0
  8 26  1  0
  8 27  1  0
  9 28  1  0
  9 29  1  0
  9 30  1  0
 10 31  1  0
 10 32  1  0
 10 33  1  0
 13 34  1  0
 13 35  1  0
 13 36  1  0
 15 37  1  0
 16 38  1  0
 16 39  1  0
 17 40  1  0
 17 41  1  0
 18 42  1  0
 18 43  1  0
 19 44  1  0
 19 45  1  0
 20 46  1  0
 20 47  1  0
M  END
>  <meeko>  (59) 
{"is_sidechain": false}

$$$$

     RDKit          3D

 48 50  0  0  0  0  0  0  0  0999 V2000
   10.8630    1.2310  -56.5250 C   0  0  0  0  0  0  0  0  0  0  0  0
    9.4250    1.0790  -56.1830 C   0  0  0  0  0  0  0  0  0  0  0  0
    8.8750    0.0890  -55.3120 C   0  0  0  0  0  0  0  0  0  0  0  0
    9.5890   -0.9710  -54.5730 C   0  0  0  0  0  0  0  0  0  0  0  0
    9.6050   -1.0540  -53.3470 O   0  0  0  0  0  0  0  0  0  0  0  0
   10.2470   -1.8530  -55.3970 N   0  0  0  0  0  0  0  0  0  0  0  0
   11.1260   -2.8660  -54.8850 C   0  0  0  0  0  0  0  0  0  0  0  0
   11.5660   -3.8030  -55.9760 C   0  0  0  0  0  0  0  0  0  0  0  0
   11.5170   -3.4080  -57.3200 C   0  0  0  0  0  0  0  0  0  0  0  0
   11.9060   -4.2890  -58.3310 C   0  0  0  0  0  0  0  0  0  0  0  0
   12.3380   -5.5740  -58.0080 C   0  0  0  0  0  0  0  0  0  0  0  0
   12.3780   -5.9820  -56.6770 C   0  0  0  0  0  0  0  0  0  0  0  0
   11.9910   -5.1030  -55.6640 C   0  0  0  0  0  0  0  0  0  0  0  0
    7.5370    0.2140  -55.2200 N   0  0  0  0  0  0  0  0  0  0  0  0
    7.2420    1.2660  -56.0010 N   0  0  0  0  0  0  0  0  0  0  0  0
    5.8590    1.6720  -56.1160 C   0  0  0  0  0  0  0  0  0  0  0  0
    8.3370    1.8360  -56.6060 C   0  0  0  0  0  0  0  0  0  0  0  0
    8.2390    3.0370  -57.5150 C   0  0  0  0  0  0  0  0  0  0  0  0
    9.0250    4.2330  -56.9640 C   0  0  0  0  0  0  0  0  0  0  0  0
    8.8160    5.4900  -57.8150 C   0  0  0  0  0  0  0  0  0  0  0  0
    8.6000    5.1980  -59.3010 C   0  0  0  0  0  0  0  0  0  0  0  0
    9.2370    3.8810  -59.7240 C   0  0  0  0  0  0  0  0  0  0  0  0
    8.6410    2.6940  -58.9630 C   0  0  0  0  0  0  0  0  0  0  0  0
   11.4552    1.2936  -55.6001 H   0  0  0  0  0  0  0  0  0  0  0  0
   11.1936    0.3628  -57.1140 H   0  0  0  0  0  0  0  0  0  0  0  0
   11.0047    2.1491  -57.1140 H   0  0  0  0  0  0  0  0  0  0  0  0
   10.2400   -1.6160  -56.3860 H   0  0  0  0  0  0  0  0  0  0  0  0
   12.0122   -2.3843  -54.4461 H   0  0  0  0  0  0  0  0  0  0  0  0
   10.5843   -3.4463  -54.1235 H   0  0  0  0  0  0  0  0  0  0  0  0
   11.1698   -2.3971  -57.5800 H   0  0  0  0  0  0  0  0  0  0  0  0
   11.8715   -3.9687  -59.3828 H   0  0  0  0  0  0  0  0  0  0  0  0
   12.6476   -6.2664  -58.8047 H   0  0  0  0  0  0  0  0  0  0  0  0
   12.7149   -6.9980  -56.4237 H   0  0  0  0  0  0  0  0  0  0  0  0
   12.0195   -5.4317  -54.6147 H   0  0  0  0  0  0  0  0  0  0  0  0
    5.4292    1.7982  -55.1114 H   0  0  0  0  0  0  0  0  0  0  0  0
    5.8009    2.6251  -56.6621 H   0  0  0  0  0  0  0  0  0  0  0  0
    5.2949    0.9016  -56.6621 H   0  0  0  0  0  0  0  0  0  0  0  0
    7.1813    3.3377  -57.5429 H   0  0  0  0  0  0  0  0  0  0  0  0
    8.6885    4.4379  -55.9370 H   0  0  0  0  0  0  0  0  0  0  0  0
   10.0950    3.9789  -56.9853 H   0  0  0  0  0  0  0  0  0  0  0  0
    7.9331    6.0243  -57.4342 H   0  0  0  0  0  0  0  0  0  0  0  0
    9.7355    6.0885  -57.7355 H   0  0  0  0  0  0  0  0  0  0  0  0
    7.5192    5.1492  -59.4995 H   0  0  0  0  0  0  0  0  0  0  0  0
    9.0754    6.0051  -59.8776 H   0  0  0  0  0  0  0  0  0  0  0  0
    9.0701    3.7340  -60.8013 H   0  0  0  0  0  0  0  0  0  0  0  0
   10.3117    3.9306  -59.4950 H   0  0  0  0  0  0  0  0  0  0  0  0
    7.7460    2.3483  -59.5011 H   0  0  0  0  0  0  0  0  0  0  0  0
    9.4187    1.9179  -58.9097 H   0  0  0  0  0  0  0  0  0  0  0  0
  1  2  1  0
  2  3  1  0
  3  4  1  0
  4  5  2  0
  4  6  1  0
  6  7  1  0
  7  8  1  0
  8  9  2  0
  9 10  1  0
 10 11  2  0
 11 12  1  0
 12 13  2  0
  3 14  2  0
 14 15  1  0
 15 16  1  0
 15 17  1  0
 17 18  1  0
 18 19  1  0
 19 20  1  0
 20 21  1  0
 21 22  1  0
 22 23  1  0
 17  2  2  0
 23 18  1  0
 13  8  1  0
  1 24  1  0
  1 25  1  0
  1 26  1  0
  6 27  1  0
  7 28  1  0
  7 29  1  0
  9 30  1  0
 10 31  1  0
 11 32  1  0
 12 33  1  0
 13 34  1  0
 16 35  1  0
 16 36  1  0
 16 37  1  0
 18 38  1  0
 19 39  1  0
 19 40  1  0
 20 41  1  0
 20 42  1  0
 21 43  1  0
 21 44  1  0
 22 45  1  0
 22 46  1  0
 23 47  1  0
 23 48  1  0
M  END
>  <meeko>  (60) 
{"is_sidechain": false}

$$$$

     RDKit          3D

 42 44  0  0  0  0  0  0  0  0999 V2000
    9.4390    3.3230  -56.2230 C   0  0  0  0  0  0  0  0  0  0  0  0
    8.9390    2.9530  -57.5740 C   0  0  0  0  0  0  0  0  0  0  0  0
    7.6990    2.2990  -57.8540 C   0  0  0  0  0  0  0  0  0  0  0  0
    6.6620    1.8670  -56.8970 C   0  0  0  0  0  0  0  0  0  0  0  0
    5.5600    2.4000  -56.8030 O   0  0  0  0  0  0  0  0  0  0  0  0
    7.0700    0.7990  -56.1210 N   0  0  0  0  0  0  0  0  0  0  0  0
    6.2600    0.1810  -55.1310 C   0  0  0  0  0  0  0  0  0  0  0  0
    6.6200   -1.1750  -54.5890 C   0  0  0  0  0  0  0  0  0  0  0  0
    6.7500    0.0380  -53.7150 C   0  0  0  0  0  0  0  0  0  0  0  0
    7.5460    2.0980  -59.1770 N   0  0  0  0  0  0  0  0  0  0  0  0
    8.6580    2.6150  -59.7270 N   0  0  0  0  0  0  0  0  0  0  0  0
    8.8080    2.5550  -61.1640 C   0  0  0  0  0  0  0  0  0  0  0  0
    9.5320    3.1550  -58.8150 C   0  0  0  0  0  0  0  0  0  0  0  0
   10.8340    3.8060  -59.2140 C   0  0  0  0  0  0  0  0  0  0  0  0
   10.7040    5.3320  -59.3060 C   0  0  0  0  0  0  0  0  0  0  0  0
   11.9840    5.9800  -59.8410 C   0  0  0  0  0  0  0  0  0  0  0  0
   13.2610    5.2360  -59.4450 C   0  0  0  0  0  0  0  0  0  0  0  0
   13.0850    4.4420  -58.1580 C   0  0  0  0  0  0  0  0  0  0  0  0
   11.9940    3.3780  -58.2930 C   0  0  0  0  0  0  0  0  0  0  0  0
    8.8050    2.8538  -55.4562 H   0  0  0  0  0  0  0  0  0  0  0  0
   10.4751    2.9724  -56.1068 H   0  0  0  0  0  0  0  0  0  0  0  0
    9.4066    4.4164  -56.1068 H   0  0  0  0  0  0  0  0  0  0  0  0
    8.0120    0.4670  -56.3140 H   0  0  0  0  0  0  0  0  0  0  0  0
    5.3702    0.6212  -55.6047 H   0  0  0  0  0  0  0  0  0  0  0  0
    5.8305   -1.9144  -54.3892 H   0  0  0  0  0  0  0  0  0  0  0  0
    7.2975   -1.9826  -54.9032 H   0  0  0  0  0  0  0  0  0  0  0  0
    6.0556    0.1875  -52.8751 H   0  0  0  0  0  0  0  0  0  0  0  0
    7.5618    0.4872  -53.1240 H   0  0  0  0  0  0  0  0  0  0  0  0
    9.8029    2.1570  -61.4125 H   0  0  0  0  0  0  0  0  0  0  0  0
    8.0340    1.8973  -61.5863 H   0  0  0  0  0  0  0  0  0  0  0  0
    8.7012    3.5651  -61.5863 H   0  0  0  0  0  0  0  0  0  0  0  0
   11.0796    3.4461  -60.2240 H   0  0  0  0  0  0  0  0  0  0  0  0
    9.8711    5.5784  -59.9809 H   0  0  0  0  0  0  0  0  0  0  0  0
   10.5207    5.7214  -58.2937 H   0  0  0  0  0  0  0  0  0  0  0  0
   11.9256    6.0098  -60.9390 H   0  0  0  0  0  0  0  0  0  0  0  0
   12.0460    6.9845  -59.3970 H   0  0  0  0  0  0  0  0  0  0  0  0
   13.5336    4.5432  -60.2548 H   0  0  0  0  0  0  0  0  0  0  0  0
   14.0504    5.9834  -59.2769 H   0  0  0  0  0  0  0  0  0  0  0  0
   14.0362    3.9476  -57.9114 H   0  0  0  0  0  0  0  0  0  0  0  0
   12.7855    5.1406  -57.3629 H   0  0  0  0  0  0  0  0  0  0  0  0
   12.4470    2.4639  -58.7043 H   0  0  0  0  0  0  0  0  0  0  0  0
   11.5710    3.2167  -57.2905 H   0  0  0  0  0  0  0  0  0  0  0  0
  1  2  1  0
  2  3  1  0
  3  4  1  0
  4  5  2  0
  4  6  1  0
  6  7  1  0
  7  8  1  0
  8  9  1  0
  3 10  2  0
 10 11  1  0
 11 12  1  0
 11 13  1  0
 13 14  1  0
 14 15  1  0
 15 16  1  0
 16 17  1  0
 17 18  1  0
 18 19  1  0
 13  2  2  0
 19 14  1  0
  9  7  1  0
  1 20  1  0
  1 21  1  0
  1 22  1  0
  6 23  1  0
  7 24  1  0
  8 25  1  0
  8 26  1  0
  9 27  1  0
  9 28  1  0
 12 29  1  0
 12 30  1  0
 12 31  1  0
 14 32  1  0
 15 33  1  0
 15 34  1  0
 16 35  1  0
 16 36  1  0
 17 37  1  0
 17 38  1  0
 18 39  1  0
 18 40  1  0
 19 41  1  0
 19 42  1  0
M  END
>  <meeko>  (61) 
{"is_sidechain": false}

$$$$

     RDKit          3D

 48 52  0  0  0  0  0  0  0  0999 V2000
    6.5630    2.0450  -56.6640 O   0  0  0  0  0  0  0  0  0  0  0  0
    7.6470    1.5670  -56.3450 C   0  0  0  0  0  0  0  0  0  0  0  0
    8.8600    1.9300  -56.8950 N   0  0  0  0  0  0  0  0  0  0  0  0
    9.0560    2.9380  -57.9400 C   0  0  2  0  0  0  0  0  0  0  0  0
    8.9390    4.3440  -57.2950 C   0  0  0  0  0  0  0  0  0  0  0  0
    9.1360    5.4490  -58.3450 C   0  0  1  0  0  0  0  0  0  0  0  0
   10.5280    5.3010  -58.9780 C   0  0  0  0  0  0  0  0  0  0  0  0
   10.6570    3.9230  -59.6460 C   0  0  2  0  0  0  0  0  0  0  0  0
    9.5750    3.7810  -60.7300 C   0  0  0  0  0  0  0  0  0  0  0  0
    8.1770    3.9280  -60.1050 C   0  0  2  0  0  0  0  0  0  0  0  0
    8.0630    5.3060  -59.4350 C   0  0  0  0  0  0  0  0  0  0  0  0
    7.9770    2.8280  -59.0460 C   0  0  0  0  0  0  0  0  0  0  0  0
   10.4590    2.8240  -58.5860 C   0  0  0  0  0  0  0  0  0  0  0  0
    7.7260    0.5140  -55.2920 C   0  0  0  0  0  0  0  0  0  0  0  0
    8.9120    0.2430  -54.6370 C   0  0  0  0  0  0  0  0  0  0  0  0
    8.9150   -0.7550  -53.6640 C   0  0  0  0  0  0  0  0  0  0  0  0
    7.7370   -1.4460  -53.3850 C   0  0  0  0  0  0  0  0  0  0  0  0
    7.6360   -2.5160  -52.3730 C   0  0  0  0  0  0  0  0  0  0  0  0
    6.6250   -3.4920  -52.4570 C   0  0  0  0  0  0  0  0  0  0  0  0
    6.5100   -4.5100  -51.5060 C   0  0  0  0  0  0  0  0  0  0  0  0
    7.4100   -4.5780  -50.4470 C   0  0  0  0  0  0  0  0  0  0  0  0
    8.4260   -3.6330  -50.3430 C   0  0  0  0  0  0  0  0  0  0  0  0
    8.5380   -2.6150  -51.2960 C   0  0  0  0  0  0  0  0  0  0  0  0
    6.5960   -1.1370  -54.0510 N   0  0  0  0  0  0  0  0  0  0  0  0
    6.5830   -0.1540  -55.0120 N   0  0  0  0  0  0  0  0  0  0  0  0
    9.6760    1.4480  -56.5270 H   0  0  0  0  0  0  0  0  0  0  0  0
    7.9418    4.4507  -56.8430 H   0  0  0  0  0  0  0  0  0  0  0  0
    9.7218    4.4446  -56.5288 H   0  0  0  0  0  0  0  0  0  0  0  0
    9.0497    6.4366  -57.8683 H   0  0  0  0  0  0  0  0  0  0  0  0
   10.6699    6.0872  -59.7341 H   0  0  0  0  0  0  0  0  0  0  0  0
   11.2935    5.3955  -58.1938 H   0  0  0  0  0  0  0  0  0  0  0  0
   11.6535    3.8245  -60.1012 H   0  0  0  0  0  0  0  0  0  0  0  0
    9.7174    4.5628  -61.4906 H   0  0  0  0  0  0  0  0  0  0  0  0
    9.6589    2.7872  -61.1940 H   0  0  0  0  0  0  0  0  0  0  0  0
    7.4091    3.8332  -60.8869 H   0  0  0  0  0  0  0  0  0  0  0  0
    8.2048    6.0920  -60.1914 H   0  0  0  0  0  0  0  0  0  0  0  0
    7.0674    5.4046  -58.9777 H   0  0  0  0  0  0  0  0  0  0  0  0
    6.9810    2.9388  -58.5925 H   0  0  0  0  0  0  0  0  0  0  0  0
    8.0647    1.8453  -59.5325 H   0  0  0  0  0  0  0  0  0  0  0  0
   10.5581    1.8383  -59.0640 H   0  0  0  0  0  0  0  0  0  0  0  0
   11.2216    2.9447  -57.8025 H   0  0  0  0  0  0  0  0  0  0  0  0
    9.8296    0.8001  -54.8771 H   0  0  0  0  0  0  0  0  0  0  0  0
    9.8404   -0.9956  -53.1202 H   0  0  0  0  0  0  0  0  0  0  0  0
    5.9085   -3.4526  -53.2908 H   0  0  0  0  0  0  0  0  0  0  0  0
    5.7079   -5.2575  -51.5948 H   0  0  0  0  0  0  0  0  0  0  0  0
    7.3187   -5.3756  -49.6950 H   0  0  0  0  0  0  0  0  0  0  0  0
    9.1424   -3.6865  -49.5100 H   0  0  0  0  0  0  0  0  0  0  0  0
    9.3477   -1.8763  -51.2021 H   0  0  0  0  0  0  0  0  0  0  0  0
  1  2  2  0
  2  3  1  0
  4  3  1  1
  4  5  1  0
  5  6  1  0
  6  7  1  0
  7  8  1  0
  8  9  1  0
  9 10  1  0
 10 11  1  0
 10 12  1  0
  8 13  1  0
  2 14  1  0
 14 15  2  0
 15 16  1  0
 16 17  2  0
 17 18  1  0
 18 19  2  0
 19 20  1  0
 20 21  2  0
 21 22  1  0
 22 23  2  0
 17 24  1  0
 24 25  2  0
 12  4  1  0
 25 14  1  0
 13  4  1  0
 23 18  1  0
 11  6  1  0
  3 26  1  0
  5 27  1  0
  5 28  1  0
  6 29  1  1
  7 30  1  0
  7 31  1  0
  8 32  1  6
  9 33  1  0
  9 34  1  0
 10 35  1  6
 11 36  1  0
 11 37  1  0
 12 38  1  0
 12 39  1  0
 13 40  1  0
 13 41  1  0
 15 42  1  0
 16 43  1  0
 19 44  1  0
 20 45  1  0
 21 46  1  0
 22 47  1  0
 23 48  1  0
M  END
>  <meeko>  (62) 
{"is_sidechain": false}

$$$$

     RDKit          3D

 43 45  0  0  0  0  0  0  0  0999 V2000
   10.6550   -2.3170  -53.7460 C   0  0  0  0  0  0  0  0  0  0  0  0
    9.5270   -1.3770  -54.0580 C   0  0  0  0  0  0  0  0  0  0  0  0
    9.7240   -0.3570  -54.9970 C   0  0  0  0  0  0  0  0  0  0  0  0
    8.6740    0.4960  -55.2870 C   0  0  0  0  0  0  0  0  0  0  0  0
    8.8260    1.5920  -56.2880 C   0  0  0  0  0  0  0  0  0  0  0  0
    7.8970    2.3530  -56.5350 O   0  0  0  0  0  0  0  0  0  0  0  0
   10.0690    1.6730  -56.8850 N   0  0  0  0  0  0  0  0  0  0  0  0
   10.4430    2.7670  -57.7640 C   0  0  0  0  0  0  0  0  0  0  0  0
   10.0650    2.4500  -59.2100 C   0  0  0  0  0  0  0  0  0  0  0  0
   10.3530    3.6270  -60.1460 C   0  0  0  0  0  0  0  0  0  0  0  0
   11.5140    4.5080  -59.6830 C   0  0  0  0  0  0  0  0  0  0  0  0
   12.5450    3.7150  -58.8930 C   0  0  0  0  0  0  0  0  0  0  0  0
   11.9420    3.0850  -57.6340 C   0  0  0  0  0  0  0  0  0  0  0  0
    7.4640    0.3790  -54.6950 N   0  0  0  0  0  0  0  0  0  0  0  0
    7.2690   -0.6090  -53.7650 N   0  0  0  0  0  0  0  0  0  0  0  0
    8.2740   -1.4610  -53.4370 C   0  0  0  0  0  0  0  0  0  0  0  0
    7.9220   -2.4530  -52.4120 C   0  0  0  0  0  0  0  0  0  0  0  0
    8.1360   -2.2040  -51.0450 C   0  0  0  0  0  0  0  0  0  0  0  0
    7.7970   -3.1560  -50.0790 C   0  0  0  0  0  0  0  0  0  0  0  0
    7.2330   -4.3700  -50.4650 C   0  0  0  0  0  0  0  0  0  0  0  0
    7.0000   -4.6300  -51.8130 C   0  0  0  0  0  0  0  0  0  0  0  0
    7.3380   -3.6780  -52.7770 C   0  0  0  0  0  0  0  0  0  0  0  0
   10.7649   -2.4086  -52.6553 H   0  0  0  0  0  0  0  0  0  0  0  0
   10.4383   -3.3056  -54.1770 H   0  0  0  0  0  0  0  0  0  0  0  0
   11.5883   -1.9256  -54.1770 H   0  0  0  0  0  0  0  0  0  0  0  0
   10.6970   -0.2360  -55.4956 H   0  0  0  0  0  0  0  0  0  0  0  0
   10.7940    1.0620  -56.5130 H   0  0  0  0  0  0  0  0  0  0  0  0
    9.8841    3.6639  -57.4587 H   0  0  0  0  0  0  0  0  0  0  0  0
   10.6450    1.5779  -59.5463 H   0  0  0  0  0  0  0  0  0  0  0  0
    8.9849    2.2443  -59.2430 H   0  0  0  0  0  0  0  0  0  0  0  0
   10.5951    3.2279  -61.1421 H   0  0  0  0  0  0  0  0  0  0  0  0
    9.4527    4.2589  -60.1558 H   0  0  0  0  0  0  0  0  0  0  0  0
   12.0022    4.9466  -60.5658 H   0  0  0  0  0  0  0  0  0  0  0  0
   11.1080    5.2911  -59.0258 H   0  0  0  0  0  0  0  0  0  0  0  0
   12.9451    2.9153  -59.5336 H   0  0  0  0  0  0  0  0  0  0  0  0
   13.3394    4.4081  -58.5792 H   0  0  0  0  0  0  0  0  0  0  0  0
   12.4792    2.1489  -57.4217 H   0  0  0  0  0  0  0  0  0  0  0  0
   12.0473    3.8201  -56.8225 H   0  0  0  0  0  0  0  0  0  0  0  0
    8.5766   -1.2462  -50.7310 H   0  0  0  0  0  0  0  0  0  0  0  0
    7.9756   -2.9465  -49.0140 H   0  0  0  0  0  0  0  0  0  0  0  0
    6.9721   -5.1221  -49.7059 H   0  0  0  0  0  0  0  0  0  0  0  0
    6.5494   -5.5858  -52.1186 H   0  0  0  0  0  0  0  0  0  0  0  0
    7.1441   -3.8902  -53.8388 H   0  0  0  0  0  0  0  0  0  0  0  0
  1  2  1  0
  2  3  1  0
  3  4  2  0
  4  5  1  0
  5  6  2  0
  5  7  1  0
  7  8  1  0
  8  9  1  0
  9 10  1  0
 10 11  1  0
 11 12  1  0
 12 13  1  0
  4 14  1  0
 14 15  2  0
 15 16  1  0
 16 17  1  0
 17 18  2  0
 18 19  1  0
 19 20  2  0
 20 21  1  0
 21 22  2  0
 16  2  2  0
 22 17  1  0
 13  8  1  0
  1 23  1  0
  1 24  1  0
  1 25  1  0
  3 26  1  0
  7 27  1  0
  8 28  1  0
  9 29  1  0
  9 30  1  0
 10 31  1  0
 10 32  1  0
 11 33  1  0
 11 34  1  0
 12 35  1  0
 12 36  1  0
 13 37  1  0
 13 38  1  0
 18 39  1  0
 19 40  1  0
 20 41  1  0
 21 42  1  0
 22 43  1  0
M  END
>  <meeko>  (63) 
{"is_sidechain": false}

$$$$

     RDKit          3D

 44 47  0  0  0  0  0  0  0  0999 V2000
   10.5660   -1.8600  -53.4850 C   0  0  0  0  0  0  0  0  0  0  0  0
    9.2700   -1.1510  -53.7400 C   0  0  0  0  0  0  0  0  0  0  0  0
    9.1630   -0.2430  -54.7960 C   0  0  0  0  0  0  0  0  0  0  0  0
    7.9520    0.3940  -55.0050 C   0  0  0  0  0  0  0  0  0  0  0  0
    7.7780    1.3740  -56.1160 C   0  0  0  0  0  0  0  0  0  0  0  0
    6.6570    1.6740  -56.5110 O   0  0  0  0  0  0  0  0  0  0  0  0
    8.9550    1.8850  -56.6270 N   0  0  0  0  0  0  0  0  0  0  0  0
    9.0620    2.8570  -57.7150 C   0  0  2  0  0  0  0  0  0  0  0  0
    8.1840    2.4580  -58.9270 C   0  0  0  0  0  0  0  0  0  0  0  0
    8.3520    3.4710  -60.0730 C   0  0  1  0  0  0  0  0  0  0  0  0
    7.9430    4.8690  -59.5790 C   0  0  0  0  0  0  0  0  0  0  0  0
    8.8330    5.2920  -58.3970 C   0  0  2  0  0  0  0  0  0  0  0  0
   10.3020    5.3090  -58.8480 C   0  0  0  0  0  0  0  0  0  0  0  0
   10.7170    3.9130  -59.3370 C   0  0  2  0  0  0  0  0  0  0  0  0
    9.8230    3.4990  -60.5160 C   0  0  0  0  0  0  0  0  0  0  0  0
   10.5390    2.9050  -58.1900 C   0  0  0  0  0  0  0  0  0  0  0  0
    8.6660    4.2810  -57.2490 C   0  0  0  0  0  0  0  0  0  0  0  0
    6.8700    0.1690  -54.2220 N   0  0  0  0  0  0  0  0  0  0  0  0
    6.9690   -0.7180  -53.1890 N   0  0  0  0  0  0  0  0  0  0  0  0
    8.1370   -1.3640  -52.9490 C   0  0  0  0  0  0  0  0  0  0  0  0
    8.1400   -2.3160  -51.7910 C   0  0  0  0  0  0  0  0  0  0  0  0
   10.7282   -1.9487  -52.4007 H   0  0  0  0  0  0  0  0  0  0  0  0
   10.5293   -2.8637  -53.9336 H   0  0  0  0  0  0  0  0  0  0  0  0
   11.3914   -1.2878  -53.9336 H   0  0  0  0  0  0  0  0  0  0  0  0
   10.0243   -0.0381  -55.4488 H   0  0  0  0  0  0  0  0  0  0  0  0
    9.8090    1.5400  -56.1970 H   0  0  0  0  0  0  0  0  0  0  0  0
    8.4853    1.4604  -59.2790 H   0  0  0  0  0  0  0  0  0  0  0  0
    7.1296    2.4480  -58.6136 H   0  0  0  0  0  0  0  0  0  0  0  0
    7.7166    3.1776  -60.9216 H   0  0  0  0  0  0  0  0  0  0  0  0
    8.0584    5.5931  -60.3990 H   0  0  0  0  0  0  0  0  0  0  0  0
    6.8940    4.8423  -59.2490 H   0  0  0  0  0  0  0  0  0  0  0  0
    8.5400    6.2950  -58.0533 H   0  0  0  0  0  0  0  0  0  0  0  0
   10.4233    6.0330  -59.6672 H   0  0  0  0  0  0  0  0  0  0  0  0
   10.9376    5.5979  -57.9980 H   0  0  0  0  0  0  0  0  0  0  0  0
   11.7684    3.9309  -59.6597 H   0  0  0  0  0  0  0  0  0  0  0  0
    9.9431    4.2221  -61.3362 H   0  0  0  0  0  0  0  0  0  0  0  0
   10.1170    2.4958  -60.8583 H   0  0  0  0  0  0  0  0  0  0  0  0
   10.8368    1.9056  -58.5401 H   0  0  0  0  0  0  0  0  0  0  0  0
   11.1685    3.2211  -57.3451 H   0  0  0  0  0  0  0  0  0  0  0  0
    9.3102    4.5786  -56.4085 H   0  0  0  0  0  0  0  0  0  0  0  0
    7.6117    4.2713  -56.9352 H   0  0  0  0  0  0  0  0  0  0  0  0
    8.1382   -1.7477  -50.8492 H   0  0  0  0  0  0  0  0  0  0  0  0
    7.2439   -2.9522  -51.8371 H   0  0  0  0  0  0  0  0  0  0  0  0
    9.0401   -2.9466  -51.8371 H   0  0  0  0  0  0  0  0  0  0  0  0
  1  2  1  0
  2  3  1  0
  3  4  2  0
  4  5  1  0
  5  6  2  0
  5  7  1  0
  8  7  1  1
  8  9  1  0
  9 10  1  0
 10 11  1  0
 11 12  1  0
 12 13  1  0
 13 14  1  0
 14 15  1  0
 14 16  1  0
 12 17  1  0
  4 18  1  0
 18 19  2  0
 19 20  1  0
 20 21  1  0
 20  2  2  0
 16  8  1  0
 17  8  1  0
 15 10  1  0
  1 22  1  0
  1 23  1  0
  1 24  1  0
  3 25  1  0
  7 26  1  0
  9 27  1  0
  9 28  1  0
 10 29  1  6
 11 30  1  0
 11 31  1  0
 12 32  1  1
 13 33  1  0
 13 34  1  0
 14 35  1  6
 15 36  1  0
 15 37  1  0
 16 38  1  0
 16 39  1  0
 17 40  1  0
 17 41  1  0
 21 42  1  0
 21 43  1  0
 21 44  1  0
M  END
>  <meeko>  (64) 
{"is_sidechain": false}

$$$$

     RDKit          3D

 41 44  0  0  0  0  0  0  0  0999 V2000
    7.5930   -3.2200  -50.0660 C   0  0  0  0  0  0  0  0  0  0  0  0
    8.0060   -2.4370  -51.2710 C   0  0  0  0  0  0  0  0  0  0  0  0
    7.3170   -1.2970  -51.6590 C   0  0  0  0  0  0  0  0  0  0  0  0
    7.6380   -0.5790  -52.7590 N   0  0  0  0  0  0  0  0  0  0  0  0
    8.6780   -0.9830  -53.5410 N   0  0  0  0  0  0  0  0  0  0  0  0
    9.3660   -2.1020  -53.2030 C   0  0  0  0  0  0  0  0  0  0  0  0
   10.4860   -2.4930  -54.1090 C   0  0  0  0  0  0  0  0  0  0  0  0
   11.5690   -1.9220  -54.0400 O   0  0  0  0  0  0  0  0  0  0  0  0
   10.1900   -3.5140  -54.9900 N   0  0  0  0  0  0  0  0  0  0  0  0
   11.1080   -4.0820  -55.9770 C   0  0  2  0  0  0  0  0  0  0  0  0
   11.7270   -2.9850  -56.8780 C   0  0  0  0  0  0  0  0  0  0  0  0
   12.6500   -3.6130  -57.9390 C   0  0  1  0  0  0  0  0  0  0  0  0
   13.7700   -4.3960  -57.2340 C   0  0  0  0  0  0  0  0  0  0  0  0
   13.1690   -5.5130  -56.3630 C   0  0  2  0  0  0  0  0  0  0  0  0
   12.3490   -6.4630  -57.2520 C   0  0  0  0  0  0  0  0  0  0  0  0
   11.2240   -5.6860  -57.9510 C   0  0  2  0  0  0  0  0  0  0  0  0
   11.8340   -4.5730  -58.8180 C   0  0  0  0  0  0  0  0  0  0  0  0
   10.3120   -5.0550  -56.8880 C   0  0  0  0  0  0  0  0  0  0  0  0
   12.2460   -4.8870  -55.3030 C   0  0  0  0  0  0  0  0  0  0  0  0
    9.0590   -2.8570  -52.0810 C   0  0  0  0  0  0  0  0  0  0  0  0
    7.8817   -2.6727  -49.1565 H   0  0  0  0  0  0  0  0  0  0  0  0
    6.5023   -3.3626  -50.0775 H   0  0  0  0  0  0  0  0  0  0  0  0
    8.0912   -4.2007  -50.0775 H   0  0  0  0  0  0  0  0  0  0  0  0
    6.4698   -0.9614  -51.0429 H   0  0  0  0  0  0  0  0  0  0  0  0
    9.2470   -3.8910  -54.9290 H   0  0  0  0  0  0  0  0  0  0  0  0
   10.9200   -2.4329  -57.3819 H   0  0  0  0  0  0  0  0  0  0  0  0
   12.3199   -2.3032  -56.2506 H   0  0  0  0  0  0  0  0  0  0  0  0
   13.0879   -2.8219  -58.5655 H   0  0  0  0  0  0  0  0  0  0  0  0
   14.4334   -4.8416  -57.9899 H   0  0  0  0  0  0  0  0  0  0  0  0
   14.3407   -3.7081  -56.5928 H   0  0  0  0  0  0  0  0  0  0  0  0
   13.9762   -6.0730  -55.8681 H   0  0  0  0  0  0  0  0  0  0  0  0
   13.0075   -6.9120  -58.0102 H   0  0  0  0  0  0  0  0  0  0  0  0
   11.9082   -7.2532  -56.6265 H   0  0  0  0  0  0  0  0  0  0  0  0
   10.6412   -6.3701  -58.5853 H   0  0  0  0  0  0  0  0  0  0  0  0
   12.4922   -5.0212  -59.5768 H   0  0  0  0  0  0  0  0  0  0  0  0
   11.0251   -4.0136  -59.3108 H   0  0  0  0  0  0  0  0  0  0  0  0
    9.5060   -4.4995  -57.3897 H   0  0  0  0  0  0  0  0  0  0  0  0
    9.8956   -5.8584  -56.2625 H   0  0  0  0  0  0  0  0  0  0  0  0
   11.8077   -5.6867  -54.6879 H   0  0  0  0  0  0  0  0  0  0  0  0
   12.8386   -4.2051  -54.6754 H   0  0  0  0  0  0  0  0  0  0  0  0
    9.6319   -3.7638  -51.8369 H   0  0  0  0  0  0  0  0  0  0  0  0
  1  2  1  0
  2  3  2  0
  3  4  1  0
  4  5  2  0
  5  6  1  0
  6  7  1  0
  7  8  2  0
  7  9  1  0
 10  9  1  1
 10 11  1  0
 11 12  1  0
 12 13  1  0
 13 14  1  0
 14 15  1  0
 15 16  1  0
 16 17  1  0
 16 18  1  0
 14 19  1  0
  6 20  2  0
 20  2  1  0
 18 10  1  0
 19 10  1  0
 17 12  1  0
  1 21  1  0
  1 22  1  0
  1 23  1  0
  3 24  1  0
  9 25  1  0
 11 26  1  0
 11 27  1  0
 12 28  1  6
 13 29  1  0
 13 30  1  0
 14 31  1  1
 15 32  1  0
 15 33  1  0
 16 34  1  6
 17 35  1  0
 17 36  1  0
 18 37  1  0
 18 38  1  0
 19 39  1  0
 19 40  1  0
 20 41  1  0
M  END
>  <meeko>  (65) 
{"is_sidechain": false}

$$$$

     RDKit          3D

 50 53  0  0  0  0  0  0  0  0999 V2000
   10.8250   -2.2300  -53.4070 C   0  0  0  0  0  0  0  0  0  0  0  0
    9.4840   -1.5860  -53.5890 C   0  0  0  0  0  0  0  0  0  0  0  0
    9.3700   -0.5810  -54.5610 C   0  0  0  0  0  0  0  0  0  0  0  0
    8.1540    0.0500  -54.7430 C   0  0  0  0  0  0  0  0  0  0  0  0
    7.9830    1.1220  -55.7670 C   0  0  0  0  0  0  0  0  0  0  0  0
    6.8610    1.4920  -56.0960 O   0  0  0  0  0  0  0  0  0  0  0  0
    9.1610    1.6280  -56.2790 N   0  0  0  0  0  0  0  0  0  0  0  0
    9.2690    2.6810  -57.2900 C   0  0  2  0  0  0  0  0  0  0  0  0
    8.7260    4.0330  -56.7670 C   0  0  0  0  0  0  0  0  0  0  0  0
    8.8950    5.1320  -57.8310 C   0  0  1  0  0  0  0  0  0  0  0  0
   10.3880    5.2920  -58.1640 C   0  0  0  0  0  0  0  0  0  0  0  0
   10.9490    3.9680  -58.7060 C   0  0  2  0  0  0  0  0  0  0  0  0
   10.1800    3.5710  -59.9760 C   0  0  0  0  0  0  0  0  0  0  0  0
    8.6870    3.4020  -59.6540 C   0  0  2  0  0  0  0  0  0  0  0  0
    8.1330    4.7270  -59.1030 C   0  0  0  0  0  0  0  0  0  0  0  0
    8.5170    2.3010  -58.5910 C   0  0  0  0  0  0  0  0  0  0  0  0
   10.7680    2.8720  -57.6440 C   0  0  0  0  0  0  0  0  0  0  0  0
    7.0690   -0.2640  -54.0070 N   0  0  0  0  0  0  0  0  0  0  0  0
    7.1740   -1.2340  -53.0480 N   0  0  0  0  0  0  0  0  0  0  0  0
    8.3500   -1.8840  -52.8230 C   0  0  0  0  0  0  0  0  0  0  0  0
    8.2590   -2.9210  -51.7220 C   0  0  0  0  0  0  0  0  0  0  0  0
    7.8300   -2.3020  -50.3900 C   0  0  0  0  0  0  0  0  0  0  0  0
    7.4350   -4.1610  -52.0680 C   0  0  0  0  0  0  0  0  0  0  0  0
   11.0395   -2.3330  -52.3331 H   0  0  0  0  0  0  0  0  0  0  0  0
   10.8210   -3.2244  -53.8772 H   0  0  0  0  0  0  0  0  0  0  0  0
   11.5987   -1.6052  -53.8772 H   0  0  0  0  0  0  0  0  0  0  0  0
   10.2397   -0.2980  -55.1722 H   0  0  0  0  0  0  0  0  0  0  0  0
   10.0150    1.2200  -55.9080 H   0  0  0  0  0  0  0  0  0  0  0  0
    7.6583    3.9248  -56.5253 H   0  0  0  0  0  0  0  0  0  0  0  0
    9.2922    4.3191  -55.8683 H   0  0  0  0  0  0  0  0  0  0  0  0
    8.4974    6.0831  -57.4470 H   0  0  0  0  0  0  0  0  0  0  0  0
   10.5098    6.0778  -58.9240 H   0  0  0  0  0  0  0  0  0  0  0  0
   10.9346    5.5694  -57.2506 H   0  0  0  0  0  0  0  0  0  0  0  0
   12.0167    4.0873  -58.9421 H   0  0  0  0  0  0  0  0  0  0  0  0
   10.3022    4.3563  -60.7365 H   0  0  0  0  0  0  0  0  0  0  0  0
   10.5778    2.6187  -60.3566 H   0  0  0  0  0  0  0  0  0  0  0  0
    8.1415    3.1229  -60.5675 H   0  0  0  0  0  0  0  0  0  0  0  0
    8.2499    5.5138  -59.8628 H   0  0  0  0  0  0  0  0  0  0  0  0
    7.0685    4.5971  -58.8581 H   0  0  0  0  0  0  0  0  0  0  0  0
    7.4473    2.1760  -58.3673 H   0  0  0  0  0  0  0  0  0  0  0  0
    8.9352    1.3617  -58.9820 H   0  0  0  0  0  0  0  0  0  0  0  0
   11.1690    1.9245  -58.0332 H   0  0  0  0  0  0  0  0  0  0  0  0
   11.3068    3.1742  -56.7338 H   0  0  0  0  0  0  0  0  0  0  0  0
    9.2868   -3.2968  -51.6103 H   0  0  0  0  0  0  0  0  0  0  0  0
    8.2414   -2.8957  -49.5604 H   0  0  0  0  0  0  0  0  0  0  0  0
    8.2083   -1.2711  -50.3260 H   0  0  0  0  0  0  0  0  0  0  0  0
    6.7319   -2.2943  -50.3260 H   0  0  0  0  0  0  0  0  0  0  0  0
    7.1074   -4.6540  -51.1408 H   0  0  0  0  0  0  0  0  0  0  0  0
    6.5543   -3.8636  -52.6561 H   0  0  0  0  0  0  0  0  0  0  0  0
    8.0503   -4.8578  -52.6561 H   0  0  0  0  0  0  0  0  0  0  0  0
  1  2  1  0
  2  3  1  0
  3  4  2  0
  4  5  1  0
  5  6  2  0
  5  7  1  0
  8  7  1  1
  8  9  1  0
  9 10  1  0
 10 11  1  0
 11 12  1  0
 12 13  1  0
 13 14  1  0
 14 15  1  0
 14 16  1  0
 12 17  1  0
  4 18  1  0
 18 19  2  0
 19 20  1  0
 20 21  1  0
 21 22  1  0
 21 23  1  0
 20  2  2  0
 16  8  1  0
 17  8  1  0
 15 10  1  0
  1 24  1  0
  1 25  1  0
  1 26  1  0
  3 27  1  0
  7 28  1  0
  9 29  1  0
  9 30  1  0
 10 31  1  1
 11 32  1  0
 11 33  1  0
 12 34  1  6
 13 35  1  0
 13 36  1  0
 14 37  1  6
 15 38  1  0
 15 39  1  0
 16 40  1  0
 16 41  1  0
 17 42  1  0
 17 43  1  0
 21 44  1  0
 22 45  1  0
 22 46  1  0
 22 47  1  0
 23 48  1  0
 23 49  1  0
 23 50  1  0
M  END
>  <meeko>  (66) 
{"is_sidechain": false}

$$$$

     RDKit          3D

 40 42  0  0  0  0  0  0  0  0999 V2000
    9.9800   -1.3760  -53.8280 C   0  0  0  0  0  0  0  0  0  0  0  0
    8.6090   -0.8410  -54.1230 C   0  0  0  0  0  0  0  0  0  0  0  0
    8.4550    0.1470  -55.1030 C   0  0  0  0  0  0  0  0  0  0  0  0
    7.1850    0.6240  -55.3780 C   0  0  0  0  0  0  0  0  0  0  0  0
    6.9660    1.6730  -56.4140 C   0  0  0  0  0  0  0  0  0  0  0  0
    5.9040    2.2840  -56.4820 O   0  0  0  0  0  0  0  0  0  0  0  0
    8.0240    1.8890  -57.2690 N   0  0  0  0  0  0  0  0  0  0  0  0
    7.9390    2.8250  -58.3600 C   0  0  0  0  0  0  0  0  0  0  0  0
    9.3050    3.2930  -58.7760 C   0  0  0  0  0  0  0  0  0  0  0  0
    9.4610    4.1240  -59.8950 C   0  0  0  0  0  0  0  0  0  0  0  0
   10.7270    4.5810  -60.2660 C   0  0  0  0  0  0  0  0  0  0  0  0
   11.8460    4.2200  -59.5180 C   0  0  0  0  0  0  0  0  0  0  0  0
   11.7020    3.4050  -58.3980 C   0  0  0  0  0  0  0  0  0  0  0  0
   10.4370    2.9460  -58.0250 C   0  0  0  0  0  0  0  0  0  0  0  0
    6.0890    0.1700  -54.7300 N   0  0  0  0  0  0  0  0  0  0  0  0
    6.2350   -0.7870  -53.7590 N   0  0  0  0  0  0  0  0  0  0  0  0
    7.4630   -1.2770  -53.4470 C   0  0  0  0  0  0  0  0  0  0  0  0
    7.4630   -2.2820  -52.3750 C   0  0  0  0  0  0  0  0  0  0  0  0
    7.7990   -1.9460  -51.0520 C   0  0  0  0  0  0  0  0  0  0  0  0
    7.7950   -2.9120  -50.0420 C   0  0  0  0  0  0  0  0  0  0  0  0
    7.4490   -4.2280  -50.3370 C   0  0  0  0  0  0  0  0  0  0  0  0
    7.0980   -4.5790  -51.6390 C   0  0  0  0  0  0  0  0  0  0  0  0
    7.1020   -3.6120  -52.6470 C   0  0  0  0  0  0  0  0  0  0  0  0
   10.1250   -1.4326  -52.7391 H   0  0  0  0  0  0  0  0  0  0  0  0
   10.0834   -2.3804  -54.2644 H   0  0  0  0  0  0  0  0  0  0  0  0
   10.7364   -0.7070  -54.2644 H   0  0  0  0  0  0  0  0  0  0  0  0
    9.3286    0.5376  -55.6454 H   0  0  0  0  0  0  0  0  0  0  0  0
    8.8490    1.3010  -57.1750 H   0  0  0  0  0  0  0  0  0  0  0  0
    7.4501    2.3365  -59.2158 H   0  0  0  0  0  0  0  0  0  0  0  0
    7.3557    3.6969  -58.0290 H   0  0  0  0  0  0  0  0  0  0  0  0
    8.5799    4.4177  -60.4844 H   0  0  0  0  0  0  0  0  0  0  0  0
   10.8413    5.2265  -61.1494 H   0  0  0  0  0  0  0  0  0  0  0  0
   12.8433    4.5789  -59.8123 H   0  0  0  0  0  0  0  0  0  0  0  0
   12.5855    3.1226  -57.8066 H   0  0  0  0  0  0  0  0  0  0  0  0
   10.3279    2.3077  -57.1358 H   0  0  0  0  0  0  0  0  0  0  0  0
    8.0689   -0.9079  -50.8082 H   0  0  0  0  0  0  0  0  0  0  0  0
    8.0654   -2.6324  -49.0131 H   0  0  0  0  0  0  0  0  0  0  0  0
    7.4527   -4.9896  -49.5433 H   0  0  0  0  0  0  0  0  0  0  0  0
    6.8180   -5.6167  -51.8729 H   0  0  0  0  0  0  0  0  0  0  0  0
    6.8177   -3.8967  -53.6708 H   0  0  0  0  0  0  0  0  0  0  0  0
  1  2  1  0
  2  3  1  0
  3  4  2  0
  4  5  1  0
  5  6  2  0
  5  7  1  0
  7  8  1  0
  8  9  1  0
  9 10  2  0
 10 11  1  0
 11 12  2  0
 12 13  1  0
 13 14  2  0
  4 15  1  0
 15 16  2  0
 16 17  1  0
 17 18  1  0
 18 19  2  0
 19 20  1  0
 20 21  2  0
 21 22  1  0
 22 23  2  0
 17  2  2  0
 23 18  1  0
 14  9  1  0
  1 24  1  0
  1 25  1  0
  1 26  1  0
  3 27  1  0
  7 28  1  0
  8 29  1  0
  8 30  1  0
 10 31  1  0
 11 32  1  0
 12 33  1  0
 13 34  1  0
 14 35  1  0
 19 36  1  0
 20 37  1  0
 21 38  1  0
 22 39  1  0
 23 40  1  0
M  END
>  <meeko>  (67) 
{"is_sidechain": false}

$$$$

     RDKit          3D

 39 40  0  0  0  0  0  0  0  0999 V2000
   10.6420   -2.2100  -53.5820 C   0  0  0  0  0  0  0  0  0  0  0  0
    9.4800   -1.3270  -53.9340 C   0  0  0  0  0  0  0  0  0  0  0  0
    9.6440   -0.3330  -54.9050 C   0  0  0  0  0  0  0  0  0  0  0  0
    8.5710    0.4850  -55.2130 C   0  0  0  0  0  0  0  0  0  0  0  0
    8.6910    1.5650  -56.2360 C   0  0  0  0  0  0  0  0  0  0  0  0
    7.6890    2.0470  -56.7490 O   0  0  0  0  0  0  0  0  0  0  0  0
    9.9860    1.9450  -56.5280 N   0  0  0  0  0  0  0  0  0  0  0  0
   10.3770    2.9820  -57.4910 C   0  0  0  0  0  0  0  0  0  0  0  0
    9.8580    2.6460  -58.8980 C   0  0  0  0  0  0  0  0  0  0  0  0
    9.8580    4.3600  -57.0520 C   0  0  0  0  0  0  0  0  0  0  0  0
   11.9140    3.0340  -57.5400 C   0  0  0  0  0  0  0  0  0  0  0  0
    7.3680    0.3530  -54.6090 N   0  0  0  0  0  0  0  0  0  0  0  0
    7.1970   -0.6280  -53.6680 N   0  0  0  0  0  0  0  0  0  0  0  0
    8.2180   -1.4620  -53.3420 C   0  0  0  0  0  0  0  0  0  0  0  0
    7.8790   -2.4740  -52.3320 C   0  0  0  0  0  0  0  0  0  0  0  0
    8.0670   -2.2340  -50.9600 C   0  0  0  0  0  0  0  0  0  0  0  0
    7.7390   -3.2050  -50.0090 C   0  0  0  0  0  0  0  0  0  0  0  0
    7.2240   -4.4340  -50.4170 C   0  0  0  0  0  0  0  0  0  0  0  0
    7.0430   -4.6970  -51.7720 C   0  0  0  0  0  0  0  0  0  0  0  0
    7.3720   -3.7250  -52.7210 C   0  0  0  0  0  0  0  0  0  0  0  0
   10.7322   -2.2785  -52.4878 H   0  0  0  0  0  0  0  0  0  0  0  0
   10.4792   -3.2143  -54.0001 H   0  0  0  0  0  0  0  0  0  0  0  0
   11.5660   -1.7841  -54.0001 H   0  0  0  0  0  0  0  0  0  0  0  0
   10.6099   -0.2038  -55.4152 H   0  0  0  0  0  0  0  0  0  0  0  0
   10.7170    1.4560  -56.0180 H   0  0  0  0  0  0  0  0  0  0  0  0
    8.9372    2.0498  -58.8165 H   0  0  0  0  0  0  0  0  0  0  0  0
    9.6446    3.5778  -59.4423 H   0  0  0  0  0  0  0  0  0  0  0  0
   10.6208    2.0699  -59.4423 H   0  0  0  0  0  0  0  0  0  0  0  0
    9.8386    4.4115  -55.9534 H   0  0  0  0  0  0  0  0  0  0  0  0
   10.5224    5.1440  -57.4442 H   0  0  0  0  0  0  0  0  0  0  0  0
    8.8414    4.5109  -57.4442 H   0  0  0  0  0  0  0  0  0  0  0  0
   12.3133    3.0475  -56.5151 H   0  0  0  0  0  0  0  0  0  0  0  0
   12.2941    2.1482  -58.0700 H   0  0  0  0  0  0  0  0  0  0  0  0
   12.2334    3.9435  -58.0700 H   0  0  0  0  0  0  0  0  0  0  0  0
    8.4780   -1.2686  -50.6297 H   0  0  0  0  0  0  0  0  0  0  0  0
    7.8874   -2.9989  -48.9387 H   0  0  0  0  0  0  0  0  0  0  0  0
    6.9606   -5.1960  -49.6686 H   0  0  0  0  0  0  0  0  0  0  0  0
    6.6415   -5.6687  -52.0955 H   0  0  0  0  0  0  0  0  0  0  0  0
    7.2316   -3.9432  -53.7900 H   0  0  0  0  0  0  0  0  0  0  0  0
  1  2  1  0
  2  3  1  0
  3  4  2  0
  4  5  1  0
  5  6  2  0
  5  7  1  0
  7  8  1  0
  8  9  1  0
  8 10  1  0
  8 11  1  0
  4 12  1  0
 12 13  2  0
 13 14  1  0
 14 15  1  0
 15 16  2  0
 16 17  1  0
 17 18  2  0
 18 19  1  0
 19 20  2  0
 14  2  2  0
 20 15  1  0
  1 21  1  0
  1 22  1  0
  1 23  1  0
  3 24  1  0
  7 25  1  0
  9 26  1  0
  9 27  1  0
  9 28  1  0
 10 29  1  0
 10 30  1  0
 10 31  1  0
 11 32  1  0
 11 33  1  0
 11 34  1  0
 16 35  1  0
 17 36  1  0
 18 37  1  0
 19 38  1  0
 20 39  1  0
M  END
>  <meeko>  (68) 
{"is_sidechain": false}

$$$$

     RDKit          3D

 40 42  0  0  0  0  0  0  0  0999 V2000
    5.6250    2.3560  -57.6590 C   0  0  0  0  0  0  0  0  0  0  0  0
    6.7010    1.7730  -56.7880 C   0  0  0  0  0  0  0  0  0  0  0  0
    6.3640    0.7960  -55.8440 C   0  0  0  0  0  0  0  0  0  0  0  0
    7.3650    0.2560  -55.0550 C   0  0  0  0  0  0  0  0  0  0  0  0
    7.0640   -0.7960  -54.0420 C   0  0  0  0  0  0  0  0  0  0  0  0
    5.9580   -1.3240  -53.9920 O   0  0  0  0  0  0  0  0  0  0  0  0
    8.1110   -1.1190  -53.2010 N   0  0  0  0  0  0  0  0  0  0  0  0
    8.0340   -2.2160  -52.2670 C   0  0  0  0  0  0  0  0  0  0  0  0
    9.4060   -2.7740  -51.8930 C   0  0  0  0  0  0  0  0  0  0  0  0
    9.2170   -3.4210  -50.5200 C   0  0  0  0  0  0  0  0  0  0  0  0
    7.8590   -2.9480  -50.0050 C   0  0  0  0  0  0  0  0  0  0  0  0
    7.4570   -1.8010  -50.9190 C   0  0  0  0  0  0  0  0  0  0  0  0
    8.6560    0.6410  -55.1650 N   0  0  0  0  0  0  0  0  0  0  0  0
    8.9900    1.6070  -56.0780 N   0  0  0  0  0  0  0  0  0  0  0  0
    8.0390    2.1760  -56.8650 C   0  0  0  0  0  0  0  0  0  0  0  0
    8.5450    3.2090  -57.7790 C   0  0  0  0  0  0  0  0  0  0  0  0
    9.0360    2.8590  -59.0480 C   0  0  0  0  0  0  0  0  0  0  0  0
    9.5180    3.8310  -59.9280 C   0  0  0  0  0  0  0  0  0  0  0  0
    9.5230    5.1720  -59.5490 C   0  0  0  0  0  0  0  0  0  0  0  0
    9.0530    5.5390  -58.2910 C   0  0  0  0  0  0  0  0  0  0  0  0
    8.5720    4.5660  -57.4120 C   0  0  0  0  0  0  0  0  0  0  0  0
    4.8336    2.7848  -57.0267 H   0  0  0  0  0  0  0  0  0  0  0  0
    6.0546    3.1448  -58.2941 H   0  0  0  0  0  0  0  0  0  0  0  0
    5.1988    1.5654  -58.2941 H   0  0  0  0  0  0  0  0  0  0  0  0
    5.3217    0.4631  -55.7311 H   0  0  0  0  0  0  0  0  0  0  0  0
    9.0130   -0.6990  -53.4120 H   0  0  0  0  0  0  0  0  0  0  0  0
    7.4057   -2.9479  -52.7957 H   0  0  0  0  0  0  0  0  0  0  0  0
    9.7317   -3.5225  -52.6303 H   0  0  0  0  0  0  0  0  0  0  0  0
   10.1770   -1.9896  -51.8745 H   0  0  0  0  0  0  0  0  0  0  0  0
    9.2289   -4.5172  -50.6109 H   0  0  0  0  0  0  0  0  0  0  0  0
   10.0261   -3.1381  -49.8305 H   0  0  0  0  0  0  0  0  0  0  0  0
    7.1212   -3.7619  -50.0618 H   0  0  0  0  0  0  0  0  0  0  0  0
    7.9079   -2.6338  -48.9520 H   0  0  0  0  0  0  0  0  0  0  0  0
    6.3627   -1.7024  -50.9712 H   0  0  0  0  0  0  0  0  0  0  0  0
    7.8242   -0.8233  -50.5736 H   0  0  0  0  0  0  0  0  0  0  0  0
    9.0410    1.8023  -59.3536 H   0  0  0  0  0  0  0  0  0  0  0  0
    9.8934    3.5380  -60.9196 H   0  0  0  0  0  0  0  0  0  0  0  0
    9.8976    5.9392  -60.2426 H   0  0  0  0  0  0  0  0  0  0  0  0
    9.0605    6.5967  -57.9889 H   0  0  0  0  0  0  0  0  0  0  0  0
    8.2089    4.8658  -56.4179 H   0  0  0  0  0  0  0  0  0  0  0  0
  1  2  1  0
  2  3  1  0
  3  4  2  0
  4  5  1  0
  5  6  2  0
  5  7  1  0
  7  8  1  0
  8  9  1  0
  9 10  1  0
 10 11  1  0
 11 12  1  0
  4 13  1  0
 13 14  2  0
 14 15  1  0
 15 16  1  0
 16 17  2  0
 17 18  1  0
 18 19  2  0
 19 20  1  0
 20 21  2  0
 15  2  2  0
 21 16  1  0
 12  8  1  0
  1 22  1  0
  1 23  1  0
  1 24  1  0
  3 25  1  0
  7 26  1  0
  8 27  1  0
  9 28  1  0
  9 29  1  0
 10 30  1  0
 10 31  1  0
 11 32  1  0
 11 33  1  0
 12 34  1  0
 12 35  1  0
 17 36  1  0
 18 37  1  0
 19 38  1  0
 20 39  1  0
 21 40  1  0
M  END
>  <meeko>  (69) 
{"is_sidechain": false}

$$$$

     RDKit          3D

 46 48  0  0  0  0  0  0  0  0999 V2000
   10.0860   -1.5020  -53.7380 C   0  0  0  0  0  0  0  0  0  0  0  0
    8.7290   -0.9450  -54.0550 C   0  0  0  0  0  0  0  0  0  0  0  0
    8.6080    0.0510  -55.0320 C   0  0  0  0  0  0  0  0  0  0  0  0
    7.3530    0.5650  -55.3080 C   0  0  0  0  0  0  0  0  0  0  0  0
    7.1680    1.6380  -56.3280 C   0  0  0  0  0  0  0  0  0  0  0  0
    6.0460    2.0140  -56.6510 O   0  0  0  0  0  0  0  0  0  0  0  0
    8.3370    2.1430  -56.8640 N   0  0  0  0  0  0  0  0  0  0  0  0
    8.3490    3.0740  -57.9840 C   0  0  0  0  0  0  0  0  0  0  0  0
    8.7610    2.3500  -59.2810 C   0  0  0  0  0  0  0  0  0  0  0  0
    8.7310    3.2180  -60.5370 C   0  0  0  0  0  0  0  0  0  0  0  0
   10.0120    4.0160  -60.8150 C   0  0  0  0  0  0  0  0  0  0  0  0
   10.3860    5.0810  -59.7910 C   0  0  0  0  0  0  0  0  0  0  0  0
    9.3160    5.3690  -58.7410 C   0  0  0  0  0  0  0  0  0  0  0  0
    9.1530    4.3330  -57.6320 C   0  0  0  0  0  0  0  0  0  0  0  0
    6.2410    0.1400  -54.6680 N   0  0  0  0  0  0  0  0  0  0  0  0
    6.3510   -0.8450  -53.7210 N   0  0  0  0  0  0  0  0  0  0  0  0
    7.5600   -1.3910  -53.4260 C   0  0  0  0  0  0  0  0  0  0  0  0
    7.5180   -2.4480  -52.4070 C   0  0  0  0  0  0  0  0  0  0  0  0
    7.1320   -3.7620  -52.7260 C   0  0  0  0  0  0  0  0  0  0  0  0
    7.0980   -4.7590  -51.7490 C   0  0  0  0  0  0  0  0  0  0  0  0
    7.4400   -4.4570  -50.4330 C   0  0  0  0  0  0  0  0  0  0  0  0
    7.8100   -3.1590  -50.0920 C   0  0  0  0  0  0  0  0  0  0  0  0
    7.8440   -2.1620  -51.0710 C   0  0  0  0  0  0  0  0  0  0  0  0
   10.2149   -1.5549  -52.6469 H   0  0  0  0  0  0  0  0  0  0  0  0
   10.1778   -2.5106  -54.1674 H   0  0  0  0  0  0  0  0  0  0  0  0
   10.8599   -0.8488  -54.1674 H   0  0  0  0  0  0  0  0  0  0  0  0
    9.4943    0.4181  -55.5702 H   0  0  0  0  0  0  0  0  0  0  0  0
    9.1960    1.6640  -56.6060 H   0  0  0  0  0  0  0  0  0  0  0  0
    7.3347    3.4479  -58.1873 H   0  0  0  0  0  0  0  0  0  0  0  0
    9.7857    1.9719  -59.1509 H   0  0  0  0  0  0  0  0  0  0  0  0
    8.0203    1.5522  -59.4386 H   0  0  0  0  0  0  0  0  0  0  0  0
    8.5463    2.5609  -61.3996 H   0  0  0  0  0  0  0  0  0  0  0  0
    7.9388    3.9632  -60.3722 H   0  0  0  0  0  0  0  0  0  0  0  0
   10.8455    3.3005  -60.8725 H   0  0  0  0  0  0  0  0  0  0  0  0
    9.8159    4.5653  -61.7476 H   0  0  0  0  0  0  0  0  0  0  0  0
   11.2956    4.7485  -59.2693 H   0  0  0  0  0  0  0  0  0  0  0  0
   10.5234    6.0154  -60.3549 H   0  0  0  0  0  0  0  0  0  0  0  0
    9.5636    6.3301  -58.2666 H   0  0  0  0  0  0  0  0  0  0  0  0
    8.3619    5.3617  -59.2884 H   0  0  0  0  0  0  0  0  0  0  0  0
   10.1590    4.0119  -57.3241 H   0  0  0  0  0  0  0  0  0  0  0  0
    8.5737    4.8378  -56.8448 H   0  0  0  0  0  0  0  0  0  0  0  0
    6.8526   -4.0082  -53.7610 H   0  0  0  0  0  0  0  0  0  0  0  0
    6.8010   -5.7832  -52.0187 H   0  0  0  0  0  0  0  0  0  0  0  0
    7.4178   -5.2432  -49.6640 H   0  0  0  0  0  0  0  0  0  0  0  0
    8.0756   -2.9180  -49.0521 H   0  0  0  0  0  0  0  0  0  0  0  0
    8.1305   -1.1376  -50.7909 H   0  0  0  0  0  0  0  0  0  0  0  0
  1  2  1  0
  2  3  1  0
  3  4  2  0
  4  5  1  0
  5  6  2  0
  5  7  1  0
  7  8  1  0
  8  9  1  0
  9 10  1  0
 10 11  1  0
 11 12  1  0
 12 13  1  0
 13 14  1  0
  4 15  1  0
 15 16  2  0
 16 17  1  0
 17 18  1  0
 18 19  2  0
 19 20  1  0
 20 21  2  0
 21 22  1  0
 22 23  2  0
 17  2  2  0
 23 18  1  0
 14  8  1  0
  1 24  1  0
  1 25  1  0
  1 26  1  0
  3 27  1  0
  7 28  1  0
  8 29  1  0
  9 30  1  0
  9 31  1  0
 10 32  1  0
 10 33  1  0
 11 34  1  0
 11 35  1  0
 12 36  1  0
 12 37  1  0
 13 38  1  0
 13 39  1  0
 14 40  1  0
 14 41  1  0
 19 42  1  0
 20 43  1  0
 21 44  1  0
 22 45  1  0
 23 46  1  0
M  END
>  <meeko>  (70) 
{"is_sidechain": false}

$$$$

     RDKit          3D

 46 48  0  0  0  0  0  0  0  0999 V2000
    6.2380    2.8290  -58.0690 C   0  0  0  0  0  0  0  0  0  0  0  0
    7.0690    2.0620  -57.0820 C   0  0  0  0  0  0  0  0  0  0  0  0
    6.4420    1.1660  -56.2080 C   0  0  0  0  0  0  0  0  0  0  0  0
    7.2160    0.4720  -55.2940 C   0  0  0  0  0  0  0  0  0  0  0  0
    6.5990   -0.4850  -54.3310 C   0  0  0  0  0  0  0  0  0  0  0  0
    5.3800   -0.5760  -54.2290 O   0  0  0  0  0  0  0  0  0  0  0  0
    7.4950   -1.2250  -53.5830 N   0  0  0  0  0  0  0  0  0  0  0  0
    7.0760   -2.0850  -52.4880 C   0  0  2  0  0  0  0  0  0  0  0  0
    8.0730   -2.0160  -51.3290 C   0  0  0  0  0  0  0  0  0  0  0  0
    7.6080   -2.8470  -50.1300 C   0  0  0  0  0  0  0  0  0  0  0  0
    6.9480   -4.1850  -50.5070 C   0  0  1  0  0  0  0  0  0  0  0  0
    5.4370   -4.1530  -50.2570 C   0  0  0  0  0  0  0  0  0  0  0  0
    7.2680   -4.5880  -51.9500 C   0  0  0  0  0  0  0  0  0  0  0  0
    6.8770   -3.5260  -52.9810 C   0  0  0  0  0  0  0  0  0  0  0  0
    8.5570    0.6300  -55.2170 N   0  0  0  0  0  0  0  0  0  0  0  0
    9.1780    1.4950  -56.0800 N   0  0  0  0  0  0  0  0  0  0  0  0
    8.4610    2.1880  -57.0040 C   0  0  0  0  0  0  0  0  0  0  0  0
    9.2670    3.0590  -57.8700 C   0  0  0  0  0  0  0  0  0  0  0  0
    9.7700    2.6080  -59.1020 C   0  0  0  0  0  0  0  0  0  0  0  0
   10.5320    3.4470  -59.9180 C   0  0  0  0  0  0  0  0  0  0  0  0
   10.8120    4.7490  -59.5120 C   0  0  0  0  0  0  0  0  0  0  0  0
   10.3350    5.2120  -58.2880 C   0  0  0  0  0  0  0  0  0  0  0  0
    9.5730    4.3720  -57.4730 C   0  0  0  0  0  0  0  0  0  0  0  0
    5.5339    3.4789  -57.5288 H   0  0  0  0  0  0  0  0  0  0  0  0
    6.8947    3.4451  -58.7008 H   0  0  0  0  0  0  0  0  0  0  0  0
    5.6764    2.1251  -58.7008 H   0  0  0  0  0  0  0  0  0  0  0  0
    5.3530    1.0160  -56.2469 H   0  0  0  0  0  0  0  0  0  0  0  0
    8.4750   -0.9710  -53.6710 H   0  0  0  0  0  0  0  0  0  0  0  0
    6.1081   -1.7246  -52.1096 H   0  0  0  0  0  0  0  0  0  0  0  0
    9.0454   -2.3990  -51.6723 H   0  0  0  0  0  0  0  0  0  0  0  0
    8.1528   -0.9669  -51.0081 H   0  0  0  0  0  0  0  0  0  0  0  0
    8.4828   -3.0600  -49.4980 H   0  0  0  0  0  0  0  0  0  0  0  0
    6.8418   -2.2520  -49.6114 H   0  0  0  0  0  0  0  0  0  0  0  0
    7.3767   -4.9566  -49.8506 H   0  0  0  0  0  0  0  0  0  0  0  0
    5.2445   -4.1489  -49.1740 H   0  0  0  0  0  0  0  0  0  0  0  0
    5.0097   -3.2456  -50.7088 H   0  0  0  0  0  0  0  0  0  0  0  0
    4.9717   -5.0415  -50.7088 H   0  0  0  0  0  0  0  0  0  0  0  0
    8.3502   -4.7687  -52.0293 H   0  0  0  0  0  0  0  0  0  0  0  0
    6.6775   -5.4888  -52.1732 H   0  0  0  0  0  0  0  0  0  0  0  0
    7.4915   -3.6731  -53.8814 H   0  0  0  0  0  0  0  0  0  0  0  0
    5.8028   -3.6521  -53.1812 H   0  0  0  0  0  0  0  0  0  0  0  0
    9.5605    1.5787  -59.4287 H   0  0  0  0  0  0  0  0  0  0  0  0
   10.9114    3.0787  -60.8826 H   0  0  0  0  0  0  0  0  0  0  0  0
   11.4089    5.4109  -60.1567 H   0  0  0  0  0  0  0  0  0  0  0  0
   10.5584    6.2390  -57.9634 H   0  0  0  0  0  0  0  0  0  0  0  0
    9.2065    4.7440  -56.5049 H   0  0  0  0  0  0  0  0  0  0  0  0
  1  2  1  0
  2  3  1  0
  3  4  2  0
  4  5  1  0
  5  6  2  0
  5  7  1  0
  7  8  1  0
  8  9  1  0
  9 10  1  0
 10 11  1  0
 11 12  1  0
 11 13  1  0
 13 14  1  0
  4 15  1  0
 15 16  2  0
 16 17  1  0
 17 18  1  0
 18 19  2  0
 19 20  1  0
 20 21  2  0
 21 22  1  0
 22 23  2  0
 17  2  2  0
 23 18  1  0
 14  8  1  0
  1 24  1  0
  1 25  1  0
  1 26  1  0
  3 27  1  0
  7 28  1  0
  8 29  1  6
  9 30  1  0
  9 31  1  0
 10 32  1  0
 10 33  1  0
 11 34  1  6
 12 35  1  0
 12 36  1  0
 12 37  1  0
 13 38  1  0
 13 39  1  0
 14 40  1  0
 14 41  1  0
 19 42  1  0
 20 43  1  0
 21 44  1  0
 22 45  1  0
 23 46  1  0
M  END
>  <meeko>  (71) 
{"is_sidechain": false}

$$$$

     RDKit          3D

 49 53  0  0  0  0  0  0  0  0999 V2000
    6.5510    2.0890  -56.6660 O   0  0  0  0  0  0  0  0  0  0  0  0
    7.6350    1.5950  -56.3820 C   0  0  0  0  0  0  0  0  0  0  0  0
    8.8320    1.9410  -56.9760 N   0  0  0  0  0  0  0  0  0  0  0  0
    8.9780    2.9840  -58.0000 C   0  0  2  0  0  0  0  0  0  0  0  0
    8.8330    4.4010  -57.3940 C   0  0  0  0  0  0  0  0  0  0  0  0
    9.0460    5.4760  -58.4760 C   0  0  1  0  0  0  0  0  0  0  0  0
   10.4570    5.3310  -59.0650 C   0  0  0  0  0  0  0  0  0  0  0  0
   10.6230    3.9390  -59.6940 C   0  0  2  0  0  0  0  0  0  0  0  0
    9.5820    3.7560  -60.8090 C   0  0  0  0  0  0  0  0  0  0  0  0
    8.1660    3.8910  -60.2290 C   0  0  2  0  0  0  0  0  0  0  0  0
    8.0070    5.2830  -59.5940 C   0  0  0  0  0  0  0  0  0  0  0  0
    7.9530    2.8140  -59.1500 C   0  0  0  0  0  0  0  0  0  0  0  0
   10.3990    2.8680  -58.6150 C   0  0  0  0  0  0  0  0  0  0  0  0
    7.7080    0.5730  -55.3110 C   0  0  0  0  0  0  0  0  0  0  0  0
    8.8900    0.2200  -54.6640 C   0  0  0  0  0  0  0  0  0  0  0  0
    8.8590   -0.7590  -53.6670 C   0  0  0  0  0  0  0  0  0  0  0  0
    7.6490   -1.3720  -53.3340 C   0  0  0  0  0  0  0  0  0  0  0  0
    7.5330   -2.4130  -52.2900 C   0  0  0  0  0  0  0  0  0  0  0  0
    8.2180   -2.3290  -51.0640 C   0  0  0  0  0  0  0  0  0  0  0  0
    8.1000   -3.3270  -50.0920 C   0  0  0  0  0  0  0  0  0  0  0  0
    7.2890   -4.4350  -50.3230 C   0  0  0  0  0  0  0  0  0  0  0  0
    6.5920   -4.5410  -51.5220 C   0  0  0  0  0  0  0  0  0  0  0  0
    6.7120   -3.5400  -52.4910 C   0  0  0  0  0  0  0  0  0  0  0  0
    6.4970   -1.0470  -53.9770 N   0  0  0  0  0  0  0  0  0  0  0  0
    6.5500   -0.0980  -54.9460 C   0  0  0  0  0  0  0  0  0  0  0  0
    9.6810    1.6570  -56.5060 H   0  0  0  0  0  0  0  0  0  0  0  0
    7.8247    4.5110  -56.9683 H   0  0  0  0  0  0  0  0  0  0  0  0
    9.5928    4.5313  -56.6093 H   0  0  0  0  0  0  0  0  0  0  0  0
    8.9316    6.4759  -58.0320 H   0  0  0  0  0  0  0  0  0  0  0  0
   10.6106    6.1000  -59.8364 H   0  0  0  0  0  0  0  0  0  0  0  0
   11.1982    5.4552  -58.2618 H   0  0  0  0  0  0  0  0  0  0  0  0
   11.6353    3.8413  -60.1133 H   0  0  0  0  0  0  0  0  0  0  0  0
    9.7350    4.5248  -61.5807 H   0  0  0  0  0  0  0  0  0  0  0  0
    9.6981    2.7561  -61.2525 H   0  0  0  0  0  0  0  0  0  0  0  0
    7.4247    3.7630  -61.0315 H   0  0  0  0  0  0  0  0  0  0  0  0
    8.1548    6.0536  -60.3650 H   0  0  0  0  0  0  0  0  0  0  0  0
    6.9974    5.3703  -59.1661 H   0  0  0  0  0  0  0  0  0  0  0  0
    6.9350    2.9059  -58.7435 H   0  0  0  0  0  0  0  0  0  0  0  0
    8.0926    1.8227  -59.6059 H   0  0  0  0  0  0  0  0  0  0  0  0
   10.5145    1.8721  -59.0676 H   0  0  0  0  0  0  0  0  0  0  0  0
   11.1394    3.0170  -57.8153 H   0  0  0  0  0  0  0  0  0  0  0  0
    9.8384    0.7069  -54.9351 H   0  0  0  0  0  0  0  0  0  0  0  0
    9.7845   -1.0458  -53.1463 H   0  0  0  0  0  0  0  0  0  0  0  0
    8.8608   -1.4586  -50.8657 H   0  0  0  0  0  0  0  0  0  0  0  0
    8.6489   -3.2367  -49.1430 H   0  0  0  0  0  0  0  0  0  0  0  0
    7.1999   -5.2230  -49.5607 H   0  0  0  0  0  0  0  0  0  0  0  0
    5.9465   -5.4121  -51.7079 H   0  0  0  0  0  0  0  0  0  0  0  0
    6.1518   -3.6349  -53.4329 H   0  0  0  0  0  0  0  0  0  0  0  0
    5.6184    0.1543  -55.4738 H   0  0  0  0  0  0  0  0  0  0  0  0
  1  2  2  0
  2  3  1  0
  4  3  1  1
  4  5  1  0
  5  6  1  0
  6  7  1  0
  7  8  1  0
  8  9  1  0
  9 10  1  0
 10 11  1  0
 10 12  1  0
  8 13  1  0
  2 14  1  0
 14 15  2  0
 15 16  1  0
 16 17  2  0
 17 18  1  0
 18 19  2  0
 19 20  1  0
 20 21  2  0
 21 22  1  0
 22 23  2  0
 17 24  1  0
 24 25  2  0
 12  4  1  0
 25 14  1  0
 13  4  1  0
 23 18  1  0
 11  6  1  0
  3 26  1  0
  5 27  1  0
  5 28  1  0
  6 29  1  1
  7 30  1  0
  7 31  1  0
  8 32  1  6
  9 33  1  0
  9 34  1  0
 10 35  1  6
 11 36  1  0
 11 37  1  0
 12 38  1  0
 12 39  1  0
 13 40  1  0
 13 41  1  0
 15 42  1  0
 16 43  1  0
 19 44  1  0
 20 45  1  0
 21 46  1  0
 22 47  1  0
 23 48  1  0
 25 49  1  0
M  END
>  <meeko>  (72) 
{"is_sidechain": false}

$$$$

     RDKit          3D

 57 61  0  0  0  0  0  0  0  0999 V2000
   10.6140   -1.7330  -53.7560 C   0  0  0  0  0  0  0  0  0  0  0  0
    9.2530   -1.1660  -54.0260 C   0  0  0  0  0  0  0  0  0  0  0  0
    9.1550   -0.1220  -54.9580 C   0  0  0  0  0  0  0  0  0  0  0  0
    7.9130    0.4090  -55.2500 C   0  0  0  0  0  0  0  0  0  0  0  0
    7.7580    1.5230  -56.2300 C   0  0  0  0  0  0  0  0  0  0  0  0
    6.6610    2.0350  -56.4210 O   0  0  0  0  0  0  0  0  0  0  0  0
    8.9240    1.8980  -56.8690 N   0  0  0  0  0  0  0  0  0  0  0  0
    9.0440    2.9590  -57.8700 C   0  0  2  0  0  0  0  0  0  0  0  0
    8.8910    4.3630  -57.2340 C   0  0  0  0  0  0  0  0  0  0  0  0
    9.0700    5.4610  -58.2970 C   0  0  1  0  0  0  0  0  0  0  0  0
   10.4740    5.3470  -58.9140 C   0  0  0  0  0  0  0  0  0  0  0  0
   10.6470    3.9690  -59.5710 C   0  0  2  0  0  0  0  0  0  0  0  0
    9.5870    3.7930  -60.6710 C   0  0  0  0  0  0  0  0  0  0  0  0
    8.1800    3.8980  -60.0640 C   0  0  2  0  0  0  0  0  0  0  0  0
    8.0140    5.2760  -59.4000 C   0  0  0  0  0  0  0  0  0  0  0  0
    7.9990    2.7990  -59.0020 C   0  0  0  0  0  0  0  0  0  0  0  0
   10.4570    2.8760  -58.5080 C   0  0  0  0  0  0  0  0  0  0  0  0
    6.7840   -0.0490  -54.6690 N   0  0  0  0  0  0  0  0  0  0  0  0
    6.8700   -1.0760  -53.7710 N   0  0  0  0  0  0  0  0  0  0  0  0
    8.0670   -1.6390  -53.4510 C   0  0  0  0  0  0  0  0  0  0  0  0
    7.9590   -2.7650  -52.4420 C   0  0  0  0  0  0  0  0  0  0  0  0
    6.6870   -3.6150  -52.6380 C   0  0  0  0  0  0  0  0  0  0  0  0
    6.2270   -4.3110  -51.3550 C   0  0  0  0  0  0  0  0  0  0  0  0
    7.4080   -4.7460  -50.4960 C   0  0  0  0  0  0  0  0  0  0  0  0
    8.2780   -3.5640  -50.0590 C   0  0  0  0  0  0  0  0  0  0  0  0
    8.1680   -2.3470  -50.9820 C   0  0  0  0  0  0  0  0  0  0  0  0
   10.7745   -1.7999  -52.6698 H   0  0  0  0  0  0  0  0  0  0  0  0
   10.6878   -2.7367  -54.2000 H   0  0  0  0  0  0  0  0  0  0  0  0
   11.3786   -1.0785  -54.2000 H   0  0  0  0  0  0  0  0  0  0  0  0
   10.0570    0.2697  -55.4510 H   0  0  0  0  0  0  0  0  0  0  0  0
    9.7580    1.3800  -56.6060 H   0  0  0  0  0  0  0  0  0  0  0  0
    7.8891    4.4509  -56.7885 H   0  0  0  0  0  0  0  0  0  0  0  0
    9.6633    4.4884  -56.4608 H   0  0  0  0  0  0  0  0  0  0  0  0
    8.9500    6.4503  -57.8313 H   0  0  0  0  0  0  0  0  0  0  0  0
   10.6032    6.1319  -59.6737 H   0  0  0  0  0  0  0  0  0  0  0  0
   11.2280    5.4676  -58.1222 H   0  0  0  0  0  0  0  0  0  0  0  0
   11.6526    3.8918  -60.0101 H   0  0  0  0  0  0  0  0  0  0  0  0
    9.7159    4.5782  -61.4305 H   0  0  0  0  0  0  0  0  0  0  0  0
    9.7079    2.8029  -61.1349 H   0  0  0  0  0  0  0  0  0  0  0  0
    7.4269    3.7746  -60.8562 H   0  0  0  0  0  0  0  0  0  0  0  0
    8.1383    6.0629  -60.1585 H   0  0  0  0  0  0  0  0  0  0  0  0
    7.0109    5.3423  -58.9534 H   0  0  0  0  0  0  0  0  0  0  0  0
    6.9882    2.8723  -58.5742 H   0  0  0  0  0  0  0  0  0  0  0  0
    8.1395    1.8178  -59.4789 H   0  0  0  0  0  0  0  0  0  0  0  0
   10.5812    1.8901  -58.9798 H   0  0  0  0  0  0  0  0  0  0  0  0
   11.2074    3.0224  -57.7172 H   0  0  0  0  0  0  0  0  0  0  0  0
    8.8197   -3.4127  -52.6647 H   0  0  0  0  0  0  0  0  0  0  0  0
    5.8777   -2.9582  -52.9896 H   0  0  0  0  0  0  0  0  0  0  0  0
    6.9268   -4.4006  -53.3697 H   0  0  0  0  0  0  0  0  0  0  0  0
    5.6022   -3.6150  -50.7761 H   0  0  0  0  0  0  0  0  0  0  0  0
    5.6584   -5.2094  -51.6369 H   0  0  0  0  0  0  0  0  0  0  0  0
    7.0243   -5.2532  -49.5985 H   0  0  0  0  0  0  0  0  0  0  0  0
    8.0341   -5.4177  -51.1016 H   0  0  0  0  0  0  0  0  0  0  0  0
    7.9709   -3.2617  -49.0469 H   0  0  0  0  0  0  0  0  0  0  0  0
    9.3239   -3.9027  -50.0954 H   0  0  0  0  0  0  0  0  0  0  0  0
    7.3149   -1.7312  -50.6611 H   0  0  0  0  0  0  0  0  0  0  0  0
    9.1079   -1.7791  -50.9172 H   0  0  0  0  0  0  0  0  0  0  0  0
  1  2  1  0
  2  3  1  0
  3  4  2  0
  4  5  1  0
  5  6  2  0
  5  7  1  0
  8  7  1  1
  8  9  1  0
  9 10  1  0
 10 11  1  0
 11 12  1  0
 12 13  1  0
 13 14  1  0
 14 15  1  0
 14 16  1  0
 12 17  1  0
  4 18  1  0
 18 19  2  0
 19 20  1  0
 20 21  1  0
 21 22  1  0
 22 23  1  0
 23 24  1  0
 24 25  1  0
 25 26  1  0
 20  2  2  0
 26 21  1  0
 16  8  1  0
 17  8  1  0
 15 10  1  0
  1 27  1  0
  1 28  1  0
  1 29  1  0
  3 30  1  0
  7 31  1  0
  9 32  1  0
  9 33  1  0
 10 34  1  1
 11 35  1  0
 11 36  1  0
 12 37  1  6
 13 38  1  0
 13 39  1  0
 14 40  1  6
 15 41  1  0
 15 42  1  0
 16 43  1  0
 16 44  1  0
 17 45  1  0
 17 46  1  0
 21 47  1  0
 22 48  1  0
 22 49  1  0
 23 50  1  0
 23 51  1  0
 24 52  1  0
 24 53  1  0
 25 54  1  0
 25 55  1  0
 26 56  1  0
 26 57  1  0
M  END
>  <meeko>  (73) 
{"is_sidechain": false}

$$$$

     RDKit          3D

 50 53  0  0  0  0  0  0  0  0999 V2000
    8.5240   -3.2050  -50.0940 C   0  0  0  0  0  0  0  0  0  0  0  0
    7.7720   -2.2250  -50.9820 C   0  0  0  0  0  0  0  0  0  0  0  0
    7.6490   -2.7500  -52.4130 C   0  0  0  0  0  0  0  0  0  0  0  0
    7.7430   -1.6330  -53.4200 C   0  0  0  0  0  0  0  0  0  0  0  0
    6.5590   -1.0890  -53.7990 N   0  0  0  0  0  0  0  0  0  0  0  0
    6.5240   -0.0610  -54.6960 N   0  0  0  0  0  0  0  0  0  0  0  0
    7.6850    0.4120  -55.2050 C   0  0  0  0  0  0  0  0  0  0  0  0
    7.5780    1.5330  -56.1850 C   0  0  0  0  0  0  0  0  0  0  0  0
    6.4980    2.0700  -56.3980 O   0  0  0  0  0  0  0  0  0  0  0  0
    8.7650    1.8820  -56.7970 N   0  0  0  0  0  0  0  0  0  0  0  0
    8.9330    2.9400  -57.7920 C   0  0  2  0  0  0  0  0  0  0  0  0
    7.9300    2.7890  -58.9620 C   0  0  0  0  0  0  0  0  0  0  0  0
    8.1580    3.8850  -60.0170 C   0  0  1  0  0  0  0  0  0  0  0  0
    7.9820    5.2650  -59.3600 C   0  0  0  0  0  0  0  0  0  0  0  0
    8.9980    5.4420  -58.2180 C   0  0  2  0  0  0  0  0  0  0  0  0
   10.4210    5.3150  -58.7830 C   0  0  0  0  0  0  0  0  0  0  0  0
   10.6070    3.9350  -59.4340 C   0  0  2  0  0  0  0  0  0  0  0  0
    9.5870    3.7670  -60.5710 C   0  0  0  0  0  0  0  0  0  0  0  0
   10.3680    2.8450  -58.3770 C   0  0  0  0  0  0  0  0  0  0  0  0
    8.7690    4.3470  -57.1630 C   0  0  0  0  0  0  0  0  0  0  0  0
    8.9160   -0.1080  -54.8450 C   0  0  0  0  0  0  0  0  0  0  0  0
    8.9590   -1.1570  -53.9210 C   0  0  0  0  0  0  0  0  0  0  0  0
   10.2820   -1.7430  -53.5240 C   0  0  0  0  0  0  0  0  0  0  0  0
    8.3367   -2.9609  -49.0379 H   0  0  0  0  0  0  0  0  0  0  0  0
    8.1770   -4.2281  -50.3010 H   0  0  0  0  0  0  0  0  0  0  0  0
    9.6020   -3.1346  -50.3010 H   0  0  0  0  0  0  0  0  0  0  0  0
    6.7640   -2.0695  -50.5699 H   0  0  0  0  0  0  0  0  0  0  0  0
    8.3335   -1.2795  -51.0072 H   0  0  0  0  0  0  0  0  0  0  0  0
    8.4593   -3.4698  -52.6007 H   0  0  0  0  0  0  0  0  0  0  0  0
    6.6657   -3.2310  -52.5213 H   0  0  0  0  0  0  0  0  0  0  0  0
    9.5820    1.3420  -56.5180 H   0  0  0  0  0  0  0  0  0  0  0  0
    8.0666    1.8030  -59.4300 H   0  0  0  0  0  0  0  0  0  0  0  0
    6.9079    2.8849  -58.5669 H   0  0  0  0  0  0  0  0  0  0  0  0
    7.4325    3.7678  -60.8355 H   0  0  0  0  0  0  0  0  0  0  0  0
    8.1422    6.0497  -60.1140 H   0  0  0  0  0  0  0  0  0  0  0  0
    6.9640    5.3408  -58.9503 H   0  0  0  0  0  0  0  0  0  0  0  0
    8.8706    6.4324  -57.7566 H   0  0  0  0  0  0  0  0  0  0  0  0
   10.5847    6.0987  -59.5374 H   0  0  0  0  0  0  0  0  0  0  0  0
   11.1462    5.4284  -57.9637 H   0  0  0  0  0  0  0  0  0  0  0  0
   11.6270    3.8490  -59.8368 H   0  0  0  0  0  0  0  0  0  0  0  0
    9.7508    4.5500  -61.3260 H   0  0  0  0  0  0  0  0  0  0  0  0
    9.7162    2.7750  -61.0283 H   0  0  0  0  0  0  0  0  0  0  0  0
   10.5017    1.8574  -58.8426 H   0  0  0  0  0  0  0  0  0  0  0  0
   11.0894    2.9871  -57.5588 H   0  0  0  0  0  0  0  0  0  0  0  0
    9.5019    4.4679  -56.3517 H   0  0  0  0  0  0  0  0  0  0  0  0
    7.7462    4.4423  -56.7695 H   0  0  0  0  0  0  0  0  0  0  0  0
    9.8432    0.2961  -55.2775 H   0  0  0  0  0  0  0  0  0  0  0  0
   10.3544   -1.7751  -52.4269 H   0  0  0  0  0  0  0  0  0  0  0  0
   10.3670   -2.7630  -53.9270 H   0  0  0  0  0  0  0  0  0  0  0  0
   11.0945   -1.1206  -53.9270 H   0  0  0  0  0  0  0  0  0  0  0  0
  1  2  1  0
  2  3  1  0
  3  4  1  0
  4  5  1  0
  5  6  2  0
  6  7  1  0
  7  8  1  0
  8  9  2  0
  8 10  1  0
 11 10  1  1
 11 12  1  0
 12 13  1  0
 13 14  1  0
 14 15  1  0
 15 16  1  0
 16 17  1  0
 17 18  1  0
 17 19  1  0
 15 20  1  0
  7 21  2  0
 21 22  1  0
 22 23  1  0
 22  4  2  0
 19 11  1  0
 20 11  1  0
 18 13  1  0
  1 24  1  0
  1 25  1  0
  1 26  1  0
  2 27  1  0
  2 28  1  0
  3 29  1  0
  3 30  1  0
 10 31  1  0
 12 32  1  0
 12 33  1  0
 13 34  1  6
 14 35  1  0
 14 36  1  0
 15 37  1  1
 16 38  1  0
 16 39  1  0
 17 40  1  6
 18 41  1  0
 18 42  1  0
 19 43  1  0
 19 44  1  0
 20 45  1  0
 20 46  1  0
 21 47  1  0
 23 48  1  0
 23 49  1  0
 23 50  1  0
M  END
>  <meeko>  (74) 
{"is_sidechain": false}

$$$$

     RDKit          3D

 47 50  0  0  0  0  0  0  0  0999 V2000
    7.8400   -2.2930  -50.3760 C   0  0  0  0  0  0  0  0  0  0  0  0
    8.6070   -2.7740  -51.5990 C   0  0  0  0  0  0  0  0  0  0  0  0
    8.5480   -1.7730  -52.7220 C   0  0  0  0  0  0  0  0  0  0  0  0
    7.3790   -1.0920  -52.8340 N   0  0  0  0  0  0  0  0  0  0  0  0
    7.2170   -0.1490  -53.8090 N   0  0  0  0  0  0  0  0  0  0  0  0
    8.2370    0.1010  -54.6620 C   0  0  0  0  0  0  0  0  0  0  0  0
    7.9950    1.1390  -55.7050 C   0  0  0  0  0  0  0  0  0  0  0  0
    6.8510    1.4280  -56.0410 O   0  0  0  0  0  0  0  0  0  0  0  0
    9.1360    1.7140  -56.2280 N   0  0  0  0  0  0  0  0  0  0  0  0
    9.1740    2.7520  -57.2590 C   0  0  2  0  0  0  0  0  0  0  0  0
   10.6450    2.9380  -57.7170 C   0  0  0  0  0  0  0  0  0  0  0  0
   10.7520    4.0200  -58.8030 C   0  0  1  0  0  0  0  0  0  0  0  0
    9.8990    3.6050  -60.0120 C   0  0  0  0  0  0  0  0  0  0  0  0
    8.4310    3.4410  -59.5870 C   0  0  2  0  0  0  0  0  0  0  0  0
    7.9140    4.7740  -59.0180 C   0  0  0  0  0  0  0  0  0  0  0  0
    8.7630    5.1960  -57.8070 C   0  0  2  0  0  0  0  0  0  0  0  0
   10.2280    5.3510  -58.2420 C   0  0  0  0  0  0  0  0  0  0  0  0
    8.6660    4.1120  -56.7180 C   0  0  0  0  0  0  0  0  0  0  0  0
    8.3350    2.3550  -58.5000 C   0  0  0  0  0  0  0  0  0  0  0  0
    9.4470   -0.5650  -54.5820 C   0  0  0  0  0  0  0  0  0  0  0  0
    9.6220   -1.5270  -53.5830 C   0  0  0  0  0  0  0  0  0  0  0  0
   10.9220   -2.2680  -53.4860 C   0  0  0  0  0  0  0  0  0  0  0  0
    8.3614   -2.6200  -49.4642 H   0  0  0  0  0  0  0  0  0  0  0  0
    7.7793   -1.1948  -50.3898 H   0  0  0  0  0  0  0  0  0  0  0  0
    6.8249   -2.7166  -50.3898 H   0  0  0  0  0  0  0  0  0  0  0  0
    9.6587   -2.9350  -51.3197 H   0  0  0  0  0  0  0  0  0  0  0  0
    8.1445   -3.7090  -51.9482 H   0  0  0  0  0  0  0  0  0  0  0  0
   10.0160    1.3710  -55.8500 H   0  0  0  0  0  0  0  0  0  0  0  0
   11.2561    3.2351  -56.8520 H   0  0  0  0  0  0  0  0  0  0  0  0
   11.0046    1.9860  -58.1347 H   0  0  0  0  0  0  0  0  0  0  0  0
   11.8010    4.1372  -59.1126 H   0  0  0  0  0  0  0  0  0  0  0  0
    9.9688    4.3793  -60.7902 H   0  0  0  0  0  0  0  0  0  0  0  0
   10.2707    2.6472  -60.4049 H   0  0  0  0  0  0  0  0  0  0  0  0
    7.8248    3.1497  -60.4574 H   0  0  0  0  0  0  0  0  0  0  0  0
    7.9771    5.5502  -59.7949 H   0  0  0  0  0  0  0  0  0  0  0  0
    6.8688    4.6482  -58.6989 H   0  0  0  0  0  0  0  0  0  0  0  0
    8.3935    6.1533  -57.4107 H   0  0  0  0  0  0  0  0  0  0  0  0
   10.2974    6.1266  -59.0190 H   0  0  0  0  0  0  0  0  0  0  0  0
   10.8350    5.6404  -57.3715 H   0  0  0  0  0  0  0  0  0  0  0  0
    9.2794    4.4101  -55.8549 H   0  0  0  0  0  0  0  0  0  0  0  0
    7.6137    4.0041  -56.4163 H   0  0  0  0  0  0  0  0  0  0  0  0
    7.2832    2.2335  -58.2018 H   0  0  0  0  0  0  0  0  0  0  0  0
    8.7261    1.4104  -58.9059 H   0  0  0  0  0  0  0  0  0  0  0  0
   10.2570   -0.3415  -55.2919 H   0  0  0  0  0  0  0  0  0  0  0  0
   11.1816   -2.4160  -52.4274 H   0  0  0  0  0  0  0  0  0  0  0  0
   10.8243   -3.2461  -53.9797 H   0  0  0  0  0  0  0  0  0  0  0  0
   11.7138   -1.6855  -53.9797 H   0  0  0  0  0  0  0  0  0  0  0  0
  1  2  1  0
  2  3  1  0
  3  4  1  0
  4  5  2  0
  5  6  1  0
  6  7  1  0
  7  8  2  0
  7  9  1  0
 10  9  1  1
 10 11  1  0
 11 12  1  0
 12 13  1  0
 13 14  1  0
 14 15  1  0
 15 16  1  0
 16 17  1  0
 16 18  1  0
 14 19  1  0
  6 20  2  0
 20 21  1  0
 21 22  1  0
 21  3  2  0
 18 10  1  0
 19 10  1  0
 17 12  1  0
  1 23  1  0
  1 24  1  0
  1 25  1  0
  2 26  1  0
  2 27  1  0
  9 28  1  0
 11 29  1  0
 11 30  1  0
 12 31  1  6
 13 32  1  0
 13 33  1  0
 14 34  1  6
 15 35  1  0
 15 36  1  0
 16 37  1  1
 17 38  1  0
 17 39  1  0
 18 40  1  0
 18 41  1  0
 19 42  1  0
 19 43  1  0
 20 44  1  0
 22 45  1  0
 22 46  1  0
 22 47  1  0
M  END
>  <meeko>  (75) 
{"is_sidechain": false}

$$$$

     RDKit          3D

 48 52  0  0  0  0  0  0  0  0999 V2000
   10.3230   -1.8490  -53.4550 C   0  0  0  0  0  0  0  0  0  0  0  0
    9.0190   -1.1650  -53.7380 C   0  0  0  0  0  0  0  0  0  0  0  0
    8.9520   -0.2310  -54.7820 C   0  0  0  0  0  0  0  0  0  0  0  0
    7.7500    0.4080  -55.0360 C   0  0  0  0  0  0  0  0  0  0  0  0
    7.6260    1.4140  -56.1300 C   0  0  0  0  0  0  0  0  0  0  0  0
    6.5200    1.7690  -56.5210 O   0  0  0  0  0  0  0  0  0  0  0  0
    8.8250    1.8780  -56.6310 N   0  0  0  0  0  0  0  0  0  0  0  0
    8.9780    2.8590  -57.7060 C   0  0  2  0  0  0  0  0  0  0  0  0
   10.4620    2.8630  -58.1620 C   0  0  0  0  0  0  0  0  0  0  0  0
   10.6890    3.8780  -59.2950 C   0  0  1  0  0  0  0  0  0  0  0  0
    9.7970    3.5050  -60.4900 C   0  0  0  0  0  0  0  0  0  0  0  0
    8.3200    3.5210  -60.0670 C   0  0  2  0  0  0  0  0  0  0  0  0
    7.9510    4.9260  -59.5610 C   0  0  0  0  0  0  0  0  0  0  0  0
    8.8390    5.3080  -58.3640 C   0  0  2  0  0  0  0  0  0  0  0  0
   10.3120    5.2810  -58.7960 C   0  0  0  0  0  0  0  0  0  0  0  0
    8.6220    4.2890  -57.2290 C   0  0  0  0  0  0  0  0  0  0  0  0
    8.1040    2.5020  -58.9340 C   0  0  0  0  0  0  0  0  0  0  0  0
    6.6350    0.1570  -54.3130 N   0  0  0  0  0  0  0  0  0  0  0  0
    6.6900   -0.7620  -53.2980 N   0  0  0  0  0  0  0  0  0  0  0  0
    7.8470   -1.4160  -53.0180 C   0  0  0  0  0  0  0  0  0  0  0  0
    7.7350   -2.3890  -51.9380 C   0  0  0  0  0  0  0  0  0  0  0  0
    7.8920   -2.3490  -50.5660 C   0  0  0  0  0  0  0  0  0  0  0  0
    7.6340   -3.6580  -50.0850 C   0  0  0  0  0  0  0  0  0  0  0  0
    7.3380   -4.4170  -51.1920 C   0  0  0  0  0  0  0  0  0  0  0  0
    7.3960   -3.6600  -52.3160 O   0  0  0  0  0  0  0  0  0  0  0  0
   10.4685   -1.9253  -52.3673 H   0  0  0  0  0  0  0  0  0  0  0  0
   10.3113   -2.8571  -53.8950 H   0  0  0  0  0  0  0  0  0  0  0  0
   11.1457   -1.2664  -53.8950 H   0  0  0  0  0  0  0  0  0  0  0  0
    9.8413   -0.0092  -55.3903 H   0  0  0  0  0  0  0  0  0  0  0  0
    9.6630    1.4860  -56.2090 H   0  0  0  0  0  0  0  0  0  0  0  0
   11.1001    3.1302  -57.3068 H   0  0  0  0  0  0  0  0  0  0  0  0
   10.7162    1.8598  -58.5348 H   0  0  0  0  0  0  0  0  0  0  0  0
   11.7449    3.8663  -59.6032 H   0  0  0  0  0  0  0  0  0  0  0  0
    9.9517    4.2317  -61.3011 H   0  0  0  0  0  0  0  0  0  0  0  0
   10.0624    2.4959  -60.8382 H   0  0  0  0  0  0  0  0  0  0  0  0
    7.6869    3.2586  -60.9275 H   0  0  0  0  0  0  0  0  0  0  0  0
    8.0995    5.6550  -60.3713 H   0  0  0  0  0  0  0  0  0  0  0  0
    6.8980    4.9286  -59.2429 H   0  0  0  0  0  0  0  0  0  0  0  0
    8.5763    6.3168  -58.0129 H   0  0  0  0  0  0  0  0  0  0  0  0
   10.4673    6.0092  -59.6057 H   0  0  0  0  0  0  0  0  0  0  0  0
   10.9451    5.5394  -57.9344 H   0  0  0  0  0  0  0  0  0  0  0  0
    9.2632    4.5558  -56.3759 H   0  0  0  0  0  0  0  0  0  0  0  0
    7.5636    4.3104  -56.9303 H   0  0  0  0  0  0  0  0  0  0  0  0
    7.0446    2.5094  -58.6382 H   0  0  0  0  0  0  0  0  0  0  0  0
    8.3910    1.5035  -59.2954 H   0  0  0  0  0  0  0  0  0  0  0  0
    8.1647   -1.4706  -49.9626 H   0  0  0  0  0  0  0  0  0  0  0  0
    7.6646   -3.9969  -49.0389 H   0  0  0  0  0  0  0  0  0  0  0  0
    7.0890   -5.4882  -51.1696 H   0  0  0  0  0  0  0  0  0  0  0  0
  1  2  1  0
  2  3  1  0
  3  4  2  0
  4  5  1  0
  5  6  2  0
  5  7  1  0
  8  7  1  1
  8  9  1  0
  9 10  1  0
 10 11  1  0
 11 12  1  0
 12 13  1  0
 13 14  1  0
 14 15  1  0
 14 16  1  0
 12 17  1  0
  4 18  1  0
 18 19  2  0
 19 20  1  0
 20 21  1  0
 21 22  2  0
 22 23  1  0
 23 24  2  0
 24 25  1  0
 20  2  2  0
 25 21  1  0
 16  8  1  0
 17  8  1  0
 15 10  1  0
  1 26  1  0
  1 27  1  0
  1 28  1  0
  3 29  1  0
  7 30  1  0
  9 31  1  0
  9 32  1  0
 10 33  1  6
 11 34  1  0
 11 35  1  0
 12 36  1  6
 13 37  1  0
 13 38  1  0
 14 39  1  1
 15 40  1  0
 15 41  1  0
 16 42  1  0
 16 43  1  0
 17 44  1  0
 17 45  1  0
 22 46  1  0
 23 47  1  0
 24 48  1  0
M  END
>  <meeko>  (76) 
{"is_sidechain": false}

$$$$

     RDKit          3D

 53 56  0  0  0  0  0  0  0  0999 V2000
    5.6320   -3.9920  -50.4150 C   0  0  0  0  0  0  0  0  0  0  0  0
    7.1510   -4.0330  -50.4360 C   0  0  0  0  0  0  0  0  0  0  0  0
    7.7950   -2.6880  -50.7770 C   0  0  0  0  0  0  0  0  0  0  0  0
    8.9820   -2.8140  -51.7360 C   0  0  0  0  0  0  0  0  0  0  0  0
    8.8870   -1.8140  -52.8600 C   0  0  0  0  0  0  0  0  0  0  0  0
    7.8040   -0.9960  -52.8220 N   0  0  0  0  0  0  0  0  0  0  0  0
    7.6220   -0.0430  -53.7830 N   0  0  0  0  0  0  0  0  0  0  0  0
    8.5340    0.0780  -54.7740 C   0  0  0  0  0  0  0  0  0  0  0  0
    8.2750    1.1360  -55.7950 C   0  0  0  0  0  0  0  0  0  0  0  0
    7.1300    1.5040  -56.0330 O   0  0  0  0  0  0  0  0  0  0  0  0
    9.4050    1.6330  -56.4130 N   0  0  0  0  0  0  0  0  0  0  0  0
    9.4280    2.6700  -57.4450 C   0  0  2  0  0  0  0  0  0  0  0  0
    8.5710    2.2720  -58.6720 C   0  0  0  0  0  0  0  0  0  0  0  0
    8.6490    3.3560  -59.7620 C   0  0  1  0  0  0  0  0  0  0  0  0
    8.1420    4.6900  -59.1860 C   0  0  0  0  0  0  0  0  0  0  0  0
    9.0090    5.1140  -57.9880 C   0  0  2  0  0  0  0  0  0  0  0  0
   10.4680    5.2670  -58.4460 C   0  0  0  0  0  0  0  0  0  0  0  0
   10.9820    3.9360  -59.0140 C   0  0  2  0  0  0  0  0  0  0  0  0
   10.1110    3.5200  -60.2100 C   0  0  0  0  0  0  0  0  0  0  0  0
   10.8920    2.8550  -57.9250 C   0  0  0  0  0  0  0  0  0  0  0  0
    8.9300    4.0300  -56.8980 C   0  0  0  0  0  0  0  0  0  0  0  0
    9.6550   -0.7300  -54.8510 C   0  0  0  0  0  0  0  0  0  0  0  0
    9.8520   -1.7040  -53.8670 C   0  0  0  0  0  0  0  0  0  0  0  0
   11.0530   -2.5980  -53.9370 C   0  0  0  0  0  0  0  0  0  0  0  0
    5.2798   -3.9825  -49.3729 H   0  0  0  0  0  0  0  0  0  0  0  0
    5.2826   -3.0841  -50.9284 H   0  0  0  0  0  0  0  0  0  0  0  0
    5.2341   -4.8797  -50.9284 H   0  0  0  0  0  0  0  0  0  0  0  0
    7.5043   -4.3458  -49.4423 H   0  0  0  0  0  0  0  0  0  0  0  0
    7.4438   -4.7405  -51.2258 H   0  0  0  0  0  0  0  0  0  0  0  0
    7.0348   -2.0447  -51.2442 H   0  0  0  0  0  0  0  0  0  0  0  0
    8.1770   -2.2608  -49.8381 H   0  0  0  0  0  0  0  0  0  0  0  0
    9.9136   -2.6384  -51.1780 H   0  0  0  0  0  0  0  0  0  0  0  0
    8.9723   -3.8250  -52.1692 H   0  0  0  0  0  0  0  0  0  0  0  0
   10.2880    1.2280  -56.1100 H   0  0  0  0  0  0  0  0  0  0  0  0
    8.9441    1.3212  -59.0804 H   0  0  0  0  0  0  0  0  0  0  0  0
    7.5237    2.1644  -58.3532 H   0  0  0  0  0  0  0  0  0  0  0  0
    8.0288    3.0633  -60.6220 H   0  0  0  0  0  0  0  0  0  0  0  0
    8.1938    5.4653  -59.9647 H   0  0  0  0  0  0  0  0  0  0  0  0
    7.1020    4.5644  -58.8503 H   0  0  0  0  0  0  0  0  0  0  0  0
    8.6452    6.0715  -57.5870 H   0  0  0  0  0  0  0  0  0  0  0  0
   10.5262    6.0420  -59.2244 H   0  0  0  0  0  0  0  0  0  0  0  0
   11.0885    5.5560  -57.5850 H   0  0  0  0  0  0  0  0  0  0  0  0
   12.0260    4.0526  -59.3404 H   0  0  0  0  0  0  0  0  0  0  0  0
   10.1688    4.2938  -60.9897 H   0  0  0  0  0  0  0  0  0  0  0  0
   10.4770    2.5622  -60.6082 H   0  0  0  0  0  0  0  0  0  0  0  0
   11.2600    1.9020  -58.3328 H   0  0  0  0  0  0  0  0  0  0  0  0
   11.5050    3.1694  -57.0674 H   0  0  0  0  0  0  0  0  0  0  0  0
    9.5576    4.3284  -56.0453 H   0  0  0  0  0  0  0  0  0  0  0  0
    7.8824    3.9223  -56.5802 H   0  0  0  0  0  0  0  0  0  0  0  0
   10.3778   -0.6083  -55.6712 H   0  0  0  0  0  0  0  0  0  0  0  0
   11.3857   -2.8456  -52.9182 H   0  0  0  0  0  0  0  0  0  0  0  0
   10.7911   -3.5227  -54.4721 H   0  0  0  0  0  0  0  0  0  0  0  0
   11.8637   -2.0818  -54.4721 H   0  0  0  0  0  0  0  0  0  0  0  0
  1  2  1  0
  2  3  1  0
  3  4  1  0
  4  5  1  0
  5  6  1  0
  6  7  2  0
  7  8  1  0
  8  9  1  0
  9 10  2  0
  9 11  1  0
 12 11  1  1
 12 13  1  0
 13 14  1  0
 14 15  1  0
 15 16  1  0
 16 17  1  0
 17 18  1  0
 18 19  1  0
 18 20  1  0
 16 21  1  0
  8 22  2  0
 22 23  1  0
 23 24  1  0
 23  5  2  0
 20 12  1  0
 21 12  1  0
 19 14  1  0
  1 25  1  0
  1 26  1  0
  1 27  1  0
  2 28  1  0
  2 29  1  0
  3 30  1  0
  3 31  1  0
  4 32  1  0
  4 33  1  0
 11 34  1  0
 13 35  1  0
 13 36  1  0
 14 37  1  6
 15 38  1  0
 15 39  1  0
 16 40  1  1
 17 41  1  0
 17 42  1  0
 18 43  1  6
 19 44  1  0
 19 45  1  0
 20 46  1  0
 20 47  1  0
 21 48  1  0
 21 49  1  0
 22 50  1  0
 24 51  1  0
 24 52  1  0
 24 53  1  0
M  END
>  <meeko>  (77) 
{"is_sidechain": false}

$$$$

     RDKit          3D

 62 66  0  0  0  0  0  0  0  0999 V2000
   10.2320   -4.0570  -55.1100 C   0  0  0  0  0  0  0  0  0  0  0  0
   11.1910   -3.2330  -54.2630 C   0  0  0  0  0  0  0  0  0  0  0  0
   10.4950   -2.3890  -53.1940 C   0  0  0  0  0  0  0  0  0  0  0  0
    9.4670   -1.4630  -53.7600 C   0  0  0  0  0  0  0  0  0  0  0  0
    9.6090   -0.5080  -54.7470 C   0  0  0  0  0  0  0  0  0  0  0  0
    8.3300    0.0630  -54.9260 C   0  0  0  0  0  0  0  0  0  0  0  0
    7.9530    1.1280  -55.8710 C   0  0  0  0  0  0  0  0  0  0  0  0
    6.7910    1.4850  -56.0360 O   0  0  0  0  0  0  0  0  0  0  0  0
    9.0390    1.6600  -56.5290 N   0  0  0  0  0  0  0  0  0  0  0  0
    9.0100    2.7270  -57.5230 C   0  0  2  0  0  0  0  0  0  0  0  0
    7.9600    2.4490  -58.6270 C   0  0  0  0  0  0  0  0  0  0  0  0
    7.9820    3.5650  -59.6880 C   0  0  1  0  0  0  0  0  0  0  0  0
    7.6770    4.9120  -59.0120 C   0  0  0  0  0  0  0  0  0  0  0  0
    8.7330    5.2170  -57.9360 C   0  0  2  0  0  0  0  0  0  0  0  0
   10.1230    5.2680  -58.5910 C   0  0  0  0  0  0  0  0  0  0  0  0
   10.4380    3.9210  -59.2610 C   0  0  2  0  0  0  0  0  0  0  0  0
    9.3770    3.6250  -60.3320 C   0  0  0  0  0  0  0  0  0  0  0  0
   10.4040    2.8100  -58.1990 C   0  0  0  0  0  0  0  0  0  0  0  0
    8.7110    4.1030  -56.8750 C   0  0  0  0  0  0  0  0  0  0  0  0
    7.4310   -0.5040  -54.0970 N   0  0  0  0  0  0  0  0  0  0  0  0
    8.1430   -1.4110  -53.3920 N   0  0  0  0  0  0  0  0  0  0  0  0
    7.4510   -2.2180  -52.3880 C   0  0  0  0  0  0  0  0  0  0  0  0
    7.2100   -3.6620  -52.8600 C   0  0  0  0  0  0  0  0  0  0  0  0
    6.4840   -4.4800  -51.7940 C   0  0  0  0  0  0  0  0  0  0  0  0
    7.2250   -4.4480  -50.4600 C   0  0  0  0  0  0  0  0  0  0  0  0
    7.4730   -3.0190  -49.9870 C   0  0  0  0  0  0  0  0  0  0  0  0
    8.1960   -2.1880  -51.0450 C   0  0  0  0  0  0  0  0  0  0  0  0
    9.5632   -4.6317  -54.4524 H   0  0  0  0  0  0  0  0  0  0  0  0
    9.6345   -3.3862  -55.7449 H   0  0  0  0  0  0  0  0  0  0  0  0
   10.8052   -4.7487  -55.7449 H   0  0  0  0  0  0  0  0  0  0  0  0
   11.8906   -3.9191  -53.7631 H   0  0  0  0  0  0  0  0  0  0  0  0
   11.7022   -2.5349  -54.9422 H   0  0  0  0  0  0  0  0  0  0  0  0
   10.0027   -3.0648  -52.4792 H   0  0  0  0  0  0  0  0  0  0  0  0
   11.2649   -1.7702  -52.7099 H   0  0  0  0  0  0  0  0  0  0  0  0
   10.5317   -0.2452  -55.2850 H   0  0  0  0  0  0  0  0  0  0  0  0
    9.9250    1.2380  -56.2580 H   0  0  0  0  0  0  0  0  0  0  0  0
    8.1882    1.4870  -59.1092 H   0  0  0  0  0  0  0  0  0  0  0  0
    6.9614    2.4161  -58.1670 H   0  0  0  0  0  0  0  0  0  0  0  0
    7.2264    3.3579  -60.4601 H   0  0  0  0  0  0  0  0  0  0  0  0
    7.6890    5.7097  -59.7694 H   0  0  0  0  0  0  0  0  0  0  0  0
    6.6859    4.8595  -58.5378 H   0  0  0  0  0  0  0  0  0  0  0  0
    8.5118    6.1845  -57.4616 H   0  0  0  0  0  0  0  0  0  0  0  0
   10.1394    6.0647  -59.3493 H   0  0  0  0  0  0  0  0  0  0  0  0
   10.8789    5.4726  -57.8185 H   0  0  0  0  0  0  0  0  0  0  0  0
   11.4335    3.9633  -59.7271 H   0  0  0  0  0  0  0  0  0  0  0  0
    9.3938    4.4209  -61.0911 H   0  0  0  0  0  0  0  0  0  0  0  0
    9.5995    2.6559  -60.8024 H   0  0  0  0  0  0  0  0  0  0  0  0
   10.6283    1.8463  -58.6797 H   0  0  0  0  0  0  0  0  0  0  0  0
   11.1535    3.0406  -57.4276 H   0  0  0  0  0  0  0  0  0  0  0  0
    9.4732    4.3162  -56.1110 H   0  0  0  0  0  0  0  0  0  0  0  0
    7.7117    4.0695  -56.4163 H   0  0  0  0  0  0  0  0  0  0  0  0
    6.4600   -1.7639  -52.2407 H   0  0  0  0  0  0  0  0  0  0  0  0
    6.5993   -3.6429  -53.7747 H   0  0  0  0  0  0  0  0  0  0  0  0
    8.1857   -4.1316  -53.0535 H   0  0  0  0  0  0  0  0  0  0  0  0
    5.4749   -4.0658  -51.6519 H   0  0  0  0  0  0  0  0  0  0  0  0
    6.4353   -5.5245  -52.1356 H   0  0  0  0  0  0  0  0  0  0  0  0
    6.6226   -4.9741  -49.7048 H   0  0  0  0  0  0  0  0  0  0  0  0
    8.2002   -4.9381  -50.5973 H   0  0  0  0  0  0  0  0  0  0  0  0
    6.5059   -2.5456  -49.7623 H   0  0  0  0  0  0  0  0  0  0  0  0
    8.1104   -3.0614  -49.0915 H   0  0  0  0  0  0  0  0  0  0  0  0
    8.2642   -1.1468  -50.6969 H   0  0  0  0  0  0  0  0  0  0  0  0
    9.1980   -2.6161  -51.1957 H   0  0  0  0  0  0  0  0  0  0  0  0
  1  2  1  0
  2  3  1  0
  3  4  1  0
  4  5  2  0
  5  6  1  0
  6  7  1  0
  7  8  2  0
  7  9  1  0
 10  9  1  1
 10 11  1  0
 11 12  1  0
 12 13  1  0
 13 14  1  0
 14 15  1  0
 15 16  1  0
 16 17  1  0
 16 18  1  0
 14 19  1  0
  6 20  2  0
 20 21  1  0
 21 22  1  0
 22 23  1  0
 23 24  1  0
 24 25  1  0
 25 26  1  0
 26 27  1  0
 21  4  1  0
 27 22  1  0
 18 10  1  0
 19 10  1  0
 17 12  1  0
  1 28  1  0
  1 29  1  0
  1 30  1  0
  2 31  1  0
  2 32  1  0
  3 33  1  0
  3 34  1  0
  5 35  1  0
  9 36  1  0
 11 37  1  0
 11 38  1  0
 12 39  1  6
 13 40  1  0
 13 41  1  0
 14 42  1  1
 15 43  1  0
 15 44  1  0
 16 45  1  6
 17 46  1  0
 17 47  1  0
 18 48  1  0
 18 49  1  0
 19 50  1  0
 19 51  1  0
 22 52  1  0
 23 53  1  0
 23 54  1  0
 24 55  1  0
 24 56  1  0
 25 57  1  0
 25 58  1  0
 26 59  1  0
 26 60  1  0
 27 61  1  0
 27 62  1  0
M  END
>  <meeko>  (78) 
{"is_sidechain": false}

$$$$

     RDKit          3D

 49 52  0  0  0  0  0  0  0  0999 V2000
    5.5160   -4.0910  -50.4670 C   0  0  0  0  0  0  0  0  0  0  0  0
    6.9750   -3.7960  -50.1460 C   0  0  0  0  0  0  0  0  0  0  0  0
    7.3480   -2.3210  -50.3130 C   0  0  0  0  0  0  0  0  0  0  0  0
    8.1020   -2.0450  -51.5720 C   0  0  0  0  0  0  0  0  0  0  0  0
    9.1800   -2.7030  -52.1270 C   0  0  0  0  0  0  0  0  0  0  0  0
    9.4810   -2.0120  -53.3260 C   0  0  0  0  0  0  0  0  0  0  0  0
   10.5570   -2.3220  -54.2830 C   0  0  0  0  0  0  0  0  0  0  0  0
   11.5400   -1.6020  -54.4290 O   0  0  0  0  0  0  0  0  0  0  0  0
   10.3300   -3.4900  -54.9770 N   0  0  0  0  0  0  0  0  0  0  0  0
   11.1970   -4.0730  -55.9940 C   0  0  2  0  0  0  0  0  0  0  0  0
   11.8190   -2.9860  -56.9050 C   0  0  0  0  0  0  0  0  0  0  0  0
   12.6910   -3.6290  -57.9980 C   0  0  1  0  0  0  0  0  0  0  0  0
   13.8100   -4.4500  -57.3360 C   0  0  0  0  0  0  0  0  0  0  0  0
   13.2040   -5.5570  -56.4550 C   0  0  2  0  0  0  0  0  0  0  0  0
   12.3330   -6.4760  -57.3250 C   0  0  0  0  0  0  0  0  0  0  0  0
   11.2070   -5.6620  -57.9830 C   0  0  2  0  0  0  0  0  0  0  0  0
   11.8210   -4.5590  -58.8590 C   0  0  0  0  0  0  0  0  0  0  0  0
   10.3460   -5.0150  -56.8870 C   0  0  0  0  0  0  0  0  0  0  0  0
   12.3330   -4.9140  -55.3610 C   0  0  0  0  0  0  0  0  0  0  0  0
    8.6310   -0.9820  -53.5140 N   0  0  0  0  0  0  0  0  0  0  0  0
    7.8090   -1.0300  -52.4470 N   0  0  0  0  0  0  0  0  0  0  0  0
    6.7420   -0.0620  -52.3420 C   0  0  0  0  0  0  0  0  0  0  0  0
    4.9504   -4.2054  -49.5305 H   0  0  0  0  0  0  0  0  0  0  0  0
    5.0938   -3.2600  -51.0512 H   0  0  0  0  0  0  0  0  0  0  0  0
    5.4498   -5.0207  -51.0512 H   0  0  0  0  0  0  0  0  0  0  0  0
    7.1687   -4.0888  -49.1035 H   0  0  0  0  0  0  0  0  0  0  0  0
    7.5865   -4.3683  -50.8591 H   0  0  0  0  0  0  0  0  0  0  0  0
    6.4234   -1.7251  -50.3212 H   0  0  0  0  0  0  0  0  0  0  0  0
    8.0047   -2.0522  -49.4725 H   0  0  0  0  0  0  0  0  0  0  0  0
    9.6993   -3.5838  -51.7214 H   0  0  0  0  0  0  0  0  0  0  0  0
    9.4590   -3.9520  -54.7220 H   0  0  0  0  0  0  0  0  0  0  0  0
   11.0128   -2.4074  -57.3796 H   0  0  0  0  0  0  0  0  0  0  0  0
   12.4497   -2.3267  -56.2905 H   0  0  0  0  0  0  0  0  0  0  0  0
   13.1317   -2.8440  -58.6301 H   0  0  0  0  0  0  0  0  0  0  0  0
   14.4356   -4.9078  -58.1164 H   0  0  0  0  0  0  0  0  0  0  0  0
   14.4212   -3.7848  -56.7084 H   0  0  0  0  0  0  0  0  0  0  0  0
   14.0091   -6.1439  -55.9889 H   0  0  0  0  0  0  0  0  0  0  0  0
   12.9556   -6.9353  -58.1069 H   0  0  0  0  0  0  0  0  0  0  0  0
   11.8907   -7.2601  -56.6928 H   0  0  0  0  0  0  0  0  0  0  0  0
   10.5857   -6.3243  -58.6037 H   0  0  0  0  0  0  0  0  0  0  0  0
   12.4427   -5.0187  -59.6415 H   0  0  0  0  0  0  0  0  0  0  0  0
   11.0132   -3.9729  -59.3216 H   0  0  0  0  0  0  0  0  0  0  0  0
    9.5409   -4.4328  -57.3590 H   0  0  0  0  0  0  0  0  0  0  0  0
    9.9263   -5.8118  -56.2553 H   0  0  0  0  0  0  0  0  0  0  0  0
   11.8924   -5.7059  -54.7376 H   0  0  0  0  0  0  0  0  0  0  0  0
   12.9637   -4.2539  -54.7474 H   0  0  0  0  0  0  0  0  0  0  0  0
    6.5270    0.1331  -51.2810 H   0  0  0  0  0  0  0  0  0  0  0  0
    7.0467    0.8742  -52.8325 H   0  0  0  0  0  0  0  0  0  0  0  0
    5.8398   -0.4561  -52.8325 H   0  0  0  0  0  0  0  0  0  0  0  0
  1  2  1  0
  2  3  1  0
  3  4  1  0
  4  5  2  0
  5  6  1  0
  6  7  1  0
  7  8  2  0
  7  9  1  0
 10  9  1  1
 10 11  1  0
 11 12  1  0
 12 13  1  0
 13 14  1  0
 14 15  1  0
 15 16  1  0
 16 17  1  0
 16 18  1  0
 14 19  1  0
  6 20  2  0
 20 21  1  0
 21 22  1  0
 21  4  1  0
 18 10  1  0
 19 10  1  0
 17 12  1  0
  1 23  1  0
  1 24  1  0
  1 25  1  0
  2 26  1  0
  2 27  1  0
  3 28  1  0
  3 29  1  0
  5 30  1  0
  9 31  1  0
 11 32  1  0
 11 33  1  0
 12 34  1  6
 13 35  1  0
 13 36  1  0
 14 37  1  1
 15 38  1  0
 15 39  1  0
 16 40  1  6
 17 41  1  0
 17 42  1  0
 18 43  1  0
 18 44  1  0
 19 45  1  0
 19 46  1  0
 22 47  1  0
 22 48  1  0
 22 49  1  0
M  END
>  <meeko>  (79) 
{"is_sidechain": false}

$$$$

     RDKit          3D

 61 64  0  0  0  0  0  0  0  0999 V2000
   11.8630   -4.5070  -58.7200 C   0  0  0  0  0  0  0  0  0  0  0  0
   11.5070   -3.7270  -57.4650 C   0  0  0  0  0  0  0  0  0  0  0  0
   11.6770   -4.5300  -56.1730 C   0  0  0  0  0  0  0  0  0  0  0  0
   10.7340   -4.0800  -55.0520 C   0  0  0  0  0  0  0  0  0  0  0  0
   11.1710   -2.7680  -54.3930 C   0  0  0  0  0  0  0  0  0  0  0  0
   10.1230   -1.7650  -54.3320 N   0  0  0  0  0  0  0  0  0  0  0  0
   10.0650   -0.8410  -55.3060 N   0  0  0  0  0  0  0  0  0  0  0  0
    9.0220   -0.0550  -54.9890 C   0  0  0  0  0  0  0  0  0  0  0  0
    8.6270    1.0920  -55.8390 C   0  0  0  0  0  0  0  0  0  0  0  0
    7.4980    1.5750  -55.8260 O   0  0  0  0  0  0  0  0  0  0  0  0
    9.6450    1.5860  -56.6400 N   0  0  0  0  0  0  0  0  0  0  0  0
    9.5280    2.7690  -57.4990 C   0  0  2  0  0  0  0  0  0  0  0  0
    9.4120    4.0710  -56.6690 C   0  0  0  0  0  0  0  0  0  0  0  0
    9.3520    5.3000  -57.5940 C   0  0  1  0  0  0  0  0  0  0  0  0
   10.6340    5.3650  -58.4380 C   0  0  0  0  0  0  0  0  0  0  0  0
   10.7660    4.0930  -59.2920 C   0  0  2  0  0  0  0  0  0  0  0  0
    9.5470    3.9750  -60.2200 C   0  0  0  0  0  0  0  0  0  0  0  0
    8.2590    3.9010  -59.3870 C   0  0  2  0  0  0  0  0  0  0  0  0
    8.1360    5.1720  -58.5280 C   0  0  0  0  0  0  0  0  0  0  0  0
    8.3190    2.6710  -58.4640 C   0  0  0  0  0  0  0  0  0  0  0  0
   10.8140    2.8680  -58.3660 C   0  0  0  0  0  0  0  0  0  0  0  0
    8.4330   -0.4990  -53.7730 C   0  0  0  0  0  0  0  0  0  0  0  0
    9.1650   -1.5950  -53.3650 C   0  0  0  0  0  0  0  0  0  0  0  0
    9.0190   -2.4510  -52.1520 C   0  0  0  0  0  0  0  0  0  0  0  0
    7.7960   -2.0480  -51.3260 C   0  0  0  0  0  0  0  0  0  0  0  0
    7.8420   -2.6530  -49.9330 C   0  0  0  0  0  0  0  0  0  0  0  0
   12.3044   -5.4742  -58.4377 H   0  0  0  0  0  0  0  0  0  0  0  0
   10.9540   -4.6786  -59.3153 H   0  0  0  0  0  0  0  0  0  0  0  0
   12.5882   -3.9327  -59.3153 H   0  0  0  0  0  0  0  0  0  0  0  0
   12.1562   -2.8406  -57.4111 H   0  0  0  0  0  0  0  0  0  0  0  0
   10.4419   -3.4629  -57.5418 H   0  0  0  0  0  0  0  0  0  0  0  0
   11.4789   -5.5897  -56.3917 H   0  0  0  0  0  0  0  0  0  0  0  0
   12.7056   -4.3654  -55.8196 H   0  0  0  0  0  0  0  0  0  0  0  0
    9.7279   -3.9419  -55.4746 H   0  0  0  0  0  0  0  0  0  0  0  0
   10.7499   -4.8594  -54.2759 H   0  0  0  0  0  0  0  0  0  0  0  0
   11.5003   -2.9883  -53.3668 H   0  0  0  0  0  0  0  0  0  0  0  0
   11.9776   -2.3510  -55.0138 H   0  0  0  0  0  0  0  0  0  0  0  0
   10.5790    1.2720  -56.4230 H   0  0  0  0  0  0  0  0  0  0  0  0
    8.4964    4.0315  -56.0606 H   0  0  0  0  0  0  0  0  0  0  0  0
   10.2964    4.1581  -56.0207 H   0  0  0  0  0  0  0  0  0  0  0  0
    9.2614    6.2141  -56.9889 H   0  0  0  0  0  0  0  0  0  0  0  0
   10.5916    6.2441  -59.0979 H   0  0  0  0  0  0  0  0  0  0  0  0
   11.5035    5.4427  -57.7688 H   0  0  0  0  0  0  0  0  0  0  0  0
   11.6858    4.1439  -59.8931 H   0  0  0  0  0  0  0  0  0  0  0  0
    9.5045    4.8544  -60.8794 H   0  0  0  0  0  0  0  0  0  0  0  0
    9.6398    3.0604  -60.8241 H   0  0  0  0  0  0  0  0  0  0  0  0
    7.3905    3.8195  -60.0571 H   0  0  0  0  0  0  0  0  0  0  0  0
    8.0885    6.0523  -59.1859 H   0  0  0  0  0  0  0  0  0  0  0  0
    7.2212    5.1083  -57.9205 H   0  0  0  0  0  0  0  0  0  0  0  0
    7.3911    2.6152  -57.8759 H   0  0  0  0  0  0  0  0  0  0  0  0
    8.4329    1.7691  -59.0834 H   0  0  0  0  0  0  0  0  0  0  0  0
   10.9050    1.9586  -58.9782 H   0  0  0  0  0  0  0  0  0  0  0  0
   11.6796    2.9718  -57.6952 H   0  0  0  0  0  0  0  0  0  0  0  0
    7.5664   -0.0566  -53.2599 H   0  0  0  0  0  0  0  0  0  0  0  0
    8.9090   -3.4996  -52.4655 H   0  0  0  0  0  0  0  0  0  0  0  0
    9.9154   -2.3212  -51.5278 H   0  0  0  0  0  0  0  0  0  0  0  0
    7.7686   -0.9518  -51.2390 H   0  0  0  0  0  0  0  0  0  0  0  0
    6.8961   -2.4225  -51.8358 H   0  0  0  0  0  0  0  0  0  0  0  0
    7.7810   -1.8509  -49.1827 H   0  0  0  0  0  0  0  0  0  0  0  0
    6.9936   -3.3411  -49.8039 H   0  0  0  0  0  0  0  0  0  0  0  0
    8.7847   -3.2049  -49.8039 H   0  0  0  0  0  0  0  0  0  0  0  0
  1  2  1  0
  2  3  1  0
  3  4  1  0
  4  5  1  0
  5  6  1  0
  6  7  1  0
  7  8  2  0
  8  9  1  0
  9 10  2  0
  9 11  1  0
 12 11  1  1
 12 13  1  0
 13 14  1  0
 14 15  1  0
 15 16  1  0
 16 17  1  0
 17 18  1  0
 18 19  1  0
 18 20  1  0
 16 21  1  0
  8 22  1  0
 22 23  2  0
 23 24  1  0
 24 25  1  0
 25 26  1  0
 23  6  1  0
 20 12  1  0
 21 12  1  0
 19 14  1  0
  1 27  1  0
  1 28  1  0
  1 29  1  0
  2 30  1  0
  2 31  1  0
  3 32  1  0
  3 33  1  0
  4 34  1  0
  4 35  1  0
  5 36  1  0
  5 37  1  0
 11 38  1  0
 13 39  1  0
 13 40  1  0
 14 41  1  1
 15 42  1  0
 15 43  1  0
 16 44  1  6
 17 45  1  0
 17 46  1  0
 18 47  1  6
 19 48  1  0
 19 49  1  0
 20 50  1  0
 20 51  1  0
 21 52  1  0
 21 53  1  0
 22 54  1  0
 24 55  1  0
 24 56  1  0
 25 57  1  0
 25 58  1  0
 26 59  1  0
 26 60  1  0
 26 61  1  0
M  END
>  <meeko>  (80) 
{"is_sidechain": false}

$$$$

     RDKit          3D

 53 57  0  0  0  0  0  0  0  0999 V2000
    8.6470   -2.1260  -52.5890 C   0  0  0  0  0  0  0  0  0  0  0  0
    8.9100   -1.2110  -53.7250 C   0  0  0  0  0  0  0  0  0  0  0  0
    8.1680   -0.1610  -54.2220 C   0  0  0  0  0  0  0  0  0  0  0  0
    8.9050    0.3630  -55.3200 C   0  0  0  0  0  0  0  0  0  0  0  0
    8.5550    1.4970  -56.2060 C   0  0  0  0  0  0  0  0  0  0  0  0
    7.4300    1.9880  -56.2500 O   0  0  0  0  0  0  0  0  0  0  0  0
    9.6020    1.9480  -56.9970 N   0  0  0  0  0  0  0  0  0  0  0  0
    9.4840    2.9950  -58.0170 C   0  0  2  0  0  0  0  0  0  0  0  0
    9.2100    4.3880  -57.3940 C   0  0  0  0  0  0  0  0  0  0  0  0
    9.1460    5.4680  -58.4880 C   0  0  1  0  0  0  0  0  0  0  0  0
   10.4900    5.5190  -59.2310 C   0  0  0  0  0  0  0  0  0  0  0  0
   10.7820    4.1570  -59.8780 C   0  0  2  0  0  0  0  0  0  0  0  0
    9.6590    3.8130  -60.8710 C   0  0  0  0  0  0  0  0  0  0  0  0
    8.3100    3.7520  -60.1370 C   0  0  2  0  0  0  0  0  0  0  0  0
    8.0280    5.1150  -59.4830 C   0  0  0  0  0  0  0  0  0  0  0  0
    8.3730    2.6690  -59.0450 C   0  0  0  0  0  0  0  0  0  0  0  0
   10.8330    3.0800  -58.7830 C   0  0  0  0  0  0  0  0  0  0  0  0
   10.0370   -0.3400  -55.4930 N   0  0  0  0  0  0  0  0  0  0  0  0
   10.0310   -1.2690  -54.5160 N   0  0  0  0  0  0  0  0  0  0  0  0
   11.1350   -2.2230  -54.4450 C   0  0  0  0  0  0  0  0  0  0  0  0
   11.2240   -3.0890  -55.6780 C   0  0  0  0  0  0  0  0  0  0  0  0
   11.8400   -2.6090  -56.8440 C   0  0  0  0  0  0  0  0  0  0  0  0
   11.9340   -3.4160  -57.9790 C   0  0  0  0  0  0  0  0  0  0  0  0
   11.4200   -4.7110  -57.9610 C   0  0  0  0  0  0  0  0  0  0  0  0
   10.8150   -5.2030  -56.8060 C   0  0  0  0  0  0  0  0  0  0  0  0
   10.7210   -4.3990  -55.6700 C   0  0  0  0  0  0  0  0  0  0  0  0
    8.8015   -1.5884  -51.6418 H   0  0  0  0  0  0  0  0  0  0  0  0
    7.6090   -2.4862  -52.6410 H   0  0  0  0  0  0  0  0  0  0  0  0
    9.3353   -2.9824  -52.6410 H   0  0  0  0  0  0  0  0  0  0  0  0
    7.1996    0.1996  -53.8449 H   0  0  0  0  0  0  0  0  0  0  0  0
   10.4120    1.3470  -57.0530 H   0  0  0  0  0  0  0  0  0  0  0  0
    8.2508    4.3610  -56.8562 H   0  0  0  0  0  0  0  0  0  0  0  0
   10.0283    4.6335  -56.7011 H   0  0  0  0  0  0  0  0  0  0  0  0
    8.9398    6.4470  -58.0307 H   0  0  0  0  0  0  0  0  0  0  0  0
   10.4456    6.2919  -60.0124 H   0  0  0  0  0  0  0  0  0  0  0  0
   11.2903    5.7589  -58.5155 H   0  0  0  0  0  0  0  0  0  0  0  0
   11.7450    4.1979  -60.4080 H   0  0  0  0  0  0  0  0  0  0  0  0
    9.6141    4.5859  -61.6524 H   0  0  0  0  0  0  0  0  0  0  0  0
    9.8670    2.8338  -61.3269 H   0  0  0  0  0  0  0  0  0  0  0  0
    7.5099    3.5100  -60.8521 H   0  0  0  0  0  0  0  0  0  0  0  0
    7.9781    5.8889  -60.2631 H   0  0  0  0  0  0  0  0  0  0  0  0
    7.0707    5.0631  -58.9437 H   0  0  0  0  0  0  0  0  0  0  0  0
    7.4038    2.6214  -58.5269 H   0  0  0  0  0  0  0  0  0  0  0  0
    8.6000    1.7020  -59.5175 H   0  0  0  0  0  0  0  0  0  0  0  0
   11.0441    2.1055  -59.2475 H   0  0  0  0  0  0  0  0  0  0  0  0
   11.6243    3.3474  -58.0673 H   0  0  0  0  0  0  0  0  0  0  0  0
   12.0772   -1.6661  -54.3351 H   0  0  0  0  0  0  0  0  0  0  0  0
   10.9551   -2.8823  -53.5830 H   0  0  0  0  0  0  0  0  0  0  0  0
   12.2518   -1.5892  -56.8636 H   0  0  0  0  0  0  0  0  0  0  0  0
   12.4148   -3.0289  -58.8895 H   0  0  0  0  0  0  0  0  0  0  0  0
   11.4917   -5.3443  -58.8575 H   0  0  0  0  0  0  0  0  0  0  0  0
   10.4113   -6.2261  -56.7902 H   0  0  0  0  0  0  0  0  0  0  0  0
   10.2482   -4.7956  -54.7594 H   0  0  0  0  0  0  0  0  0  0  0  0
  1  2  1  0
  2  3  2  0
  3  4  1  0
  4  5  1  0
  5  6  2  0
  5  7  1  0
  8  7  1  1
  8  9  1  0
  9 10  1  0
 10 11  1  0
 11 12  1  0
 12 13  1  0
 13 14  1  0
 14 15  1  0
 14 16  1  0
 12 17  1  0
  4 18  2  0
 18 19  1  0
 19 20  1  0
 20 21  1  0
 21 22  2  0
 22 23  1  0
 23 24  2  0
 24 25  1  0
 25 26  2  0
 19  2  1  0
 26 21  1  0
 16  8  1  0
 17  8  1  0
 15 10  1  0
  1 27  1  0
  1 28  1  0
  1 29  1  0
  3 30  1  0
  7 31  1  0
  9 32  1  0
  9 33  1  0
 10 34  1  1
 11 35  1  0
 11 36  1  0
 12 37  1  6
 13 38  1  0
 13 39  1  0
 14 40  1  6
 15 41  1  0
 15 42  1  0
 16 43  1  0
 16 44  1  0
 17 45  1  0
 17 46  1  0
 20 47  1  0
 20 48  1  0
 22 49  1  0
 23 50  1  0
 24 51  1  0
 25 52  1  0
 26 53  1  0
M  END
>  <meeko>  (81) 
{"is_sidechain": false}

$$$$

     RDKit          3D

 58 61  0  0  0  0  0  0  0  0999 V2000
    7.8870   -2.5250  -50.2020 C   0  0  0  0  0  0  0  0  0  0  0  0
    7.7830   -1.8450  -51.5580 C   0  0  0  0  0  0  0  0  0  0  0  0
    8.9660   -2.2100  -52.4570 C   0  0  0  0  0  0  0  0  0  0  0  0
    9.1060   -1.3230  -53.6550 C   0  0  0  0  0  0  0  0  0  0  0  0
    8.3790   -0.2300  -54.0840 C   0  0  0  0  0  0  0  0  0  0  0  0
    8.9930    0.2190  -55.2850 C   0  0  0  0  0  0  0  0  0  0  0  0
    8.6090    1.3600  -56.1470 C   0  0  0  0  0  0  0  0  0  0  0  0
    7.5030    1.8930  -56.0950 O   0  0  0  0  0  0  0  0  0  0  0  0
    9.6090    1.7890  -57.0070 N   0  0  0  0  0  0  0  0  0  0  0  0
    9.5030    2.9530  -57.8920 C   0  0  2  0  0  0  0  0  0  0  0  0
    8.3670    2.7910  -58.9350 C   0  0  0  0  0  0  0  0  0  0  0  0
    8.3210    4.0050  -59.8800 C   0  0  1  0  0  0  0  0  0  0  0  0
    8.0900    5.2820  -59.0530 C   0  0  0  0  0  0  0  0  0  0  0  0
    9.2340    5.4720  -58.0430 C   0  0  2  0  0  0  0  0  0  0  0  0
   10.5670    5.5760  -58.8000 C   0  0  0  0  0  0  0  0  0  0  0  0
   10.8060    4.3000  -59.6200 C   0  0  2  0  0  0  0  0  0  0  0  0
    9.6590    4.1190  -60.6260 C   0  0  0  0  0  0  0  0  0  0  0  0
   10.8400    3.0900  -58.6730 C   0  0  0  0  0  0  0  0  0  0  0  0
    9.2810    4.2610  -57.0940 C   0  0  0  0  0  0  0  0  0  0  0  0
   10.0510   -0.5570  -55.5740 N   0  0  0  0  0  0  0  0  0  0  0  0
   10.0970   -1.4740  -54.5950 N   0  0  0  0  0  0  0  0  0  0  0  0
   11.1710   -2.4560  -54.6240 C   0  0  0  0  0  0  0  0  0  0  0  0
   11.0330   -3.4870  -55.7580 C   0  0  0  0  0  0  0  0  0  0  0  0
   11.6110   -4.8490  -55.3700 C   0  0  0  0  0  0  0  0  0  0  0  0
   11.7300   -2.9680  -57.0170 C   0  0  0  0  0  0  0  0  0  0  0  0
    7.7723   -1.7747  -49.4058 H   0  0  0  0  0  0  0  0  0  0  0  0
    7.0942   -3.2819  -50.1096 H   0  0  0  0  0  0  0  0  0  0  0  0
    8.8698   -3.0103  -50.1096 H   0  0  0  0  0  0  0  0  0  0  0  0
    6.8503   -2.1625  -52.0471 H   0  0  0  0  0  0  0  0  0  0  0  0
    7.7901   -0.7563  -51.4011 H   0  0  0  0  0  0  0  0  0  0  0  0
    9.8889   -2.1395  -51.8626 H   0  0  0  0  0  0  0  0  0  0  0  0
    8.7847   -3.2288  -52.8300 H   0  0  0  0  0  0  0  0  0  0  0  0
    7.4974    0.2075  -53.5926 H   0  0  0  0  0  0  0  0  0  0  0  0
   10.5380    1.4410  -56.8210 H   0  0  0  0  0  0  0  0  0  0  0  0
    8.5456    1.8801  -59.5253 H   0  0  0  0  0  0  0  0  0  0  0  0
    7.4063    2.7186  -58.4041 H   0  0  0  0  0  0  0  0  0  0  0  0
    7.5034    3.8794  -60.6051 H   0  0  0  0  0  0  0  0  0  0  0  0
    8.0522    6.1502  -59.7273 H   0  0  0  0  0  0  0  0  0  0  0  0
    7.1395    5.1902  -58.5071 H   0  0  0  0  0  0  0  0  0  0  0  0
    9.0659    6.3907  -57.4619 H   0  0  0  0  0  0  0  0  0  0  0  0
   10.5352    6.4430  -59.4762 H   0  0  0  0  0  0  0  0  0  0  0  0
   11.3854    5.6981  -58.0752 H   0  0  0  0  0  0  0  0  0  0  0  0
   11.7620    4.3805  -60.1581 H   0  0  0  0  0  0  0  0  0  0  0  0
    9.6268    4.9862  -61.3020 H   0  0  0  0  0  0  0  0  0  0  0  0
    9.8288    3.2003  -61.2067 H   0  0  0  0  0  0  0  0  0  0  0  0
   11.0067    2.1766  -59.2629 H   0  0  0  0  0  0  0  0  0  0  0  0
   11.6546    3.2362  -57.9484 H   0  0  0  0  0  0  0  0  0  0  0  0
   10.1067    4.3933  -56.3794 H   0  0  0  0  0  0  0  0  0  0  0  0
    8.3225    4.1920  -56.5587 H   0  0  0  0  0  0  0  0  0  0  0  0
   12.1252   -1.9240  -54.7520 H   0  0  0  0  0  0  0  0  0  0  0  0
   11.1256   -3.0116  -53.6757 H   0  0  0  0  0  0  0  0  0  0  0  0
    9.9593   -3.6252  -55.9529 H   0  0  0  0  0  0  0  0  0  0  0  0
   11.6468   -4.9333  -54.2738 H   0  0  0  0  0  0  0  0  0  0  0  0
   10.9742   -5.6474  -55.7786 H   0  0  0  0  0  0  0  0  0  0  0  0
   12.6277   -4.9457  -55.7786 H   0  0  0  0  0  0  0  0  0  0  0  0
   12.5816   -2.3339  -56.7296 H   0  0  0  0  0  0  0  0  0  0  0  0
   12.0912   -3.8188  -57.6133 H   0  0  0  0  0  0  0  0  0  0  0  0
   11.0184   -2.3781  -57.6133 H   0  0  0  0  0  0  0  0  0  0  0  0
  1  2  1  0
  2  3  1  0
  3  4  1  0
  4  5  2  0
  5  6  1  0
  6  7  1  0
  7  8  2  0
  7  9  1  0
 10  9  1  1
 10 11  1  0
 11 12  1  0
 12 13  1  0
 13 14  1  0
 14 15  1  0
 15 16  1  0
 16 17  1  0
 16 18  1  0
 14 19  1  0
  6 20  2  0
 20 21  1  0
 21 22  1  0
 22 23  1  0
 23 24  1  0
 23 25  1  0
 21  4  1  0
 18 10  1  0
 19 10  1  0
 17 12  1  0
  1 26  1  0
  1 27  1  0
  1 28  1  0
  2 29  1  0
  2 30  1  0
  3 31  1  0
  3 32  1  0
  5 33  1  0
  9 34  1  0
 11 35  1  0
 11 36  1  0
 12 37  1  6
 13 38  1  0
 13 39  1  0
 14 40  1  1
 15 41  1  0
 15 42  1  0
 16 43  1  6
 17 44  1  0
 17 45  1  0
 18 46  1  0
 18 47  1  0
 19 48  1  0
 19 49  1  0
 22 50  1  0
 22 51  1  0
 23 52  1  0
 24 53  1  0
 24 54  1  0
 24 55  1  0
 25 56  1  0
 25 57  1  0
 25 58  1  0
M  END
>  <meeko>  (82) 
{"is_sidechain": false}

$$$$

     RDKit          3D

 56 60  0  0  0  0  0  0  0  0999 V2000
    7.9480   -3.3030  -52.9690 C   0  0  0  0  0  0  0  0  0  0  0  0
    8.6410   -2.0110  -52.5640 C   0  0  0  0  0  0  0  0  0  0  0  0
    8.9070   -1.1360  -53.7420 C   0  0  0  0  0  0  0  0  0  0  0  0
    8.1720   -0.0800  -54.2380 C   0  0  0  0  0  0  0  0  0  0  0  0
    8.8840    0.3990  -55.3630 C   0  0  0  0  0  0  0  0  0  0  0  0
    8.5120    1.5230  -56.2380 C   0  0  0  0  0  0  0  0  0  0  0  0
    7.4070    2.0540  -56.1980 O   0  0  0  0  0  0  0  0  0  0  0  0
    9.5320    1.8970  -57.0840 N   0  0  0  0  0  0  0  0  0  0  0  0
    9.4900    2.9750  -58.0660 C   0  0  2  0  0  0  0  0  0  0  0  0
    8.3920    2.7340  -59.1310 C   0  0  0  0  0  0  0  0  0  0  0  0
    8.3990    3.8600  -60.1800 C   0  0  1  0  0  0  0  0  0  0  0  0
    8.1520    5.2060  -59.4800 C   0  0  0  0  0  0  0  0  0  0  0  0
    9.2560    5.4740  -58.4430 C   0  0  2  0  0  0  0  0  0  0  0  0
   10.6200    5.5000  -59.1500 C   0  0  0  0  0  0  0  0  0  0  0  0
   10.8760    4.1540  -59.8450 C   0  0  2  0  0  0  0  0  0  0  0  0
    9.7680    3.8950  -60.8780 C   0  0  0  0  0  0  0  0  0  0  0  0
   10.8590    3.0320  -58.7950 C   0  0  0  0  0  0  0  0  0  0  0  0
    9.2490    4.3480  -57.3930 C   0  0  0  0  0  0  0  0  0  0  0  0
   10.0100   -0.3180  -55.5610 N   0  0  0  0  0  0  0  0  0  0  0  0
    9.9890   -1.2550  -54.5820 N   0  0  0  0  0  0  0  0  0  0  0  0
   11.0980   -2.2030  -54.4960 C   0  0  0  0  0  0  0  0  0  0  0  0
   11.2150   -3.0820  -55.7190 C   0  0  0  0  0  0  0  0  0  0  0  0
   11.8630   -2.6290  -56.8790 C   0  0  0  0  0  0  0  0  0  0  0  0
   11.9840   -3.4580  -57.9960 C   0  0  0  0  0  0  0  0  0  0  0  0
   11.4680   -4.7520  -57.9640 C   0  0  0  0  0  0  0  0  0  0  0  0
   10.8340   -5.2200  -56.8150 C   0  0  0  0  0  0  0  0  0  0  0  0
   10.7120   -4.3930  -55.6960 C   0  0  0  0  0  0  0  0  0  0  0  0
    7.6504   -3.8578  -52.0670 H   0  0  0  0  0  0  0  0  0  0  0  0
    7.0547   -3.0683  -53.5665 H   0  0  0  0  0  0  0  0  0  0  0  0
    8.6377   -3.9173  -53.5665 H   0  0  0  0  0  0  0  0  0  0  0  0
    7.9983   -1.4687  -51.8548 H   0  0  0  0  0  0  0  0  0  0  0  0
    9.6059   -2.2689  -52.1031 H   0  0  0  0  0  0  0  0  0  0  0  0
    7.2241    0.3109  -53.8397 H   0  0  0  0  0  0  0  0  0  0  0  0
   10.3810    1.3470  -56.9670 H   0  0  0  0  0  0  0  0  0  0  0  0
    8.5786    1.7724  -59.6315 H   0  0  0  0  0  0  0  0  0  0  0  0
    7.4115    2.7194  -58.6327 H   0  0  0  0  0  0  0  0  0  0  0  0
    7.6091    3.6784  -60.9237 H   0  0  0  0  0  0  0  0  0  0  0  0
    8.1537    6.0113  -60.2293 H   0  0  0  0  0  0  0  0  0  0  0  0
    7.1787    5.1721  -58.9685 H   0  0  0  0  0  0  0  0  0  0  0  0
    9.0760    6.4411  -57.9508 H   0  0  0  0  0  0  0  0  0  0  0  0
   10.6265    6.3046  -59.9001 H   0  0  0  0  0  0  0  0  0  0  0  0
   11.4098    5.6785  -58.4055 H   0  0  0  0  0  0  0  0  0  0  0  0
   11.8534    4.1785  -60.3491 H   0  0  0  0  0  0  0  0  0  0  0  0
    9.7741    4.6991  -61.6286 H   0  0  0  0  0  0  0  0  0  0  0  0
    9.9492    2.9270  -61.3681 H   0  0  0  0  0  0  0  0  0  0  0  0
   11.0413    2.0689  -59.2943 H   0  0  0  0  0  0  0  0  0  0  0  0
   11.6442    3.2348  -58.0518 H   0  0  0  0  0  0  0  0  0  0  0  0
   10.0450    4.5348  -56.6571 H   0  0  0  0  0  0  0  0  0  0  0  0
    8.2678    4.3323  -56.8959 H   0  0  0  0  0  0  0  0  0  0  0  0
   12.0346   -1.6381  -54.3787 H   0  0  0  0  0  0  0  0  0  0  0  0
   10.9057   -2.8593  -53.6345 H   0  0  0  0  0  0  0  0  0  0  0  0
   12.2794   -1.6113  -56.9082 H   0  0  0  0  0  0  0  0  0  0  0  0
   12.4871   -3.0893  -58.9021 H   0  0  0  0  0  0  0  0  0  0  0  0
   11.5612   -5.4036  -58.8453 H   0  0  0  0  0  0  0  0  0  0  0  0
   10.4289   -6.2424  -56.7891 H   0  0  0  0  0  0  0  0  0  0  0  0
   10.2178   -4.7717  -54.7892 H   0  0  0  0  0  0  0  0  0  0  0  0
  1  2  1  0
  2  3  1  0
  3  4  2  0
  4  5  1  0
  5  6  1  0
  6  7  2  0
  6  8  1  0
  9  8  1  1
  9 10  1  0
 10 11  1  0
 11 12  1  0
 12 13  1  0
 13 14  1  0
 14 15  1  0
 15 16  1  0
 15 17  1  0
 13 18  1  0
  5 19  2  0
 19 20  1  0
 20 21  1  0
 21 22  1  0
 22 23  2  0
 23 24  1  0
 24 25  2  0
 25 26  1  0
 26 27  2  0
 20  3  1  0
 27 22  1  0
 17  9  1  0
 18  9  1  0
 16 11  1  0
  1 28  1  0
  1 29  1  0
  1 30  1  0
  2 31  1  0
  2 32  1  0
  4 33  1  0
  8 34  1  0
 10 35  1  0
 10 36  1  0
 11 37  1  6
 12 38  1  0
 12 39  1  0
 13 40  1  1
 14 41  1  0
 14 42  1  0
 15 43  1  6
 16 44  1  0
 16 45  1  0
 17 46  1  0
 17 47  1  0
 18 48  1  0
 18 49  1  0
 21 50  1  0
 21 51  1  0
 23 52  1  0
 24 53  1  0
 25 54  1  0
 26 55  1  0
 27 56  1  0
M  END
>  <meeko>  (83) 
{"is_sidechain": false}

$$$$

     RDKit          3D

 28 30  0  0  0  0  0  0  0  0999 V2000
    9.9010    1.9580  -57.0860 N   0  0  0  0  0  0  0  0  0  0  0  0
    9.5100    2.9080  -58.1720 C   0  0  1  0  0  0  0  0  0  0  0  0
    8.0480    3.3340  -57.9930 C   0  0  0  0  0  0  0  0  0  0  0  0
    7.6680    4.3360  -59.1040 C   0  0  2  0  0  0  0  0  0  0  0  0
    7.8800    3.6770  -60.4790 C   0  0  0  0  0  0  0  0  0  0  0  0
    9.3520    3.2620  -60.6520 C   0  0  1  0  0  0  0  0  0  0  0  0
   10.2510    4.5120  -60.5370 C   0  0  0  0  0  0  0  0  0  0  0  0
   10.0450    5.1970  -59.1780 C   0  0  1  0  0  0  0  0  0  0  0  0
    8.5710    5.5840  -58.9920 C   0  0  0  0  0  0  0  0  0  0  0  0
   10.3710    4.1700  -58.1110 C   0  0  0  0  0  0  0  0  0  0  0  0
   11.2400    4.2950  -57.2520 O   0  0  0  0  0  0  0  0  0  0  0  0
    9.7340    2.2580  -59.5430 C   0  0  0  0  0  0  0  0  0  0  0  0
    9.8150    0.9860  -57.4220 H   0  0  0  0  0  0  0  0  0  0  0  0
    9.3620    2.0620  -56.2200 H   0  0  0  0  0  0  0  0  0  0  0  0
   10.9040    2.0630  -56.8720 H   0  0  0  0  0  0  0  0  0  0  0  0
    7.3972    2.4496  -58.0577 H   0  0  0  0  0  0  0  0  0  0  0  0
    7.9209    3.8095  -57.0092 H   0  0  0  0  0  0  0  0  0  0  0  0
    6.6135    4.6291  -58.9941 H   0  0  0  0  0  0  0  0  0  0  0  0
    7.2403    2.7855  -60.5565 H   0  0  0  0  0  0  0  0  0  0  0  0
    7.6173    4.3993  -61.2659 H   0  0  0  0  0  0  0  0  0  0  0  0
    9.4901    2.7947  -61.6382 H   0  0  0  0  0  0  0  0  0  0  0  0
   11.3045    4.2110  -60.6351 H   0  0  0  0  0  0  0  0  0  0  0  0
    9.9835    5.2184  -61.3366 H   0  0  0  0  0  0  0  0  0  0  0  0
   10.6756    6.0962  -59.1160 H   0  0  0  0  0  0  0  0  0  0  0  0
    8.4384    6.0394  -57.9995 H   0  0  0  0  0  0  0  0  0  0  0  0
    8.2885    6.3003  -59.7775 H   0  0  0  0  0  0  0  0  0  0  0  0
    9.1071    1.3583  -59.6300 H   0  0  0  0  0  0  0  0  0  0  0  0
   10.7921    1.9766  -59.6491 H   0  0  0  0  0  0  0  0  0  0  0  0
  2  1  1  1
  2  3  1  0
  3  4  1  0
  4  5  1  0
  5  6  1  0
  6  7  1  0
  7  8  1  0
  8  9  1  0
  8 10  1  0
 10 11  2  0
  6 12  1  0
 10  2  1  0
 12  2  1  0
  9  4  1  0
  1 13  1  0
  1 14  1  0
  1 15  1  0
  3 16  1  0
  3 17  1  0
  4 18  1  1
  5 19  1  0
  5 20  1  0
  6 21  1  6
  7 22  1  0
  7 23  1  0
  8 24  1  6
  9 25  1  0
  9 26  1  0
 12 27  1  0
 12 28  1  0
M  CHG  1   1   1
M  END
>  <meeko>  (84) 
{"is_sidechain": false}

$$$$

     RDKit          3D

 29 31  0  0  0  0  0  0  0  0999 V2000
   10.7690    2.0180  -57.2120 N   0  0  0  0  0  0  0  0  0  0  0  0
   10.3140    3.0000  -58.2280 C   0  0  2  0  0  0  0  0  0  0  0  0
    9.8000    4.2640  -57.5170 C   0  0  0  0  0  0  0  0  0  0  0  0
    9.3270    5.2850  -58.5680 C   0  0  1  0  0  0  0  0  0  0  0  0
   10.5060    5.6430  -59.4910 C   0  0  0  0  0  0  0  0  0  0  0  0
   11.0280    4.3810  -60.2000 C   0  0  2  0  0  0  0  0  0  0  0  0
    9.8900    3.7620  -61.0330 C   0  0  0  0  0  0  0  0  0  0  0  0
    8.7070    3.3910  -60.1190 C   0  0  2  0  0  0  0  0  0  0  0  0
    8.1990    4.6590  -59.4100 C   0  0  0  0  0  0  0  0  0  0  0  0
    9.1820    2.3760  -59.0630 C   0  0  0  0  0  0  0  0  0  0  0  0
   11.4960    3.3630  -59.1440 C   0  0  0  0  0  0  0  0  0  0  0  0
   11.3450    1.2770  -57.6320 H   0  0  0  0  0  0  0  0  0  0  0  0
   11.3350    2.4650  -56.4790 H   0  0  0  0  0  0  0  0  0  0  0  0
    9.9750    1.5580  -56.7470 H   0  0  0  0  0  0  0  0  0  0  0  0
    8.9596    3.9988  -56.8587 H   0  0  0  0  0  0  0  0  0  0  0  0
   10.6103    4.7032  -56.9166 H   0  0  0  0  0  0  0  0  0  0  0  0
    8.9579    6.1915  -58.0660 H   0  0  0  0  0  0  0  0  0  0  0  0
   10.1697    6.3703  -60.2446 H   0  0  0  0  0  0  0  0  0  0  0  0
   11.3164    6.0762  -58.8864 H   0  0  0  0  0  0  0  0  0  0  0  0
   11.8690    4.6449  -60.8581 H   0  0  0  0  0  0  0  0  0  0  0  0
    9.5535    4.4893  -61.7866 H   0  0  0  0  0  0  0  0  0  0  0  0
   10.2604    2.8530  -61.5296 H   0  0  0  0  0  0  0  0  0  0  0  0
    7.8970    2.9509  -60.7192 H   0  0  0  0  0  0  0  0  0  0  0  0
    7.8614    5.3861  -60.1632 H   0  0  0  0  0  0  0  0  0  0  0  0
    7.3633    4.3897  -58.7474 H   0  0  0  0  0  0  0  0  0  0  0  0
    8.3421    2.1121  -58.4036 H   0  0  0  0  0  0  0  0  0  0  0  0
    9.5518    1.4695  -59.5645 H   0  0  0  0  0  0  0  0  0  0  0  0
   11.8639    2.4559  -59.6459 H   0  0  0  0  0  0  0  0  0  0  0  0
   12.3063    3.8017  -58.5432 H   0  0  0  0  0  0  0  0  0  0  0  0
  2  1  1  1
  2  3  1  0
  3  4  1  0
  4  5  1  0
  5  6  1  0
  6  7  1  0
  7  8  1  0
  8  9  1  0
  8 10  1  0
  6 11  1  0
 10  2  1  0
 11  2  1  0
  9  4  1  0
  1 12  1  0
  1 13  1  0
  1 14  1  0
  3 15  1  0
  3 16  1  0
  4 17  1  1
  5 18  1  0
  5 19  1  0
  6 20  1  6
  7 21  1  0
  7 22  1  0
  8 23  1  6
  9 24  1  0
  9 25  1  0
 10 26  1  0
 10 27  1  0
 11 28  1  0
 11 29  1  0
M  CHG  1   1   1
M  END
>  <meeko>  (85) 
{"is_sidechain": false}

$$$$

     RDKit          3D

 50 54  0  0  0  0  0  0  0  0999 V2000
    7.3540    1.8990  -56.2340 O   0  0  0  0  0  0  0  0  0  0  0  0
    8.4950    1.4520  -56.2260 C   0  0  0  0  0  0  0  0  0  0  0  0
    9.5170    1.8910  -57.0400 N   0  0  0  0  0  0  0  0  0  0  0  0
    9.4290    2.9510  -58.0390 C   0  0  2  0  0  0  0  0  0  0  0  0
    8.3130    2.6670  -59.0750 C   0  0  0  0  0  0  0  0  0  0  0  0
    8.2740    3.7740  -60.1430 C   0  0  1  0  0  0  0  0  0  0  0  0
    8.0120    5.1270  -59.4610 C   0  0  0  0  0  0  0  0  0  0  0  0
    9.1340    5.4370  -58.4540 C   0  0  2  0  0  0  0  0  0  0  0  0
   10.4810    5.4800  -59.1920 C   0  0  0  0  0  0  0  0  0  0  0  0
   10.7510    4.1270  -59.8690 C   0  0  2  0  0  0  0  0  0  0  0  0
    9.6260    3.8260  -60.8710 C   0  0  0  0  0  0  0  0  0  0  0  0
   10.7800    3.0240  -58.7990 C   0  0  0  0  0  0  0  0  0  0  0  0
    9.1730    4.3320  -57.3850 C   0  0  0  0  0  0  0  0  0  0  0  0
    8.9160    0.3640  -55.3260 C   0  0  0  0  0  0  0  0  0  0  0  0
    8.2600   -0.0690  -54.1460 C   0  0  0  0  0  0  0  0  0  0  0  0
    9.0260   -1.0990  -53.6580 C   0  0  0  0  0  0  0  0  0  0  0  0
   10.0770   -1.2300  -54.5200 N   0  0  0  0  0  0  0  0  0  0  0  0
   11.1490   -2.2150  -54.4370 C   0  0  0  0  0  0  0  0  0  0  0  0
   11.2440   -3.0480  -55.6910 C   0  0  0  0  0  0  0  0  0  0  0  0
   11.8830   -2.5470  -56.8350 C   0  0  0  0  0  0  0  0  0  0  0  0
   11.9710   -3.3230  -57.9920 C   0  0  0  0  0  0  0  0  0  0  0  0
   11.4230   -4.6040  -58.0190 C   0  0  0  0  0  0  0  0  0  0  0  0
   10.7860   -5.1120  -56.8880 C   0  0  0  0  0  0  0  0  0  0  0  0
   10.6970   -4.3400  -55.7300 C   0  0  0  0  0  0  0  0  0  0  0  0
   10.0290   -0.3660  -55.5580 N   0  0  0  0  0  0  0  0  0  0  0  0
   10.3950    1.3990  -56.8950 H   0  0  0  0  0  0  0  0  0  0  0  0
    8.5091    1.7006  -59.5625 H   0  0  0  0  0  0  0  0  0  0  0  0
    7.3439    2.6401  -58.5553 H   0  0  0  0  0  0  0  0  0  0  0  0
    7.4730    3.5622  -60.8665 H   0  0  0  0  0  0  0  0  0  0  0  0
    7.9787    5.9187  -60.2239 H   0  0  0  0  0  0  0  0  0  0  0  0
    7.0513    5.0814  -58.9272 H   0  0  0  0  0  0  0  0  0  0  0  0
    8.9454    6.4091  -57.9750 H   0  0  0  0  0  0  0  0  0  0  0  0
   10.4530    6.2708  -59.9561 H   0  0  0  0  0  0  0  0  0  0  0  0
   11.2831    5.6892  -58.4689 H   0  0  0  0  0  0  0  0  0  0  0  0
   11.7164    4.1630  -60.3950 H   0  0  0  0  0  0  0  0  0  0  0  0
    9.5979    4.6164  -61.6355 H   0  0  0  0  0  0  0  0  0  0  0  0
    9.8174    2.8531  -61.3472 H   0  0  0  0  0  0  0  0  0  0  0  0
   10.9720    2.0561  -59.2852 H   0  0  0  0  0  0  0  0  0  0  0  0
   11.5763    3.2571  -58.0768 H   0  0  0  0  0  0  0  0  0  0  0  0
    9.9803    4.5488  -56.6699 H   0  0  0  0  0  0  0  0  0  0  0  0
    8.2032    4.3051  -56.8665 H   0  0  0  0  0  0  0  0  0  0  0  0
    7.3331    0.3349  -53.7128 H   0  0  0  0  0  0  0  0  0  0  0  0
    8.8322   -1.6973  -52.7555 H   0  0  0  0  0  0  0  0  0  0  0  0
   12.1037   -1.6900  -54.2853 H   0  0  0  0  0  0  0  0  0  0  0  0
   10.9295   -2.8885  -53.5955 H   0  0  0  0  0  0  0  0  0  0  0  0
   12.3174   -1.5365  -56.8202 H   0  0  0  0  0  0  0  0  0  0  0  0
   12.4741   -2.9224  -58.8845 H   0  0  0  0  0  0  0  0  0  0  0  0
   11.4931   -5.2137  -58.9319 H   0  0  0  0  0  0  0  0  0  0  0  0
   10.3530   -6.1230  -56.9089 H   0  0  0  0  0  0  0  0  0  0  0  0
   10.1942   -4.7468  -54.8402 H   0  0  0  0  0  0  0  0  0  0  0  0
  1  2  2  0
  2  3  1  0
  4  3  1  1
  4  5  1  0
  5  6  1  0
  6  7  1  0
  7  8  1  0
  8  9  1  0
  9 10  1  0
 10 11  1  0
 10 12  1  0
  8 13  1  0
  2 14  1  0
 14 15  1  0
 15 16  2  0
 16 17  1  0
 17 18  1  0
 18 19  1  0
 19 20  2  0
 20 21  1  0
 21 22  2  0
 22 23  1  0
 23 24  2  0
 17 25  1  0
 12  4  1  0
 25 14  2  0
 13  4  1  0
 24 19  1  0
 11  6  1  0
  3 26  1  0
  5 27  1  0
  5 28  1  0
  6 29  1  6
  7 30  1  0
  7 31  1  0
  8 32  1  1
  9 33  1  0
  9 34  1  0
 10 35  1  6
 11 36  1  0
 11 37  1  0
 12 38  1  0
 12 39  1  0
 13 40  1  0
 13 41  1  0
 15 42  1  0
 16 43  1  0
 18 44  1  0
 18 45  1  0
 20 46  1  0
 21 47  1  0
 22 48  1  0
 23 49  1  0
 24 50  1  0
M  END
>  <meeko>  (86) 
{"is_sidechain": false}

$$$$

     RDKit          3D

 56 60  0  0  0  0  0  0  0  0999 V2000
    8.2810   -1.6780  -52.5840 C   0  0  0  0  0  0  0  0  0  0  0  0
    8.8230   -1.0280  -53.7560 N   0  0  0  0  0  0  0  0  0  0  0  0
    8.1530    0.0080  -54.2970 N   0  0  0  0  0  0  0  0  0  0  0  0
    8.9140    0.3860  -55.3450 C   0  0  0  0  0  0  0  0  0  0  0  0
    8.5360    1.5080  -56.2220 C   0  0  0  0  0  0  0  0  0  0  0  0
    7.4270    2.0290  -56.1880 O   0  0  0  0  0  0  0  0  0  0  0  0
    9.5580    1.8900  -57.0630 N   0  0  0  0  0  0  0  0  0  0  0  0
    9.5070    2.9620  -58.0510 C   0  0  2  0  0  0  0  0  0  0  0  0
    8.4050    2.7110  -59.1100 C   0  0  0  0  0  0  0  0  0  0  0  0
    8.4040    3.8300  -60.1670 C   0  0  1  0  0  0  0  0  0  0  0  0
    8.1550    5.1800  -59.4730 C   0  0  0  0  0  0  0  0  0  0  0  0
    9.2650    5.4580  -58.4430 C   0  0  2  0  0  0  0  0  0  0  0  0
   10.6250    5.4850  -59.1570 C   0  0  0  0  0  0  0  0  0  0  0  0
   10.8820    4.1340  -59.8450 C   0  0  2  0  0  0  0  0  0  0  0  0
    9.7700    3.8660  -60.8710 C   0  0  0  0  0  0  0  0  0  0  0  0
   10.8720    3.0200  -58.7860 C   0  0  0  0  0  0  0  0  0  0  0  0
    9.2650    4.3400  -57.3870 C   0  0  0  0  0  0  0  0  0  0  0  0
   10.0680   -0.4280  -55.4510 C   0  0  0  0  0  0  0  0  0  0  0  0
    9.9850   -1.3360  -54.4150 C   0  0  0  0  0  0  0  0  0  0  0  0
   10.9120   -2.4390  -54.0220 C   0  0  0  0  0  0  0  0  0  0  0  0
   10.4650   -3.7830  -54.6040 C   0  0  0  0  0  0  0  0  0  0  0  0
   11.3160   -4.1890  -55.7810 C   0  0  0  0  0  0  0  0  0  0  0  0
   12.2580   -5.2190  -55.6540 C   0  0  0  0  0  0  0  0  0  0  0  0
   13.0310   -5.6080  -56.7490 C   0  0  0  0  0  0  0  0  0  0  0  0
   12.8690   -4.9760  -57.9800 C   0  0  0  0  0  0  0  0  0  0  0  0
   11.9310   -3.9540  -58.1180 C   0  0  0  0  0  0  0  0  0  0  0  0
   11.1560   -3.5620  -57.0250 C   0  0  0  0  0  0  0  0  0  0  0  0
    8.6820   -1.1971  -51.6796 H   0  0  0  0  0  0  0  0  0  0  0  0
    7.1845   -1.5906  -52.5903 H   0  0  0  0  0  0  0  0  0  0  0  0
    8.5641   -2.7409  -52.5903 H   0  0  0  0  0  0  0  0  0  0  0  0
   10.4070    1.3400  -56.9500 H   0  0  0  0  0  0  0  0  0  0  0  0
    8.5922    1.7466  -59.6048 H   0  0  0  0  0  0  0  0  0  0  0  0
    7.4267    2.6974  -58.6072 H   0  0  0  0  0  0  0  0  0  0  0  0
    7.6124    3.6405  -60.9069 H   0  0  0  0  0  0  0  0  0  0  0  0
    8.1493    5.9810  -60.2269 H   0  0  0  0  0  0  0  0  0  0  0  0
    7.1846    5.1456  -58.9561 H   0  0  0  0  0  0  0  0  0  0  0  0
    9.0860    6.4278  -57.9558 H   0  0  0  0  0  0  0  0  0  0  0  0
   10.6246    6.2847  -59.9123 H   0  0  0  0  0  0  0  0  0  0  0  0
   11.4182    5.6717  -58.4181 H   0  0  0  0  0  0  0  0  0  0  0  0
   11.8568    4.1564  -60.3541 H   0  0  0  0  0  0  0  0  0  0  0  0
    9.7700    4.6662  -61.6258 H   0  0  0  0  0  0  0  0  0  0  0  0
    9.9522    2.8959  -61.3564 H   0  0  0  0  0  0  0  0  0  0  0  0
   11.0563    2.0539  -59.2787 H   0  0  0  0  0  0  0  0  0  0  0  0
   11.6585    3.2327  -58.0470 H   0  0  0  0  0  0  0  0  0  0  0  0
   10.0633    4.5338  -56.6555 H   0  0  0  0  0  0  0  0  0  0  0  0
    8.2854    4.3251  -56.8868 H   0  0  0  0  0  0  0  0  0  0  0  0
   10.8662   -0.3522  -56.2041 H   0  0  0  0  0  0  0  0  0  0  0  0
   11.9212   -2.2069  -54.3931 H   0  0  0  0  0  0  0  0  0  0  0  0
   10.9066   -2.5195  -52.9250 H   0  0  0  0  0  0  0  0  0  0  0  0
   10.5441   -4.5540  -53.8235 H   0  0  0  0  0  0  0  0  0  0  0  0
    9.4260   -3.6795  -54.9501 H   0  0  0  0  0  0  0  0  0  0  0  0
   12.3889   -5.7238  -54.6855 H   0  0  0  0  0  0  0  0  0  0  0  0
   13.7699   -6.4155  -56.6398 H   0  0  0  0  0  0  0  0  0  0  0  0
   13.4802   -5.2829  -58.8415 H   0  0  0  0  0  0  0  0  0  0  0  0
   11.8013   -3.4555  -59.0899 H   0  0  0  0  0  0  0  0  0  0  0  0
   10.4156   -2.7567  -57.1403 H   0  0  0  0  0  0  0  0  0  0  0  0
  1  2  1  0
  2  3  1  0
  3  4  2  0
  4  5  1  0
  5  6  2  0
  5  7  1  0
  8  7  1  1
  8  9  1  0
  9 10  1  0
 10 11  1  0
 11 12  1  0
 12 13  1  0
 13 14  1  0
 14 15  1  0
 14 16  1  0
 12 17  1  0
  4 18  1  0
 18 19  2  0
 19 20  1  0
 20 21  1  0
 21 22  1  0
 22 23  2  0
 23 24  1  0
 24 25  2  0
 25 26  1  0
 26 27  2  0
 19  2  1  0
 27 22  1  0
 16  8  1  0
 17  8  1  0
 15 10  1  0
  1 28  1  0
  1 29  1  0
  1 30  1  0
  7 31  1  0
  9 32  1  0
  9 33  1  0
 10 34  1  6
 11 35  1  0
 11 36  1  0
 12 37  1  1
 13 38  1  0
 13 39  1  0
 14 40  1  6
 15 41  1  0
 15 42  1  0
 16 43  1  0
 16 44  1  0
 17 45  1  0
 17 46  1  0
 18 47  1  0
 20 48  1  0
 20 49  1  0
 21 50  1  0
 21 51  1  0
 23 52  1  0
 24 53  1  0
 25 54  1  0
 26 55  1  0
 27 56  1  0
M  END
>  <meeko>  (87) 
{"is_sidechain": false}

$$$$

     RDKit          3D

 49 53  0  0  0  0  0  0  0  0999 V2000
    6.4940    2.1200  -56.4870 O   0  0  0  0  0  0  0  0  0  0  0  0
    7.5630    1.5550  -56.2850 C   0  0  0  0  0  0  0  0  0  0  0  0
    8.7460    1.8730  -56.9170 N   0  0  0  0  0  0  0  0  0  0  0  0
    8.9260    2.9280  -57.9130 C   0  0  2  0  0  0  0  0  0  0  0  0
    7.9240    2.7840  -59.0860 C   0  0  0  0  0  0  0  0  0  0  0  0
    8.1660    3.8760  -60.1420 C   0  0  1  0  0  0  0  0  0  0  0  0
    8.0010    5.2580  -59.4890 C   0  0  0  0  0  0  0  0  0  0  0  0
    9.0150    5.4280  -58.3440 C   0  0  2  0  0  0  0  0  0  0  0  0
   10.4390    5.2860  -58.9040 C   0  0  0  0  0  0  0  0  0  0  0  0
   10.6130    3.9040  -59.5510 C   0  0  2  0  0  0  0  0  0  0  0  0
    9.5950    3.7440  -60.6910 C   0  0  0  0  0  0  0  0  0  0  0  0
   10.3600    2.8170  -58.4950 C   0  0  0  0  0  0  0  0  0  0  0  0
    8.7730    4.3360  -57.2870 C   0  0  0  0  0  0  0  0  0  0  0  0
    7.7000    0.4620  -55.3340 C   0  0  0  0  0  0  0  0  0  0  0  0
    8.8640   -0.0480  -54.7980 C   0  0  0  0  0  0  0  0  0  0  0  0
    8.4440   -1.0550  -53.9840 N   0  0  0  0  0  0  0  0  0  0  0  0
    9.2490   -1.9150  -53.1360 C   0  0  0  0  0  0  0  0  0  0  0  0
    8.3950   -2.7310  -52.2000 C   0  0  0  0  0  0  0  0  0  0  0  0
    7.8210   -3.9370  -52.6300 C   0  0  0  0  0  0  0  0  0  0  0  0
    7.0350   -4.6960  -51.7630 C   0  0  0  0  0  0  0  0  0  0  0  0
    6.8140   -4.2600  -50.4580 C   0  0  0  0  0  0  0  0  0  0  0  0
    7.3790   -3.0640  -50.0180 C   0  0  0  0  0  0  0  0  0  0  0  0
    8.1670   -2.3030  -50.8830 C   0  0  0  0  0  0  0  0  0  0  0  0
    7.1000   -1.1570  -53.9830 N   0  0  0  0  0  0  0  0  0  0  0  0
    6.6310   -0.2370  -54.8160 N   0  0  0  0  0  0  0  0  0  0  0  0
    9.5530    1.3200  -56.6390 H   0  0  0  0  0  0  0  0  0  0  0  0
    8.0524    1.7958  -59.5519 H   0  0  0  0  0  0  0  0  0  0  0  0
    6.9017    2.8900  -58.6941 H   0  0  0  0  0  0  0  0  0  0  0  0
    7.4419    3.7638  -60.9624 H   0  0  0  0  0  0  0  0  0  0  0  0
    8.1710    6.0395  -60.2442 H   0  0  0  0  0  0  0  0  0  0  0  0
    6.9824    5.3442  -59.0828 H   0  0  0  0  0  0  0  0  0  0  0  0
    8.8948    6.4206  -57.8854 H   0  0  0  0  0  0  0  0  0  0  0  0
   10.6130    6.0665  -59.6594 H   0  0  0  0  0  0  0  0  0  0  0  0
   11.1627    5.3941  -58.0827 H   0  0  0  0  0  0  0  0  0  0  0  0
   11.6339    3.8082  -59.9491 H   0  0  0  0  0  0  0  0  0  0  0  0
    9.7685    4.5245  -61.4465 H   0  0  0  0  0  0  0  0  0  0  0  0
    9.7164    2.7502  -61.1466 H   0  0  0  0  0  0  0  0  0  0  0  0
   10.4834    1.8280  -58.9605 H   0  0  0  0  0  0  0  0  0  0  0  0
   11.0814    2.9508  -57.6755 H   0  0  0  0  0  0  0  0  0  0  0  0
    9.5047    4.4515  -56.4738 H   0  0  0  0  0  0  0  0  0  0  0  0
    7.7501    4.4411  -56.8963 H   0  0  0  0  0  0  0  0  0  0  0  0
    9.8960    0.2833  -54.9855 H   0  0  0  0  0  0  0  0  0  0  0  0
    9.8332   -2.5968  -53.7716 H   0  0  0  0  0  0  0  0  0  0  0  0
    9.9101   -1.2780  -52.5301 H   0  0  0  0  0  0  0  0  0  0  0  0
    7.9922   -4.2866  -53.6588 H   0  0  0  0  0  0  0  0  0  0  0  0
    6.5891   -5.6399  -52.1098 H   0  0  0  0  0  0  0  0  0  0  0  0
    6.1939   -4.8594  -49.7753 H   0  0  0  0  0  0  0  0  0  0  0  0
    7.2037   -2.7196  -48.9881 H   0  0  0  0  0  0  0  0  0  0  0  0
    8.6124   -1.3612  -50.5300 H   0  0  0  0  0  0  0  0  0  0  0  0
  1  2  2  0
  2  3  1  0
  4  3  1  1
  4  5  1  0
  5  6  1  0
  6  7  1  0
  7  8  1  0
  8  9  1  0
  9 10  1  0
 10 11  1  0
 10 12  1  0
  8 13  1  0
  2 14  1  0
 14 15  2  0
 15 16  1  0
 16 17  1  0
 17 18  1  0
 18 19  2  0
 19 20  1  0
 20 21  2  0
 21 22  1  0
 22 23  2  0
 16 24  1  0
 24 25  2  0
 12  4  1  0
 25 14  1  0
 13  4  1  0
 23 18  1  0
 11  6  1  0
  3 26  1  0
  5 27  1  0
  5 28  1  0
  6 29  1  6
  7 30  1  0
  7 31  1  0
  8 32  1  1
  9 33  1  0
  9 34  1  0
 10 35  1  6
 11 36  1  0
 11 37  1  0
 12 38  1  0
 12 39  1  0
 13 40  1  0
 13 41  1  0
 15 42  1  0
 17 43  1  0
 17 44  1  0
 19 45  1  0
 20 46  1  0
 21 47  1  0
 22 48  1  0
 23 49  1  0
M  END
>  <meeko>  (88) 
{"is_sidechain": false}

$$$$

     RDKit          3D

 53 57  0  0  0  0  0  0  0  0999 V2000
   11.1860   -3.7150  -54.5930 C   0  0  0  0  0  0  0  0  0  0  0  0
   11.0040   -2.6440  -53.5280 C   0  0  0  0  0  0  0  0  0  0  0  0
    9.9160   -1.6830  -53.8790 C   0  0  0  0  0  0  0  0  0  0  0  0
    9.9990   -0.6560  -54.8000 C   0  0  0  0  0  0  0  0  0  0  0  0
    8.7010   -0.1320  -54.9210 C   0  0  0  0  0  0  0  0  0  0  0  0
    8.2620    0.9640  -55.8020 C   0  0  0  0  0  0  0  0  0  0  0  0
    7.0900    1.3140  -55.8830 O   0  0  0  0  0  0  0  0  0  0  0  0
    9.3020    1.5300  -56.5050 N   0  0  0  0  0  0  0  0  0  0  0  0
    9.2010    2.6270  -57.4610 C   0  0  2  0  0  0  0  0  0  0  0  0
    8.7740    3.9460  -56.7720 C   0  0  0  0  0  0  0  0  0  0  0  0
    8.7210    5.0980  -57.7920 C   0  0  1  0  0  0  0  0  0  0  0  0
   10.1130    5.2910  -58.4130 C   0  0  0  0  0  0  0  0  0  0  0  0
   10.5550    4.0020  -59.1230 C   0  0  2  0  0  0  0  0  0  0  0  0
    9.5440    3.6570  -60.2280 C   0  0  0  0  0  0  0  0  0  0  0  0
    8.1470    3.4550  -59.6170 C   0  0  2  0  0  0  0  0  0  0  0  0
    7.7150    4.7460  -58.9000 C   0  0  0  0  0  0  0  0  0  0  0  0
    8.2000    2.3040  -58.5970 C   0  0  0  0  0  0  0  0  0  0  0  0
   10.5970    2.8530  -58.1020 C   0  0  0  0  0  0  0  0  0  0  0  0
    7.8440   -0.7880  -54.1230 N   0  0  0  0  0  0  0  0  0  0  0  0
    8.5990   -1.6840  -53.4210 N   0  0  0  0  0  0  0  0  0  0  0  0
    7.9560   -2.4390  -52.3880 C   0  0  0  0  0  0  0  0  0  0  0  0
    7.0080   -3.4130  -52.7530 C   0  0  0  0  0  0  0  0  0  0  0  0
    6.3520   -4.1750  -51.7830 C   0  0  0  0  0  0  0  0  0  0  0  0
    6.6210   -3.9650  -50.4340 C   0  0  0  0  0  0  0  0  0  0  0  0
    7.5390   -2.9890  -50.0570 C   0  0  0  0  0  0  0  0  0  0  0  0
    8.2000   -2.2250  -51.0270 C   0  0  0  0  0  0  0  0  0  0  0  0
   11.3515   -4.6889  -54.1091 H   0  0  0  0  0  0  0  0  0  0  0  0
   10.2836   -3.7657  -55.2200 H   0  0  0  0  0  0  0  0  0  0  0  0
   12.0545   -3.4648  -55.2200 H   0  0  0  0  0  0  0  0  0  0  0  0
   10.7531   -3.1311  -52.5742 H   0  0  0  0  0  0  0  0  0  0  0  0
   11.9444   -2.0784  -53.4517 H   0  0  0  0  0  0  0  0  0  0  0  0
   10.9003   -0.3169  -55.3316 H   0  0  0  0  0  0  0  0  0  0  0  0
   10.2080    1.1060  -56.3140 H   0  0  0  0  0  0  0  0  0  0  0  0
    7.7781    3.8138  -56.3240 H   0  0  0  0  0  0  0  0  0  0  0  0
    9.5113    4.1946  -55.9944 H   0  0  0  0  0  0  0  0  0  0  0  0
    8.4095    6.0251  -57.2886 H   0  0  0  0  0  0  0  0  0  0  0  0
   10.0758    6.1140  -59.1419 H   0  0  0  0  0  0  0  0  0  0  0  0
   10.8335    5.5300  -57.6169 H   0  0  0  0  0  0  0  0  0  0  0  0
   11.5519    4.1462  -59.5650 H   0  0  0  0  0  0  0  0  0  0  0  0
    9.5072    4.4791  -60.9579 H   0  0  0  0  0  0  0  0  0  0  0  0
    9.8576    2.7287  -60.7279 H   0  0  0  0  0  0  0  0  0  0  0  0
    7.4270    3.2131  -60.4127 H   0  0  0  0  0  0  0  0  0  0  0  0
    7.6728    5.5696  -59.6280 H   0  0  0  0  0  0  0  0  0  0  0  0
    6.7231    4.5927  -58.4498 H   0  0  0  0  0  0  0  0  0  0  0  0
    7.1989    2.1572  -58.1655 H   0  0  0  0  0  0  0  0  0  0  0  0
    8.5310    1.3898  -59.1114 H   0  0  0  0  0  0  0  0  0  0  0  0
   10.9126    1.9305  -58.6114 H   0  0  0  0  0  0  0  0  0  0  0  0
   11.3094    3.1169  -57.3065 H   0  0  0  0  0  0  0  0  0  0  0  0
    6.7804   -3.5766  -53.8167 H   0  0  0  0  0  0  0  0  0  0  0  0
    5.6228   -4.9410  -52.0857 H   0  0  0  0  0  0  0  0  0  0  0  0
    6.1103   -4.5678  -49.6687 H   0  0  0  0  0  0  0  0  0  0  0  0
    7.7466   -2.8167  -48.9906 H   0  0  0  0  0  0  0  0  0  0  0  0
    8.9167   -1.4505  -50.7164 H   0  0  0  0  0  0  0  0  0  0  0  0
  1  2  1  0
  2  3  1  0
  3  4  2  0
  4  5  1  0
  5  6  1  0
  6  7  2  0
  6  8  1  0
  9  8  1  1
  9 10  1  0
 10 11  1  0
 11 12  1  0
 12 13  1  0
 13 14  1  0
 14 15  1  0
 15 16  1  0
 15 17  1  0
 13 18  1  0
  5 19  2  0
 19 20  1  0
 20 21  1  0
 21 22  2  0
 22 23  1  0
 23 24  2  0
 24 25  1  0
 25 26  2  0
 20  3  1  0
 26 21  1  0
 17  9  1  0
 18  9  1  0
 16 11  1  0
  1 27  1  0
  1 28  1  0
  1 29  1  0
  2 30  1  0
  2 31  1  0
  4 32  1  0
  8 33  1  0
 10 34  1  0
 10 35  1  0
 11 36  1  1
 12 37  1  0
 12 38  1  0
 13 39  1  6
 14 40  1  0
 14 41  1  0
 15 42  1  6
 16 43  1  0
 16 44  1  0
 17 45  1  0
 17 46  1  0
 18 47  1  0
 18 48  1  0
 22 49  1  0
 23 50  1  0
 24 51  1  0
 25 52  1  0
 26 53  1  0
M  END
>  <meeko>  (89) 
{"is_sidechain": false}

$$$$

     RDKit          3D

 55 58  0  0  0  0  0  0  0  0999 V2000
    7.8520   -2.5870  -49.9870 C   0  0  0  0  0  0  0  0  0  0  0  0
    7.8250   -2.0330  -51.4050 C   0  0  0  0  0  0  0  0  0  0  0  0
    9.1180   -2.3000  -52.1820 C   0  0  0  0  0  0  0  0  0  0  0  0
    9.2510   -1.4610  -53.4130 C   0  0  0  0  0  0  0  0  0  0  0  0
    8.4860   -0.3960  -53.8450 C   0  0  0  0  0  0  0  0  0  0  0  0
    9.0500    0.0200  -55.0730 C   0  0  0  0  0  0  0  0  0  0  0  0
    8.6000    1.1320  -55.9280 C   0  0  0  0  0  0  0  0  0  0  0  0
    7.4380    1.5210  -55.9490 O   0  0  0  0  0  0  0  0  0  0  0  0
    9.6210    1.6670  -56.6820 N   0  0  0  0  0  0  0  0  0  0  0  0
    9.5120    2.7780  -57.6210 C   0  0  2  0  0  0  0  0  0  0  0  0
   10.8840    2.9680  -58.3210 C   0  0  0  0  0  0  0  0  0  0  0  0
   10.8320    4.1290  -59.3270 C   0  0  1  0  0  0  0  0  0  0  0  0
    9.7630    3.8310  -60.3880 C   0  0  0  0  0  0  0  0  0  0  0  0
    8.3890    3.6640  -59.7170 C   0  0  2  0  0  0  0  0  0  0  0  0
    8.0310    4.9600  -58.9680 C   0  0  0  0  0  0  0  0  0  0  0  0
    9.0970    5.2660  -57.9010 C   0  0  2  0  0  0  0  0  0  0  0  0
   10.4650    5.4230  -58.5830 C   0  0  0  0  0  0  0  0  0  0  0  0
    9.1580    4.1010  -56.8980 C   0  0  0  0  0  0  0  0  0  0  0  0
    8.4520    2.4990  -58.7140 C   0  0  0  0  0  0  0  0  0  0  0  0
   10.1040   -0.7530  -55.4030 N   0  0  0  0  0  0  0  0  0  0  0  0
   10.2020   -1.6390  -54.3880 N   0  0  0  0  0  0  0  0  0  0  0  0
   11.2290   -2.6620  -54.4690 C   0  0  0  0  0  0  0  0  0  0  0  0
   10.7370   -3.9890  -55.0460 C   0  0  0  0  0  0  0  0  0  0  0  0
   11.8510   -4.8300  -55.6510 C   0  0  0  0  0  0  0  0  0  0  0  0
    7.8115   -1.7557  -49.2677 H   0  0  0  0  0  0  0  0  0  0  0  0
    6.9849   -3.2465  -49.8344 H   0  0  0  0  0  0  0  0  0  0  0  0
    8.7791   -3.1590  -49.8344 H   0  0  0  0  0  0  0  0  0  0  0  0
    6.9890   -2.4994  -51.9467 H   0  0  0  0  0  0  0  0  0  0  0  0
    7.7097   -0.9418  -51.3275 H   0  0  0  0  0  0  0  0  0  0  0  0
    9.9722   -2.0894  -51.5217 H   0  0  0  0  0  0  0  0  0  0  0  0
    9.0937   -3.3513  -52.5047 H   0  0  0  0  0  0  0  0  0  0  0  0
    7.6138    0.0407  -53.3365 H   0  0  0  0  0  0  0  0  0  0  0  0
   10.5210    1.2140  -56.5280 H   0  0  0  0  0  0  0  0  0  0  0  0
   11.6490    3.1845  -57.5608 H   0  0  0  0  0  0  0  0  0  0  0  0
   11.1317    2.0440  -58.8641 H   0  0  0  0  0  0  0  0  0  0  0  0
   11.8117    4.2459  -59.8134 H   0  0  0  0  0  0  0  0  0  0  0  0
    9.7194    4.6638  -61.1053 H   0  0  0  0  0  0  0  0  0  0  0  0
   10.0244    2.9003  -60.9129 H   0  0  0  0  0  0  0  0  0  0  0  0
    7.6259    3.4536  -60.4809 H   0  0  0  0  0  0  0  0  0  0  0  0
    7.9839    5.7932  -59.6846 H   0  0  0  0  0  0  0  0  0  0  0  0
    7.0552    4.8337  -58.4761 H   0  0  0  0  0  0  0  0  0  0  0  0
    8.8387    6.1956  -57.3728 H   0  0  0  0  0  0  0  0  0  0  0  0
   10.4212    6.2559  -59.3002 H   0  0  0  0  0  0  0  0  0  0  0  0
   11.2285    5.6294  -57.8185 H   0  0  0  0  0  0  0  0  0  0  0  0
    9.9261    4.3159  -56.1405 H   0  0  0  0  0  0  0  0  0  0  0  0
    8.1731    3.9919  -56.4205 H   0  0  0  0  0  0  0  0  0  0  0  0
    7.4671    2.3767  -58.2396 H   0  0  0  0  0  0  0  0  0  0  0  0
    8.7313    1.5817  -59.2530 H   0  0  0  0  0  0  0  0  0  0  0  0
   12.0420   -2.2867  -55.1079 H   0  0  0  0  0  0  0  0  0  0  0  0
   11.5599   -2.8645  -53.4397 H   0  0  0  0  0  0  0  0  0  0  0  0
   10.2622   -4.5663  -54.2390 H   0  0  0  0  0  0  0  0  0  0  0  0
   10.0309   -3.7514  -55.8553 H   0  0  0  0  0  0  0  0  0  0  0  0
   12.4487   -5.2812  -54.8453 H   0  0  0  0  0  0  0  0  0  0  0  0
   11.4138   -5.6253  -56.2726 H   0  0  0  0  0  0  0  0  0  0  0  0
   12.4961   -4.1916  -56.2726 H   0  0  0  0  0  0  0  0  0  0  0  0
  1  2  1  0
  2  3  1  0
  3  4  1  0
  4  5  2  0
  5  6  1  0
  6  7  1  0
  7  8  2  0
  7  9  1  0
 10  9  1  1
 10 11  1  0
 11 12  1  0
 12 13  1  0
 13 14  1  0
 14 15  1  0
 15 16  1  0
 16 17  1  0
 16 18  1  0
 14 19  1  0
  6 20  2  0
 20 21  1  0
 21 22  1  0
 22 23  1  0
 23 24  1  0
 21  4  1  0
 18 10  1  0
 19 10  1  0
 17 12  1  0
  1 25  1  0
  1 26  1  0
  1 27  1  0
  2 28  1  0
  2 29  1  0
  3 30  1  0
  3 31  1  0
  5 32  1  0
  9 33  1  0
 11 34  1  0
 11 35  1  0
 12 36  1  6
 13 37  1  0
 13 38  1  0
 14 39  1  6
 15 40  1  0
 15 41  1  0
 16 42  1  1
 17 43  1  0
 17 44  1  0
 18 45  1  0
 18 46  1  0
 19 47  1  0
 19 48  1  0
 22 49  1  0
 22 50  1  0
 23 51  1  0
 23 52  1  0
 24 53  1  0
 24 54  1  0
 24 55  1  0
M  END
>  <meeko>  (90) 
{"is_sidechain": false}

$$$$

     RDKit          3D

 58 61  0  0  0  0  0  0  0  0999 V2000
   11.5150   -3.7330  -57.5890 C   0  0  0  0  0  0  0  0  0  0  0  0
   11.2930   -4.6270  -56.3800 C   0  0  0  0  0  0  0  0  0  0  0  0
   10.4040   -3.9930  -55.3080 C   0  0  0  0  0  0  0  0  0  0  0  0
   11.0420   -2.7750  -54.6430 C   0  0  0  0  0  0  0  0  0  0  0  0
   10.1060   -1.6650  -54.5370 N   0  0  0  0  0  0  0  0  0  0  0  0
   10.0700   -0.7650  -55.5330 N   0  0  0  0  0  0  0  0  0  0  0  0
    9.1150    0.1130  -55.1820 C   0  0  0  0  0  0  0  0  0  0  0  0
    8.7660    1.2670  -56.0410 C   0  0  0  0  0  0  0  0  0  0  0  0
    7.6380    1.7490  -56.0840 O   0  0  0  0  0  0  0  0  0  0  0  0
    9.8190    1.7460  -56.8070 N   0  0  0  0  0  0  0  0  0  0  0  0
    9.7030    2.8200  -57.8000 C   0  0  2  0  0  0  0  0  0  0  0  0
    8.7000    2.4580  -58.9210 C   0  0  0  0  0  0  0  0  0  0  0  0
    8.6430    3.5750  -59.9790 C   0  0  1  0  0  0  0  0  0  0  0  0
    8.2150    4.8900  -59.3060 C   0  0  0  0  0  0  0  0  0  0  0  0
    9.2270    5.2810  -58.2150 C   0  0  2  0  0  0  0  0  0  0  0  0
   10.6160    5.4510  -58.8500 C   0  0  0  0  0  0  0  0  0  0  0  0
   11.0520    4.1370  -59.5150 C   0  0  2  0  0  0  0  0  0  0  0  0
   10.0360    3.7540  -60.6020 C   0  0  0  0  0  0  0  0  0  0  0  0
   11.0980    3.0260  -58.4540 C   0  0  0  0  0  0  0  0  0  0  0  0
    9.2850    4.1670  -57.1550 C   0  0  0  0  0  0  0  0  0  0  0  0
    8.5520   -0.2610  -53.9280 C   0  0  0  0  0  0  0  0  0  0  0  0
    9.2140   -1.4050  -53.5270 C   0  0  0  0  0  0  0  0  0  0  0  0
    9.0730   -2.2710  -52.3150 C   0  0  0  0  0  0  0  0  0  0  0  0
    7.8010   -1.9950  -51.5110 C   0  0  0  0  0  0  0  0  0  0  0  0
    7.8960   -2.5740  -50.1070 C   0  0  0  0  0  0  0  0  0  0  0  0
   11.7674   -2.7167  -57.2521 H   0  0  0  0  0  0  0  0  0  0  0  0
   12.3408   -4.1341  -58.1949 H   0  0  0  0  0  0  0  0  0  0  0  0
   10.5975   -3.7012  -58.1949 H   0  0  0  0  0  0  0  0  0  0  0  0
   10.8186   -5.5598  -56.7190 H   0  0  0  0  0  0  0  0  0  0  0  0
   12.2775   -4.8027  -55.9219 H   0  0  0  0  0  0  0  0  0  0  0  0
    9.4590   -3.6810  -55.7767 H   0  0  0  0  0  0  0  0  0  0  0  0
   10.2457   -4.7487  -54.5245 H   0  0  0  0  0  0  0  0  0  0  0  0
   11.3777   -3.0554  -53.6337 H   0  0  0  0  0  0  0  0  0  0  0  0
   11.8889   -2.4500  -55.2652 H   0  0  0  0  0  0  0  0  0  0  0  0
   10.6330    1.1540  -56.8700 H   0  0  0  0  0  0  0  0  0  0  0  0
    9.0177    1.5209  -59.4015 H   0  0  0  0  0  0  0  0  0  0  0  0
    7.7005    2.3385  -58.4774 H   0  0  0  0  0  0  0  0  0  0  0  0
    7.9185    3.3071  -60.7622 H   0  0  0  0  0  0  0  0  0  0  0  0
    8.1695    5.6875  -60.0623 H   0  0  0  0  0  0  0  0  0  0  0  0
    7.2254    4.7528  -58.8458 H   0  0  0  0  0  0  0  0  0  0  0  0
    8.9180    6.2254  -57.7431 H   0  0  0  0  0  0  0  0  0  0  0  0
   10.5754    6.2472  -59.6079 H   0  0  0  0  0  0  0  0  0  0  0  0
   11.3413    5.7185  -58.0675 H   0  0  0  0  0  0  0  0  0  0  0  0
   12.0468    4.2638  -59.9670 H   0  0  0  0  0  0  0  0  0  0  0  0
    9.9964    4.5498  -61.3604 H   0  0  0  0  0  0  0  0  0  0  0  0
   10.3468    2.8082  -61.0698 H   0  0  0  0  0  0  0  0  0  0  0  0
   11.4137    2.0864  -58.9309 H   0  0  0  0  0  0  0  0  0  0  0  0
   11.8117    3.3201  -57.6703 H   0  0  0  0  0  0  0  0  0  0  0  0
   10.0188    4.4409  -56.3826 H   0  0  0  0  0  0  0  0  0  0  0  0
    8.2867    4.0510  -56.7079 H   0  0  0  0  0  0  0  0  0  0  0  0
    7.7484    0.2589  -53.3859 H   0  0  0  0  0  0  0  0  0  0  0  0
    9.0591   -3.3223  -52.6383 H   0  0  0  0  0  0  0  0  0  0  0  0
    9.9258   -2.0474  -51.6572 H   0  0  0  0  0  0  0  0  0  0  0  0
    7.6509   -0.9076  -51.4404 H   0  0  0  0  0  0  0  0  0  0  0  0
    6.9548   -2.4728  -52.0264 H   0  0  0  0  0  0  0  0  0  0  0  0
    7.7640   -1.7692  -49.3688 H   0  0  0  0  0  0  0  0  0  0  0  0
    7.1101   -3.3311  -49.9686 H   0  0  0  0  0  0  0  0  0  0  0  0
    8.8827   -3.0402  -49.9686 H   0  0  0  0  0  0  0  0  0  0  0  0
  1  2  1  0
  2  3  1  0
  3  4  1  0
  4  5  1  0
  5  6  1  0
  6  7  2  0
  7  8  1  0
  8  9  2  0
  8 10  1  0
 11 10  1  1
 11 12  1  0
 12 13  1  0
 13 14  1  0
 14 15  1  0
 15 16  1  0
 16 17  1  0
 17 18  1  0
 17 19  1  0
 15 20  1  0
  7 21  1  0
 21 22  2  0
 22 23  1  0
 23 24  1  0
 24 25  1  0
 22  5  1  0
 19 11  1  0
 20 11  1  0
 18 13  1  0
  1 26  1  0
  1 27  1  0
  1 28  1  0
  2 29  1  0
  2 30  1  0
  3 31  1  0
  3 32  1  0
  4 33  1  0
  4 34  1  0
 10 35  1  0
 12 36  1  0
 12 37  1  0
 13 38  1  6
 14 39  1  0
 14 40  1  0
 15 41  1  1
 16 42  1  0
 16 43  1  0
 17 44  1  6
 18 45  1  0
 18 46  1  0
 19 47  1  0
 19 48  1  0
 20 49  1  0
 20 50  1  0
 21 51  1  0
 23 52  1  0
 23 53  1  0
 24 54  1  0
 24 55  1  0
 25 56  1  0
 25 57  1  0
 25 58  1  0
M  END
>  <meeko>  (91) 
{"is_sidechain": false}

$$$$

     RDKit          3D

 50 54  0  0  0  0  0  0  0  0999 V2000
   11.0000   -2.8190  -53.4730 C   0  0  0  0  0  0  0  0  0  0  0  0
    9.9690   -1.8200  -53.8450 C   0  0  0  0  0  0  0  0  0  0  0  0
   10.0950   -0.8040  -54.7730 C   0  0  0  0  0  0  0  0  0  0  0  0
    8.8330   -0.1760  -54.8530 C   0  0  0  0  0  0  0  0  0  0  0  0
    8.4160    0.9600  -55.7050 C   0  0  0  0  0  0  0  0  0  0  0  0
    7.2510    1.3390  -55.7830 O   0  0  0  0  0  0  0  0  0  0  0  0
    9.4480    1.5500  -56.4210 N   0  0  0  0  0  0  0  0  0  0  0  0
    9.2700    2.6350  -57.3930 C   0  0  2  0  0  0  0  0  0  0  0  0
    8.8790    3.9700  -56.7120 C   0  0  0  0  0  0  0  0  0  0  0  0
    8.7550    5.0950  -57.7550 C   0  0  1  0  0  0  0  0  0  0  0  0
   10.1060    5.2830  -58.4630 C   0  0  0  0  0  0  0  0  0  0  0  0
   10.5130    3.9790  -59.1660 C   0  0  2  0  0  0  0  0  0  0  0  0
    9.4420    3.6010  -60.2000 C   0  0  0  0  0  0  0  0  0  0  0  0
    8.0860    3.4040  -59.5020 C   0  0  2  0  0  0  0  0  0  0  0  0
    7.6880    4.7080  -58.7920 C   0  0  0  0  0  0  0  0  0  0  0  0
    8.2080    2.2760  -58.4620 C   0  0  0  0  0  0  0  0  0  0  0  0
   10.6250    2.8570  -58.1210 C   0  0  0  0  0  0  0  0  0  0  0  0
    7.9750   -0.7690  -54.0140 N   0  0  0  0  0  0  0  0  0  0  0  0
    8.6690   -1.7330  -53.3530 N   0  0  0  0  0  0  0  0  0  0  0  0
    7.9930   -2.4680  -52.3220 C   0  0  0  0  0  0  0  0  0  0  0  0
    7.0350   -3.4270  -52.7000 C   0  0  0  0  0  0  0  0  0  0  0  0
    6.3470   -4.1760  -51.7410 C   0  0  0  0  0  0  0  0  0  0  0  0
    6.5980   -3.9720  -50.3890 C   0  0  0  0  0  0  0  0  0  0  0  0
    7.5320   -3.0150  -49.9980 C   0  0  0  0  0  0  0  0  0  0  0  0
    8.2250   -2.2640  -50.9570 C   0  0  0  0  0  0  0  0  0  0  0  0
   11.0681   -2.8850  -52.3771 H   0  0  0  0  0  0  0  0  0  0  0  0
   10.7233   -3.8015  -53.8830 H   0  0  0  0  0  0  0  0  0  0  0  0
   11.9733   -2.5115  -53.8830 H   0  0  0  0  0  0  0  0  0  0  0  0
   11.0002   -0.5370  -55.3381 H   0  0  0  0  0  0  0  0  0  0  0  0
   10.3170    1.0400  -56.4630 H   0  0  0  0  0  0  0  0  0  0  0  0
    7.9141    3.8449  -56.1989 H   0  0  0  0  0  0  0  0  0  0  0  0
    9.6623    4.2418  -55.9891 H   0  0  0  0  0  0  0  0  0  0  0  0
    8.4657    6.0320  -57.2567 H   0  0  0  0  0  0  0  0  0  0  0  0
   10.0186    6.0873  -59.2082 H   0  0  0  0  0  0  0  0  0  0  0  0
   10.8715    5.5477  -57.7188 H   0  0  0  0  0  0  0  0  0  0  0  0
   11.4805    4.1173  -59.6709 H   0  0  0  0  0  0  0  0  0  0  0  0
    9.3549    4.4052  -60.9454 H   0  0  0  0  0  0  0  0  0  0  0  0
    9.7331    2.6635  -60.6963 H   0  0  0  0  0  0  0  0  0  0  0  0
    7.3212    3.1387  -60.2467 H   0  0  0  0  0  0  0  0  0  0  0  0
    7.5954    5.5131  -59.5358 H   0  0  0  0  0  0  0  0  0  0  0  0
    6.7266    4.5583  -58.2790 H   0  0  0  0  0  0  0  0  0  0  0  0
    7.2348    2.1302  -57.9705 H   0  0  0  0  0  0  0  0  0  0  0  0
    8.5170    1.3526  -58.9738 H   0  0  0  0  0  0  0  0  0  0  0  0
   10.9194    1.9245  -58.6248 H   0  0  0  0  0  0  0  0  0  0  0  0
   11.3795    3.1475  -57.3751 H   0  0  0  0  0  0  0  0  0  0  0  0
    6.8242   -3.5898  -53.7673 H   0  0  0  0  0  0  0  0  0  0  0  0
    5.6072   -4.9266  -52.0561 H   0  0  0  0  0  0  0  0  0  0  0  0
    6.0620   -4.5631  -49.6318 H   0  0  0  0  0  0  0  0  0  0  0  0
    7.7269   -2.8476  -48.9284 H   0  0  0  0  0  0  0  0  0  0  0  0
    8.9567   -1.5086  -50.6345 H   0  0  0  0  0  0  0  0  0  0  0  0
  1  2  1  0
  2  3  2  0
  3  4  1  0
  4  5  1  0
  5  6  2  0
  5  7  1  0
  8  7  1  1
  8  9  1  0
  9 10  1  0
 10 11  1  0
 11 12  1  0
 12 13  1  0
 13 14  1  0
 14 15  1  0
 14 16  1  0
 12 17  1  0
  4 18  2  0
 18 19  1  0
 19 20  1  0
 20 21  2  0
 21 22  1  0
 22 23  2  0
 23 24  1  0
 24 25  2  0
 19  2  1  0
 25 20  1  0
 16  8  1  0
 17  8  1  0
 15 10  1  0
  1 26  1  0
  1 27  1  0
  1 28  1  0
  3 29  1  0
  7 30  1  0
  9 31  1  0
  9 32  1  0
 10 33  1  1
 11 34  1  0
 11 35  1  0
 12 36  1  6
 13 37  1  0
 13 38  1  0
 14 39  1  6
 15 40  1  0
 15 41  1  0
 16 42  1  0
 16 43  1  0
 17 44  1  0
 17 45  1  0
 21 46  1  0
 22 47  1  0
 23 48  1  0
 24 49  1  0
 25 50  1  0
M  END
>  <meeko>  (92) 
{"is_sidechain": false}

$$$$

     RDKit          3D

 52 55  0  0  0  0  0  0  0  0999 V2000
    5.4980   -4.1120  -50.5050 C   0  0  0  0  0  0  0  0  0  0  0  0
    6.9600   -3.9850  -50.1070 C   0  0  0  0  0  0  0  0  0  0  0  0
    7.4350   -2.5350  -50.1790 C   0  0  0  0  0  0  0  0  0  0  0  0
    8.1450   -2.2440  -51.4600 C   0  0  0  0  0  0  0  0  0  0  0  0
    9.2520   -2.8620  -52.0060 C   0  0  0  0  0  0  0  0  0  0  0  0
    9.4970   -2.2080  -53.2350 C   0  0  0  0  0  0  0  0  0  0  0  0
   10.5700   -2.5010  -54.2010 C   0  0  0  0  0  0  0  0  0  0  0  0
   11.6040   -1.8450  -54.2600 O   0  0  0  0  0  0  0  0  0  0  0  0
   10.2760   -3.5760  -55.0100 N   0  0  0  0  0  0  0  0  0  0  0  0
   11.1230   -4.1220  -56.0640 C   0  0  2  0  0  0  0  0  0  0  0  0
   11.7390   -3.0020  -56.9390 C   0  0  0  0  0  0  0  0  0  0  0  0
   12.6660   -3.6000  -58.0110 C   0  0  1  0  0  0  0  0  0  0  0  0
   13.8020   -4.3760  -57.3270 C   0  0  0  0  0  0  0  0  0  0  0  0
   13.2190   -5.5100  -56.4680 C   0  0  2  0  0  0  0  0  0  0  0  0
   12.4130   -6.4630  -57.3620 C   0  0  0  0  0  0  0  0  0  0  0  0
   11.2690   -5.7000  -58.0470 C   0  0  2  0  0  0  0  0  0  0  0  0
   11.8570   -4.5620  -58.8990 C   0  0  0  0  0  0  0  0  0  0  0  0
   10.3420   -5.1020  -56.9740 C   0  0  0  0  0  0  0  0  0  0  0  0
   12.2870   -4.9070  -55.4040 C   0  0  0  0  0  0  0  0  0  0  0  0
    8.5910   -1.2320  -53.4500 N   0  0  0  0  0  0  0  0  0  0  0  0
    7.7960   -1.2670  -52.3590 N   0  0  0  0  0  0  0  0  0  0  0  0
    6.7040   -0.3120  -52.2780 C   0  0  0  0  0  0  0  0  0  0  0  0
    5.8260   -0.3300  -53.5180 C   0  0  0  0  0  0  0  0  0  0  0  0
    4.8750   -4.1661  -49.6000 H   0  0  0  0  0  0  0  0  0  0  0  0
    5.2029   -3.2361  -51.1014 H   0  0  0  0  0  0  0  0  0  0  0  0
    5.3584   -5.0257  -51.1014 H   0  0  0  0  0  0  0  0  0  0  0  0
    7.0833   -4.3509  -49.0770 H   0  0  0  0  0  0  0  0  0  0  0  0
    7.5621   -4.5810  -50.8086 H   0  0  0  0  0  0  0  0  0  0  0  0
    6.5622   -1.8705  -50.0974 H   0  0  0  0  0  0  0  0  0  0  0  0
    8.1409   -2.3663  -49.3524 H   0  0  0  0  0  0  0  0  0  0  0  0
    9.8265   -3.6940  -51.5729 H   0  0  0  0  0  0  0  0  0  0  0  0
    9.3700   -3.9980  -54.8130 H   0  0  0  0  0  0  0  0  0  0  0  0
   10.9303   -2.4424  -57.4318 H   0  0  0  0  0  0  0  0  0  0  0  0
   12.3277   -2.3323  -56.2948 H   0  0  0  0  0  0  0  0  0  0  0  0
   13.0895   -2.7926  -58.6264 H   0  0  0  0  0  0  0  0  0  0  0  0
   14.4649   -4.8033  -58.0938 H   0  0  0  0  0  0  0  0  0  0  0  0
   14.3717   -3.6903  -56.6826 H   0  0  0  0  0  0  0  0  0  0  0  0
   14.0355   -6.0627  -55.9804 H   0  0  0  0  0  0  0  0  0  0  0  0
   13.0757   -6.8910  -58.1286 H   0  0  0  0  0  0  0  0  0  0  0  0
   11.9901   -7.2677  -56.7427 H   0  0  0  0  0  0  0  0  0  0  0  0
   10.6981   -6.3875  -58.6884 H   0  0  0  0  0  0  0  0  0  0  0  0
   12.5168   -4.9878  -59.6693 H   0  0  0  0  0  0  0  0  0  0  0  0
   11.0351   -4.0072  -59.3751 H   0  0  0  0  0  0  0  0  0  0  0  0
    9.5205   -4.5612  -57.4666 H   0  0  0  0  0  0  0  0  0  0  0  0
    9.9425   -5.9189  -56.3551 H   0  0  0  0  0  0  0  0  0  0  0  0
   11.8704   -5.7186  -54.7893 H   0  0  0  0  0  0  0  0  0  0  0  0
   12.8696   -4.2118  -54.7816 H   0  0  0  0  0  0  0  0  0  0  0  0
    6.0844   -0.5572  -51.4028 H   0  0  0  0  0  0  0  0  0  0  0  0
    7.1429    0.6930  -52.1922 H   0  0  0  0  0  0  0  0  0  0  0  0
    4.7680   -0.3517  -53.2178 H   0  0  0  0  0  0  0  0  0  0  0  0
    6.0188    0.5723  -54.1169 H   0  0  0  0  0  0  0  0  0  0  0  0
    6.0556   -1.2236  -54.1169 H   0  0  0  0  0  0  0  0  0  0  0  0
  1  2  1  0
  2  3  1  0
  3  4  1  0
  4  5  2  0
  5  6  1  0
  6  7  1  0
  7  8  2  0
  7  9  1  0
 10  9  1  1
 10 11  1  0
 11 12  1  0
 12 13  1  0
 13 14  1  0
 14 15  1  0
 15 16  1  0
 16 17  1  0
 16 18  1  0
 14 19  1  0
  6 20  2  0
 20 21  1  0
 21 22  1  0
 22 23  1  0
 21  4  1  0
 18 10  1  0
 19 10  1  0
 17 12  1  0
  1 24  1  0
  1 25  1  0
  1 26  1  0
  2 27  1  0
  2 28  1  0
  3 29  1  0
  3 30  1  0
  5 31  1  0
  9 32  1  0
 11 33  1  0
 11 34  1  0
 12 35  1  6
 13 36  1  0
 13 37  1  0
 14 38  1  1
 15 39  1  0
 15 40  1  0
 16 41  1  6
 17 42  1  0
 17 43  1  0
 18 44  1  0
 18 45  1  0
 19 46  1  0
 19 47  1  0
 22 48  1  0
 22 49  1  0
 23 50  1  0
 23 51  1  0
 23 52  1  0
M  END
>  <meeko>  (93) 
{"is_sidechain": false}

$$$$

     RDKit          3D

 46 49  0  0  0  0  0  0  0  0999 V2000
    5.2680   -4.1690  -50.4160 C   0  0  0  0  0  0  0  0  0  0  0  0
    6.7520   -4.1450  -50.0780 C   0  0  0  0  0  0  0  0  0  0  0  0
    7.3500   -2.7360  -50.0890 C   0  0  0  0  0  0  0  0  0  0  0  0
    8.1040   -2.4330  -51.3370 C   0  0  0  0  0  0  0  0  0  0  0  0
    9.2000   -3.0320  -51.9150 C   0  0  0  0  0  0  0  0  0  0  0  0
    9.4620   -2.2910  -53.0950 C   0  0  0  0  0  0  0  0  0  0  0  0
   10.5350   -2.5350  -54.0760 C   0  0  0  0  0  0  0  0  0  0  0  0
   11.5290   -1.8240  -54.1570 O   0  0  0  0  0  0  0  0  0  0  0  0
   10.2890   -3.6350  -54.8690 N   0  0  0  0  0  0  0  0  0  0  0  0
   11.1510   -4.1440  -55.9300 C   0  0  2  0  0  0  0  0  0  0  0  0
   12.3460   -4.9460  -55.3580 C   0  0  0  0  0  0  0  0  0  0  0  0
   13.2120   -5.5120  -56.4970 C   0  0  1  0  0  0  0  0  0  0  0  0
   12.3590   -6.4460  -57.3680 C   0  0  0  0  0  0  0  0  0  0  0  0
   11.1750   -5.6700  -57.9660 C   0  0  2  0  0  0  0  0  0  0  0  0
   11.7080   -4.5120  -58.8260 C   0  0  0  0  0  0  0  0  0  0  0  0
   12.5580   -3.5670  -57.9620 C   0  0  2  0  0  0  0  0  0  0  0  0
   13.7360   -4.3510  -57.3600 C   0  0  0  0  0  0  0  0  0  0  0  0
   11.6920   -3.0000  -56.8240 C   0  0  0  0  0  0  0  0  0  0  0  0
   10.3180   -5.0990  -56.8260 C   0  0  0  0  0  0  0  0  0  0  0  0
    8.5760   -1.2810  -53.2370 N   0  0  0  0  0  0  0  0  0  0  0  0
    7.7790   -1.3930  -52.1620 N   0  0  0  0  0  0  0  0  0  0  0  0
    4.6803   -4.1785  -49.4862 H   0  0  0  0  0  0  0  0  0  0  0  0
    5.0111   -3.2749  -51.0030 H   0  0  0  0  0  0  0  0  0  0  0  0
    5.0402   -5.0709  -51.0030 H   0  0  0  0  0  0  0  0  0  0  0  0
    6.8891   -4.5752  -49.0750 H   0  0  0  0  0  0  0  0  0  0  0  0
    7.2731   -4.7274  -50.8521 H   0  0  0  0  0  0  0  0  0  0  0  0
    6.5321   -2.0074  -49.9881 H   0  0  0  0  0  0  0  0  0  0  0  0
    8.0611   -2.6741  -49.2520 H   0  0  0  0  0  0  0  0  0  0  0  0
    9.7565   -3.9036  -51.5399 H   0  0  0  0  0  0  0  0  0  0  0  0
    9.4110   -4.1040  -54.6560 H   0  0  0  0  0  0  0  0  0  0  0  0
   12.9605   -4.2823  -54.7320 H   0  0  0  0  0  0  0  0  0  0  0  0
   11.9577   -5.7822  -54.7581 H   0  0  0  0  0  0  0  0  0  0  0  0
   14.0592   -6.0722  -56.0745 H   0  0  0  0  0  0  0  0  0  0  0  0
   12.9778   -6.8510  -58.1823 H   0  0  0  0  0  0  0  0  0  0  0  0
   11.9752   -7.2688  -56.7470 H   0  0  0  0  0  0  0  0  0  0  0  0
   10.5671   -6.3437  -58.5877 H   0  0  0  0  0  0  0  0  0  0  0  0
   12.3267   -4.9172  -59.6403 H   0  0  0  0  0  0  0  0  0  0  0  0
   10.8593   -3.9529  -59.2468 H   0  0  0  0  0  0  0  0  0  0  0  0
   12.9395   -2.7427  -58.5824 H   0  0  0  0  0  0  0  0  0  0  0  0
   14.3583   -4.7538  -58.1727 H   0  0  0  0  0  0  0  0  0  0  0  0
   14.3340   -3.6756  -56.7305 H   0  0  0  0  0  0  0  0  0  0  0  0
   12.3008   -2.3190  -56.2111 H   0  0  0  0  0  0  0  0  0  0  0  0
   10.8405   -2.4585  -57.2618 H   0  0  0  0  0  0  0  0  0  0  0  0
    9.4719   -4.5427  -57.2557 H   0  0  0  0  0  0  0  0  0  0  0  0
    9.9557   -5.9334  -56.2076 H   0  0  0  0  0  0  0  0  0  0  0  0
    7.0230   -0.7240  -52.0530 H   0  0  0  0  0  0  0  0  0  0  0  0
  1  2  1  0
  2  3  1  0
  3  4  1  0
  4  5  2  0
  5  6  1  0
  6  7  1  0
  7  8  2  0
  7  9  1  0
 10  9  1  1
 10 11  1  0
 11 12  1  0
 12 13  1  0
 13 14  1  0
 14 15  1  0
 15 16  1  0
 16 17  1  0
 16 18  1  0
 14 19  1  0
  6 20  2  0
 20 21  1  0
 21  4  1  0
 18 10  1  0
 19 10  1  0
 17 12  1  0
  1 22  1  0
  1 23  1  0
  1 24  1  0
  2 25  1  0
  2 26  1  0
  3 27  1  0
  3 28  1  0
  5 29  1  0
  9 30  1  0
 11 31  1  0
 11 32  1  0
 12 33  1  1
 13 34  1  0
 13 35  1  0
 14 36  1  6
 15 37  1  0
 15 38  1  0
 16 39  1  6
 17 40  1  0
 17 41  1  0
 18 42  1  0
 18 43  1  0
 19 44  1  0
 19 45  1  0
 21 46  1  0
M  END
>  <meeko>  (94) 
{"is_sidechain": false}

$$$$

     RDKit          3D

 46 49  0  0  0  0  0  0  0  0999 V2000
    8.3940   -2.9360  -50.2890 C   0  0  0  0  0  0  0  0  0  0  0  0
    7.7170   -2.1640  -51.4140 C   0  0  0  0  0  0  0  0  0  0  0  0
    8.6340   -1.9250  -52.6150 C   0  0  0  0  0  0  0  0  0  0  0  0
    8.0180   -1.0830  -53.6810 C   0  0  0  0  0  0  0  0  0  0  0  0
    8.5840    0.0320  -54.3480 C   0  0  0  0  0  0  0  0  0  0  0  0
    7.6190    0.4600  -55.2380 C   0  0  0  0  0  0  0  0  0  0  0  0
    7.5480    1.5240  -56.2070 C   0  0  0  0  0  0  0  0  0  0  0  0
    6.4850    2.0610  -56.4910 O   0  0  0  0  0  0  0  0  0  0  0  0
    8.7530    1.8740  -56.7730 N   0  0  0  0  0  0  0  0  0  0  0  0
    8.9380    2.9220  -57.7820 C   0  0  2  0  0  0  0  0  0  0  0  0
    7.9700    2.7450  -58.9780 C   0  0  0  0  0  0  0  0  0  0  0  0
    8.2220    3.8260  -60.0440 C   0  0  1  0  0  0  0  0  0  0  0  0
    8.0190    5.2150  -59.4150 C   0  0  0  0  0  0  0  0  0  0  0  0
    9.0030    5.4170  -58.2490 C   0  0  2  0  0  0  0  0  0  0  0  0
   10.4410    5.2900  -58.7730 C   0  0  0  0  0  0  0  0  0  0  0  0
   10.6520    3.9000  -59.3940 C   0  0  2  0  0  0  0  0  0  0  0  0
    9.6660    3.7080  -60.5570 C   0  0  0  0  0  0  0  0  0  0  0  0
   10.3900    2.8250  -58.3270 C   0  0  0  0  0  0  0  0  0  0  0  0
    8.7510    4.3370  -57.1820 C   0  0  0  0  0  0  0  0  0  0  0  0
    6.5650   -0.3950  -55.0500 N   0  0  0  0  0  0  0  0  0  0  0  0
    6.7780   -1.3340  -54.1150 N   0  0  0  0  0  0  0  0  0  0  0  0
    8.0519   -2.5459  -49.3190 H   0  0  0  0  0  0  0  0  0  0  0  0
    8.1342   -4.0020  -50.3677 H   0  0  0  0  0  0  0  0  0  0  0  0
    9.4848   -2.8176  -50.3677 H   0  0  0  0  0  0  0  0  0  0  0  0
    6.8396   -2.7351  -51.7517 H   0  0  0  0  0  0  0  0  0  0  0  0
    7.4379   -1.1783  -51.0134 H   0  0  0  0  0  0  0  0  0  0  0  0
    9.5469   -1.4239  -52.2607 H   0  0  0  0  0  0  0  0  0  0  0  0
    8.8418   -2.9085  -53.0618 H   0  0  0  0  0  0  0  0  0  0  0  0
    9.5825    0.4655  -54.1899 H   0  0  0  0  0  0  0  0  0  0  0  0
    9.5740    1.3700  -56.4750 H   0  0  0  0  0  0  0  0  0  0  0  0
    8.1264    1.7525  -59.4257 H   0  0  0  0  0  0  0  0  0  0  0  0
    6.9362    2.8400  -58.6143 H   0  0  0  0  0  0  0  0  0  0  0  0
    7.5206    3.6911  -60.8805 H   0  0  0  0  0  0  0  0  0  0  0  0
    8.1944    5.9886  -60.1771 H   0  0  0  0  0  0  0  0  0  0  0  0
    6.9897    5.2907  -59.0344 H   0  0  0  0  0  0  0  0  0  0  0  0
    8.8579    6.4140  -57.8075 H   0  0  0  0  0  0  0  0  0  0  0  0
   10.6202    6.0613  -59.5365 H   0  0  0  0  0  0  0  0  0  0  0  0
   11.1435    5.4230  -57.9371 H   0  0  0  0  0  0  0  0  0  0  0  0
   11.6839    3.8130  -59.7651 H   0  0  0  0  0  0  0  0  0  0  0  0
    9.8464    4.4802  -61.3193 H   0  0  0  0  0  0  0  0  0  0  0  0
    9.8138    2.7103  -60.9959 H   0  0  0  0  0  0  0  0  0  0  0  0
   10.5408    1.8310  -58.7734 H   0  0  0  0  0  0  0  0  0  0  0  0
   11.0885    2.9830  -57.4921 H   0  0  0  0  0  0  0  0  0  0  0  0
    9.4614    4.4749  -56.3536 H   0  0  0  0  0  0  0  0  0  0  0  0
    7.7175    4.4334  -56.8179 H   0  0  0  0  0  0  0  0  0  0  0  0
    5.6750   -0.3770  -55.5390 H   0  0  0  0  0  0  0  0  0  0  0  0
  1  2  1  0
  2  3  1  0
  3  4  1  0
  4  5  1  0
  5  6  2  0
  6  7  1  0
  7  8  2  0
  7  9  1  0
 10  9  1  1
 10 11  1  0
 11 12  1  0
 12 13  1  0
 13 14  1  0
 14 15  1  0
 15 16  1  0
 16 17  1  0
 16 18  1  0
 14 19  1  0
  6 20  1  0
 20 21  1  0
 21  4  2  0
 18 10  1  0
 19 10  1  0
 17 12  1  0
  1 22  1  0
  1 23  1  0
  1 24  1  0
  2 25  1  0
  2 26  1  0
  3 27  1  0
  3 28  1  0
  5 29  1  0
  9 30  1  0
 11 31  1  0
 11 32  1  0
 12 33  1  6
 13 34  1  0
 13 35  1  0
 14 36  1  1
 15 37  1  0
 15 38  1  0
 16 39  1  6
 17 40  1  0
 17 41  1  0
 18 42  1  0
 18 43  1  0
 19 44  1  0
 19 45  1  0
 20 46  1  0
M  END
>  <meeko>  (95) 
{"is_sidechain": false}

$$$$

     RDKit          3D

 53 56  0  0  0  0  0  0  0  0999 V2000
   10.8070   -4.2740  -56.3190 C   0  0  0  0  0  0  0  0  0  0  0  0
   10.7410   -4.0010  -55.0090 C   0  0  0  0  0  0  0  0  0  0  0  0
   11.1690   -2.6990  -54.3890 C   0  0  0  0  0  0  0  0  0  0  0  0
   10.0920   -1.7100  -54.3690 N   0  0  0  0  0  0  0  0  0  0  0  0
   10.0420   -0.7940  -55.3640 N   0  0  0  0  0  0  0  0  0  0  0  0
    8.9960   -0.0070  -55.0440 C   0  0  0  0  0  0  0  0  0  0  0  0
    8.5890    1.1300  -55.8870 C   0  0  0  0  0  0  0  0  0  0  0  0
    7.4390    1.5540  -55.9140 O   0  0  0  0  0  0  0  0  0  0  0  0
    9.6320    1.6440  -56.6240 N   0  0  0  0  0  0  0  0  0  0  0  0
    9.5600    2.7490  -57.5730 C   0  0  2  0  0  0  0  0  0  0  0  0
    9.1790    4.0780  -56.8740 C   0  0  0  0  0  0  0  0  0  0  0  0
    9.1530    5.2350  -57.8880 C   0  0  1  0  0  0  0  0  0  0  0  0
   10.5470    5.3880  -58.5190 C   0  0  0  0  0  0  0  0  0  0  0  0
   10.9420    4.0880  -59.2390 C   0  0  2  0  0  0  0  0  0  0  0  0
    9.9120    3.7810  -60.3370 C   0  0  0  0  0  0  0  0  0  0  0  0
    8.5150    3.6190  -59.7160 C   0  0  2  0  0  0  0  0  0  0  0  0
    8.1290    4.9190  -58.9910 C   0  0  0  0  0  0  0  0  0  0  0  0
    8.5400    2.4620  -58.7030 C   0  0  0  0  0  0  0  0  0  0  0  0
   10.9560    2.9350  -58.2240 C   0  0  0  0  0  0  0  0  0  0  0  0
    8.3960   -0.4330  -53.8370 C   0  0  0  0  0  0  0  0  0  0  0  0
    9.1080   -1.5410  -53.4230 C   0  0  0  0  0  0  0  0  0  0  0  0
    8.9240   -2.4010  -52.2130 C   0  0  0  0  0  0  0  0  0  0  0  0
    7.7660   -1.9460  -51.3190 C   0  0  0  0  0  0  0  0  0  0  0  0
    7.7750   -2.6040  -49.9470 C   0  0  0  0  0  0  0  0  0  0  0  0
   10.4733   -5.2527  -56.6944 H   0  0  0  0  0  0  0  0  0  0  0  0
   11.1949   -3.5195  -57.0192 H   0  0  0  0  0  0  0  0  0  0  0  0
   10.3472   -4.7818  -54.3417 H   0  0  0  0  0  0  0  0  0  0  0  0
   11.4927   -2.8897  -53.3551 H   0  0  0  0  0  0  0  0  0  0  0  0
   11.9880   -2.2904  -54.9991 H   0  0  0  0  0  0  0  0  0  0  0  0
   10.5110    1.1470  -56.4870 H   0  0  0  0  0  0  0  0  0  0  0  0
    8.1832    3.9743  -56.4182 H   0  0  0  0  0  0  0  0  0  0  0  0
    9.9298    4.3003  -56.1014 H   0  0  0  0  0  0  0  0  0  0  0  0
    8.8728    6.1686  -57.3782 H   0  0  0  0  0  0  0  0  0  0  0  0
   10.5304    6.2155  -59.2436 H   0  0  0  0  0  0  0  0  0  0  0  0
   11.2809    5.6007  -57.7278 H   0  0  0  0  0  0  0  0  0  0  0  0
   11.9392    4.2020  -59.6890 H   0  0  0  0  0  0  0  0  0  0  0  0
    9.8948    4.6081  -61.0620 H   0  0  0  0  0  0  0  0  0  0  0  0
   10.1925    2.8462  -60.8445 H   0  0  0  0  0  0  0  0  0  0  0  0
    7.7813    3.4029  -60.5066 H   0  0  0  0  0  0  0  0  0  0  0  0
    8.1078    5.7466  -59.7153 H   0  0  0  0  0  0  0  0  0  0  0  0
    7.1360    4.7946  -58.5345 H   0  0  0  0  0  0  0  0  0  0  0  0
    7.5382    2.3438  -58.2643 H   0  0  0  0  0  0  0  0  0  0  0  0
    8.8381    1.5404  -59.2243 H   0  0  0  0  0  0  0  0  0  0  0  0
   11.2390    2.0055  -58.7397 H   0  0  0  0  0  0  0  0  0  0  0  0
   11.6821    3.1738  -57.4330 H   0  0  0  0  0  0  0  0  0  0  0  0
    7.5348    0.0261  -53.3296 H   0  0  0  0  0  0  0  0  0  0  0  0
    8.7265   -3.4315  -52.5434 H   0  0  0  0  0  0  0  0  0  0  0  0
    9.8454   -2.3274  -51.6167 H   0  0  0  0  0  0  0  0  0  0  0  0
    7.8349   -0.8564  -51.1848 H   0  0  0  0  0  0  0  0  0  0  0  0
    6.8314   -2.2421  -51.8179 H   0  0  0  0  0  0  0  0  0  0  0  0
    7.7644   -1.8275  -49.1679 H   0  0  0  0  0  0  0  0  0  0  0  0
    6.8855   -3.2423  -49.8406 H   0  0  0  0  0  0  0  0  0  0  0  0
    8.6816   -3.2178  -49.8406 H   0  0  0  0  0  0  0  0  0  0  0  0
  1  2  2  0
  2  3  1  0
  3  4  1  0
  4  5  1  0
  5  6  2  0
  6  7  1  0
  7  8  2  0
  7  9  1  0
 10  9  1  1
 10 11  1  0
 11 12  1  0
 12 13  1  0
 13 14  1  0
 14 15  1  0
 15 16  1  0
 16 17  1  0
 16 18  1  0
 14 19  1  0
  6 20  1  0
 20 21  2  0
 21 22  1  0
 22 23  1  0
 23 24  1  0
 21  4  1  0
 18 10  1  0
 19 10  1  0
 17 12  1  0
  1 25  1  0
  1 26  1  0
  2 27  1  0
  3 28  1  0
  3 29  1  0
  9 30  1  0
 11 31  1  0
 11 32  1  0
 12 33  1  1
 13 34  1  0
 13 35  1  0
 14 36  1  6
 15 37  1  0
 15 38  1  0
 16 39  1  6
 17 40  1  0
 17 41  1  0
 18 42  1  0
 18 43  1  0
 19 44  1  0
 19 45  1  0
 20 46  1  0
 22 47  1  0
 22 48  1  0
 23 49  1  0
 23 50  1  0
 24 51  1  0
 24 52  1  0
 24 53  1  0
M  END
>  <meeko>  (96) 
{"is_sidechain": false}

$$$$

     RDKit          3D

 32 34  0  0  0  0  0  0  0  0999 V2000
   13.0020    7.2820  -60.2770 C   0  0  0  0  0  0  0  0  0  0  0  0
   11.8820    6.3950  -60.2470 O   0  0  0  0  0  0  0  0  0  0  0  0
   11.9590    5.4330  -59.2860 C   0  0  0  0  0  0  0  0  0  0  0  0
   12.9190    5.2720  -58.5430 O   0  0  0  0  0  0  0  0  0  0  0  0
   10.6880    4.5850  -59.2600 C   0  0  2  0  0  0  0  0  0  0  0  0
    9.5580    5.3300  -58.5130 C   0  0  0  0  0  0  0  0  0  0  0  0
    8.2760    4.4790  -58.4920 C   0  0  1  0  0  0  0  0  0  0  0  0
    7.8260    4.2020  -59.9350 C   0  0  0  0  0  0  0  0  0  0  0  0
    8.9290    3.4450  -60.6940 C   0  0  2  0  0  0  0  0  0  0  0  0
    9.2160    2.1140  -59.9810 C   0  0  0  0  0  0  0  0  0  0  0  0
    9.6750    2.3790  -58.5370 C   0  0  2  0  0  0  0  0  0  0  0  0
    8.5700    3.1430  -57.7860 C   0  0  0  0  0  0  0  0  0  0  0  0
   10.9540    3.2340  -58.5590 C   0  0  0  0  0  0  0  0  0  0  0  0
   10.2090    4.2980  -60.7050 C   0  0  0  0  0  0  0  0  0  0  0  0
   13.3064    7.5231  -59.2478 H   0  0  0  0  0  0  0  0  0  0  0  0
   13.8385    6.7988  -60.8031 H   0  0  0  0  0  0  0  0  0  0  0  0
   12.7232    8.2069  -60.8031 H   0  0  0  0  0  0  0  0  0  0  0  0
    9.8772    5.5298  -57.4795 H   0  0  0  0  0  0  0  0  0  0  0  0
    9.3495    6.2760  -59.0341 H   0  0  0  0  0  0  0  0  0  0  0  0
    7.4811    5.0172  -57.9549 H   0  0  0  0  0  0  0  0  0  0  0  0
    6.9101    3.5929  -59.9204 H   0  0  0  0  0  0  0  0  0  0  0  0
    7.6301    5.1584  -60.4420 H   0  0  0  0  0  0  0  0  0  0  0  0
    8.6014    3.2488  -61.7256 H   0  0  0  0  0  0  0  0  0  0  0  0
    8.3008    1.5040  -59.9662 H   0  0  0  0  0  0  0  0  0  0  0  0
   10.0118    1.5796  -60.5205 H   0  0  0  0  0  0  0  0  0  0  0  0
    9.8762    1.4229  -58.0316 H   0  0  0  0  0  0  0  0  0  0  0  0
    7.6549    2.5329  -57.7665 H   0  0  0  0  0  0  0  0  0  0  0  0
    8.9072    3.3456  -56.7588 H   0  0  0  0  0  0  0  0  0  0  0  0
   11.2829    3.4204  -57.5260 H   0  0  0  0  0  0  0  0  0  0  0  0
   11.7350    2.6927  -59.1131 H   0  0  0  0  0  0  0  0  0  0  0  0
   10.9989    3.7569  -61.2465 H   0  0  0  0  0  0  0  0  0  0  0  0
    9.9921    5.2549  -61.2024 H   0  0  0  0  0  0  0  0  0  0  0  0
  1  2  1  0
  2  3  1  0
  3  4  2  0
  5  3  1  6
  5  6  1  0
  6  7  1  0
  7  8  1  0
  8  9  1  0
  9 10  1  0
 10 11  1  0
 11 12  1  0
 11 13  1  0
  9 14  1  0
 13  5  1  0
 14  5  1  0
 12  7  1  0
  1 15  1  0
  1 16  1  0
  1 17  1  0
  6 18  1  0
  6 19  1  0
  7 20  1  1
  8 21  1  0
  8 22  1  0
  9 23  1  6
 10 24  1  0
 10 25  1  0
 11 26  1  1
 12 27  1  0
 12 28  1  0
 13 29  1  0
 13 30  1  0
 14 31  1  0
 14 32  1  0
M  END
>  <meeko>  (97) 
{"is_sidechain": false}

$$$$

     RDKit          3D

 51 53  0  0  0  0  0  0  0  0999 V2000
    8.1200   -2.9380  -50.0310 C   0  0  0  0  0  0  0  0  0  0  0  0
    7.8840   -2.1470  -51.3070 C   0  0  0  0  0  0  0  0  0  0  0  0
    8.9030   -2.5110  -52.3870 C   0  0  0  0  0  0  0  0  0  0  0  0
    8.8790   -1.5350  -53.5150 C   0  0  0  0  0  0  0  0  0  0  0  0
    7.9090   -0.6220  -53.8700 C   0  0  0  0  0  0  0  0  0  0  0  0
    8.4020    0.0500  -55.0130 C   0  0  0  0  0  0  0  0  0  0  0  0
    7.7380    1.1250  -55.7660 C   0  0  0  0  0  0  0  0  0  0  0  0
    6.5310    1.3360  -55.7060 O   0  0  0  0  0  0  0  0  0  0  0  0
    8.6140    1.8700  -56.5270 N   0  0  0  0  0  0  0  0  0  0  0  0
    8.2320    3.0990  -57.1940 C   0  0  0  0  0  0  0  0  0  0  0  0
    9.3380    4.1510  -57.0910 C   0  0  0  0  0  0  0  0  0  0  0  0
    8.9130    5.4880  -57.7030 C   0  0  0  0  0  0  0  0  0  0  0  0
    7.8820    5.3480  -58.8250 C   0  0  0  0  0  0  0  0  0  0  0  0
    8.0410    4.0350  -59.5770 C   0  0  0  0  0  0  0  0  0  0  0  0
    7.8630    2.8220  -58.6600 C   0  0  0  0  0  0  0  0  0  0  0  0
    9.6240   -0.4110  -55.3530 N   0  0  0  0  0  0  0  0  0  0  0  0
    9.8790   -1.3890  -54.4500 N   0  0  0  0  0  0  0  0  0  0  0  0
   11.1540   -2.0990  -54.5250 C   0  0  0  0  0  0  0  0  0  0  0  0
   11.2350   -3.0310  -55.7110 C   0  0  0  0  0  0  0  0  0  0  0  0
   10.7500   -4.3440  -55.6120 C   0  0  0  0  0  0  0  0  0  0  0  0
   10.8400   -5.2200  -56.6960 C   0  0  0  0  0  0  0  0  0  0  0  0
   11.4260   -4.7980  -57.8870 C   0  0  0  0  0  0  0  0  0  0  0  0
   11.9240   -3.5010  -57.9950 C   0  0  0  0  0  0  0  0  0  0  0  0
   11.8350   -2.6250  -56.9140 C   0  0  0  0  0  0  0  0  0  0  0  0
    7.9280   -2.2944  -49.1598 H   0  0  0  0  0  0  0  0  0  0  0  0
    7.4408   -3.8028  -50.0048 H   0  0  0  0  0  0  0  0  0  0  0  0
    9.1621   -3.2893  -50.0048 H   0  0  0  0  0  0  0  0  0  0  0  0
    6.8729   -2.3652  -51.6812 H   0  0  0  0  0  0  0  0  0  0  0  0
    7.9929   -1.0771  -51.0756 H   0  0  0  0  0  0  0  0  0  0  0  0
    9.9087   -2.5172  -51.9415 H   0  0  0  0  0  0  0  0  0  0  0  0
    8.6437   -3.5033  -52.7846 H   0  0  0  0  0  0  0  0  0  0  0  0
    6.9462   -0.4507  -53.3663 H   0  0  0  0  0  0  0  0  0  0  0  0
    9.5940    1.6520  -56.3630 H   0  0  0  0  0  0  0  0  0  0  0  0
    7.3440    3.5040  -56.6867 H   0  0  0  0  0  0  0  0  0  0  0  0
    9.5824    4.3073  -56.0299 H   0  0  0  0  0  0  0  0  0  0  0  0
   10.2115    3.7830  -57.6492 H   0  0  0  0  0  0  0  0  0  0  0  0
    8.4791    6.1121  -56.9079 H   0  0  0  0  0  0  0  0  0  0  0  0
    9.8125    5.9404  -58.1461 H   0  0  0  0  0  0  0  0  0  0  0  0
    6.8730    5.3886  -58.3887 H   0  0  0  0  0  0  0  0  0  0  0  0
    8.0378    6.1714  -59.5375 H   0  0  0  0  0  0  0  0  0  0  0  0
    7.2860    3.9898  -60.3757 H   0  0  0  0  0  0  0  0  0  0  0  0
    9.0602    4.0017  -59.9895 H   0  0  0  0  0  0  0  0  0  0  0  0
    6.8097    2.5076  -58.6999 H   0  0  0  0  0  0  0  0  0  0  0  0
    8.5471    2.0406  -59.0225 H   0  0  0  0  0  0  0  0  0  0  0  0
   11.9644   -1.3593  -54.6031 H   0  0  0  0  0  0  0  0  0  0  0  0
   11.2469   -2.7108  -53.6155 H   0  0  0  0  0  0  0  0  0  0  0  0
   10.2944   -4.6867  -54.6713 H   0  0  0  0  0  0  0  0  0  0  0  0
   10.4478   -6.2440  -56.6091 H   0  0  0  0  0  0  0  0  0  0  0  0
   11.4956   -5.4876  -58.7412 H   0  0  0  0  0  0  0  0  0  0  0  0
   12.3882   -3.1677  -58.9349 H   0  0  0  0  0  0  0  0  0  0  0  0
   12.2388   -1.6058  -57.0043 H   0  0  0  0  0  0  0  0  0  0  0  0
  1  2  1  0
  2  3  1  0
  3  4  1  0
  4  5  2  0
  5  6  1  0
  6  7  1  0
  7  8  2  0
  7  9  1  0
  9 10  1  0
 10 11  1  0
 11 12  1  0
 12 13  1  0
 13 14  1  0
 14 15  1  0
  6 16  2  0
 16 17  1  0
 17 18  1  0
 18 19  1  0
 19 20  2  0
 20 21  1  0
 21 22  2  0
 22 23  1  0
 23 24  2  0
 17  4  1  0
 24 19  1  0
 15 10  1  0
  1 25  1  0
  1 26  1  0
  1 27  1  0
  2 28  1  0
  2 29  1  0
  3 30  1  0
  3 31  1  0
  5 32  1  0
  9 33  1  0
 10 34  1  0
 11 35  1  0
 11 36  1  0
 12 37  1  0
 12 38  1  0
 13 39  1  0
 13 40  1  0
 14 41  1  0
 14 42  1  0
 15 43  1  0
 15 44  1  0
 18 45  1  0
 18 46  1  0
 20 47  1  0
 21 48  1  0
 22 49  1  0
 23 50  1  0
 24 51  1  0
M  END
>  <meeko>  (98) 
{"is_sidechain": false}

$$$$
