
     RDKit          3D

 67 72  0  0  0  0  0  0  0  0999 V2000
    6.0350    0.3110  -53.5320 C   0  0  0  0  0  0  0  0  0  0  0  0
    7.3250   -0.2120  -54.0550 C   0  0  0  0  0  0  0  0  0  0  0  0
    8.0950    0.2920  -55.1530 C   0  0  0  0  0  0  0  0  0  0  0  0
    7.8280    1.4750  -55.9960 C   0  0  0  0  0  0  0  0  0  0  0  0
    6.7290    2.0180  -56.0520 O   0  0  0  0  0  0  0  0  0  0  0  0
    8.9250    1.8890  -56.7360 N   0  0  0  0  0  0  0  0  0  0  0  0
    8.9000    2.9630  -57.7310 C   0  0  2  0  0  0  0  0  0  0  0  0
    7.6810    2.8380  -58.6770 C   0  0  0  0  0  0  0  0  0  0  0  0
    7.7120    3.9430  -59.7490 C   0  0  1  0  0  0  0  0  0  0  0  0
    7.6940    5.3180  -59.0600 C   0  0  0  0  0  0  0  0  0  0  0  0
    8.9210    5.4690  -58.1450 C   0  0  2  0  0  0  0  0  0  0  0  0
   10.2000    5.3280  -58.9850 C   0  0  0  0  0  0  0  0  0  0  0  0
   10.2290    3.9520  -59.6670 C   0  0  2  0  0  0  0  0  0  0  0  0
    8.9990    3.8090  -60.5780 C   0  0  0  0  0  0  0  0  0  0  0  0
   10.1890    2.8560  -58.5910 C   0  0  0  0  0  0  0  0  0  0  0  0
    8.8920    4.3660  -57.0730 C   0  0  0  0  0  0  0  0  0  0  0  0
    9.1780   -0.4730  -55.3640 N   0  0  0  0  0  0  0  0  0  0  0  0
    9.1170   -1.4340  -54.4260 N   0  0  0  0  0  0  0  0  0  0  0  0
   10.1680   -2.4540  -54.3900 C   0  0  2  0  0  0  0  0  0  0  0  0
   11.4770   -1.9770  -55.0590 C   0  0  0  0  0  0  0  0  0  0  0  0
   11.6320   -2.5040  -56.4870 C   0  0  0  0  0  0  0  0  0  0  0  0
   11.6000   -4.0360  -56.5400 C   0  0  1  0  0  0  0  0  0  0  0  0
   12.9300   -4.5530  -56.5040 O   0  0  0  0  0  0  0  0  0  0  0  0
   10.8000   -4.6790  -55.4030 C   0  0  0  0  0  0  0  0  0  0  0  0
    9.6490   -3.7880  -54.9570 C   0  0  0  0  0  0  0  0  0  0  0  0
    8.0220   -1.3230  -53.6020 C   0  0  0  0  0  0  0  0  0  0  0  0
    7.7090   -2.2420  -52.5160 C   0  0  0  0  0  0  0  0  0  0  0  0
    6.9180   -3.3710  -52.7520 C   0  0  0  0  0  0  0  0  0  0  0  0
    6.6230   -4.2530  -51.7110 C   0  0  0  0  0  0  0  0  0  0  0  0
    7.1160   -4.0070  -50.4300 C   0  0  0  0  0  0  0  0  0  0  0  0
    7.9000   -2.8800  -50.1870 C   0  0  0  0  0  0  0  0  0  0  0  0
    8.1950   -1.9970  -51.2270 C   0  0  0  0  0  0  0  0  0  0  0  0
    6.0549    0.3029  -52.4322 H   0  0  0  0  0  0  0  0  0  0  0  0
    5.8853    1.3408  -53.8885 H   0  0  0  0  0  0  0  0  0  0  0  0
    5.2104   -0.3239  -53.8885 H   0  0  0  0  0  0  0  0  0  0  0  0
    9.6770    1.2160  -56.8030 H   0  0  0  0  0  0  0  0  0  0  0  0
    7.7053    1.8550  -59.1701 H   0  0  0  0  0  0  0  0  0  0  0  0
    6.7600    2.9438  -58.0849 H   0  0  0  0  0  0  0  0  0  0  0  0
    6.8357    3.8460  -60.4067 H   0  0  0  0  0  0  0  0  0  0  0  0
    7.7117    6.1082  -59.8251 H   0  0  0  0  0  0  0  0  0  0  0  0
    6.7806    5.4037  -58.4531 H   0  0  0  0  0  0  0  0  0  0  0  0
    8.9039    6.4565  -57.6608 H   0  0  0  0  0  0  0  0  0  0  0  0
   10.2210    6.1158  -59.7524 H   0  0  0  0  0  0  0  0  0  0  0  0
   11.0770    5.4250  -58.3281 H   0  0  0  0  0  0  0  0  0  0  0  0
   11.1465    3.8549  -60.2660 H   0  0  0  0  0  0  0  0  0  0  0  0
    9.0211    4.5962  -61.3460 H   0  0  0  0  0  0  0  0  0  0  0  0
    9.0181    2.8191  -61.0574 H   0  0  0  0  0  0  0  0  0  0  0  0
   10.2136    1.8711  -59.0803 H   0  0  0  0  0  0  0  0  0  0  0  0
   11.0603    2.9821  -57.9315 H   0  0  0  0  0  0  0  0  0  0  0  0
    9.7765    4.4670  -56.4269 H   0  0  0  0  0  0  0  0  0  0  0  0
    7.9720    4.4733  -56.4797 H   0  0  0  0  0  0  0  0  0  0  0  0
   10.4326   -2.6305  -53.3370 H   0  0  0  0  0  0  0  0  0  0  0  0
   11.4783   -0.8774  -55.0869 H   0  0  0  0  0  0  0  0  0  0  0  0
   12.3168   -2.3680  -54.4658 H   0  0  0  0  0  0  0  0  0  0  0  0
   10.8097   -2.1100  -57.1023 H   0  0  0  0  0  0  0  0  0  0  0  0
   12.6086   -2.1710  -56.8681 H   0  0  0  0  0  0  0  0  0  0  0  0
   11.0941   -4.2913  -57.4828 H   0  0  0  0  0  0  0  0  0  0  0  0
   12.9480   -5.3850  -57.0060 H   0  0  0  0  0  0  0  0  0  0  0  0
   10.3938   -5.6402  -55.7509 H   0  0  0  0  0  0  0  0  0  0  0  0
   11.4746   -4.8258  -54.5466 H   0  0  0  0  0  0  0  0  0  0  0  0
    8.9984   -3.5827  -55.8199 H   0  0  0  0  0  0  0  0  0  0  0  0
    9.0896   -4.3096  -54.1664 H   0  0  0  0  0  0  0  0  0  0  0  0
    6.5269   -3.5647  -53.7617 H   0  0  0  0  0  0  0  0  0  0  0  0
    6.0023   -5.1411  -51.9010 H   0  0  0  0  0  0  0  0  0  0  0  0
    6.8860   -4.7032  -49.6100 H   0  0  0  0  0  0  0  0  0  0  0  0
    8.2862   -2.6866  -49.1753 H   0  0  0  0  0  0  0  0  0  0  0  0
    8.8109   -1.1065  -51.0328 H   0  0  0  0  0  0  0  0  0  0  0  0
  1  2  1  0
  2  3  1  0
  3  4  1  0
  4  5  2  0
  4  6  1  0
  7  6  1  1
  7  8  1  0
  8  9  1  0
  9 10  1  0
 10 11  1  0
 11 12  1  0
 12 13  1  0
 13 14  1  0
 13 15  1  0
 11 16  1  0
  3 17  2  0
 17 18  1  0
 18 19  1  0
 19 20  1  0
 20 21  1  0
 21 22  1  0
 22 23  1  0
 22 24  1  0
 24 25  1  0
 18 26  1  0
 26 27  1  0
 27 28  2  0
 28 29  1  0
 29 30  2  0
 30 31  1  0
 31 32  2  0
 26  2  2  0
 32 27  1  0
 15  7  1  0
 25 19  1  0
 16  7  1  0
 14  9  1  0
  1 33  1  0
  1 34  1  0
  1 35  1  0
  6 36  1  0
  8 37  1  0
  8 38  1  0
  9 39  1  6
 10 40  1  0
 10 41  1  0
 11 42  1  1
 12 43  1  0
 12 44  1  0
 13 45  1  6
 14 46  1  0
 14 47  1  0
 15 48  1  0
 15 49  1  0
 16 50  1  0
 16 51  1  0
 19 52  1  6
 20 53  1  0
 20 54  1  0
 21 55  1  0
 21 56  1  0
 22 57  1  1
 23 58  1  0
 24 59  1  0
 24 60  1  0
 25 61  1  0
 25 62  1  0
 28 63  1  0
 29 64  1  0
 30 65  1  0
 31 66  1  0
 32 67  1  0
M  END
>  <meeko>  (1) 
{"is_sidechain": false}

$$$$

     RDKit          3D

 64 69  0  0  0  0  0  0  0  0999 V2000
    2.7480    2.2140  -62.4180 C   0  0  0  0  0  0  0  0  0  0  0  0
    2.5710    2.2490  -61.0070 O   0  0  0  0  0  0  0  0  0  0  0  0
    3.6830    2.0330  -60.2420 C   0  0  0  0  0  0  0  0  0  0  0  0
    3.6620    2.6500  -58.9900 C   0  0  0  0  0  0  0  0  0  0  0  0
    4.7350    2.5180  -58.0980 C   0  0  0  0  0  0  0  0  0  0  0  0
    5.8570    1.7650  -58.4510 C   0  0  0  0  0  0  0  0  0  0  0  0
    6.9860    1.5880  -57.5850 N   0  0  0  0  0  0  0  0  0  0  0  0
    6.8200    0.8350  -56.4670 N   0  0  0  0  0  0  0  0  0  0  0  0
    7.9660    0.9140  -55.7810 C   0  0  0  0  0  0  0  0  0  0  0  0
    8.1060    0.2510  -54.4690 C   0  0  0  0  0  0  0  0  0  0  0  0
    8.7370    0.7430  -53.5390 O   0  0  0  0  0  0  0  0  0  0  0  0
    7.4880   -0.9870  -54.4030 N   0  0  0  0  0  0  0  0  0  0  0  0
    7.5680   -1.8980  -53.2570 C   0  0  2  0  0  0  0  0  0  0  0  0
    8.9000   -2.6840  -53.2430 C   0  0  0  0  0  0  0  0  0  0  0  0
    8.9310   -3.6740  -52.0640 C   0  0  1  0  0  0  0  0  0  0  0  0
    8.7740   -2.8970  -50.7460 C   0  0  0  0  0  0  0  0  0  0  0  0
    7.4340   -2.1410  -50.7320 C   0  0  2  0  0  0  0  0  0  0  0  0
    6.2830   -3.1470  -50.8810 C   0  0  0  0  0  0  0  0  0  0  0  0
    6.4290   -3.9180  -52.2020 C   0  0  2  0  0  0  0  0  0  0  0  0
    7.7700   -4.6710  -52.2060 C   0  0  0  0  0  0  0  0  0  0  0  0
    6.4060   -2.9230  -53.3720 C   0  0  0  0  0  0  0  0  0  0  0  0
    7.4010   -1.1500  -51.9090 C   0  0  0  0  0  0  0  0  0  0  0  0
    8.9340    1.6710  -56.5000 C   0  0  0  0  0  0  0  0  0  0  0  0
   10.3550    1.9110  -56.1240 C   0  0  0  0  0  0  0  0  0  0  0  0
    8.2900    2.0820  -57.6630 C   0  0  0  0  0  0  0  0  0  0  0  0
    8.8880    2.7980  -58.7870 C   0  0  0  0  0  0  0  0  0  0  0  0
    9.0050    4.1930  -58.7540 C   0  0  0  0  0  0  0  0  0  0  0  0
    9.5950    4.8750  -59.8190 C   0  0  0  0  0  0  0  0  0  0  0  0
   10.0800    4.1670  -60.9180 C   0  0  0  0  0  0  0  0  0  0  0  0
    9.9810    2.7770  -60.9520 C   0  0  0  0  0  0  0  0  0  0  0  0
    9.3900    2.0920  -59.8880 C   0  0  0  0  0  0  0  0  0  0  0  0
    5.8640    1.1300  -59.7070 C   0  0  0  0  0  0  0  0  0  0  0  0
    4.7900    1.2670  -60.5960 C   0  0  0  0  0  0  0  0  0  0  0  0
    3.8028    2.0054  -62.6502 H   0  0  0  0  0  0  0  0  0  0  0  0
    2.1148    1.4237  -62.8475 H   0  0  0  0  0  0  0  0  0  0  0  0
    2.4633    3.1858  -62.8475 H   0  0  0  0  0  0  0  0  0  0  0  0
    2.7878    3.2505  -58.6983 H   0  0  0  0  0  0  0  0  0  0  0  0
    4.6932    3.0099  -57.1150 H   0  0  0  0  0  0  0  0  0  0  0  0
    7.2310   -1.3920  -55.2930 H   0  0  0  0  0  0  0  0  0  0  0  0
    9.0012   -3.2412  -54.1860 H   0  0  0  0  0  0  0  0  0  0  0  0
    9.7313   -1.9723  -53.1313 H   0  0  0  0  0  0  0  0  0  0  0  0
    9.8870   -4.2180  -52.0628 H   0  0  0  0  0  0  0  0  0  0  0  0
    8.8021   -3.6026  -49.9026 H   0  0  0  0  0  0  0  0  0  0  0  0
    9.5964   -2.1720  -50.6563 H   0  0  0  0  0  0  0  0  0  0  0  0
    7.3250   -1.5940  -49.7839 H   0  0  0  0  0  0  0  0  0  0  0  0
    6.3074   -3.8561  -50.0404 H   0  0  0  0  0  0  0  0  0  0  0  0
    5.3261   -2.6044  -50.8826 H   0  0  0  0  0  0  0  0  0  0  0  0
    5.6012   -4.6350  -52.3057 H   0  0  0  0  0  0  0  0  0  0  0  0
    7.7928   -5.3795  -51.3648 H   0  0  0  0  0  0  0  0  0  0  0  0
    7.8757   -5.2167  -53.1552 H   0  0  0  0  0  0  0  0  0  0  0  0
    6.5077   -3.4770  -54.3169 H   0  0  0  0  0  0  0  0  0  0  0  0
    5.4526   -2.3749  -53.3461 H   0  0  0  0  0  0  0  0  0  0  0  0
    6.4379   -0.6186  -51.9073 H   0  0  0  0  0  0  0  0  0  0  0  0
    8.2298   -0.4358  -51.7947 H   0  0  0  0  0  0  0  0  0  0  0  0
   10.4467    1.9265  -55.0279 H   0  0  0  0  0  0  0  0  0  0  0  0
   10.9835    1.1063  -56.5332 H   0  0  0  0  0  0  0  0  0  0  0  0
   10.6843    2.8775  -56.5332 H   0  0  0  0  0  0  0  0  0  0  0  0
    8.6303    4.7536  -57.8849 H   0  0  0  0  0  0  0  0  0  0  0  0
    9.6775    5.9716  -59.7915 H   0  0  0  0  0  0  0  0  0  0  0  0
   10.5411    4.7058  -61.7589 H   0  0  0  0  0  0  0  0  0  0  0  0
   10.3686    2.2193  -61.8173 H   0  0  0  0  0  0  0  0  0  0  0  0
    9.3185    0.9947  -59.9146 H   0  0  0  0  0  0  0  0  0  0  0  0
    6.7288    0.5147  -59.9960 H   0  0  0  0  0  0  0  0  0  0  0  0
    4.8216    0.7682  -61.5759 H   0  0  0  0  0  0  0  0  0  0  0  0
  1  2  1  0
  2  3  1  0
  3  4  1  0
  4  5  2  0
  5  6  1  0
  6  7  1  0
  7  8  1  0
  8  9  2  0
  9 10  1  0
 10 11  2  0
 10 12  1  0
 13 12  1  6
 13 14  1  0
 14 15  1  0
 15 16  1  0
 16 17  1  0
 17 18  1  0
 18 19  1  0
 19 20  1  0
 19 21  1  0
 17 22  1  0
  9 23  1  0
 23 24  1  0
 23 25  2  0
 25 26  1  0
 26 27  2  0
 27 28  1  0
 28 29  2  0
 29 30  1  0
 30 31  2  0
  6 32  2  0
 32 33  1  0
 33  3  2  0
 25  7  1  0
 31 26  1  0
 21 13  1  0
 22 13  1  0
 20 15  1  0
  1 34  1  0
  1 35  1  0
  1 36  1  0
  4 37  1  0
  5 38  1  0
 12 39  1  0
 14 40  1  0
 14 41  1  0
 15 42  1  1
 16 43  1  0
 16 44  1  0
 17 45  1  1
 18 46  1  0
 18 47  1  0
 19 48  1  6
 20 49  1  0
 20 50  1  0
 21 51  1  0
 21 52  1  0
 22 53  1  0
 22 54  1  0
 24 55  1  0
 24 56  1  0
 24 57  1  0
 27 58  1  0
 28 59  1  0
 29 60  1  0
 30 61  1  0
 31 62  1  0
 32 63  1  0
 33 64  1  0
M  END
>  <meeko>  (2) 
{"is_sidechain": false}

$$$$

     RDKit          3D

 47 51  0  0  0  0  0  0  0  0999 V2000
    6.2780    0.0810  -53.6620 C   0  0  0  0  0  0  0  0  0  0  0  0
    7.6460   -0.3720  -54.0260 C   0  0  0  0  0  0  0  0  0  0  0  0
    8.3950   -1.4600  -53.4680 C   0  0  0  0  0  0  0  0  0  0  0  0
    7.9900   -2.4230  -52.4440 C   0  0  0  0  0  0  0  0  0  0  0  0
    7.4190   -3.6480  -52.8190 C   0  0  0  0  0  0  0  0  0  0  0  0
    7.0300   -4.5760  -51.8500 C   0  0  0  0  0  0  0  0  0  0  0  0
    7.2020   -4.2860  -50.4980 C   0  0  0  0  0  0  0  0  0  0  0  0
    7.7570   -3.0670  -50.1120 C   0  0  0  0  0  0  0  0  0  0  0  0
    8.1470   -2.1370  -51.0800 C   0  0  0  0  0  0  0  0  0  0  0  0
    9.6190   -1.5220  -54.0130 N   0  0  0  0  0  0  0  0  0  0  0  0
    9.6440   -0.5200  -54.8950 N   0  0  0  0  0  0  0  0  0  0  0  0
    8.4740    0.1730  -55.0000 C   0  0  0  0  0  0  0  0  0  0  0  0
    8.2520    1.2740  -55.9080 C   0  0  0  0  0  0  0  0  0  0  0  0
    7.1580    1.5290  -56.3970 O   0  0  0  0  0  0  0  0  0  0  0  0
    9.3920    1.9990  -56.2020 N   0  0  0  0  0  0  0  0  0  0  0  0
    9.4050    3.0770  -57.1750 C   0  0  2  0  0  0  0  0  0  0  0  0
    9.0640    2.6050  -58.6300 C   0  0  0  0  0  0  0  0  0  0  0  0
    9.1500    3.7800  -59.6490 C   0  0  2  0  0  0  0  0  0  0  0  0
   10.5220    4.4470  -59.5550 C   0  0  0  0  0  0  0  0  0  0  0  0
   10.4880    4.9740  -58.1140 C   0  0  2  0  0  0  0  0  0  0  0  0
   10.7740    3.7840  -57.1900 C   0  0  0  0  0  0  0  0  0  0  0  0
    8.9800    5.3110  -57.8560 C   0  0  1  0  0  0  0  0  0  0  0  0
    8.2770    4.9410  -59.1700 C   0  0  0  0  0  0  0  0  0  0  0  0
    8.5340    4.2890  -56.7990 C   0  0  0  0  0  0  0  0  0  0  0  0
    6.1816    0.1129  -52.5667 H   0  0  0  0  0  0  0  0  0  0  0  0
    6.1023    1.0853  -54.0750 H   0  0  0  0  0  0  0  0  0  0  0  0
    5.5376   -0.6199  -54.0750 H   0  0  0  0  0  0  0  0  0  0  0  0
    7.2763   -3.8799  -53.8848 H   0  0  0  0  0  0  0  0  0  0  0  0
    6.5877   -5.5361  -52.1544 H   0  0  0  0  0  0  0  0  0  0  0  0
    6.8999   -5.0189  -49.7354 H   0  0  0  0  0  0  0  0  0  0  0  0
    7.8882   -2.8366  -49.0444 H   0  0  0  0  0  0  0  0  0  0  0  0
    8.5799   -1.1745  -50.7699 H   0  0  0  0  0  0  0  0  0  0  0  0
   10.5080   -0.3500  -55.3970 H   0  0  0  0  0  0  0  0  0  0  0  0
   10.2710    1.5150  -56.0750 H   0  0  0  0  0  0  0  0  0  0  0  0
    9.7767    1.8217  -58.9274 H   0  0  0  0  0  0  0  0  0  0  0  0
    8.0334    2.2206  -58.6343 H   0  0  0  0  0  0  0  0  0  0  0  0
    8.8906    3.3588  -60.6315 H   0  0  0  0  0  0  0  0  0  0  0  0
   11.3357    3.7214  -59.7015 H   0  0  0  0  0  0  0  0  0  0  0  0
   10.7065    5.2181  -60.3175 H   0  0  0  0  0  0  0  0  0  0  0  0
   11.1850    5.8100  -57.9552 H   0  0  0  0  0  0  0  0  0  0  0  0
   11.5588    3.1331  -57.6029 H   0  0  0  0  0  0  0  0  0  0  0  0
   11.1459    4.0664  -56.1940 H   0  0  0  0  0  0  0  0  0  0  0  0
    8.7816    6.3483  -57.5484 H   0  0  0  0  0  0  0  0  0  0  0  0
    7.2387    4.6215  -58.9970 H   0  0  0  0  0  0  0  0  0  0  0  0
    8.1901    5.7701  -59.8877 H   0  0  0  0  0  0  0  0  0  0  0  0
    8.7508    4.6414  -55.7798 H   0  0  0  0  0  0  0  0  0  0  0  0
    7.4530    4.0857  -56.7932 H   0  0  0  0  0  0  0  0  0  0  0  0
  1  2  1  0
  2  3  1  0
  3  4  1  0
  4  5  2  0
  5  6  1  0
  6  7  2  0
  7  8  1  0
  8  9  2  0
  3 10  2  0
 10 11  1  0
 11 12  1  0
 12 13  1  0
 13 14  2  0
 13 15  1  0
 16 15  1  1
 16 17  1  0
 17 18  1  0
 18 19  1  0
 19 20  1  0
 20 21  1  0
 20 22  1  0
 22 23  1  0
 22 24  1  0
 12  2  2  0
 21 16  1  0
  9  4  1  0
 24 16  1  0
 23 18  1  0
  1 25  1  0
  1 26  1  0
  1 27  1  0
  5 28  1  0
  6 29  1  0
  7 30  1  0
  8 31  1  0
  9 32  1  0
 11 33  1  0
 15 34  1  0
 17 35  1  0
 17 36  1  0
 18 37  1  6
 19 38  1  0
 19 39  1  0
 20 40  1  6
 21 41  1  0
 21 42  1  0
 22 43  1  1
 23 44  1  0
 23 45  1  0
 24 46  1  0
 24 47  1  0
M  END
>  <meeko>  (3) 
{"is_sidechain": false}

$$$$

     RDKit          3D

 47 51  0  0  0  0  0  0  0  0999 V2000
    5.9090   -0.3120  -54.2470 C   0  0  0  0  0  0  0  0  0  0  0  0
    7.3840   -0.4890  -54.2630 C   0  0  0  0  0  0  0  0  0  0  0  0
    8.3190    0.2200  -55.0830 C   0  0  0  0  0  0  0  0  0  0  0  0
    8.0360    1.2870  -56.0660 C   0  0  0  0  0  0  0  0  0  0  0  0
    6.9020    1.6350  -56.3710 O   0  0  0  0  0  0  0  0  0  0  0  0
    9.1850    1.8500  -56.5820 N   0  0  0  0  0  0  0  0  0  0  0  0
    9.2170    3.0110  -57.4400 C   0  0  2  0  0  0  0  0  0  0  0  0
    8.5690    2.7590  -58.8420 C   0  0  0  0  0  0  0  0  0  0  0  0
    8.5780    4.0450  -59.7180 C   0  0  2  0  0  0  0  0  0  0  0  0
   10.0020    4.5990  -59.8040 C   0  0  0  0  0  0  0  0  0  0  0  0
   10.2700    4.9420  -58.3310 C   0  0  2  0  0  0  0  0  0  0  0  0
   10.6160    3.6260  -57.6150 C   0  0  0  0  0  0  0  0  0  0  0  0
    8.8630    5.3380  -57.7620 C   0  0  1  0  0  0  0  0  0  0  0  0
    7.9130    5.1940  -58.9590 C   0  0  0  0  0  0  0  0  0  0  0  0
    8.5230    4.2130  -56.7750 C   0  0  0  0  0  0  0  0  0  0  0  0
    9.5820   -0.2010  -54.8570 N   0  0  0  0  0  0  0  0  0  0  0  0
    9.4440   -1.1450  -53.9150 N   0  0  0  0  0  0  0  0  0  0  0  0
    8.1540   -1.3640  -53.5130 C   0  0  0  0  0  0  0  0  0  0  0  0
    7.8160   -2.3330  -52.4780 C   0  0  0  0  0  0  0  0  0  0  0  0
    7.2070   -3.5500  -52.8120 C   0  0  0  0  0  0  0  0  0  0  0  0
    6.8950   -4.4810  -51.8190 C   0  0  0  0  0  0  0  0  0  0  0  0
    7.1900   -4.2060  -50.4860 C   0  0  0  0  0  0  0  0  0  0  0  0
    7.7960   -2.9980  -50.1430 C   0  0  0  0  0  0  0  0  0  0  0  0
    8.1060   -2.0660  -51.1350 C   0  0  0  0  0  0  0  0  0  0  0  0
    5.5561   -0.2696  -53.2060 H   0  0  0  0  0  0  0  0  0  0  0  0
    5.6464    0.6241  -54.7616 H   0  0  0  0  0  0  0  0  0  0  0  0
    5.4324   -1.1594  -54.7616 H   0  0  0  0  0  0  0  0  0  0  0  0
   10.0370    1.5160  -56.1390 H   0  0  0  0  0  0  0  0  0  0  0  0
    9.1347    1.9705  -59.3600 H   0  0  0  0  0  0  0  0  0  0  0  0
    7.5229    2.4559  -58.6875 H   0  0  0  0  0  0  0  0  0  0  0  0
    8.1105    3.7712  -60.6753 H   0  0  0  0  0  0  0  0  0  0  0  0
   10.7081    3.8430  -60.1781 H   0  0  0  0  0  0  0  0  0  0  0  0
   10.1190    5.4458  -60.4962 H   0  0  0  0  0  0  0  0  0  0  0  0
   11.0522    5.7059  -58.2103 H   0  0  0  0  0  0  0  0  0  0  0  0
   11.2635    2.9875  -58.2339 H   0  0  0  0  0  0  0  0  0  0  0  0
   11.1760    3.7536  -56.6769 H   0  0  0  0  0  0  0  0  0  0  0  0
    8.8107    6.3352  -57.3005 H   0  0  0  0  0  0  0  0  0  0  0  0
    6.8944    4.9307  -58.6377 H   0  0  0  0  0  0  0  0  0  0  0  0
    7.7820    6.1132  -59.5489 H   0  0  0  0  0  0  0  0  0  0  0  0
    8.9364    4.4149  -55.7758 H   0  0  0  0  0  0  0  0  0  0  0  0
    7.4454    4.0736  -56.6035 H   0  0  0  0  0  0  0  0  0  0  0  0
   10.2790   -1.6010  -53.5640 H   0  0  0  0  0  0  0  0  0  0  0  0
    6.9731   -3.7735  -53.8634 H   0  0  0  0  0  0  0  0  0  0  0  0
    6.4154   -5.4331  -52.0901 H   0  0  0  0  0  0  0  0  0  0  0  0
    6.9453   -4.9408  -49.7048 H   0  0  0  0  0  0  0  0  0  0  0  0
    8.0298   -2.7794  -49.0906 H   0  0  0  0  0  0  0  0  0  0  0  0
    8.5822   -1.1137  -50.8588 H   0  0  0  0  0  0  0  0  0  0  0  0
  1  2  1  0
  2  3  1  0
  3  4  1  0
  4  5  2  0
  4  6  1  0
  7  6  1  1
  7  8  1  0
  8  9  1  0
  9 10  1  0
 10 11  1  0
 11 12  1  0
 11 13  1  0
 13 14  1  0
 13 15  1  0
  3 16  2  0
 16 17  1  0
 17 18  1  0
 18 19  1  0
 19 20  2  0
 20 21  1  0
 21 22  2  0
 22 23  1  0
 23 24  2  0
 18  2  2  0
 24 19  1  0
 12  7  1  0
 15  7  1  0
 14  9  1  0
  1 25  1  0
  1 26  1  0
  1 27  1  0
  6 28  1  0
  8 29  1  0
  8 30  1  0
  9 31  1  6
 10 32  1  0
 10 33  1  0
 11 34  1  6
 12 35  1  0
 12 36  1  0
 13 37  1  1
 14 38  1  0
 14 39  1  0
 15 40  1  0
 15 41  1  0
 17 42  1  0
 20 43  1  0
 21 44  1  0
 22 45  1  0
 23 46  1  0
 24 47  1  0
M  END
>  <meeko>  (4) 
{"is_sidechain": false}

$$$$

     RDKit          3D

 66 70  0  0  0  0  0  0  0  0999 V2000
   11.5220   -4.7670  -58.1510 C   0  0  0  0  0  0  0  0  0  0  0  0
   11.9650   -3.5330  -57.8790 C   0  0  0  0  0  0  0  0  0  0  0  0
   11.6010   -2.7610  -56.6430 C   0  0  0  0  0  0  0  0  0  0  0  0
   10.5880   -3.5300  -55.7900 C   0  0  0  0  0  0  0  0  0  0  0  0
   10.8580   -3.4100  -54.2860 C   0  0  0  0  0  0  0  0  0  0  0  0
   10.8400   -1.9780  -53.7430 C   0  0  0  0  0  0  0  0  0  0  0  0
    9.6300   -1.2430  -54.0740 N   0  0  0  0  0  0  0  0  0  0  0  0
    9.7170   -0.2710  -54.9990 N   0  0  0  0  0  0  0  0  0  0  0  0
    8.4740    0.2220  -55.1060 C   0  0  0  0  0  0  0  0  0  0  0  0
    8.1660    1.3070  -56.0600 C   0  0  0  0  0  0  0  0  0  0  0  0
    7.0370    1.7650  -56.2080 O   0  0  0  0  0  0  0  0  0  0  0  0
    9.2770    1.7750  -56.7430 N   0  0  0  0  0  0  0  0  0  0  0  0
    9.2710    2.9170  -57.6600 C   0  0  2  0  0  0  0  0  0  0  0  0
    8.2290    2.7450  -58.7960 C   0  0  0  0  0  0  0  0  0  0  0  0
    8.2880    3.9360  -59.7700 C   0  0  1  0  0  0  0  0  0  0  0  0
    8.0040    5.2350  -58.9980 C   0  0  0  0  0  0  0  0  0  0  0  0
    9.0560    5.4350  -57.8910 C   0  0  2  0  0  0  0  0  0  0  0  0
   10.4530    5.5020  -58.5280 C   0  0  0  0  0  0  0  0  0  0  0  0
   10.7440    4.2020  -59.2950 C   0  0  2  0  0  0  0  0  0  0  0  0
    9.6890    4.0120  -60.3950 C   0  0  0  0  0  0  0  0  0  0  0  0
   10.6740    3.0150  -58.3200 C   0  0  0  0  0  0  0  0  0  0  0  0
    8.9970    4.2460  -56.9160 C   0  0  0  0  0  0  0  0  0  0  0  0
    7.5830   -0.4500  -54.2070 C   0  0  0  0  0  0  0  0  0  0  0  0
    6.1410   -0.1710  -53.9810 C   0  0  0  0  0  0  0  0  0  0  0  0
    8.3660   -1.3960  -53.5580 C   0  0  0  0  0  0  0  0  0  0  0  0
    7.9930   -2.3660  -52.5350 C   0  0  0  0  0  0  0  0  0  0  0  0
    8.1220   -2.0520  -51.1770 C   0  0  0  0  0  0  0  0  0  0  0  0
    7.7610   -2.9850  -50.2020 C   0  0  0  0  0  0  0  0  0  0  0  0
    7.2630   -4.2310  -50.5800 C   0  0  0  0  0  0  0  0  0  0  0  0
    7.1190   -4.5450  -51.9300 C   0  0  0  0  0  0  0  0  0  0  0  0
    7.4780   -3.6130  -52.9060 C   0  0  0  0  0  0  0  0  0  0  0  0
   11.8322   -5.2708  -59.0784 H   0  0  0  0  0  0  0  0  0  0  0  0
   10.8479   -5.2770  -57.4471 H   0  0  0  0  0  0  0  0  0  0  0  0
   12.6376   -3.0547  -58.6062 H   0  0  0  0  0  0  0  0  0  0  0  0
   12.5099   -2.5845  -56.0491 H   0  0  0  0  0  0  0  0  0  0  0  0
   11.1470   -1.8068  -56.9486 H   0  0  0  0  0  0  0  0  0  0  0  0
    9.5828   -3.1349  -55.9983 H   0  0  0  0  0  0  0  0  0  0  0  0
   10.6743   -4.5939  -56.0559 H   0  0  0  0  0  0  0  0  0  0  0  0
   10.0887   -3.9879  -53.7529 H   0  0  0  0  0  0  0  0  0  0  0  0
   11.8771   -3.7905  -54.1228 H   0  0  0  0  0  0  0  0  0  0  0  0
   10.9318   -2.0207  -52.6477 H   0  0  0  0  0  0  0  0  0  0  0  0
   11.6791   -1.4449  -54.2139 H   0  0  0  0  0  0  0  0  0  0  0  0
   10.1690    1.5060  -56.3490 H   0  0  0  0  0  0  0  0  0  0  0  0
    8.4438    1.8170  -59.3462 H   0  0  0  0  0  0  0  0  0  0  0  0
    7.2238    2.6997  -58.3515 H   0  0  0  0  0  0  0  0  0  0  0  0
    7.5371    3.8044  -60.5630 H   0  0  0  0  0  0  0  0  0  0  0  0
    8.0413    6.0867  -59.6932 H   0  0  0  0  0  0  0  0  0  0  0  0
    7.0067    5.1695  -58.5386 H   0  0  0  0  0  0  0  0  0  0  0  0
    8.8519    6.3693  -57.3475 H   0  0  0  0  0  0  0  0  0  0  0  0
   10.4956    6.3528  -59.2239 H   0  0  0  0  0  0  0  0  0  0  0  0
   11.2053    5.6299  -57.7358 H   0  0  0  0  0  0  0  0  0  0  0  0
   11.7450    4.2562  -59.7477 H   0  0  0  0  0  0  0  0  0  0  0  0
    9.7317    4.8622  -61.0917 H   0  0  0  0  0  0  0  0  0  0  0  0
    9.8949    3.0765  -60.9358 H   0  0  0  0  0  0  0  0  0  0  0  0
   10.8780    2.0849  -58.8707 H   0  0  0  0  0  0  0  0  0  0  0  0
   11.4230    3.1673  -57.5289 H   0  0  0  0  0  0  0  0  0  0  0  0
    9.7555    4.3840  -56.1314 H   0  0  0  0  0  0  0  0  0  0  0  0
    7.9921    4.2023  -56.4706 H   0  0  0  0  0  0  0  0  0  0  0  0
    5.9401   -0.1321  -52.9002 H   0  0  0  0  0  0  0  0  0  0  0  0
    5.8784    0.7946  -54.4377 H   0  0  0  0  0  0  0  0  0  0  0  0
    5.5372   -0.9690  -54.4377 H   0  0  0  0  0  0  0  0  0  0  0  0
    8.5090   -1.0671  -50.8765 H   0  0  0  0  0  0  0  0  0  0  0  0
    7.8697   -2.7365  -49.1360 H   0  0  0  0  0  0  0  0  0  0  0  0
    6.9834   -4.9670  -49.8118 H   0  0  0  0  0  0  0  0  0  0  0  0
    6.7225   -5.5272  -52.2269 H   0  0  0  0  0  0  0  0  0  0  0  0
    7.3554   -3.8602  -53.9708 H   0  0  0  0  0  0  0  0  0  0  0  0
  1  2  2  0
  2  3  1  0
  3  4  1  0
  4  5  1  0
  5  6  1  0
  6  7  1  0
  7  8  1  0
  8  9  2  0
  9 10  1  0
 10 11  2  0
 10 12  1  0
 13 12  1  1
 13 14  1  0
 14 15  1  0
 15 16  1  0
 16 17  1  0
 17 18  1  0
 18 19  1  0
 19 20  1  0
 19 21  1  0
 17 22  1  0
  9 23  1  0
 23 24  1  0
 23 25  2  0
 25 26  1  0
 26 27  2  0
 27 28  1  0
 28 29  2  0
 29 30  1  0
 30 31  2  0
 25  7  1  0
 31 26  1  0
 21 13  1  0
 22 13  1  0
 20 15  1  0
  1 32  1  0
  1 33  1  0
  2 34  1  0
  3 35  1  0
  3 36  1  0
  4 37  1  0
  4 38  1  0
  5 39  1  0
  5 40  1  0
  6 41  1  0
  6 42  1  0
 12 43  1  0
 14 44  1  0
 14 45  1  0
 15 46  1  6
 16 47  1  0
 16 48  1  0
 17 49  1  1
 18 50  1  0
 18 51  1  0
 19 52  1  6
 20 53  1  0
 20 54  1  0
 21 55  1  0
 21 56  1  0
 22 57  1  0
 22 58  1  0
 24 59  1  0
 24 60  1  0
 24 61  1  0
 27 62  1  0
 28 63  1  0
 29 64  1  0
 30 65  1  0
 31 66  1  0
M  END
>  <meeko>  (5) 
{"is_sidechain": false}

$$$$

     RDKit          3D

 51 52  0  0  0  0  0  0  0  0999 V2000
    9.7210    3.0070  -62.0960 C   0  0  0  0  0  0  0  0  0  0  0  0
    9.1130    3.5780  -60.8670 C   0  0  0  0  0  0  0  0  0  0  0  0
    7.7430    3.4910  -60.4730 C   0  0  0  0  0  0  0  0  0  0  0  0
    6.6350    2.8300  -61.1890 C   0  0  0  0  0  0  0  0  0  0  0  0
    6.5820    2.7300  -62.4110 O   0  0  0  0  0  0  0  0  0  0  0  0
    5.6590    2.3510  -60.3390 N   0  0  0  0  0  0  0  0  0  0  0  0
    4.3810    1.8500  -60.8050 C   0  0  0  0  0  0  0  0  0  0  0  0
    3.2670    2.2320  -59.8330 C   0  0  0  0  0  0  0  0  0  0  0  0
    4.4470    0.3380  -60.9870 C   0  0  0  0  0  0  0  0  0  0  0  0
    7.5320    4.1260  -59.3010 N   0  0  0  0  0  0  0  0  0  0  0  0
    8.7440    4.6050  -58.9600 N   0  0  0  0  0  0  0  0  0  0  0  0
    8.8710    5.3420  -57.7120 C   0  0  0  0  0  0  0  0  0  0  0  0
    8.7620    4.4280  -56.4930 C   0  0  0  0  0  0  0  0  0  0  0  0
    9.8110    3.3130  -56.4820 C   0  0  0  0  0  0  0  0  0  0  0  0
    9.2880    1.9110  -56.8180 C   0  0  0  0  0  0  0  0  0  0  0  0
    7.8140    1.6910  -56.4910 C   0  0  0  0  0  0  0  0  0  0  0  0
    7.0440    1.5960  -57.6800 O   0  0  0  0  0  0  0  0  0  0  0  0
    9.7330    4.3050  -59.8630 C   0  0  0  0  0  0  0  0  0  0  0  0
   11.1250    4.7110  -59.7200 C   0  0  0  0  0  0  0  0  0  0  0  0
   11.5080    6.0240  -60.0130 C   0  0  0  0  0  0  0  0  0  0  0  0
   12.8420    6.4130  -59.8820 C   0  0  0  0  0  0  0  0  0  0  0  0
   13.7980    5.4930  -59.4530 C   0  0  0  0  0  0  0  0  0  0  0  0
   13.4210    4.1840  -59.1520 C   0  0  0  0  0  0  0  0  0  0  0  0
   12.0870    3.7950  -59.2830 C   0  0  0  0  0  0  0  0  0  0  0  0
   10.4966    2.2786  -61.8170 H   0  0  0  0  0  0  0  0  0  0  0  0
    8.9435    2.5051  -62.6906 H   0  0  0  0  0  0  0  0  0  0  0  0
   10.1732    3.8145  -62.6906 H   0  0  0  0  0  0  0  0  0  0  0  0
    5.7840    2.6290  -59.3680 H   0  0  0  0  0  0  0  0  0  0  0  0
    4.1543    2.3097  -61.7783 H   0  0  0  0  0  0  0  0  0  0  0  0
    3.6240    2.1096  -58.7998 H   0  0  0  0  0  0  0  0  0  0  0  0
    2.9786    3.2804  -59.9995 H   0  0  0  0  0  0  0  0  0  0  0  0
    2.3959    1.5812  -59.9995 H   0  0  0  0  0  0  0  0  0  0  0  0
    4.4683   -0.1494  -60.0011 H   0  0  0  0  0  0  0  0  0  0  0  0
    3.5629   -0.0030  -61.5456 H   0  0  0  0  0  0  0  0  0  0  0  0
    5.3575    0.0753  -61.5456 H   0  0  0  0  0  0  0  0  0  0  0  0
    9.8501    5.8429  -57.6936 H   0  0  0  0  0  0  0  0  0  0  0  0
    8.0493    6.0717  -57.6636 H   0  0  0  0  0  0  0  0  0  0  0  0
    8.8895    5.0374  -55.5861 H   0  0  0  0  0  0  0  0  0  0  0  0
    7.7733    3.9474  -56.5310 H   0  0  0  0  0  0  0  0  0  0  0  0
   10.5870    3.5706  -57.2178 H   0  0  0  0  0  0  0  0  0  0  0  0
   10.1815    3.2572  -55.4478 H   0  0  0  0  0  0  0  0  0  0  0  0
    9.4303    1.7402  -57.8953 H   0  0  0  0  0  0  0  0  0  0  0  0
    9.8560    1.2067  -56.1924 H   0  0  0  0  0  0  0  0  0  0  0  0
    7.7070    0.7592  -55.9163 H   0  0  0  0  0  0  0  0  0  0  0  0
    7.4512    2.5467  -55.9026 H   0  0  0  0  0  0  0  0  0  0  0  0
    7.2950    0.7700  -58.1280 H   0  0  0  0  0  0  0  0  0  0  0  0
   10.7551    6.7527  -60.3479 H   0  0  0  0  0  0  0  0  0  0  0  0
   13.1393    7.4456  -60.1172 H   0  0  0  0  0  0  0  0  0  0  0  0
   14.8496    5.7994  -59.3519 H   0  0  0  0  0  0  0  0  0  0  0  0
   14.1748    3.4588  -58.8116 H   0  0  0  0  0  0  0  0  0  0  0  0
   11.7911    2.7634  -59.0415 H   0  0  0  0  0  0  0  0  0  0  0  0
  1  2  1  0
  2  3  1  0
  3  4  1  0
  4  5  2  0
  4  6  1  0
  6  7  1  0
  7  8  1  0
  7  9  1  0
  3 10  2  0
 10 11  1  0
 11 12  1  0
 12 13  1  0
 13 14  1  0
 14 15  1  0
 15 16  1  0
 16 17  1  0
 11 18  1  0
 18 19  1  0
 19 20  2  0
 20 21  1  0
 21 22  2  0
 22 23  1  0
 23 24  2  0
 18  2  2  0
 24 19  1  0
  1 25  1  0
  1 26  1  0
  1 27  1  0
  6 28  1  0
  7 29  1  0
  8 30  1  0
  8 31  1  0
  8 32  1  0
  9 33  1  0
  9 34  1  0
  9 35  1  0
 12 36  1  0
 12 37  1  0
 13 38  1  0
 13 39  1  0
 14 40  1  0
 14 41  1  0
 15 42  1  0
 15 43  1  0
 16 44  1  0
 16 45  1  0
 17 46  1  0
 20 47  1  0
 21 48  1  0
 22 49  1  0
 23 50  1  0
 24 51  1  0
M  END
>  <meeko>  (6) 
{"is_sidechain": false}

$$$$

     RDKit          3D

 43 47  0  0  0  0  0  0  0  0999 V2000
   11.5040   -1.6310  -54.4880 O   0  0  0  0  0  0  0  0  0  0  0  0
   10.4620   -2.2680  -54.3750 C   0  0  0  0  0  0  0  0  0  0  0  0
   10.2220   -3.4570  -55.0470 N   0  0  0  0  0  0  0  0  0  0  0  0
   11.1320   -4.0600  -56.0240 C   0  0  2  0  0  0  0  0  0  0  0  0
   10.3200   -5.0700  -56.8810 C   0  0  0  0  0  0  0  0  0  0  0  0
   11.2120   -5.7400  -57.9390 C   0  0  1  0  0  0  0  0  0  0  0  0
   11.8050   -4.6590  -58.8560 C   0  0  0  0  0  0  0  0  0  0  0  0
   12.6370   -3.6660  -58.0290 C   0  0  2  0  0  0  0  0  0  0  0  0
   13.7700   -4.4240  -57.3170 C   0  0  0  0  0  0  0  0  0  0  0  0
   13.1860   -5.5080  -56.3960 C   0  0  2  0  0  0  0  0  0  0  0  0
   12.3520   -6.4900  -57.2330 C   0  0  0  0  0  0  0  0  0  0  0  0
   12.2820   -4.8440  -55.3410 C   0  0  0  0  0  0  0  0  0  0  0  0
   11.7330   -2.9990  -56.9770 C   0  0  0  0  0  0  0  0  0  0  0  0
    9.3340   -1.8170  -53.5360 C   0  0  0  0  0  0  0  0  0  0  0  0
    8.4910   -0.8560  -53.9610 N   0  0  0  0  0  0  0  0  0  0  0  0
    7.6070   -0.7230  -52.9640 N   0  0  0  0  0  0  0  0  0  0  0  0
    7.8200   -1.5580  -51.9040 C   0  0  0  0  0  0  0  0  0  0  0  0
    7.1270   -1.7230  -50.7010 C   0  0  0  0  0  0  0  0  0  0  0  0
    7.6290   -2.6660  -49.7990 C   0  0  0  0  0  0  0  0  0  0  0  0
    8.7780   -3.4000  -50.0900 C   0  0  0  0  0  0  0  0  0  0  0  0
    9.4560   -3.2190  -51.3020 C   0  0  0  0  0  0  0  0  0  0  0  0
    8.9590   -2.2850  -52.2360 C   0  0  0  0  0  0  0  0  0  0  0  0
    9.2530   -3.7480  -55.0810 H   0  0  0  0  0  0  0  0  0  0  0  0
    9.9003   -5.8445  -56.2221 H   0  0  0  0  0  0  0  0  0  0  0  0
    9.5160   -4.5241  -57.3964 H   0  0  0  0  0  0  0  0  0  0  0  0
   10.6176   -6.4466  -58.5368 H   0  0  0  0  0  0  0  0  0  0  0  0
   12.4494   -5.1345  -59.6101 H   0  0  0  0  0  0  0  0  0  0  0  0
   10.9860   -4.1179  -59.3525 H   0  0  0  0  0  0  0  0  0  0  0  0
   13.0636   -2.8981  -58.6911 H   0  0  0  0  0  0  0  0  0  0  0  0
   14.4193   -4.8968  -58.0686 H   0  0  0  0  0  0  0  0  0  0  0  0
   14.3522   -3.7138  -56.7115 H   0  0  0  0  0  0  0  0  0  0  0  0
   14.0030   -6.0493  -55.8965 H   0  0  0  0  0  0  0  0  0  0  0  0
   12.9969   -6.9658  -57.9865 H   0  0  0  0  0  0  0  0  0  0  0  0
   11.9245   -7.2573  -56.5707 H   0  0  0  0  0  0  0  0  0  0  0  0
   11.8536   -5.6213  -54.6911 H   0  0  0  0  0  0  0  0  0  0  0  0
   12.8861   -4.1422  -54.7472 H   0  0  0  0  0  0  0  0  0  0  0  0
   12.3277   -2.2825  -56.3914 H   0  0  0  0  0  0  0  0  0  0  0  0
   10.9118   -2.4799  -57.4929 H   0  0  0  0  0  0  0  0  0  0  0  0
    6.8710   -0.0330  -53.0670 H   0  0  0  0  0  0  0  0  0  0  0  0
    6.2250   -1.1358  -50.4738 H   0  0  0  0  0  0  0  0  0  0  0  0
    7.1088   -2.8315  -48.8440 H   0  0  0  0  0  0  0  0  0  0  0  0
    9.1565   -4.1298  -49.3591 H   0  0  0  0  0  0  0  0  0  0  0  0
   10.3649   -3.7978  -51.5233 H   0  0  0  0  0  0  0  0  0  0  0  0
  1  2  2  0
  2  3  1  0
  4  3  1  1
  4  5  1  0
  5  6  1  0
  6  7  1  0
  7  8  1  0
  8  9  1  0
  9 10  1  0
 10 11  1  0
 10 12  1  0
  8 13  1  0
  2 14  1  0
 14 15  2  0
 15 16  1  0
 16 17  1  0
 17 18  2  0
 18 19  1  0
 19 20  2  0
 20 21  1  0
 21 22  2  0
 12  4  1  0
 22 14  1  0
 13  4  1  0
 22 17  1  0
 11  6  1  0
  3 23  1  0
  5 24  1  0
  5 25  1  0
  6 26  1  6
  7 27  1  0
  7 28  1  0
  8 29  1  6
  9 30  1  0
  9 31  1  0
 10 32  1  1
 11 33  1  0
 11 34  1  0
 12 35  1  0
 12 36  1  0
 13 37  1  0
 13 38  1  0
 16 39  1  0
 18 40  1  0
 19 41  1  0
 20 42  1  0
 21 43  1  0
M  END
>  <meeko>  (7) 
{"is_sidechain": false}

$$$$

     RDKit          3D

 43 47  0  0  0  0  0  0  0  0999 V2000
    6.3320    3.4600  -58.7960 O   0  0  0  0  0  0  0  0  0  0  0  0
    6.8790    2.9970  -59.7900 C   0  0  0  0  0  0  0  0  0  0  0  0
    8.2420    2.8580  -59.9080 N   0  0  0  0  0  0  0  0  0  0  0  0
    9.2200    3.2650  -58.8930 C   0  0  2  0  0  0  0  0  0  0  0  0
    9.0590    4.7560  -58.5120 C   0  0  0  0  0  0  0  0  0  0  0  0
   10.1340    5.1720  -57.4920 C   0  0  1  0  0  0  0  0  0  0  0  0
   10.0020    4.2990  -56.2320 C   0  0  0  0  0  0  0  0  0  0  0  0
   10.1970    2.8160  -56.5920 C   0  0  2  0  0  0  0  0  0  0  0  0
   11.5900    2.6240  -57.2130 C   0  0  0  0  0  0  0  0  0  0  0  0
   11.7240    3.4870  -58.4760 C   0  0  2  0  0  0  0  0  0  0  0  0
   11.5270    4.9660  -58.1070 C   0  0  0  0  0  0  0  0  0  0  0  0
   10.6430    3.0710  -59.4870 C   0  0  0  0  0  0  0  0  0  0  0  0
    9.1240    2.3980  -57.6120 C   0  0  0  0  0  0  0  0  0  0  0  0
    6.1220    2.6310  -60.9560 C   0  0  0  0  0  0  0  0  0  0  0  0
    6.6540    2.8060  -62.2090 N   0  0  0  0  0  0  0  0  0  0  0  0
    5.8990    2.3500  -63.2230 N   0  0  0  0  0  0  0  0  0  0  0  0
    4.7640    1.9390  -62.6380 C   0  0  0  0  0  0  0  0  0  0  0  0
    3.6000    1.4130  -63.2210 C   0  0  0  0  0  0  0  0  0  0  0  0
    2.5780    1.1130  -62.2960 C   0  0  0  0  0  0  0  0  0  0  0  0
    2.7040    1.3290  -60.8900 C   0  0  0  0  0  0  0  0  0  0  0  0
    3.8600    1.8490  -60.2740 C   0  0  0  0  0  0  0  0  0  0  0  0
    4.8670    2.1210  -61.2040 C   0  0  0  0  0  0  0  0  0  0  0  0
    8.5890    2.7560  -60.8530 H   0  0  0  0  0  0  0  0  0  0  0  0
    9.1603    5.3736  -59.4166 H   0  0  0  0  0  0  0  0  0  0  0  0
    8.0662    4.9024  -58.0615 H   0  0  0  0  0  0  0  0  0  0  0  0
   10.0007    6.2310  -57.2261 H   0  0  0  0  0  0  0  0  0  0  0  0
   10.7664    4.5990  -55.5001 H   0  0  0  0  0  0  0  0  0  0  0  0
    8.9983    4.4359  -55.8033 H   0  0  0  0  0  0  0  0  0  0  0  0
   10.1079    2.1989  -55.6858 H   0  0  0  0  0  0  0  0  0  0  0  0
   12.3582    2.9224  -56.4844 H   0  0  0  0  0  0  0  0  0  0  0  0
   11.7232    1.5658  -57.4823 H   0  0  0  0  0  0  0  0  0  0  0  0
   12.7222    3.3461  -58.9161 H   0  0  0  0  0  0  0  0  0  0  0  0
   12.2949    5.2653  -57.3785 H   0  0  0  0  0  0  0  0  0  0  0  0
   11.6156    5.5801  -59.0153 H   0  0  0  0  0  0  0  0  0  0  0  0
   10.7416    3.6871  -60.3929 H   0  0  0  0  0  0  0  0  0  0  0  0
   10.7798    2.0065  -59.7279 H   0  0  0  0  0  0  0  0  0  0  0  0
    9.2717    1.3412  -57.8791 H   0  0  0  0  0  0  0  0  0  0  0  0
    8.1313    2.5419  -57.1606 H   0  0  0  0  0  0  0  0  0  0  0  0
    7.5600    3.2110  -62.4220 H   0  0  0  0  0  0  0  0  0  0  0  0
    3.4943    1.2493  -64.3036 H   0  0  0  0  0  0  0  0  0  0  0  0
    1.6362    0.6913  -62.6771 H   0  0  0  0  0  0  0  0  0  0  0  0
    1.8471    1.0741  -60.2491 H   0  0  0  0  0  0  0  0  0  0  0  0
    3.9578    2.0201  -59.1918 H   0  0  0  0  0  0  0  0  0  0  0  0
  1  2  2  0
  2  3  1  0
  4  3  1  6
  4  5  1  0
  5  6  1  0
  6  7  1  0
  7  8  1  0
  8  9  1  0
  9 10  1  0
 10 11  1  0
 10 12  1  0
  8 13  1  0
  2 14  1  0
 14 15  1  0
 15 16  1  0
 16 17  2  0
 17 18  1  0
 18 19  2  0
 19 20  1  0
 20 21  2  0
 21 22  1  0
 12  4  1  0
 22 14  2  0
 13  4  1  0
 22 17  1  0
 11  6  1  0
  3 23  1  0
  5 24  1  0
  5 25  1  0
  6 26  1  1
  7 27  1  0
  7 28  1  0
  8 29  1  1
  9 30  1  0
  9 31  1  0
 10 32  1  6
 11 33  1  0
 11 34  1  0
 12 35  1  0
 12 36  1  0
 13 37  1  0
 13 38  1  0
 15 39  1  0
 18 40  1  0
 19 41  1  0
 20 42  1  0
 21 43  1  0
M  END
>  <meeko>  (8) 
{"is_sidechain": false}

$$$$

     RDKit          3D

 60 65  0  0  0  0  0  0  0  0999 V2000
    6.1260   -0.1450  -53.7990 C   0  0  0  0  0  0  0  0  0  0  0  0
    7.5380   -0.5050  -54.0850 C   0  0  0  0  0  0  0  0  0  0  0  0
    8.4000    0.1150  -55.0390 C   0  0  0  0  0  0  0  0  0  0  0  0
    8.0900    1.2420  -55.9440 C   0  0  0  0  0  0  0  0  0  0  0  0
    6.9540    1.6710  -56.1150 O   0  0  0  0  0  0  0  0  0  0  0  0
    9.2150    1.7460  -56.5610 N   0  0  0  0  0  0  0  0  0  0  0  0
    9.2610    2.8620  -57.4980 C   0  0  2  0  0  0  0  0  0  0  0  0
    8.2630    2.6680  -58.6660 C   0  0  0  0  0  0  0  0  0  0  0  0
    8.3660    3.8350  -59.6650 C   0  0  1  0  0  0  0  0  0  0  0  0
    8.0570    5.1540  -58.9360 C   0  0  0  0  0  0  0  0  0  0  0  0
    9.0630    5.3750  -57.7940 C   0  0  2  0  0  0  0  0  0  0  0  0
   10.4860    5.4240  -58.3740 C   0  0  0  0  0  0  0  0  0  0  0  0
   10.8030    4.1050  -59.0970 C   0  0  2  0  0  0  0  0  0  0  0  0
    9.7920    3.8920  -60.2340 C   0  0  0  0  0  0  0  0  0  0  0  0
   10.6900    2.9420  -58.0980 C   0  0  0  0  0  0  0  0  0  0  0  0
    8.9610    4.2090  -56.7950 C   0  0  0  0  0  0  0  0  0  0  0  0
    9.6180   -0.4620  -55.0440 N   0  0  0  0  0  0  0  0  0  0  0  0
    9.5380   -1.4210  -54.0980 N   0  0  0  0  0  0  0  0  0  0  0  0
   10.7150   -2.2420  -53.8270 C   0  0  0  0  0  0  0  0  0  0  0  0
   11.1870   -2.9760  -55.0480 C   0  0  0  0  0  0  0  0  0  0  0  0
   11.6030   -4.4220  -54.9500 C   0  0  0  0  0  0  0  0  0  0  0  0
   10.3410   -4.0510  -55.6800 C   0  0  0  0  0  0  0  0  0  0  0  0
    8.3030   -1.5000  -53.4970 C   0  0  0  0  0  0  0  0  0  0  0  0
    7.9590   -2.4520  -52.4490 C   0  0  0  0  0  0  0  0  0  0  0  0
    8.1650   -2.1250  -51.1040 C   0  0  0  0  0  0  0  0  0  0  0  0
    7.8320   -3.0370  -50.1010 C   0  0  0  0  0  0  0  0  0  0  0  0
    7.2990   -4.2810  -50.4380 C   0  0  0  0  0  0  0  0  0  0  0  0
    7.1010   -4.6160  -51.7770 C   0  0  0  0  0  0  0  0  0  0  0  0
    7.4340   -3.7040  -52.7800 C   0  0  0  0  0  0  0  0  0  0  0  0
    5.9709   -0.1055  -52.7107 H   0  0  0  0  0  0  0  0  0  0  0  0
    5.9025    0.8389  -54.2372 H   0  0  0  0  0  0  0  0  0  0  0  0
    5.4587   -0.9017  -54.2372 H   0  0  0  0  0  0  0  0  0  0  0  0
   10.0730    1.2690  -56.2890 H   0  0  0  0  0  0  0  0  0  0  0  0
    8.4928    1.7259  -59.1854 H   0  0  0  0  0  0  0  0  0  0  0  0
    7.2415    2.6382  -58.2589 H   0  0  0  0  0  0  0  0  0  0  0  0
    7.6470    3.6864  -60.4841 H   0  0  0  0  0  0  0  0  0  0  0  0
    8.1268    5.9887  -59.6490 H   0  0  0  0  0  0  0  0  0  0  0  0
    7.0414    5.1040  -58.5164 H   0  0  0  0  0  0  0  0  0  0  0  0
    8.8396    6.3222  -57.2813 H   0  0  0  0  0  0  0  0  0  0  0  0
   10.5603    6.2579  -59.0875 H   0  0  0  0  0  0  0  0  0  0  0  0
   11.2057    5.5696  -57.5549 H   0  0  0  0  0  0  0  0  0  0  0  0
   11.8218    4.1453  -59.5099 H   0  0  0  0  0  0  0  0  0  0  0  0
    9.8662    4.7252  -60.9483 H   0  0  0  0  0  0  0  0  0  0  0  0
   10.0159    2.9431  -60.7433 H   0  0  0  0  0  0  0  0  0  0  0  0
   10.9157    1.9987  -58.6169 H   0  0  0  0  0  0  0  0  0  0  0  0
   11.4050    3.1119  -57.2796 H   0  0  0  0  0  0  0  0  0  0  0  0
    9.6877    4.3632  -55.9837 H   0  0  0  0  0  0  0  0  0  0  0  0
    7.9391    4.1777  -56.3892 H   0  0  0  0  0  0  0  0  0  0  0  0
   11.5263   -1.5911  -53.4692 H   0  0  0  0  0  0  0  0  0  0  0  0
   10.4382   -2.9897  -53.0692 H   0  0  0  0  0  0  0  0  0  0  0  0
   11.6571   -2.0489  -55.4078 H   0  0  0  0  0  0  0  0  0  0  0  0
   12.4776   -4.7819  -55.5117 H   0  0  0  0  0  0  0  0  0  0  0  0
   11.8517   -5.1054  -54.1247 H   0  0  0  0  0  0  0  0  0  0  0  0
   10.2931   -4.1400  -56.7754 H   0  0  0  0  0  0  0  0  0  0  0  0
    9.2852   -4.3513  -55.6091 H   0  0  0  0  0  0  0  0  0  0  0  0
    8.5905   -1.1466  -50.8364 H   0  0  0  0  0  0  0  0  0  0  0  0
    7.9900   -2.7744  -49.0445 H   0  0  0  0  0  0  0  0  0  0  0  0
    7.0347   -4.9983  -49.6470 H   0  0  0  0  0  0  0  0  0  0  0  0
    6.6828   -5.5981  -52.0427 H   0  0  0  0  0  0  0  0  0  0  0  0
    7.2824   -3.9722  -53.8360 H   0  0  0  0  0  0  0  0  0  0  0  0
  1  2  1  0
  2  3  1  0
  3  4  1  0
  4  5  2  0
  4  6  1  0
  7  6  1  1
  7  8  1  0
  8  9  1  0
  9 10  1  0
 10 11  1  0
 11 12  1  0
 12 13  1  0
 13 14  1  0
 13 15  1  0
 11 16  1  0
  3 17  2  0
 17 18  1  0
 18 19  1  0
 19 20  1  0
 20 21  1  0
 21 22  1  0
 18 23  1  0
 23 24  1  0
 24 25  2  0
 25 26  1  0
 26 27  2  0
 27 28  1  0
 28 29  2  0
 23  2  2  0
 29 24  1  0
 15  7  1  0
 22 20  1  0
 16  7  1  0
 14  9  1  0
  1 30  1  0
  1 31  1  0
  1 32  1  0
  6 33  1  0
  8 34  1  0
  8 35  1  0
  9 36  1  6
 10 37  1  0
 10 38  1  0
 11 39  1  1
 12 40  1  0
 12 41  1  0
 13 42  1  6
 14 43  1  0
 14 44  1  0
 15 45  1  0
 15 46  1  0
 16 47  1  0
 16 48  1  0
 19 49  1  0
 19 50  1  0
 20 51  1  0
 21 52  1  0
 21 53  1  0
 22 54  1  0
 22 55  1  0
 25 56  1  0
 26 57  1  0
 27 58  1  0
 28 59  1  0
 29 60  1  0
M  END
>  <meeko>  (9) 
{"is_sidechain": false}

$$$$

     RDKit          3D

 54 58  0  0  0  0  0  0  0  0999 V2000
   13.0360    7.0780  -60.2070 C   0  0  0  0  0  0  0  0  0  0  0  0
   13.3230    5.9020  -59.4630 O   0  0  0  0  0  0  0  0  0  0  0  0
   12.2560    5.1900  -58.9910 C   0  0  0  0  0  0  0  0  0  0  0  0
   11.0320    5.5130  -59.5810 C   0  0  0  0  0  0  0  0  0  0  0  0
    9.8580    4.8610  -59.1930 C   0  0  0  0  0  0  0  0  0  0  0  0
    9.8940    3.8720  -58.2000 C   0  0  0  0  0  0  0  0  0  0  0  0
    8.6880    3.2220  -57.8160 N   0  0  0  0  0  0  0  0  0  0  0  0
    7.4250    3.4030  -58.3340 C   0  0  0  0  0  0  0  0  0  0  0  0
    6.5680    2.5700  -57.6450 C   0  0  0  0  0  0  0  0  0  0  0  0
    5.1000    2.4600  -57.8220 C   0  0  0  0  0  0  0  0  0  0  0  0
    7.4090    1.8830  -56.7170 C   0  0  0  0  0  0  0  0  0  0  0  0
    7.0330    0.8540  -55.7250 C   0  0  0  0  0  0  0  0  0  0  0  0
    5.9060    0.7700  -55.2500 O   0  0  0  0  0  0  0  0  0  0  0  0
    8.0800    0.0200  -55.3650 N   0  0  0  0  0  0  0  0  0  0  0  0
    8.0030   -1.0070  -54.3230 C   0  0  2  0  0  0  0  0  0  0  0  0
    7.7970   -0.3850  -52.9200 C   0  0  0  0  0  0  0  0  0  0  0  0
    7.7810   -1.4810  -51.8400 C   0  0  1  0  0  0  0  0  0  0  0  0
    6.6420   -2.4700  -52.1390 C   0  0  0  0  0  0  0  0  0  0  0  0
    6.8560   -3.1240  -53.5140 C   0  0  2  0  0  0  0  0  0  0  0  0
    8.2020   -3.8660  -53.5200 C   0  0  0  0  0  0  0  0  0  0  0  0
    9.3430   -2.8800  -53.2320 C   0  0  2  0  0  0  0  0  0  0  0  0
    9.1220   -2.2300  -51.8570 C   0  0  0  0  0  0  0  0  0  0  0  0
    9.3480   -1.7840  -54.3100 C   0  0  0  0  0  0  0  0  0  0  0  0
    6.8720   -2.0300  -54.5980 C   0  0  0  0  0  0  0  0  0  0  0  0
    8.6840    2.2900  -56.8370 N   0  0  0  0  0  0  0  0  0  0  0  0
   11.1220    3.5480  -57.6070 C   0  0  0  0  0  0  0  0  0  0  0  0
   12.2950    4.2060  -58.0030 C   0  0  0  0  0  0  0  0  0  0  0  0
   12.8332    7.9090  -59.5154 H   0  0  0  0  0  0  0  0  0  0  0  0
   13.8988    7.3306  -60.8408 H   0  0  0  0  0  0  0  0  0  0  0  0
   12.1538    6.9048  -60.8408 H   0  0  0  0  0  0  0  0  0  0  0  0
   10.9914    6.2890  -60.3596 H   0  0  0  0  0  0  0  0  0  0  0  0
    8.9020    5.1250  -59.6687 H   0  0  0  0  0  0  0  0  0  0  0  0
    7.1494    4.0878  -59.1495 H   0  0  0  0  0  0  0  0  0  0  0  0
    4.6135    2.4235  -56.8361 H   0  0  0  0  0  0  0  0  0  0  0  0
    4.7316    3.3331  -58.3806 H   0  0  0  0  0  0  0  0  0  0  0  0
    4.8658    1.5418  -58.3806 H   0  0  0  0  0  0  0  0  0  0  0  0
    9.0020    0.3570  -55.6080 H   0  0  0  0  0  0  0  0  0  0  0  0
    8.6181    0.3166  -52.7112 H   0  0  0  0  0  0  0  0  0  0  0  0
    6.8324    0.1435  -52.9040 H   0  0  0  0  0  0  0  0  0  0  0  0
    7.6255   -1.0249  -50.8512 H   0  0  0  0  0  0  0  0  0  0  0  0
    6.6251   -3.2503  -51.3639 H   0  0  0  0  0  0  0  0  0  0  0  0
    5.6858   -1.9263  -52.1444 H   0  0  0  0  0  0  0  0  0  0  0  0
    6.0420   -3.8355  -53.7173 H   0  0  0  0  0  0  0  0  0  0  0  0
    8.1912   -4.6476  -52.7460 H   0  0  0  0  0  0  0  0  0  0  0  0
    8.3592   -4.3235  -54.5079 H   0  0  0  0  0  0  0  0  0  0  0  0
   10.3033   -3.4164  -53.2384 H   0  0  0  0  0  0  0  0  0  0  0  0
    9.1132   -3.0107  -51.0821 H   0  0  0  0  0  0  0  0  0  0  0  0
    9.9363   -1.5175  -51.6591 H   0  0  0  0  0  0  0  0  0  0  0  0
   10.1676   -1.0802  -54.1031 H   0  0  0  0  0  0  0  0  0  0  0  0
    9.4862   -2.2601  -55.2920 H   0  0  0  0  0  0  0  0  0  0  0  0
    7.0375   -2.4966  -55.5803 H   0  0  0  0  0  0  0  0  0  0  0  0
    5.9063   -1.5034  -54.5850 H   0  0  0  0  0  0  0  0  0  0  0  0
   11.1656    2.7736  -56.8270 H   0  0  0  0  0  0  0  0  0  0  0  0
   13.2535    3.9443  -57.5309 H   0  0  0  0  0  0  0  0  0  0  0  0
  1  2  1  0
  2  3  1  0
  3  4  1  0
  4  5  2  0
  5  6  1  0
  6  7  1  0
  7  8  1  0
  8  9  2  0
  9 10  1  0
  9 11  1  0
 11 12  1  0
 12 13  2  0
 12 14  1  0
 15 14  1  6
 15 16  1  0
 16 17  1  0
 17 18  1  0
 18 19  1  0
 19 20  1  0
 20 21  1  0
 21 22  1  0
 21 23  1  0
 19 24  1  0
 11 25  2  0
  6 26  2  0
 26 27  1  0
 27  3  2  0
 25  7  1  0
 23 15  1  0
 24 15  1  0
 22 17  1  0
  1 28  1  0
  1 29  1  0
  1 30  1  0
  4 31  1  0
  5 32  1  0
  8 33  1  0
 10 34  1  0
 10 35  1  0
 10 36  1  0
 14 37  1  0
 16 38  1  0
 16 39  1  0
 17 40  1  1
 18 41  1  0
 18 42  1  0
 19 43  1  6
 20 44  1  0
 20 45  1  0
 21 46  1  1
 22 47  1  0
 22 48  1  0
 23 49  1  0
 23 50  1  0
 24 51  1  0
 24 52  1  0
 26 53  1  0
 27 54  1  0
M  END
>  <meeko>  (10) 
{"is_sidechain": false}

$$$$

     RDKit          3D

 53 57  0  0  0  0  0  0  0  0999 V2000
    6.2810    0.1860  -54.1430 C   0  0  0  0  0  0  0  0  0  0  0  0
    7.6840   -0.2270  -54.4090 C   0  0  0  0  0  0  0  0  0  0  0  0
    8.5830    0.3850  -55.3340 C   0  0  0  0  0  0  0  0  0  0  0  0
    8.3230    1.5280  -56.2350 C   0  0  0  0  0  0  0  0  0  0  0  0
    7.2270    2.0700  -56.3280 O   0  0  0  0  0  0  0  0  0  0  0  0
    9.4400    1.9010  -56.9490 N   0  0  0  0  0  0  0  0  0  0  0  0
    9.5240    2.9890  -57.9170 C   0  0  2  0  0  0  0  0  0  0  0  0
    9.2480    4.3630  -57.2580 C   0  0  0  0  0  0  0  0  0  0  0  0
    9.3900    5.4960  -58.2900 C   0  0  1  0  0  0  0  0  0  0  0  0
   10.8200    5.4950  -58.8530 C   0  0  0  0  0  0  0  0  0  0  0  0
   11.1130    4.1490  -59.5330 C   0  0  2  0  0  0  0  0  0  0  0  0
   10.1120    3.9260  -60.6770 C   0  0  0  0  0  0  0  0  0  0  0  0
    8.6780    3.9180  -60.1240 C   0  0  2  0  0  0  0  0  0  0  0  0
    8.3910    5.2650  -59.4370 C   0  0  0  0  0  0  0  0  0  0  0  0
    8.5360    2.7830  -59.0930 C   0  0  0  0  0  0  0  0  0  0  0  0
   10.9610    3.0190  -58.5020 C   0  0  0  0  0  0  0  0  0  0  0  0
    9.7860   -0.2210  -55.3150 N   0  0  0  0  0  0  0  0  0  0  0  0
    9.6550   -1.1990  -54.3990 N   0  0  0  0  0  0  0  0  0  0  0  0
   10.7840   -2.0700  -54.1610 C   0  0  0  0  0  0  0  0  0  0  0  0
    8.4070   -1.2590  -53.8230 C   0  0  0  0  0  0  0  0  0  0  0  0
    8.0020   -2.2410  -52.8170 C   0  0  0  0  0  0  0  0  0  0  0  0
    8.6490   -2.2700  -51.5720 C   0  0  0  0  0  0  0  0  0  0  0  0
    8.2760   -3.2090  -50.6060 C   0  0  0  0  0  0  0  0  0  0  0  0
    7.2590   -4.1170  -50.8840 C   0  0  0  0  0  0  0  0  0  0  0  0
    6.9060   -5.0130  -49.9550 F   0  0  0  0  0  0  0  0  0  0  0  0
    6.6060   -4.1080  -52.1070 C   0  0  0  0  0  0  0  0  0  0  0  0
    6.9820   -3.1710  -53.0650 C   0  0  0  0  0  0  0  0  0  0  0  0
    6.3390   -3.1700  -54.2420 F   0  0  0  0  0  0  0  0  0  0  0  0
    6.1130    0.2355  -53.0570 H   0  0  0  0  0  0  0  0  0  0  0  0
    6.0995    1.1757  -54.5876 H   0  0  0  0  0  0  0  0  0  0  0  0
    5.5923   -0.5475  -54.5876 H   0  0  0  0  0  0  0  0  0  0  0  0
   10.2610    1.3360  -56.7430 H   0  0  0  0  0  0  0  0  0  0  0  0
    8.2260    4.3703  -56.8512 H   0  0  0  0  0  0  0  0  0  0  0  0
    9.9790    4.5234  -56.4519 H   0  0  0  0  0  0  0  0  0  0  0  0
    9.1840    6.4634  -57.8086 H   0  0  0  0  0  0  0  0  0  0  0  0
   10.9227    6.3057  -59.5894 H   0  0  0  0  0  0  0  0  0  0  0  0
   11.5335    5.6479  -58.0299 H   0  0  0  0  0  0  0  0  0  0  0  0
   12.1372    4.1534  -59.9343 H   0  0  0  0  0  0  0  0  0  0  0  0
   10.2141    4.7362  -61.4140 H   0  0  0  0  0  0  0  0  0  0  0  0
   10.3203    2.9583  -61.1567 H   0  0  0  0  0  0  0  0  0  0  0  0
    7.9655    3.7619  -60.9474 H   0  0  0  0  0  0  0  0  0  0  0  0
    8.4877    6.0768  -60.1729 H   0  0  0  0  0  0  0  0  0  0  0  0
    7.3699    5.2507  -59.0281 H   0  0  0  0  0  0  0  0  0  0  0  0
    7.5072    2.7745  -58.7038 H   0  0  0  0  0  0  0  0  0  0  0  0
    8.7641    1.8259  -59.5849 H   0  0  0  0  0  0  0  0  0  0  0  0
   11.1707    2.0559  -58.9904 H   0  0  0  0  0  0  0  0  0  0  0  0
   11.6701    3.1970  -57.6801 H   0  0  0  0  0  0  0  0  0  0  0  0
   10.9352   -2.1866  -53.0777 H   0  0  0  0  0  0  0  0  0  0  0  0
   10.5893   -3.0542  -54.6121 H   0  0  0  0  0  0  0  0  0  0  0  0
   11.6866   -1.6319  -54.6121 H   0  0  0  0  0  0  0  0  0  0  0  0
    9.4528   -1.5510  -51.3555 H   0  0  0  0  0  0  0  0  0  0  0  0
    8.7841   -3.2300  -49.6306 H   0  0  0  0  0  0  0  0  0  0  0  0
    5.8032   -4.8302  -52.3169 H   0  0  0  0  0  0  0  0  0  0  0  0
  1  2  1  0
  2  3  1  0
  3  4  1  0
  4  5  2  0
  4  6  1  0
  7  6  1  1
  7  8  1  0
  8  9  1  0
  9 10  1  0
 10 11  1  0
 11 12  1  0
 12 13  1  0
 13 14  1  0
 13 15  1  0
 11 16  1  0
  3 17  2  0
 17 18  1  0
 18 19  1  0
 18 20  1  0
 20 21  1  0
 21 22  1  0
 22 23  2  0
 23 24  1  0
 24 25  1  0
 24 26  2  0
 26 27  1  0
 27 28  1  0
 20  2  2  0
 27 21  2  0
 15  7  1  0
 16  7  1  0
 14  9  1  0
  1 29  1  0
  1 30  1  0
  1 31  1  0
  6 32  1  0
  8 33  1  0
  8 34  1  0
  9 35  1  1
 10 36  1  0
 10 37  1  0
 11 38  1  6
 12 39  1  0
 12 40  1  0
 13 41  1  6
 14 42  1  0
 14 43  1  0
 15 44  1  0
 15 45  1  0
 16 46  1  0
 16 47  1  0
 19 48  1  0
 19 49  1  0
 19 50  1  0
 22 51  1  0
 23 52  1  0
 26 53  1  0
M  END
>  <meeko>  (11) 
{"is_sidechain": false}

$$$$

     RDKit          3D

 66 70  0  0  0  0  0  0  0  0999 V2000
    5.5020    2.2630  -61.8170 C   0  0  0  0  0  0  0  0  0  0  0  0
    6.7030    2.9810  -62.0740 O   0  0  0  0  0  0  0  0  0  0  0  0
    7.8720    2.2770  -61.6430 C   0  0  0  0  0  0  0  0  0  0  0  0
    8.8900    3.2180  -61.0120 C   0  0  0  0  0  0  0  0  0  0  0  0
    8.8370    3.1730  -59.5640 N   0  0  0  0  0  0  0  0  0  0  0  0
    7.7670    2.6030  -58.9860 N   0  0  0  0  0  0  0  0  0  0  0  0
    7.9870    2.7090  -57.6640 C   0  0  0  0  0  0  0  0  0  0  0  0
    7.0090    2.1700  -56.6970 C   0  0  0  0  0  0  0  0  0  0  0  0
    5.9060    2.6740  -56.5050 O   0  0  0  0  0  0  0  0  0  0  0  0
    7.4190    1.0100  -56.0550 N   0  0  0  0  0  0  0  0  0  0  0  0
    6.4950    0.2360  -55.2520 C   0  0  0  0  0  0  0  0  0  0  0  0
    6.9140    0.0970  -53.7830 C   0  0  0  0  0  0  0  0  0  0  0  0
    7.7290   -1.1640  -53.3900 C   0  0  2  0  0  0  0  0  0  0  0  0
    7.1420   -2.3790  -54.1650 C   0  0  0  0  0  0  0  0  0  0  0  0
    7.9080   -3.6700  -53.8360 C   0  0  1  0  0  0  0  0  0  0  0  0
    9.3830   -3.4940  -54.2280 C   0  0  0  0  0  0  0  0  0  0  0  0
    9.9960   -2.3190  -53.4510 C   0  0  2  0  0  0  0  0  0  0  0  0
    9.8890   -2.6010  -51.9430 C   0  0  0  0  0  0  0  0  0  0  0  0
    8.4150   -2.7700  -51.5420 C   0  0  2  0  0  0  0  0  0  0  0  0
    7.8080   -3.9430  -52.3280 C   0  0  0  0  0  0  0  0  0  0  0  0
    7.6490   -1.4780  -51.8780 C   0  0  0  0  0  0  0  0  0  0  0  0
    9.2240   -1.0280  -53.7810 C   0  0  0  0  0  0  0  0  0  0  0  0
    9.2330    3.3720  -57.4120 C   0  0  0  0  0  0  0  0  0  0  0  0
    9.8220    3.7350  -56.0970 C   0  0  0  0  0  0  0  0  0  0  0  0
    9.7610    3.6430  -58.6670 C   0  0  0  0  0  0  0  0  0  0  0  0
   11.0070    4.3030  -59.0380 C   0  0  0  0  0  0  0  0  0  0  0  0
   12.2210    3.6150  -58.9400 C   0  0  0  0  0  0  0  0  0  0  0  0
   13.4140    4.2440  -59.2980 C   0  0  0  0  0  0  0  0  0  0  0  0
   13.4000    5.5620  -59.7510 C   0  0  0  0  0  0  0  0  0  0  0  0
   12.1930    6.2550  -59.8440 C   0  0  0  0  0  0  0  0  0  0  0  0
   10.9990    5.6290  -59.4860 C   0  0  0  0  0  0  0  0  0  0  0  0
    5.3533    2.1741  -60.7307 H   0  0  0  0  0  0  0  0  0  0  0  0
    4.6512    2.8008  -62.2608 H   0  0  0  0  0  0  0  0  0  0  0  0
    5.5729    1.2590  -62.2608 H   0  0  0  0  0  0  0  0  0  0  0  0
    7.5794    1.5183  -60.9022 H   0  0  0  0  0  0  0  0  0  0  0  0
    8.3357    1.8071  -62.5229 H   0  0  0  0  0  0  0  0  0  0  0  0
    9.8979    2.9251  -61.3410 H   0  0  0  0  0  0  0  0  0  0  0  0
    8.6531    4.2435  -61.3319 H   0  0  0  0  0  0  0  0  0  0  0  0
    8.2240    0.5370  -56.4390 H   0  0  0  0  0  0  0  0  0  0  0  0
    5.5111    0.7266  -55.2866 H   0  0  0  0  0  0  0  0  0  0  0  0
    6.4760   -0.7788  -55.6760 H   0  0  0  0  0  0  0  0  0  0  0  0
    7.5238    0.9766  -53.5290 H   0  0  0  0  0  0  0  0  0  0  0  0
    5.9688    0.0058  -53.2278 H   0  0  0  0  0  0  0  0  0  0  0  0
    6.0860   -2.5070  -53.8850 H   0  0  0  0  0  0  0  0  0  0  0  0
    7.2361   -2.1831  -55.2433 H   0  0  0  0  0  0  0  0  0  0  0  0
    7.4769   -4.5146  -54.3934 H   0  0  0  0  0  0  0  0  0  0  0  0
    9.9354   -4.4153  -53.9911 H   0  0  0  0  0  0  0  0  0  0  0  0
    9.4480   -3.2872  -55.3064 H   0  0  0  0  0  0  0  0  0  0  0  0
   11.0520   -2.1993  -53.7347 H   0  0  0  0  0  0  0  0  0  0  0  0
   10.4391   -3.5234  -51.7052 H   0  0  0  0  0  0  0  0  0  0  0  0
   10.3194   -1.7553  -51.3866 H   0  0  0  0  0  0  0  0  0  0  0  0
    8.3426   -2.9728  -50.4633 H   0  0  0  0  0  0  0  0  0  0  0  0
    8.3563   -4.8657  -52.0874 H   0  0  0  0  0  0  0  0  0  0  0  0
    6.7497   -4.0558  -52.0500 H   0  0  0  0  0  0  0  0  0  0  0  0
    6.5941   -1.6003  -51.5913 H   0  0  0  0  0  0  0  0  0  0  0  0
    8.1052   -0.6454  -51.3224 H   0  0  0  0  0  0  0  0  0  0  0  0
    9.6677   -0.1901  -53.2233 H   0  0  0  0  0  0  0  0  0  0  0  0
    9.2897   -0.8453  -54.8637 H   0  0  0  0  0  0  0  0  0  0  0  0
    9.1860    3.3430  -55.2896 H   0  0  0  0  0  0  0  0  0  0  0  0
   10.8292    3.3007  -56.0140 H   0  0  0  0  0  0  0  0  0  0  0  0
    9.8868    4.8299  -56.0140 H   0  0  0  0  0  0  0  0  0  0  0  0
   12.2352    2.5757  -58.5799 H   0  0  0  0  0  0  0  0  0  0  0  0
   14.3665    3.6990  -59.2226 H   0  0  0  0  0  0  0  0  0  0  0  0
   14.3409    6.0558  -60.0352 H   0  0  0  0  0  0  0  0  0  0  0  0
   12.1828    7.2958  -60.1999 H   0  0  0  0  0  0  0  0  0  0  0  0
   10.0488    6.1788  -59.5559 H   0  0  0  0  0  0  0  0  0  0  0  0
  1  2  1  0
  2  3  1  0
  3  4  1  0
  4  5  1  0
  5  6  1  0
  6  7  2  0
  7  8  1  0
  8  9  2  0
  8 10  1  0
 10 11  1  0
 11 12  1  0
 13 12  1  1
 13 14  1  0
 14 15  1  0
 15 16  1  0
 16 17  1  0
 17 18  1  0
 18 19  1  0
 19 20  1  0
 19 21  1  0
 17 22  1  0
  7 23  1  0
 23 24  1  0
 23 25  2  0
 25 26  1  0
 26 27  2  0
 27 28  1  0
 28 29  2  0
 29 30  1  0
 30 31  2  0
 25  5  1  0
 31 26  1  0
 21 13  1  0
 22 13  1  0
 20 15  1  0
  1 32  1  0
  1 33  1  0
  1 34  1  0
  3 35  1  0
  3 36  1  0
  4 37  1  0
  4 38  1  0
 10 39  1  0
 11 40  1  0
 11 41  1  0
 12 42  1  0
 12 43  1  0
 14 44  1  0
 14 45  1  0
 15 46  1  6
 16 47  1  0
 16 48  1  0
 17 49  1  6
 18 50  1  0
 18 51  1  0
 19 52  1  1
 20 53  1  0
 20 54  1  0
 21 55  1  0
 21 56  1  0
 22 57  1  0
 22 58  1  0
 24 59  1  0
 24 60  1  0
 24 61  1  0
 27 62  1  0
 28 63  1  0
 29 64  1  0
 30 65  1  0
 31 66  1  0
M  END
>  <meeko>  (12) 
{"is_sidechain": false}

$$$$

     RDKit          3D

 76 81  0  0  0  0  0  0  0  0999 V2000
    5.8160   -0.3470  -54.0920 C   0  0  0  0  0  0  0  0  0  0  0  0
    7.2920   -0.5360  -54.1020 C   0  0  0  0  0  0  0  0  0  0  0  0
    8.2570    0.1290  -54.9300 C   0  0  0  0  0  0  0  0  0  0  0  0
    8.0450    1.1670  -55.9630 C   0  0  0  0  0  0  0  0  0  0  0  0
    6.9520    1.3440  -56.4920 O   0  0  0  0  0  0  0  0  0  0  0  0
    9.1830    1.8830  -56.2900 N   0  0  0  0  0  0  0  0  0  0  0  0
    9.2550    2.8980  -57.3450 C   0  0  2  0  0  0  0  0  0  0  0  0
    7.8510    3.4030  -57.7610 C   0  0  0  0  0  0  0  0  0  0  0  0
    7.9690    4.5040  -58.8300 C   0  0  2  0  0  0  0  0  0  0  0  0
    8.7030    3.9380  -60.0560 C   0  0  0  0  0  0  0  0  0  0  0  0
   10.1200    3.4760  -59.6650 C   0  0  2  0  0  0  0  0  0  0  0  0
    9.9960    2.3690  -58.5970 C   0  0  0  0  0  0  0  0  0  0  0  0
   10.9390    4.6450  -59.0700 C   0  0  1  0  0  0  0  0  0  0  0  0
   11.2930    5.7110  -60.1090 C   0  0  0  0  0  0  0  0  0  0  0  0
   10.1770    5.2240  -57.8540 C   0  0  1  0  0  0  0  0  0  0  0  0
    8.7650    5.6850  -58.2520 C   0  0  0  0  0  0  0  0  0  0  0  0
   10.0460    4.1170  -56.7920 C   0  0  0  0  0  0  0  0  0  0  0  0
    9.4930   -0.3350  -54.6790 N   0  0  0  0  0  0  0  0  0  0  0  0
    9.3270   -1.2650  -53.7300 N   0  0  0  0  0  0  0  0  0  0  0  0
   10.5050   -2.0090  -53.3170 C   0  0  0  0  0  0  0  0  0  0  0  0
   11.1410   -2.7350  -54.5050 C   0  0  0  0  0  0  0  0  0  0  0  0
   10.2440   -3.8530  -55.0110 C   0  0  0  0  0  0  0  0  0  0  0  0
   10.7790   -4.4120  -56.3150 N   0  0  0  0  0  0  0  0  0  0  0  0
   11.4770   -3.3280  -57.1390 C   0  0  0  0  0  0  0  0  0  0  0  0
   11.9850   -3.9250  -58.4550 C   0  0  0  0  0  0  0  0  0  0  0  0
   12.8710   -5.0210  -58.2080 O   0  0  0  0  0  0  0  0  0  0  0  0
   12.2150   -6.0820  -57.5060 C   0  0  0  0  0  0  0  0  0  0  0  0
   11.7150   -5.6070  -56.1370 C   0  0  0  0  0  0  0  0  0  0  0  0
    8.0280   -1.4210  -53.3260 C   0  0  0  0  0  0  0  0  0  0  0  0
    7.5940   -2.3780  -52.3170 C   0  0  0  0  0  0  0  0  0  0  0  0
    6.9540   -3.5620  -52.6970 C   0  0  0  0  0  0  0  0  0  0  0  0
    6.5490   -4.4840  -51.7310 C   0  0  0  0  0  0  0  0  0  0  0  0
    6.7790   -4.2240  -50.3810 C   0  0  0  0  0  0  0  0  0  0  0  0
    7.4100   -3.0430  -49.9940 C   0  0  0  0  0  0  0  0  0  0  0  0
    7.8160   -2.1190  -50.9590 C   0  0  0  0  0  0  0  0  0  0  0  0
    5.4592   -0.3013  -53.0525 H   0  0  0  0  0  0  0  0  0  0  0  0
    5.5629    0.5909  -54.6081 H   0  0  0  0  0  0  0  0  0  0  0  0
    5.3348   -1.1909  -54.6081 H   0  0  0  0  0  0  0  0  0  0  0  0
   10.0600    1.4820  -55.9840 H   0  0  0  0  0  0  0  0  0  0  0  0
    7.2704    2.5627  -58.1694 H   0  0  0  0  0  0  0  0  0  0  0  0
    7.3460    3.8186  -56.8766 H   0  0  0  0  0  0  0  0  0  0  0  0
    6.9673    4.8477  -59.1275 H   0  0  0  0  0  0  0  0  0  0  0  0
    8.1387    3.0813  -60.4532 H   0  0  0  0  0  0  0  0  0  0  0  0
    8.7815    4.7248  -60.8207 H   0  0  0  0  0  0  0  0  0  0  0  0
   10.6340    3.1062  -60.5645 H   0  0  0  0  0  0  0  0  0  0  0  0
    9.4344    1.5221  -59.0181 H   0  0  0  0  0  0  0  0  0  0  0  0
   11.0057    2.0478  -58.3013 H   0  0  0  0  0  0  0  0  0  0  0  0
   11.9104    4.2581  -58.7285 H   0  0  0  0  0  0  0  0  0  0  0  0
   11.5998    6.6348  -59.5967 H   0  0  0  0  0  0  0  0  0  0  0  0
   12.1192    5.3492  -60.7386 H   0  0  0  0  0  0  0  0  0  0  0  0
   10.4145    5.9153  -60.7386 H   0  0  0  0  0  0  0  0  0  0  0  0
   10.7344    6.0897  -57.4668 H   0  0  0  0  0  0  0  0  0  0  0  0
    8.2454    6.0746  -57.3642 H   0  0  0  0  0  0  0  0  0  0  0  0
    8.8446    6.4740  -59.0144 H   0  0  0  0  0  0  0  0  0  0  0  0
   11.0515    3.7863  -56.4925 H   0  0  0  0  0  0  0  0  0  0  0  0
    9.4988    4.5249  -55.9293 H   0  0  0  0  0  0  0  0  0  0  0  0
   11.2387   -1.3110  -52.8875 H   0  0  0  0  0  0  0  0  0  0  0  0
   10.2020   -2.7580  -52.5706 H   0  0  0  0  0  0  0  0  0  0  0  0
   11.3085   -2.0136  -55.3183 H   0  0  0  0  0  0  0  0  0  0  0  0
   12.0933   -3.1754  -54.1745 H   0  0  0  0  0  0  0  0  0  0  0  0
   10.2077   -4.6562  -54.2603 H   0  0  0  0  0  0  0  0  0  0  0  0
    9.2350   -3.4501  -55.1832 H   0  0  0  0  0  0  0  0  0  0  0  0
    9.9730   -4.7330  -56.8690 H   0  0  0  0  0  0  0  0  0  0  0  0
   10.7646   -2.5184  -57.3559 H   0  0  0  0  0  0  0  0  0  0  0  0
   12.3283   -2.9287  -56.5681 H   0  0  0  0  0  0  0  0  0  0  0  0
   11.1271   -4.2808  -59.0444 H   0  0  0  0  0  0  0  0  0  0  0  0
   12.5327   -3.1467  -59.0067 H   0  0  0  0  0  0  0  0  0  0  0  0
   11.3581   -6.4312  -58.1008 H   0  0  0  0  0  0  0  0  0  0  0  0
   12.9354   -6.8990  -57.3523 H   0  0  0  0  0  0  0  0  0  0  0  0
   11.1722   -6.4258  -55.6421 H   0  0  0  0  0  0  0  0  0  0  0  0
   12.5747   -5.3068  -55.5200 H   0  0  0  0  0  0  0  0  0  0  0  0
    6.7691   -3.7673  -53.7617 H   0  0  0  0  0  0  0  0  0  0  0  0
    6.0486   -5.4153  -52.0347 H   0  0  0  0  0  0  0  0  0  0  0  0
    6.4620   -4.9521  -49.6198 H   0  0  0  0  0  0  0  0  0  0  0  0
    7.5882   -2.8387  -48.9279 H   0  0  0  0  0  0  0  0  0  0  0  0
    8.3111   -1.1860  -50.6518 H   0  0  0  0  0  0  0  0  0  0  0  0
  1  2  1  0
  2  3  1  0
  3  4  1  0
  4  5  2  0
  4  6  1  0
  7  6  1  1
  7  8  1  0
  8  9  1  0
  9 10  1  0
 10 11  1  0
 11 12  1  0
 11 13  1  0
 13 14  1  0
 13 15  1  0
 15 16  1  0
 15 17  1  0
  3 18  2  0
 18 19  1  0
 19 20  1  0
 20 21  1  0
 21 22  1  0
 22 23  1  0
 23 24  1  0
 24 25  1  0
 25 26  1  0
 26 27  1  0
 27 28  1  0
 19 29  1  0
 29 30  1  0
 30 31  2  0
 31 32  1  0
 32 33  2  0
 33 34  1  0
 34 35  2  0
 29  2  2  0
 35 30  1  0
 12  7  1  0
 28 23  1  0
 17  7  1  0
 16  9  1  0
  1 36  1  0
  1 37  1  0
  1 38  1  0
  6 39  1  0
  8 40  1  0
  8 41  1  0
  9 42  1  6
 10 43  1  0
 10 44  1  0
 11 45  1  6
 12 46  1  0
 12 47  1  0
 13 48  1  1
 14 49  1  0
 14 50  1  0
 14 51  1  0
 15 52  1  1
 16 53  1  0
 16 54  1  0
 17 55  1  0
 17 56  1  0
 20 57  1  0
 20 58  1  0
 21 59  1  0
 21 60  1  0
 22 61  1  0
 22 62  1  0
 23 63  1  0
 24 64  1  0
 24 65  1  0
 25 66  1  0
 25 67  1  0
 27 68  1  0
 27 69  1  0
 28 70  1  0
 28 71  1  0
 31 72  1  0
 32 73  1  0
 33 74  1  0
 34 75  1  0
 35 76  1  0
M  CHG  1  23   1
M  END
>  <meeko>  (13) 
{"is_sidechain": false}

$$$$

     RDKit          3D

 76 81  0  0  0  0  0  0  0  0999 V2000
    5.9510   -0.3330  -54.0280 C   0  0  0  0  0  0  0  0  0  0  0  0
    7.4310   -0.4670  -54.1170 C   0  0  0  0  0  0  0  0  0  0  0  0
    8.3400    0.2550  -54.9550 C   0  0  0  0  0  0  0  0  0  0  0  0
    8.0980    1.3360  -55.9380 C   0  0  0  0  0  0  0  0  0  0  0  0
    6.9570    1.6300  -56.2880 O   0  0  0  0  0  0  0  0  0  0  0  0
    9.2330    1.9370  -56.4420 N   0  0  0  0  0  0  0  0  0  0  0  0
    9.2420    2.9740  -57.4810 C   0  0  2  0  0  0  0  0  0  0  0  0
    8.9650    4.3760  -56.8860 C   0  0  0  0  0  0  0  0  0  0  0  0
    8.9240    5.4340  -58.0030 C   0  0  2  0  0  0  0  0  0  0  0  0
    7.7990    5.0830  -58.9910 C   0  0  0  0  0  0  0  0  0  0  0  0
    8.0620    3.7020  -59.6220 C   0  0  2  0  0  0  0  0  0  0  0  0
    8.1120    2.6550  -58.4960 C   0  0  0  0  0  0  0  0  0  0  0  0
    9.4070    3.7570  -60.3840 C   0  0  2  0  0  0  0  0  0  0  0  0
    9.6720    2.4960  -61.2110 C   0  0  0  0  0  0  0  0  0  0  0  0
   10.5410    4.0620  -59.3780 C   0  0  1  0  0  0  0  0  0  0  0  0
   10.2730    5.4420  -58.7420 C   0  0  0  0  0  0  0  0  0  0  0  0
   10.5840    3.0080  -58.2540 C   0  0  0  0  0  0  0  0  0  0  0  0
    9.5910   -0.2120  -54.7960 N   0  0  0  0  0  0  0  0  0  0  0  0
    9.5080   -1.1450  -53.8460 N   0  0  0  0  0  0  0  0  0  0  0  0
   10.7070   -1.8570  -53.4400 C   0  0  0  0  0  0  0  0  0  0  0  0
   10.8650   -3.2910  -53.9750 C   0  0  0  0  0  0  0  0  0  0  0  0
   10.2590   -3.5650  -55.3550 C   0  0  0  0  0  0  0  0  0  0  0  0
   11.0530   -4.3980  -56.3090 N   0  0  0  0  0  0  0  0  0  0  0  0
   11.4600   -3.7250  -57.6110 C   0  0  0  0  0  0  0  0  0  0  0  0
   12.3930   -4.6400  -58.4150 C   0  0  0  0  0  0  0  0  0  0  0  0
   12.1310   -6.0090  -58.0810 O   0  0  0  0  0  0  0  0  0  0  0  0
   12.6020   -6.3060  -56.7550 C   0  0  0  0  0  0  0  0  0  0  0  0
   12.1750   -5.2420  -55.7250 C   0  0  0  0  0  0  0  0  0  0  0  0
    8.2260   -1.3580  -53.4070 C   0  0  0  0  0  0  0  0  0  0  0  0
    7.8650   -2.3560  -52.4090 C   0  0  0  0  0  0  0  0  0  0  0  0
    8.0090   -2.0720  -51.0460 C   0  0  0  0  0  0  0  0  0  0  0  0
    7.6720   -3.0330  -50.0910 C   0  0  0  0  0  0  0  0  0  0  0  0
    7.1890   -4.2760  -50.4920 C   0  0  0  0  0  0  0  0  0  0  0  0
    7.0350   -4.5620  -51.8480 C   0  0  0  0  0  0  0  0  0  0  0  0
    7.3710   -3.6040  -52.8060 C   0  0  0  0  0  0  0  0  0  0  0  0
    5.6482   -0.3056  -52.9708 H   0  0  0  0  0  0  0  0  0  0  0  0
    5.6366    0.5973  -54.5237 H   0  0  0  0  0  0  0  0  0  0  0  0
    5.4746   -1.1917  -54.5237 H   0  0  0  0  0  0  0  0  0  0  0  0
   10.1050    1.4510  -56.2880 H   0  0  0  0  0  0  0  0  0  0  0  0
    7.9973    4.3632  -56.3632 H   0  0  0  0  0  0  0  0  0  0  0  0
    9.7712    4.6308  -56.1824 H   0  0  0  0  0  0  0  0  0  0  0  0
    8.7362    6.4275  -57.5697 H   0  0  0  0  0  0  0  0  0  0  0  0
    6.8381    5.0618  -58.4560 H   0  0  0  0  0  0  0  0  0  0  0  0
    7.7673    5.8426  -59.7860 H   0  0  0  0  0  0  0  0  0  0  0  0
    7.2650    3.4283  -60.3290 H   0  0  0  0  0  0  0  0  0  0  0  0
    7.1469    2.6497  -57.9682 H   0  0  0  0  0  0  0  0  0  0  0  0
    8.3149    1.6713  -58.9445 H   0  0  0  0  0  0  0  0  0  0  0  0
    9.3617    4.5694  -61.1242 H   0  0  0  0  0  0  0  0  0  0  0  0
    9.8507    1.6458  -60.5363 H   0  0  0  0  0  0  0  0  0  0  0  0
    8.7989    2.2834  -61.8454 H   0  0  0  0  0  0  0  0  0  0  0  0
   10.5568    2.6528  -61.8454 H   0  0  0  0  0  0  0  0  0  0  0  0
   11.5014    4.0474  -59.9141 H   0  0  0  0  0  0  0  0  0  0  0  0
   11.0768    5.6753  -58.0282 H   0  0  0  0  0  0  0  0  0  0  0  0
   10.2426    6.2030  -59.5357 H   0  0  0  0  0  0  0  0  0  0  0  0
   10.7715    2.0178  -58.6949 H   0  0  0  0  0  0  0  0  0  0  0  0
   11.3887    3.2730  -57.5524 H   0  0  0  0  0  0  0  0  0  0  0  0
   11.5746   -1.2743  -53.7830 H   0  0  0  0  0  0  0  0  0  0  0  0
   10.6303   -1.9594  -52.3475 H   0  0  0  0  0  0  0  0  0  0  0  0
   11.9410   -3.5127  -54.0302 H   0  0  0  0  0  0  0  0  0  0  0  0
   10.3081   -3.9311  -53.2749 H   0  0  0  0  0  0  0  0  0  0  0  0
    9.2969   -4.0741  -55.1962 H   0  0  0  0  0  0  0  0  0  0  0  0
   10.1977   -2.5763  -55.8333 H   0  0  0  0  0  0  0  0  0  0  0  0
   10.4040   -5.1230  -56.6510 H   0  0  0  0  0  0  0  0  0  0  0  0
   10.5597   -3.5118  -58.2060 H   0  0  0  0  0  0  0  0  0  0  0  0
   11.9894   -2.7890  -57.3795 H   0  0  0  0  0  0  0  0  0  0  0  0
   12.2191   -4.4860  -59.4902 H   0  0  0  0  0  0  0  0  0  0  0  0
   13.4384   -4.3990  -58.1722 H   0  0  0  0  0  0  0  0  0  0  0  0
   12.1946   -7.2799  -56.4458 H   0  0  0  0  0  0  0  0  0  0  0  0
   13.7015   -6.3190  -56.7859 H   0  0  0  0  0  0  0  0  0  0  0  0
   11.8226   -5.7383  -54.8088 H   0  0  0  0  0  0  0  0  0  0  0  0
   13.0333   -4.5976  -55.4839 H   0  0  0  0  0  0  0  0  0  0  0  0
    8.3883   -1.0900  -50.7268 H   0  0  0  0  0  0  0  0  0  0  0  0
    7.7881   -2.8080  -49.0205 H   0  0  0  0  0  0  0  0  0  0  0  0
    6.9286   -5.0333  -49.7379 H   0  0  0  0  0  0  0  0  0  0  0  0
    6.6487   -5.5426  -52.1628 H   0  0  0  0  0  0  0  0  0  0  0  0
    7.2473   -3.8303  -53.8753 H   0  0  0  0  0  0  0  0  0  0  0  0
  1  2  1  0
  2  3  1  0
  3  4  1  0
  4  5  2  0
  4  6  1  0
  7  6  1  1
  7  8  1  0
  8  9  1  0
  9 10  1  0
 10 11  1  0
 11 12  1  0
 11 13  1  0
 13 14  1  0
 13 15  1  0
 15 16  1  0
 15 17  1  0
  3 18  2  0
 18 19  1  0
 19 20  1  0
 20 21  1  0
 21 22  1  0
 22 23  1  0
 23 24  1  0
 24 25  1  0
 25 26  1  0
 26 27  1  0
 27 28  1  0
 19 29  1  0
 29 30  1  0
 30 31  2  0
 31 32  1  0
 32 33  2  0
 33 34  1  0
 34 35  2  0
 29  2  2  0
 35 30  1  0
 12  7  1  0
 28 23  1  0
 17  7  1  0
 16  9  1  0
  1 36  1  0
  1 37  1  0
  1 38  1  0
  6 39  1  0
  8 40  1  0
  8 41  1  0
  9 42  1  1
 10 43  1  0
 10 44  1  0
 11 45  1  6
 12 46  1  0
 12 47  1  0
 13 48  1  6
 14 49  1  0
 14 50  1  0
 14 51  1  0
 15 52  1  6
 16 53  1  0
 16 54  1  0
 17 55  1  0
 17 56  1  0
 20 57  1  0
 20 58  1  0
 21 59  1  0
 21 60  1  0
 22 61  1  0
 22 62  1  0
 23 63  1  0
 24 64  1  0
 24 65  1  0
 25 66  1  0
 25 67  1  0
 27 68  1  0
 27 69  1  0
 28 70  1  0
 28 71  1  0
 31 72  1  0
 32 73  1  0
 33 74  1  0
 34 75  1  0
 35 76  1  0
M  CHG  1  23   1
M  END
>  <meeko>  (14) 
{"is_sidechain": false}

$$$$

     RDKit          3D

 63 68  0  0  0  0  0  0  0  0999 V2000
    5.9550    0.3950  -53.5350 C   0  0  0  0  0  0  0  0  0  0  0  0
    7.2150   -0.2030  -54.0490 C   0  0  0  0  0  0  0  0  0  0  0  0
    7.9910    0.2700  -55.1430 C   0  0  0  0  0  0  0  0  0  0  0  0
    7.7310    1.4420  -56.0040 C   0  0  0  0  0  0  0  0  0  0  0  0
    6.6370    1.9940  -56.0700 O   0  0  0  0  0  0  0  0  0  0  0  0
    8.8460    1.8350  -56.7120 N   0  0  0  0  0  0  0  0  0  0  0  0
    8.9300    2.9510  -57.6460 C   0  0  2  0  0  0  0  0  0  0  0  0
    7.8270    2.8700  -58.7320 C   0  0  0  0  0  0  0  0  0  0  0  0
    7.9650    4.0310  -59.7320 C   0  0  1  0  0  0  0  0  0  0  0  0
    7.8490    5.3660  -58.9770 C   0  0  0  0  0  0  0  0  0  0  0  0
    8.9600    5.4760  -57.9190 C   0  0  2  0  0  0  0  0  0  0  0  0
   10.3290    5.3890  -58.6110 C   0  0  0  0  0  0  0  0  0  0  0  0
   10.4550    4.0530  -59.3610 C   0  0  2  0  0  0  0  0  0  0  0  0
    9.3410    3.9530  -60.4130 C   0  0  0  0  0  0  0  0  0  0  0  0
   10.3070    2.8970  -58.3590 C   0  0  0  0  0  0  0  0  0  0  0  0
    8.8220    4.3150  -56.9180 C   0  0  0  0  0  0  0  0  0  0  0  0
    9.0720   -0.5090  -55.3440 N   0  0  0  0  0  0  0  0  0  0  0  0
    8.9940   -1.4640  -54.3880 N   0  0  0  0  0  0  0  0  0  0  0  0
   10.0520   -2.4600  -54.3760 C   0  0  0  0  0  0  0  0  0  0  0  0
   11.2210   -2.1600  -55.3240 C   0  0  0  0  0  0  0  0  0  0  0  0
   11.7250   -3.5320  -55.7500 C   0  0  0  0  0  0  0  0  0  0  0  0
   10.4560   -4.3610  -55.8480 C   0  0  0  0  0  0  0  0  0  0  0  0
    9.6280   -3.9120  -54.6490 C   0  0  0  0  0  0  0  0  0  0  0  0
    7.8840   -1.3270  -53.5810 C   0  0  0  0  0  0  0  0  0  0  0  0
    7.5160   -2.1970  -52.4690 C   0  0  0  0  0  0  0  0  0  0  0  0
    8.0830   -2.0080  -51.2030 C   0  0  0  0  0  0  0  0  0  0  0  0
    7.7530   -2.8610  -50.1480 C   0  0  0  0  0  0  0  0  0  0  0  0
    6.8700   -3.9180  -50.3550 C   0  0  0  0  0  0  0  0  0  0  0  0
    6.3220   -4.1310  -51.6190 C   0  0  0  0  0  0  0  0  0  0  0  0
    6.6510   -3.2780  -52.6750 C   0  0  0  0  0  0  0  0  0  0  0  0
    5.9682    0.3887  -52.4351 H   0  0  0  0  0  0  0  0  0  0  0  0
    5.8673    1.4308  -53.8948 H   0  0  0  0  0  0  0  0  0  0  0  0
    5.0971   -0.1920  -53.8948 H   0  0  0  0  0  0  0  0  0  0  0  0
    9.6660    1.2590  -56.5290 H   0  0  0  0  0  0  0  0  0  0  0  0
    7.9199    1.9157  -59.2711 H   0  0  0  0  0  0  0  0  0  0  0  0
    6.8434    2.9374  -58.2441 H   0  0  0  0  0  0  0  0  0  0  0  0
    7.1714    3.9630  -60.4907 H   0  0  0  0  0  0  0  0  0  0  0  0
    7.9440    6.1970  -59.6915 H   0  0  0  0  0  0  0  0  0  0  0  0
    6.8706    5.4114  -58.4762 H   0  0  0  0  0  0  0  0  0  0  0  0
    8.8740    6.4357  -57.3884 H   0  0  0  0  0  0  0  0  0  0  0  0
   10.4292    6.2190  -59.3259 H   0  0  0  0  0  0  0  0  0  0  0  0
   11.1222    5.4530  -57.8516 H   0  0  0  0  0  0  0  0  0  0  0  0
   11.4364    3.9968  -59.8547 H   0  0  0  0  0  0  0  0  0  0  0  0
    9.4406    4.7823  -61.1287 H   0  0  0  0  0  0  0  0  0  0  0  0
    9.4284    2.9918  -60.9406 H   0  0  0  0  0  0  0  0  0  0  0  0
   10.3963    1.9415  -58.8966 H   0  0  0  0  0  0  0  0  0  0  0  0
   11.0980    2.9880  -57.6001 H   0  0  0  0  0  0  0  0  0  0  0  0
    9.6223    4.3882  -56.1669 H   0  0  0  0  0  0  0  0  0  0  0  0
    7.8372    4.3807  -56.4324 H   0  0  0  0  0  0  0  0  0  0  0  0
   10.3686   -2.3767  -53.3258 H   0  0  0  0  0  0  0  0  0  0  0  0
   10.8772   -1.5838  -56.1956 H   0  0  0  0  0  0  0  0  0  0  0  0
   12.0051   -1.5557  -54.8445 H   0  0  0  0  0  0  0  0  0  0  0  0
   12.2359   -3.4786  -56.7227 H   0  0  0  0  0  0  0  0  0  0  0  0
   12.4601   -3.9550  -55.0495 H   0  0  0  0  0  0  0  0  0  0  0  0
    9.9254   -4.1539  -56.7891 H   0  0  0  0  0  0  0  0  0  0  0  0
   10.6557   -5.4427  -55.8431 H   0  0  0  0  0  0  0  0  0  0  0  0
    8.5544   -3.9611  -54.8834 H   0  0  0  0  0  0  0  0  0  0  0  0
    9.7953   -4.5569  -53.7737 H   0  0  0  0  0  0  0  0  0  0  0  0
    8.7921   -1.1833  -51.0386 H   0  0  0  0  0  0  0  0  0  0  0  0
    8.1909   -2.6980  -49.1522 H   0  0  0  0  0  0  0  0  0  0  0  0
    6.6050   -4.5847  -49.5212 H   0  0  0  0  0  0  0  0  0  0  0  0
    5.6308   -4.9705  -51.7847 H   0  0  0  0  0  0  0  0  0  0  0  0
    6.2278   -3.4568  -53.6745 H   0  0  0  0  0  0  0  0  0  0  0  0
  1  2  1  0
  2  3  1  0
  3  4  1  0
  4  5  2  0
  4  6  1  0
  7  6  1  1
  7  8  1  0
  8  9  1  0
  9 10  1  0
 10 11  1  0
 11 12  1  0
 12 13  1  0
 13 14  1  0
 13 15  1  0
 11 16  1  0
  3 17  2  0
 17 18  1  0
 18 19  1  0
 19 20  1  0
 20 21  1  0
 21 22  1  0
 22 23  1  0
 18 24  1  0
 24 25  1  0
 25 26  2  0
 26 27  1  0
 27 28  2  0
 28 29  1  0
 29 30  2  0
 24  2  2  0
 30 25  1  0
 15  7  1  0
 23 19  1  0
 16  7  1  0
 14  9  1  0
  1 31  1  0
  1 32  1  0
  1 33  1  0
  6 34  1  0
  8 35  1  0
  8 36  1  0
  9 37  1  6
 10 38  1  0
 10 39  1  0
 11 40  1  1
 12 41  1  0
 12 42  1  0
 13 43  1  6
 14 44  1  0
 14 45  1  0
 15 46  1  0
 15 47  1  0
 16 48  1  0
 16 49  1  0
 19 50  1  0
 20 51  1  0
 20 52  1  0
 21 53  1  0
 21 54  1  0
 22 55  1  0
 22 56  1  0
 23 57  1  0
 23 58  1  0
 26 59  1  0
 27 60  1  0
 28 61  1  0
 29 62  1  0
 30 63  1  0
M  END
>  <meeko>  (15) 
{"is_sidechain": false}

$$$$

     RDKit          3D

 49 53  0  0  0  0  0  0  0  0999 V2000
    5.9270    2.4470  -56.6960 O   0  0  0  0  0  0  0  0  0  0  0  0
    6.8850    1.7380  -56.4090 C   0  0  0  0  0  0  0  0  0  0  0  0
    8.1560    1.9090  -56.9210 N   0  0  0  0  0  0  0  0  0  0  0  0
    8.5710    3.0160  -57.7820 C   0  0  2  0  0  0  0  0  0  0  0  0
   10.0060    2.7200  -58.2990 C   0  0  0  0  0  0  0  0  0  0  0  0
   10.5110    3.8520  -59.2070 C   0  0  1  0  0  0  0  0  0  0  0  0
    9.5660    3.9910  -60.4110 C   0  0  0  0  0  0  0  0  0  0  0  0
    8.1430    4.3090  -59.9270 C   0  0  2  0  0  0  0  0  0  0  0  0
    8.1620    5.6230  -59.1260 C   0  0  0  0  0  0  0  0  0  0  0  0
    9.1050    5.4940  -57.9180 C   0  0  2  0  0  0  0  0  0  0  0  0
   10.5230    5.1680  -58.4140 C   0  0  0  0  0  0  0  0  0  0  0  0
    8.6100    4.3560  -57.0070 C   0  0  0  0  0  0  0  0  0  0  0  0
    7.6470    3.1710  -59.0180 C   0  0  0  0  0  0  0  0  0  0  0  0
    6.8730    0.5900  -55.4640 C   0  0  0  0  0  0  0  0  0  0  0  0
    7.9070   -0.0700  -54.9310 C   0  0  0  0  0  0  0  0  0  0  0  0
    7.0840   -0.8080  -54.2340 N   0  0  0  0  0  0  0  0  0  0  0  0
    7.1940   -2.2680  -54.1060 C   0  0  0  0  0  0  0  0  0  0  0  0
    7.2610   -2.7700  -52.6780 C   0  0  0  0  0  0  0  0  0  0  0  0
    7.9860   -2.0650  -51.7060 C   0  0  0  0  0  0  0  0  0  0  0  0
    8.0500   -2.5330  -50.3920 C   0  0  0  0  0  0  0  0  0  0  0  0
    7.3940   -3.7090  -50.0360 C   0  0  0  0  0  0  0  0  0  0  0  0
    6.6760   -4.4240  -50.9940 C   0  0  0  0  0  0  0  0  0  0  0  0
    6.6110   -3.9590  -52.3080 C   0  0  0  0  0  0  0  0  0  0  0  0
    6.0130   -0.2190  -54.9040 N   0  0  0  0  0  0  0  0  0  0  0  0
    8.8790    1.3810  -56.4480 H   0  0  0  0  0  0  0  0  0  0  0  0
   10.6843    2.6197  -57.4388 H   0  0  0  0  0  0  0  0  0  0  0  0
    9.9818    1.7881  -58.8829 H   0  0  0  0  0  0  0  0  0  0  0  0
   11.5279    3.6236  -59.5587 H   0  0  0  0  0  0  0  0  0  0  0  0
    9.9205    4.8050  -61.0604 H   0  0  0  0  0  0  0  0  0  0  0  0
    9.5540    3.0450  -60.9721 H   0  0  0  0  0  0  0  0  0  0  0  0
    7.4726    4.4100  -60.7932 H   0  0  0  0  0  0  0  0  0  0  0  0
    8.5121    6.4393  -59.7749 H   0  0  0  0  0  0  0  0  0  0  0  0
    7.1452    5.8394  -58.7665 H   0  0  0  0  0  0  0  0  0  0  0  0
    9.1184    6.4391  -57.3553 H   0  0  0  0  0  0  0  0  0  0  0  0
   10.8781    5.9817  -59.0634 H   0  0  0  0  0  0  0  0  0  0  0  0
   11.1937    5.0627  -57.5485 H   0  0  0  0  0  0  0  0  0  0  0  0
    9.2910    4.2577  -56.1488 H   0  0  0  0  0  0  0  0  0  0  0  0
    7.5938    4.5953  -56.6606 H   0  0  0  0  0  0  0  0  0  0  0  0
    6.6255    3.3984  -58.6792 H   0  0  0  0  0  0  0  0  0  0  0  0
    7.6587    2.2309  -59.5891 H   0  0  0  0  0  0  0  0  0  0  0  0
    9.0006   -0.0144  -55.0361 H   0  0  0  0  0  0  0  0  0  0  0  0
    6.3164   -2.7224  -54.5891 H   0  0  0  0  0  0  0  0  0  0  0  0
    8.1433   -2.5533  -54.5829 H   0  0  0  0  0  0  0  0  0  0  0  0
    8.5080   -1.1366  -51.9809 H   0  0  0  0  0  0  0  0  0  0  0  0
    8.6196   -1.9719  -49.6365 H   0  0  0  0  0  0  0  0  0  0  0  0
    7.4423   -4.0737  -48.9993 H   0  0  0  0  0  0  0  0  0  0  0  0
    6.1608   -5.3546  -50.7138 H   0  0  0  0  0  0  0  0  0  0  0  0
    6.0459   -4.5284  -53.0606 H   0  0  0  0  0  0  0  0  0  0  0  0
    5.2960    0.1770  -54.2910 H   0  0  0  0  0  0  0  0  0  0  0  0
  1  2  2  0
  2  3  1  0
  4  3  1  1
  4  5  1  0
  5  6  1  0
  6  7  1  0
  7  8  1  0
  8  9  1  0
  9 10  1  0
 10 11  1  0
 10 12  1  0
  8 13  1  0
  2 14  1  0
 14 15  2  0
 15 16  1  0
 16 17  1  0
 17 18  1  0
 18 19  2  0
 19 20  1  0
 20 21  2  0
 21 22  1  0
 22 23  2  0
 16 24  1  0
 12  4  1  0
 24 14  1  0
 13  4  1  0
 23 18  1  0
 11  6  1  0
  3 25  1  0
  5 26  1  0
  5 27  1  0
  6 28  1  6
  7 29  1  0
  7 30  1  0
  8 31  1  6
  9 32  1  0
  9 33  1  0
 10 34  1  1
 11 35  1  0
 11 36  1  0
 12 37  1  0
 12 38  1  0
 13 39  1  0
 13 40  1  0
 15 41  1  0
 17 42  1  0
 17 43  1  0
 19 44  1  0
 20 45  1  0
 21 46  1  0
 22 47  1  0
 23 48  1  0
 24 49  1  0
M  END
>  <meeko>  (16) 
{"is_sidechain": false}

$$$$

     RDKit          3D

 60 65  0  0  0  0  0  0  0  0999 V2000
   11.1410    1.3790  -56.8420 O   0  0  0  0  0  0  0  0  0  0  0  0
   10.2780    2.2250  -57.0370 C   0  0  0  0  0  0  0  0  0  0  0  0
   10.4820    3.5760  -57.1040 N   0  0  0  0  0  0  0  0  0  0  0  0
   11.7340    4.2830  -57.2870 C   0  0  2  0  0  0  0  0  0  0  0  0
   11.3920    5.6920  -57.8070 C   0  0  0  0  0  0  0  0  0  0  0  0
   10.9420    5.6990  -59.2890 C   0  0  2  0  0  0  0  0  0  0  0  0
    9.6190    4.9370  -59.5370 C   0  0  0  0  0  0  0  0  0  0  0  0
    9.7520    3.5270  -60.1610 C   0  0  2  0  0  0  0  0  0  0  0  0
    8.5550    2.5850  -59.9110 C   0  0  0  0  0  0  0  0  0  0  0  0
    8.1340    2.1420  -58.5260 C   0  0  0  0  0  0  0  0  0  0  0  0
    8.8700    1.9190  -57.3100 C   0  0  0  0  0  0  0  0  0  0  0  0
    8.0800    1.4680  -56.3220 N   0  0  0  0  0  0  0  0  0  0  0  0
    6.8640    1.3550  -56.8860 N   0  0  0  0  0  0  0  0  0  0  0  0
    5.7670    0.8110  -56.0890 C   0  0  0  0  0  0  0  0  0  0  0  0
    6.2630    0.0420  -54.8870 C   0  0  0  0  0  0  0  0  0  0  0  0
    6.5190    0.7010  -53.6730 C   0  0  0  0  0  0  0  0  0  0  0  0
    6.9770   -0.0110  -52.5620 C   0  0  0  0  0  0  0  0  0  0  0  0
    7.1850   -1.3840  -52.6580 C   0  0  0  0  0  0  0  0  0  0  0  0
    7.7440   -2.2620  -51.2870 Cl  0  0  0  0  0  0  0  0  0  0  0  0
    6.9440   -2.0530  -53.8550 C   0  0  0  0  0  0  0  0  0  0  0  0
    6.4870   -1.3410  -54.9680 C   0  0  0  0  0  0  0  0  0  0  0  0
    6.8340    1.7510  -58.2010 C   0  0  0  0  0  0  0  0  0  0  0  0
    5.6350    1.7130  -59.0320 C   0  0  0  0  0  0  0  0  0  0  0  0
    5.5420    0.8060  -60.0920 C   0  0  0  0  0  0  0  0  0  0  0  0
    4.3920    0.7690  -60.8830 C   0  0  0  0  0  0  0  0  0  0  0  0
    3.3350    1.6400  -60.6200 C   0  0  0  0  0  0  0  0  0  0  0  0
    3.4280    2.5520  -59.5700 C   0  0  0  0  0  0  0  0  0  0  0  0
    4.5770    2.5920  -58.7790 C   0  0  0  0  0  0  0  0  0  0  0  0
   11.1120    2.8040  -60.0720 C   0  0  0  0  0  0  0  0  0  0  0  0
   12.3240    3.6850  -59.7430 C   0  0  1  0  0  0  0  0  0  0  0  0
   12.0660    5.1330  -60.1540 C   0  0  0  0  0  0  0  0  0  0  0  0
   12.7250    3.6130  -58.2540 C   0  0  0  0  0  0  0  0  0  0  0  0
    9.6590    4.1290  -56.9010 H   0  0  0  0  0  0  0  0  0  0  0  0
   12.2458    4.2930  -56.3134 H   0  0  0  0  0  0  0  0  0  0  0  0
   10.5786    6.1044  -57.1920 H   0  0  0  0  0  0  0  0  0  0  0  0
   12.3073    6.2983  -57.7388 H   0  0  0  0  0  0  0  0  0  0  0  0
   10.7359    6.7434  -59.5659 H   0  0  0  0  0  0  0  0  0  0  0  0
    9.1067    4.8294  -58.5695 H   0  0  0  0  0  0  0  0  0  0  0  0
    9.0670    5.5363  -60.2760 H   0  0  0  0  0  0  0  0  0  0  0  0
    9.7177    3.8130  -61.2226 H   0  0  0  0  0  0  0  0  0  0  0  0
    7.6786    3.0845  -60.3497 H   0  0  0  0  0  0  0  0  0  0  0  0
    8.9208    1.6421  -60.3437 H   0  0  0  0  0  0  0  0  0  0  0  0
    5.1350    1.6418  -55.7421 H   0  0  0  0  0  0  0  0  0  0  0  0
    5.1996    0.1155  -56.7248 H   0  0  0  0  0  0  0  0  0  0  0  0
    6.3575    1.7864  -53.5968 H   0  0  0  0  0  0  0  0  0  0  0  0
    7.1727    0.5117  -51.6141 H   0  0  0  0  0  0  0  0  0  0  0  0
    7.1125   -3.1378  -53.9247 H   0  0  0  0  0  0  0  0  0  0  0  0
    6.3015   -1.8691  -55.9149 H   0  0  0  0  0  0  0  0  0  0  0  0
    6.3760    0.1206  -60.3031 H   0  0  0  0  0  0  0  0  0  0  0  0
    4.3196    0.0523  -61.7143 H   0  0  0  0  0  0  0  0  0  0  0  0
    2.4278    1.6073  -61.2413 H   0  0  0  0  0  0  0  0  0  0  0  0
    2.5952    3.2406  -59.3647 H   0  0  0  0  0  0  0  0  0  0  0  0
    4.6507    3.3165  -57.9546 H   0  0  0  0  0  0  0  0  0  0  0  0
   11.0332    2.0348  -59.2896 H   0  0  0  0  0  0  0  0  0  0  0  0
   11.3012    2.4051  -61.0795 H   0  0  0  0  0  0  0  0  0  0  0  0
   13.1696    3.2893  -60.3246 H   0  0  0  0  0  0  0  0  0  0  0  0
   12.9800    5.7271  -60.0072 H   0  0  0  0  0  0  0  0  0  0  0  0
   11.7772    5.1739  -61.2146 H   0  0  0  0  0  0  0  0  0  0  0  0
   12.8130    2.5529  -57.9740 H   0  0  0  0  0  0  0  0  0  0  0  0
   13.6713    4.1660  -58.1606 H   0  0  0  0  0  0  0  0  0  0  0  0
  1  2  2  0
  2  3  1  0
  3  4  1  0
  4  5  1  0
  5  6  1  0
  6  7  1  0
  7  8  1  0
  8  9  1  0
  9 10  1  0
 10 11  1  0
 11 12  2  0
 12 13  1  0
 13 14  1  0
 14 15  1  0
 15 16  1  0
 16 17  2  0
 17 18  1  0
 18 19  1  0
 18 20  2  0
 20 21  1  0
 13 22  1  0
 22 23  1  0
 23 24  2  0
 24 25  1  0
 25 26  2  0
 26 27  1  0
 27 28  2  0
  8 29  1  0
 29 30  1  0
 30 31  1  0
 30 32  1  0
 11  2  1  0
 21 15  2  0
 28 23  1  0
 32  4  1  0
 31  6  1  0
 22 10  2  0
  3 33  1  0
  4 34  1  1
  5 35  1  0
  5 36  1  0
  6 37  1  6
  7 38  1  0
  7 39  1  0
  8 40  1  6
  9 41  1  0
  9 42  1  0
 14 43  1  0
 14 44  1  0
 16 45  1  0
 17 46  1  0
 20 47  1  0
 21 48  1  0
 24 49  1  0
 25 50  1  0
 26 51  1  0
 27 52  1  0
 28 53  1  0
 29 54  1  0
 29 55  1  0
 30 56  1  6
 31 57  1  0
 31 58  1  0
 32 59  1  0
 32 60  1  0
M  END
>  <meeko>  (17) 
{"is_sidechain": false}

$$$$

     RDKit          3D

 57 58  0  0  0  0  0  0  0  0999 V2000
    6.5760    0.0680  -53.2860 C   0  0  0  0  0  0  0  0  0  0  0  0
    7.8250   -0.5340  -53.8250 C   0  0  0  0  0  0  0  0  0  0  0  0
    8.6740   -0.0310  -54.8620 C   0  0  0  0  0  0  0  0  0  0  0  0
    8.5150    1.1670  -55.7010 C   0  0  0  0  0  0  0  0  0  0  0  0
    7.4400    1.5450  -56.1690 O   0  0  0  0  0  0  0  0  0  0  0  0
    9.6690    1.9130  -55.9120 N   0  0  0  0  0  0  0  0  0  0  0  0
    9.5540    3.2570  -56.4490 C   0  0  0  0  0  0  0  0  0  0  0  0
   10.1540    3.4220  -57.8650 C   0  0  0  0  0  0  0  0  0  0  0  0
   11.1460    4.5660  -57.9900 N   0  0  0  0  0  0  0  0  0  0  0  0
   11.0400    5.3420  -59.2660 C   0  0  0  0  0  0  0  0  0  0  0  0
   12.5650    4.1570  -57.6750 C   0  0  0  0  0  0  0  0  0  0  0  0
    9.7400   -0.8270  -55.0330 N   0  0  0  0  0  0  0  0  0  0  0  0
    9.5740   -1.8290  -54.1520 N   0  0  0  0  0  0  0  0  0  0  0  0
   10.5750   -2.8830  -54.1000 C   0  0  0  0  0  0  0  0  0  0  0  0
   10.2990   -4.0590  -55.0410 C   0  0  0  0  0  0  0  0  0  0  0  0
   11.4890   -4.3910  -55.9470 C   0  0  0  0  0  0  0  0  0  0  0  0
   11.4680   -3.6320  -57.2790 C   0  0  0  0  0  0  0  0  0  0  0  0
   11.8000   -4.4800  -58.5020 C   0  0  0  0  0  0  0  0  0  0  0  0
   12.9610   -5.2580  -58.2510 O   0  0  0  0  0  0  0  0  0  0  0  0
    8.4380   -1.7010  -53.3910 C   0  0  0  0  0  0  0  0  0  0  0  0
    8.0280   -2.6400  -52.3520 C   0  0  0  0  0  0  0  0  0  0  0  0
    7.0710   -3.6240  -52.6240 C   0  0  0  0  0  0  0  0  0  0  0  0
    6.6860   -4.5240  -51.6290 C   0  0  0  0  0  0  0  0  0  0  0  0
    7.2580   -4.4480  -50.3600 C   0  0  0  0  0  0  0  0  0  0  0  0
    8.2200   -3.4760  -50.0850 C   0  0  0  0  0  0  0  0  0  0  0  0
    8.6060   -2.5750  -51.0790 C   0  0  0  0  0  0  0  0  0  0  0  0
    6.6066    0.0532  -52.1865 H   0  0  0  0  0  0  0  0  0  0  0  0
    6.4888    1.1070  -53.6365 H   0  0  0  0  0  0  0  0  0  0  0  0
    5.7089   -0.5111  -53.6365 H   0  0  0  0  0  0  0  0  0  0  0  0
   10.4280    1.7190  -55.2660 H   0  0  0  0  0  0  0  0  0  0  0  0
    8.4873    3.5221  -56.4922 H   0  0  0  0  0  0  0  0  0  0  0  0
   10.1276    3.9167  -55.7814 H   0  0  0  0  0  0  0  0  0  0  0  0
   10.6690    2.4876  -58.1328 H   0  0  0  0  0  0  0  0  0  0  0  0
    9.3162    3.6541  -58.5390 H   0  0  0  0  0  0  0  0  0  0  0  0
   10.8940    5.2180  -57.2350 H   0  0  0  0  0  0  0  0  0  0  0  0
   10.8944    6.4078  -59.0360 H   0  0  0  0  0  0  0  0  0  0  0  0
   11.9637    5.2157  -59.8498 H   0  0  0  0  0  0  0  0  0  0  0  0
   10.1840    4.9726  -59.8498 H   0  0  0  0  0  0  0  0  0  0  0  0
   12.7017    4.1176  -56.5842 H   0  0  0  0  0  0  0  0  0  0  0  0
   12.7648    3.1647  -58.1056 H   0  0  0  0  0  0  0  0  0  0  0  0
   13.2623    4.8907  -58.1056 H   0  0  0  0  0  0  0  0  0  0  0  0
   11.5486   -2.4474  -54.3689 H   0  0  0  0  0  0  0  0  0  0  0  0
   10.5559   -3.2863  -53.0768 H   0  0  0  0  0  0  0  0  0  0  0  0
   10.0619   -4.9455  -54.4344 H   0  0  0  0  0  0  0  0  0  0  0  0
    9.4599   -3.7709  -55.6913 H   0  0  0  0  0  0  0  0  0  0  0  0
   12.4161   -4.1343  -55.4136 H   0  0  0  0  0  0  0  0  0  0  0  0
   11.4295   -5.4638  -56.1826 H   0  0  0  0  0  0  0  0  0  0  0  0
   10.4613   -3.2109  -57.4173 H   0  0  0  0  0  0  0  0  0  0  0  0
   12.2532   -2.8646  -57.2112 H   0  0  0  0  0  0  0  0  0  0  0  0
   10.9544   -5.1479  -58.7230 H   0  0  0  0  0  0  0  0  0  0  0  0
   11.9864   -3.8187  -59.3610 H   0  0  0  0  0  0  0  0  0  0  0  0
   12.8820   -6.0710  -58.7800 H   0  0  0  0  0  0  0  0  0  0  0  0
    6.6205   -3.6885  -53.6255 H   0  0  0  0  0  0  0  0  0  0  0  0
    5.9308   -5.2937  -51.8463 H   0  0  0  0  0  0  0  0  0  0  0  0
    6.9506   -5.1548  -49.5752 H   0  0  0  0  0  0  0  0  0  0  0  0
    8.6745   -3.4195  -49.0849 H   0  0  0  0  0  0  0  0  0  0  0  0
    9.3671   -1.8113  -50.8610 H   0  0  0  0  0  0  0  0  0  0  0  0
  1  2  1  0
  2  3  1  0
  3  4  1  0
  4  5  2  0
  4  6  1  0
  6  7  1  0
  7  8  1  0
  8  9  1  0
  9 10  1  0
  9 11  1  0
  3 12  2  0
 12 13  1  0
 13 14  1  0
 14 15  1  0
 15 16  1  0
 16 17  1  0
 17 18  1  0
 18 19  1  0
 13 20  1  0
 20 21  1  0
 21 22  2  0
 22 23  1  0
 23 24  2  0
 24 25  1  0
 25 26  2  0
 20  2  2  0
 26 21  1  0
  1 27  1  0
  1 28  1  0
  1 29  1  0
  6 30  1  0
  7 31  1  0
  7 32  1  0
  8 33  1  0
  8 34  1  0
  9 35  1  0
 10 36  1  0
 10 37  1  0
 10 38  1  0
 11 39  1  0
 11 40  1  0
 11 41  1  0
 14 42  1  0
 14 43  1  0
 15 44  1  0
 15 45  1  0
 16 46  1  0
 16 47  1  0
 17 48  1  0
 17 49  1  0
 18 50  1  0
 18 51  1  0
 19 52  1  0
 22 53  1  0
 23 54  1  0
 24 55  1  0
 25 56  1  0
 26 57  1  0
M  CHG  1   9   1
M  END
>  <meeko>  (18) 
{"is_sidechain": false}

$$$$

     RDKit          3D

 50 53  0  0  0  0  0  0  0  0999 V2000
    5.2270   -4.3810  -50.4470 C   0  0  0  0  0  0  0  0  0  0  0  0
    6.4120   -4.3980  -51.2330 O   0  0  0  0  0  0  0  0  0  0  0  0
    7.6060   -4.4530  -50.4480 C   0  0  0  0  0  0  0  0  0  0  0  0
    8.3760   -3.1380  -50.5490 C   0  0  0  0  0  0  0  0  0  0  0  0
    9.1160   -2.9890  -51.8750 C   0  0  0  0  0  0  0  0  0  0  0  0
    8.6900   -1.8400  -52.6540 N   0  0  0  0  0  0  0  0  0  0  0  0
    7.6190   -1.1410  -52.2150 N   0  0  0  0  0  0  0  0  0  0  0  0
    7.4730   -0.1750  -53.1180 C   0  0  0  0  0  0  0  0  0  0  0  0
    8.4290   -0.2580  -54.1410 C   0  0  0  0  0  0  0  0  0  0  0  0
    9.2150   -1.3590  -53.8350 C   0  0  0  0  0  0  0  0  0  0  0  0
   10.3520   -1.9310  -54.5300 C   0  0  0  0  0  0  0  0  0  0  0  0
   11.4980   -1.5260  -54.3770 O   0  0  0  0  0  0  0  0  0  0  0  0
   10.0410   -2.9840  -55.3620 N   0  0  0  0  0  0  0  0  0  0  0  0
   11.0200   -3.7840  -56.1080 C   0  0  2  0  0  0  0  0  0  0  0  0
   10.2540   -4.8860  -56.8910 C   0  0  0  0  0  0  0  0  0  0  0  0
   11.2220   -5.7700  -57.6920 C   0  0  1  0  0  0  0  0  0  0  0  0
   11.9950   -4.8950  -58.6900 C   0  0  0  0  0  0  0  0  0  0  0  0
   12.7820   -3.8110  -57.9370 C   0  0  2  0  0  0  0  0  0  0  0  0
   13.7670   -4.4820  -56.9650 C   0  0  0  0  0  0  0  0  0  0  0  0
   13.0040   -5.3610  -55.9600 C   0  0  2  0  0  0  0  0  0  0  0  0
   12.2140   -6.4360  -56.7250 C   0  0  0  0  0  0  0  0  0  0  0  0
   12.0250   -4.4840  -55.1600 C   0  0  0  0  0  0  0  0  0  0  0  0
   11.8020   -2.9320  -57.1390 C   0  0  0  0  0  0  0  0  0  0  0  0
    5.4946   -4.3848  -49.3801 H   0  0  0  0  0  0  0  0  0  0  0  0
    4.6478   -3.4745  -50.6765 H   0  0  0  0  0  0  0  0  0  0  0  0
    4.6220   -5.2706  -50.6765 H   0  0  0  0  0  0  0  0  0  0  0  0
    7.3394   -4.6361  -49.3966 H   0  0  0  0  0  0  0  0  0  0  0  0
    8.2422   -5.2667  -50.8262 H   0  0  0  0  0  0  0  0  0  0  0  0
    7.6647   -2.3051  -50.4475 H   0  0  0  0  0  0  0  0  0  0  0  0
    9.1281   -3.1310  -49.7463 H   0  0  0  0  0  0  0  0  0  0  0  0
   10.1906   -2.8864  -51.6636 H   0  0  0  0  0  0  0  0  0  0  0  0
    8.8900   -3.8846  -52.4723 H   0  0  0  0  0  0  0  0  0  0  0  0
    6.6930    0.5990  -53.0681 H   0  0  0  0  0  0  0  0  0  0  0  0
    8.5337    0.4119  -55.0072 H   0  0  0  0  0  0  0  0  0  0  0  0
    9.1090   -3.3640  -55.2890 H   0  0  0  0  0  0  0  0  0  0  0  0
    9.7003   -5.5143  -56.1778 H   0  0  0  0  0  0  0  0  0  0  0  0
    9.5630   -4.3983  -57.5944 H   0  0  0  0  0  0  0  0  0  0  0  0
   10.6590   -6.5429  -58.2357 H   0  0  0  0  0  0  0  0  0  0  0  0
   12.6948   -5.5237  -59.2602 H   0  0  0  0  0  0  0  0  0  0  0  0
   11.2827   -4.4137  -59.3763 H   0  0  0  0  0  0  0  0  0  0  0  0
   13.3355   -3.1894  -58.6562 H   0  0  0  0  0  0  0  0  0  0  0  0
   14.4704   -5.1074  -57.5343 H   0  0  0  0  0  0  0  0  0  0  0  0
   14.3170   -3.7033  -56.4163 H   0  0  0  0  0  0  0  0  0  0  0  0
   13.7156   -5.8426  -55.2732 H   0  0  0  0  0  0  0  0  0  0  0  0
   12.9131   -7.0647  -57.2960 H   0  0  0  0  0  0  0  0  0  0  0  0
   11.6574   -7.0554  -56.0063 H   0  0  0  0  0  0  0  0  0  0  0  0
   11.4718   -5.1157  -54.4494 H   0  0  0  0  0  0  0  0  0  0  0  0
   12.5975   -3.7153  -54.6203 H   0  0  0  0  0  0  0  0  0  0  0  0
   12.3666   -2.1511  -56.6085 H   0  0  0  0  0  0  0  0  0  0  0  0
   11.0856   -2.4756  -57.8379 H   0  0  0  0  0  0  0  0  0  0  0  0
  1  2  1  0
  2  3  1  0
  3  4  1  0
  4  5  1  0
  5  6  1  0
  6  7  1  0
  7  8  2  0
  8  9  1  0
  9 10  2  0
 10 11  1  0
 11 12  2  0
 11 13  1  0
 14 13  1  1
 14 15  1  0
 15 16  1  0
 16 17  1  0
 17 18  1  0
 18 19  1  0
 19 20  1  0
 20 21  1  0
 20 22  1  0
 18 23  1  0
 10  6  1  0
 22 14  1  0
 23 14  1  0
 21 16  1  0
  1 24  1  0
  1 25  1  0
  1 26  1  0
  3 27  1  0
  3 28  1  0
  4 29  1  0
  4 30  1  0
  5 31  1  0
  5 32  1  0
  8 33  1  0
  9 34  1  0
 13 35  1  0
 15 36  1  0
 15 37  1  0
 16 38  1  6
 17 39  1  0
 17 40  1  0
 18 41  1  6
 19 42  1  0
 19 43  1  0
 20 44  1  1
 21 45  1  0
 21 46  1  0
 22 47  1  0
 22 48  1  0
 23 49  1  0
 23 50  1  0
M  END
>  <meeko>  (19) 
{"is_sidechain": false}

$$$$

     RDKit          3D

 47 51  0  0  0  0  0  0  0  0999 V2000
    7.8890    1.7580  -56.1030 O   0  0  0  0  0  0  0  0  0  0  0  0
    9.0030    1.2470  -56.1680 C   0  0  0  0  0  0  0  0  0  0  0  0
   10.0160    1.7490  -56.9710 N   0  0  0  0  0  0  0  0  0  0  0  0
    9.8700    2.8960  -57.8740 C   0  0  2  0  0  0  0  0  0  0  0  0
    9.5490    4.2030  -57.1060 C   0  0  0  0  0  0  0  0  0  0  0  0
    9.4570    5.3940  -58.0780 C   0  0  1  0  0  0  0  0  0  0  0  0
   10.8030    5.5660  -58.8000 C   0  0  0  0  0  0  0  0  0  0  0  0
   11.1410    4.2910  -59.5870 C   0  0  2  0  0  0  0  0  0  0  0  0
   10.0370    4.0230  -60.6200 C   0  0  0  0  0  0  0  0  0  0  0  0
    8.6860    3.8410  -59.9100 C   0  0  2  0  0  0  0  0  0  0  0  0
    8.3560    5.1160  -59.1150 C   0  0  0  0  0  0  0  0  0  0  0  0
    8.7760    2.6490  -58.9410 C   0  0  0  0  0  0  0  0  0  0  0  0
   11.2210    3.1050  -58.6130 C   0  0  0  0  0  0  0  0  0  0  0  0
    9.3680    0.0300  -55.4060 C   0  0  0  0  0  0  0  0  0  0  0  0
   10.5730   -0.7160  -55.4490 C   0  0  0  0  0  0  0  0  0  0  0  0
   10.4030   -1.7410  -54.5500 C   0  0  0  0  0  0  0  0  0  0  0  0
    9.1510   -1.5970  -53.9990 N   0  0  0  0  0  0  0  0  0  0  0  0
    8.5020   -2.3940  -53.0170 C   0  0  0  0  0  0  0  0  0  0  0  0
    9.1300   -2.5930  -51.7730 C   0  0  0  0  0  0  0  0  0  0  0  0
    8.5170   -3.3720  -50.7880 C   0  0  0  0  0  0  0  0  0  0  0  0
    7.2810   -3.9510  -51.0430 C   0  0  0  0  0  0  0  0  0  0  0  0
    6.6940   -4.6980  -50.0990 F   0  0  0  0  0  0  0  0  0  0  0  0
    6.6460   -3.7670  -52.2620 C   0  0  0  0  0  0  0  0  0  0  0  0
    7.2570   -2.9900  -53.2450 C   0  0  0  0  0  0  0  0  0  0  0  0
    6.5980   -2.8430  -54.4010 F   0  0  0  0  0  0  0  0  0  0  0  0
    8.5170   -0.5190  -54.5220 N   0  0  0  0  0  0  0  0  0  0  0  0
   10.8200    1.1570  -57.1150 H   0  0  0  0  0  0  0  0  0  0  0  0
    8.5882    4.0882  -56.5828 H   0  0  0  0  0  0  0  0  0  0  0  0
   10.3551    4.3967  -56.3830 H   0  0  0  0  0  0  0  0  0  0  0  0
    9.2180    6.3111  -57.5195 H   0  0  0  0  0  0  0  0  0  0  0  0
   10.7383    6.4168  -59.4943 H   0  0  0  0  0  0  0  0  0  0  0  0
   11.5917    5.7521  -58.0561 H   0  0  0  0  0  0  0  0  0  0  0  0
   12.1050    4.4173  -60.1015 H   0  0  0  0  0  0  0  0  0  0  0  0
    9.9724    4.8745  -61.3134 H   0  0  0  0  0  0  0  0  0  0  0  0
   10.2786    3.1058  -61.1772 H   0  0  0  0  0  0  0  0  0  0  0  0
    7.8990    3.6531  -60.6552 H   0  0  0  0  0  0  0  0  0  0  0  0
    8.2852    5.9679  -59.8073 H   0  0  0  0  0  0  0  0  0  0  0  0
    7.3979    4.9761  -58.5931 H   0  0  0  0  0  0  0  0  0  0  0  0
    7.8057    2.5162  -58.4400 H   0  0  0  0  0  0  0  0  0  0  0  0
    9.0356    1.7458  -59.5128 H   0  0  0  0  0  0  0  0  0  0  0  0
   11.4670    2.1930  -59.1768 H   0  0  0  0  0  0  0  0  0  0  0  0
   11.9989    3.3188  -57.8652 H   0  0  0  0  0  0  0  0  0  0  0  0
   11.4578   -0.5162  -56.0712 H   0  0  0  0  0  0  0  0  0  0  0  0
   11.1325   -2.5300  -54.3147 H   0  0  0  0  0  0  0  0  0  0  0  0
   10.1092   -2.1325  -51.5750 H   0  0  0  0  0  0  0  0  0  0  0  0
    9.0104   -3.5255  -49.8169 H   0  0  0  0  0  0  0  0  0  0  0  0
    5.6669   -4.2310  -52.4520 H   0  0  0  0  0  0  0  0  0  0  0  0
  1  2  2  0
  2  3  1  0
  4  3  1  1
  4  5  1  0
  5  6  1  0
  6  7  1  0
  7  8  1  0
  8  9  1  0
  9 10  1  0
 10 11  1  0
 10 12  1  0
  8 13  1  0
  2 14  1  0
 14 15  1  0
 15 16  2  0
 16 17  1  0
 17 18  1  0
 18 19  1  0
 19 20  2  0
 20 21  1  0
 21 22  1  0
 21 23  2  0
 23 24  1  0
 24 25  1  0
 17 26  1  0
 12  4  1  0
 26 14  2  0
 13  4  1  0
 24 18  2  0
 11  6  1  0
  3 27  1  0
  5 28  1  0
  5 29  1  0
  6 30  1  1
  7 31  1  0
  7 32  1  0
  8 33  1  6
  9 34  1  0
  9 35  1  0
 10 36  1  6
 11 37  1  0
 11 38  1  0
 12 39  1  0
 12 40  1  0
 13 41  1  0
 13 42  1  0
 15 43  1  0
 16 44  1  0
 19 45  1  0
 20 46  1  0
 23 47  1  0
M  END
>  <meeko>  (20) 
{"is_sidechain": false}

$$$$

     RDKit          3D

 60 65  0  0  0  0  0  0  0  0999 V2000
    9.2730    2.2350  -55.7220 C   0  0  0  0  0  0  0  0  0  0  0  0
    8.1260    1.9090  -56.6120 C   0  0  0  0  0  0  0  0  0  0  0  0
    7.0570    1.0060  -56.3460 C   0  0  0  0  0  0  0  0  0  0  0  0
    6.7890    0.2460  -55.1080 C   0  0  0  0  0  0  0  0  0  0  0  0
    5.9380    0.5820  -54.2910 O   0  0  0  0  0  0  0  0  0  0  0  0
    7.6050   -0.8630  -54.9520 N   0  0  0  0  0  0  0  0  0  0  0  0
    7.6180   -1.7250  -53.7690 C   0  0  2  0  0  0  0  0  0  0  0  0
    8.8800   -2.6290  -53.8420 C   0  0  0  0  0  0  0  0  0  0  0  0
    8.9660   -3.5600  -52.6220 C   0  0  1  0  0  0  0  0  0  0  0  0
    9.0260   -2.7120  -51.3430 C   0  0  0  0  0  0  0  0  0  0  0  0
    7.7700   -1.8310  -51.2380 C   0  0  2  0  0  0  0  0  0  0  0  0
    6.5220   -2.7290  -51.2090 C   0  0  0  0  0  0  0  0  0  0  0  0
    6.4540   -3.5830  -52.4860 C   0  0  2  0  0  0  0  0  0  0  0  0
    7.7160   -4.4540  -52.5830 C   0  0  0  0  0  0  0  0  0  0  0  0
    6.3790   -2.6550  -53.7110 C   0  0  0  0  0  0  0  0  0  0  0  0
    7.6970   -0.9010  -52.4610 C   0  0  0  0  0  0  0  0  0  0  0  0
    6.2560    0.8910  -57.4110 N   0  0  0  0  0  0  0  0  0  0  0  0
    6.7360    1.7370  -58.3480 N   0  0  0  0  0  0  0  0  0  0  0  0
    5.9950    1.9280  -59.5510 C   0  0  0  0  0  0  0  0  0  0  0  0
    6.6320    2.0430  -60.7950 C   0  0  0  0  0  0  0  0  0  0  0  0
    5.8800    2.2570  -61.9500 C   0  0  0  0  0  0  0  0  0  0  0  0
    6.5090    2.3740  -63.1270 F   0  0  0  0  0  0  0  0  0  0  0  0
    4.5000    2.3640  -61.9050 C   0  0  0  0  0  0  0  0  0  0  0  0
    3.8680    2.2580  -60.6750 C   0  0  0  0  0  0  0  0  0  0  0  0
    2.5310    2.3510  -60.6230 F   0  0  0  0  0  0  0  0  0  0  0  0
    4.5970    2.0470  -59.5040 C   0  0  0  0  0  0  0  0  0  0  0  0
    3.9090    1.9040  -58.3630 F   0  0  0  0  0  0  0  0  0  0  0  0
    7.9070    2.3590  -57.9100 C   0  0  0  0  0  0  0  0  0  0  0  0
    8.7900    3.2040  -58.7160 C   0  0  0  0  0  0  0  0  0  0  0  0
    8.6230    4.5960  -58.7200 C   0  0  0  0  0  0  0  0  0  0  0  0
    9.4690    5.4030  -59.4840 C   0  0  0  0  0  0  0  0  0  0  0  0
   10.4890    4.8270  -60.2380 C   0  0  0  0  0  0  0  0  0  0  0  0
   10.6720    3.4450  -60.2270 C   0  0  0  0  0  0  0  0  0  0  0  0
    9.8280    2.6350  -59.4640 C   0  0  0  0  0  0  0  0  0  0  0  0
    8.9590    2.1457  -54.6716 H   0  0  0  0  0  0  0  0  0  0  0  0
   10.0995    1.5362  -55.9182 H   0  0  0  0  0  0  0  0  0  0  0  0
    9.6085    3.2641  -55.9182 H   0  0  0  0  0  0  0  0  0  0  0  0
    8.4190   -0.8910  -55.5510 H   0  0  0  0  0  0  0  0  0  0  0  0
    8.8326   -3.2387  -54.7564 H   0  0  0  0  0  0  0  0  0  0  0  0
    9.7711   -1.9842  -53.8525 H   0  0  0  0  0  0  0  0  0  0  0  0
    9.8677   -4.1861  -52.6920 H   0  0  0  0  0  0  0  0  0  0  0  0
    9.0797   -3.3760  -50.4676 H   0  0  0  0  0  0  0  0  0  0  0  0
    9.9173   -2.0683  -51.3775 H   0  0  0  0  0  0  0  0  0  0  0  0
    7.8160   -1.2295  -50.3182 H   0  0  0  0  0  0  0  0  0  0  0  0
    6.5703   -3.3904  -50.3314 H   0  0  0  0  0  0  0  0  0  0  0  0
    5.6246   -2.0955  -51.1520 H   0  0  0  0  0  0  0  0  0  0  0  0
    5.5635   -4.2280  -52.4545 H   0  0  0  0  0  0  0  0  0  0  0  0
    7.7694   -5.1179  -51.7075 H   0  0  0  0  0  0  0  0  0  0  0  0
    7.6716   -5.0554  -53.5030 H   0  0  0  0  0  0  0  0  0  0  0  0
    6.3425   -3.2657  -54.6252 H   0  0  0  0  0  0  0  0  0  0  0  0
    5.4741   -2.0348  -53.6306 H   0  0  0  0  0  0  0  0  0  0  0  0
    6.8025   -0.2661  -52.3793 H   0  0  0  0  0  0  0  0  0  0  0  0
    8.6041   -0.2794  -52.4881 H   0  0  0  0  0  0  0  0  0  0  0  0
    7.7272    1.9643  -60.8600 H   0  0  0  0  0  0  0  0  0  0  0  0
    3.9184    2.5293  -62.8239 H   0  0  0  0  0  0  0  0  0  0  0  0
    7.8232    5.0540  -58.1196 H   0  0  0  0  0  0  0  0  0  0  0  0
    9.3298    6.4941  -59.4904 H   0  0  0  0  0  0  0  0  0  0  0  0
   11.1512    5.4637  -60.8431 H   0  0  0  0  0  0  0  0  0  0  0  0
   11.4811    2.9926  -60.8192 H   0  0  0  0  0  0  0  0  0  0  0  0
    9.9793    1.5455  -59.4506 H   0  0  0  0  0  0  0  0  0  0  0  0
  1  2  1  0
  2  3  1  0
  3  4  1  0
  4  5  2  0
  4  6  1  0
  7  6  1  6
  7  8  1  0
  8  9  1  0
  9 10  1  0
 10 11  1  0
 11 12  1  0
 12 13  1  0
 13 14  1  0
 13 15  1  0
 11 16  1  0
  3 17  2  0
 17 18  1  0
 18 19  1  0
 19 20  2  0
 20 21  1  0
 21 22  1  0
 21 23  2  0
 23 24  1  0
 24 25  1  0
 24 26  2  0
 26 27  1  0
 18 28  1  0
 28 29  1  0
 29 30  2  0
 30 31  1  0
 31 32  2  0
 32 33  1  0
 33 34  2  0
 28  2  2  0
 34 29  1  0
 15  7  1  0
 26 19  1  0
 16  7  1  0
 14  9  1  0
  1 35  1  0
  1 36  1  0
  1 37  1  0
  6 38  1  0
  8 39  1  0
  8 40  1  0
  9 41  1  6
 10 42  1  0
 10 43  1  0
 11 44  1  1
 12 45  1  0
 12 46  1  0
 13 47  1  1
 14 48  1  0
 14 49  1  0
 15 50  1  0
 15 51  1  0
 16 52  1  0
 16 53  1  0
 20 54  1  0
 23 55  1  0
 30 56  1  0
 31 57  1  0
 32 58  1  0
 33 59  1  0
 34 60  1  0
M  END
>  <meeko>  (21) 
{"is_sidechain": false}

$$$$

     RDKit          3D

 57 61  0  0  0  0  0  0  0  0999 V2000
    6.0460    0.1620  -53.4470 C   0  0  0  0  0  0  0  0  0  0  0  0
    7.4430   -0.3060  -53.6450 C   0  0  0  0  0  0  0  0  0  0  0  0
    8.3400    0.1230  -54.6690 C   0  0  0  0  0  0  0  0  0  0  0  0
    8.0920    1.1110  -55.7400 C   0  0  0  0  0  0  0  0  0  0  0  0
    7.0550    1.1500  -56.3930 O   0  0  0  0  0  0  0  0  0  0  0  0
    9.1540    1.9710  -55.9230 N   0  0  0  0  0  0  0  0  0  0  0  0
    9.2540    2.9460  -56.9820 C   0  0  2  0  0  0  0  0  0  0  0  0
    9.2450    2.3060  -58.4110 C   0  0  0  0  0  0  0  0  0  0  0  0
    9.4040    3.3830  -59.5230 C   0  0  2  0  0  0  0  0  0  0  0  0
   10.6560    4.2200  -59.2600 C   0  0  0  0  0  0  0  0  0  0  0  0
   10.2930    4.8680  -57.9160 C   0  0  2  0  0  0  0  0  0  0  0  0
   10.5180    3.8100  -56.8280 C   0  0  0  0  0  0  0  0  0  0  0  0
    8.7350    5.0390  -57.9730 C   0  0  1  0  0  0  0  0  0  0  0  0
    8.3400    4.4700  -59.3440 C   0  0  0  0  0  0  0  0  0  0  0  0
    8.2050    4.0680  -56.9080 C   0  0  0  0  0  0  0  0  0  0  0  0
    9.5270   -0.5100  -54.5740 N   0  0  0  0  0  0  0  0  0  0  0  0
    9.3960   -1.3080  -53.4960 N   0  0  0  0  0  0  0  0  0  0  0  0
   10.5250   -2.1510  -53.1030 C   0  0  0  0  0  0  0  0  0  0  0  0
   11.1590   -2.8310  -54.2840 C   0  0  0  0  0  0  0  0  0  0  0  0
   10.5390   -3.7550  -55.0370 C   0  0  0  0  0  0  0  0  0  0  0  0
   11.1640   -4.4160  -56.1900 C   0  0  0  0  0  0  0  0  0  0  0  0
   11.3040   -3.7030  -57.3880 C   0  0  0  0  0  0  0  0  0  0  0  0
   11.9180   -4.2910  -58.4970 C   0  0  0  0  0  0  0  0  0  0  0  0
   12.4070   -5.5930  -58.4150 C   0  0  0  0  0  0  0  0  0  0  0  0
   12.2870   -6.3060  -57.2240 C   0  0  0  0  0  0  0  0  0  0  0  0
   11.6730   -5.7190  -56.1140 C   0  0  0  0  0  0  0  0  0  0  0  0
    8.1610   -1.2290  -52.9010 C   0  0  0  0  0  0  0  0  0  0  0  0
    7.7850   -2.0240  -51.7030 C   0  0  0  0  0  0  0  0  0  0  0  0
    5.8324    0.2336  -52.3703 H   0  0  0  0  0  0  0  0  0  0  0  0
    5.9212    1.1510  -53.9121 H   0  0  0  0  0  0  0  0  0  0  0  0
    5.3506   -0.5523  -53.9121 H   0  0  0  0  0  0  0  0  0  0  0  0
    9.9680    1.7400  -55.3570 H   0  0  0  0  0  0  0  0  0  0  0  0
   10.0765    1.5898  -58.4864 H   0  0  0  0  0  0  0  0  0  0  0  0
    8.2778    1.8025  -58.5560 H   0  0  0  0  0  0  0  0  0  0  0  0
    9.3829    2.8433  -60.4813 H   0  0  0  0  0  0  0  0  0  0  0  0
   11.5537    3.5899  -59.1761 H   0  0  0  0  0  0  0  0  0  0  0  0
   10.9011    4.9355  -60.0587 H   0  0  0  0  0  0  0  0  0  0  0  0
   10.8567    5.7939  -57.7291 H   0  0  0  0  0  0  0  0  0  0  0  0
   11.4307    3.2258  -57.0170 H   0  0  0  0  0  0  0  0  0  0  0  0
   10.6603    4.2244  -55.8190 H   0  0  0  0  0  0  0  0  0  0  0  0
    8.3734    6.0669  -57.8226 H   0  0  0  0  0  0  0  0  0  0  0  0
    7.3257    4.0446  -59.3284 H   0  0  0  0  0  0  0  0  0  0  0  0
    8.3095    5.2141  -60.1535 H   0  0  0  0  0  0  0  0  0  0  0  0
    8.1826    4.5344  -55.9120 H   0  0  0  0  0  0  0  0  0  0  0  0
    7.1710    3.7325  -57.0761 H   0  0  0  0  0  0  0  0  0  0  0  0
   11.2804   -1.5240  -52.6068 H   0  0  0  0  0  0  0  0  0  0  0  0
   10.1468   -2.9305  -52.4253 H   0  0  0  0  0  0  0  0  0  0  0  0
   12.1910   -2.5561  -54.5472 H   0  0  0  0  0  0  0  0  0  0  0  0
    9.5069   -4.0315  -54.7756 H   0  0  0  0  0  0  0  0  0  0  0  0
   10.9274   -2.6717  -57.4561 H   0  0  0  0  0  0  0  0  0  0  0  0
   12.0153   -3.7255  -59.4355 H   0  0  0  0  0  0  0  0  0  0  0  0
   12.8870   -6.0573  -59.2891 H   0  0  0  0  0  0  0  0  0  0  0  0
   12.6762   -7.3327  -57.1571 H   0  0  0  0  0  0  0  0  0  0  0  0
   11.5888   -6.2842  -55.1740 H   0  0  0  0  0  0  0  0  0  0  0  0
    8.0497   -1.4644  -50.7937 H   0  0  0  0  0  0  0  0  0  0  0  0
    6.7016   -2.2140  -51.7143 H   0  0  0  0  0  0  0  0  0  0  0  0
    8.3254   -2.9820  -51.7143 H   0  0  0  0  0  0  0  0  0  0  0  0
  1  2  1  0
  2  3  1  0
  3  4  1  0
  4  5  2  0
  4  6  1  0
  7  6  1  1
  7  8  1  0
  8  9  1  0
  9 10  1  0
 10 11  1  0
 11 12  1  0
 11 13  1  0
 13 14  1  0
 13 15  1  0
  3 16  2  0
 16 17  1  0
 17 18  1  0
 18 19  1  0
 19 20  2  0
 20 21  1  0
 21 22  2  0
 22 23  1  0
 23 24  2  0
 24 25  1  0
 25 26  2  0
 17 27  1  0
 27 28  1  0
 27  2  2  0
 12  7  1  0
 26 21  1  0
 15  7  1  0
 14  9  1  0
  1 29  1  0
  1 30  1  0
  1 31  1  0
  6 32  1  0
  8 33  1  0
  8 34  1  0
  9 35  1  6
 10 36  1  0
 10 37  1  0
 11 38  1  1
 12 39  1  0
 12 40  1  0
 13 41  1  1
 14 42  1  0
 14 43  1  0
 15 44  1  0
 15 45  1  0
 18 46  1  0
 18 47  1  0
 19 48  1  0
 20 49  1  0
 22 50  1  0
 23 51  1  0
 24 52  1  0
 25 53  1  0
 26 54  1  0
 28 55  1  0
 28 56  1  0
 28 57  1  0
M  END
>  <meeko>  (22) 
{"is_sidechain": false}

$$$$

     RDKit          3D

 69 73  0  0  0  0  0  0  0  0999 V2000
    6.2490   -0.1370  -53.9260 C   0  0  0  0  0  0  0  0  0  0  0  0
    7.6790   -0.5250  -54.0400 C   0  0  0  0  0  0  0  0  0  0  0  0
    8.6550    0.0590  -54.9020 C   0  0  0  0  0  0  0  0  0  0  0  0
    8.4700    1.1590  -55.8710 C   0  0  0  0  0  0  0  0  0  0  0  0
    7.3680    1.6000  -56.1830 O   0  0  0  0  0  0  0  0  0  0  0  0
    9.6660    1.6190  -56.3780 N   0  0  0  0  0  0  0  0  0  0  0  0
    9.8380    2.6720  -57.3730 C   0  0  1  0  0  0  0  0  0  0  0  0
    9.2800    4.0250  -56.8690 C   0  0  0  0  0  0  0  0  0  0  0  0
    9.4250    5.1070  -57.9540 C   0  0  2  0  0  0  0  0  0  0  0  0
    8.6430    4.6810  -59.2050 C   0  0  0  0  0  0  0  0  0  0  0  0
    9.1900    3.3490  -59.7380 C   0  0  1  0  0  0  0  0  0  0  0  0
   10.6740    3.5150  -60.0990 C   0  0  0  0  0  0  0  0  0  0  0  0
   11.4860    3.9370  -58.8530 C   0  0  1  0  0  0  0  0  0  0  0  0
   12.9640    4.1070  -59.2190 C   0  0  0  0  0  0  0  0  0  0  0  0
   10.9120    5.2670  -58.3140 C   0  0  0  0  0  0  0  0  0  0  0  0
   11.3260    2.8500  -57.7630 C   0  0  0  0  0  0  0  0  0  0  0  0
    9.0530    2.2730  -58.6490 C   0  0  0  0  0  0  0  0  0  0  0  0
    9.8580   -0.5280  -54.7430 N   0  0  0  0  0  0  0  0  0  0  0  0
    9.6440   -1.4850  -53.8190 N   0  0  0  0  0  0  0  0  0  0  0  0
   10.7570   -2.3350  -53.4300 C   0  0  0  0  0  0  0  0  0  0  0  0
   11.2990   -3.2080  -54.5610 C   0  0  0  0  0  0  0  0  0  0  0  0
   10.2520   -4.0410  -55.3110 C   0  0  0  0  0  0  0  0  0  0  0  0
   10.7270   -4.7040  -56.6080 C   0  0  0  0  0  0  0  0  0  0  0  0
   11.4720   -3.7770  -57.5620 C   0  0  0  0  0  0  0  0  0  0  0  0
   11.7940   -4.4660  -58.7610 O   0  0  0  0  0  0  0  0  0  0  0  0
    8.3550   -1.5150  -53.3450 C   0  0  0  0  0  0  0  0  0  0  0  0
    7.8720   -2.4440  -52.3300 C   0  0  0  0  0  0  0  0  0  0  0  0
    8.1420   -2.2090  -50.9770 C   0  0  0  0  0  0  0  0  0  0  0  0
    7.6800   -3.0980  -50.0050 C   0  0  0  0  0  0  0  0  0  0  0  0
    6.9540   -4.2280  -50.3800 C   0  0  0  0  0  0  0  0  0  0  0  0
    6.6910   -4.4730  -51.7270 C   0  0  0  0  0  0  0  0  0  0  0  0
    7.1520   -3.5840  -52.7010 C   0  0  0  0  0  0  0  0  0  0  0  0
    5.9730   -0.0621  -52.8638 H   0  0  0  0  0  0  0  0  0  0  0  0
    6.0930    0.8360  -54.4149 H   0  0  0  0  0  0  0  0  0  0  0  0
    5.6226   -0.8977  -54.4149 H   0  0  0  0  0  0  0  0  0  0  0  0
   10.4770    1.1210  -56.0170 H   0  0  0  0  0  0  0  0  0  0  0  0
    8.2160    3.9061  -56.6166 H   0  0  0  0  0  0  0  0  0  0  0  0
    9.8489    4.3349  -55.9800 H   0  0  0  0  0  0  0  0  0  0  0  0
    9.0291    6.0624  -57.5792 H   0  0  0  0  0  0  0  0  0  0  0  0
    7.5804    4.5613  -58.9471 H   0  0  0  0  0  0  0  0  0  0  0  0
    8.7541    5.4531  -59.9805 H   0  0  0  0  0  0  0  0  0  0  0  0
    8.6231    3.0490  -60.6317 H   0  0  0  0  0  0  0  0  0  0  0  0
   11.0639    2.5594  -60.4795 H   0  0  0  0  0  0  0  0  0  0  0  0
   10.7696    4.2947  -60.8690 H   0  0  0  0  0  0  0  0  0  0  0  0
   13.5638    4.1760  -58.2995 H   0  0  0  0  0  0  0  0  0  0  0  0
   13.2973    3.2413  -59.8101 H   0  0  0  0  0  0  0  0  0  0  0  0
   13.0920    5.0258  -59.8101 H   0  0  0  0  0  0  0  0  0  0  0  0
   11.4718    5.5647  -57.4151 H   0  0  0  0  0  0  0  0  0  0  0  0
   11.0078    6.0371  -59.0936 H   0  0  0  0  0  0  0  0  0  0  0  0
   11.7142    1.8951  -58.1471 H   0  0  0  0  0  0  0  0  0  0  0  0
   11.8879    3.1625  -56.8705 H   0  0  0  0  0  0  0  0  0  0  0  0
    7.9897    2.1521  -58.3943 H   0  0  0  0  0  0  0  0  0  0  0  0
    9.4663    1.3292  -59.0344 H   0  0  0  0  0  0  0  0  0  0  0  0
   11.5730   -1.6921  -53.0683 H   0  0  0  0  0  0  0  0  0  0  0  0
   10.3793   -3.0179  -52.6547 H   0  0  0  0  0  0  0  0  0  0  0  0
   11.7941   -2.5496  -55.2900 H   0  0  0  0  0  0  0  0  0  0  0  0
   11.9773   -3.9319  -54.0856 H   0  0  0  0  0  0  0  0  0  0  0  0
    9.9056   -4.8356  -54.6338 H   0  0  0  0  0  0  0  0  0  0  0  0
    9.4664   -3.3316  -55.6102 H   0  0  0  0  0  0  0  0  0  0  0  0
   11.3985   -5.5339  -56.3426 H   0  0  0  0  0  0  0  0  0  0  0  0
    9.8212   -5.0327  -57.1385 H   0  0  0  0  0  0  0  0  0  0  0  0
   10.8356   -2.9118  -57.7994 H   0  0  0  0  0  0  0  0  0  0  0  0
   12.4015   -3.4378  -57.0814 H   0  0  0  0  0  0  0  0  0  0  0  0
   12.7550   -4.6190  -58.7560 H   0  0  0  0  0  0  0  0  0  0  0  0
    8.7197   -1.3216  -50.6788 H   0  0  0  0  0  0  0  0  0  0  0  0
    7.8889   -2.9070  -48.9420 H   0  0  0  0  0  0  0  0  0  0  0  0
    6.5887   -4.9264  -49.6127 H   0  0  0  0  0  0  0  0  0  0  0  0
    6.1207   -5.3659  -52.0227 H   0  0  0  0  0  0  0  0  0  0  0  0
    6.9479   -3.7814  -53.7637 H   0  0  0  0  0  0  0  0  0  0  0  0
  1  2  1  0
  2  3  1  0
  3  4  1  0
  4  5  2  0
  4  6  1  0
  7  6  1  1
  7  8  1  0
  8  9  1  0
  9 10  1  0
 10 11  1  0
 11 12  1  0
 12 13  1  0
 13 14  1  6
 13 15  1  0
 13 16  1  0
 11 17  1  0
  3 18  2  0
 18 19  1  0
 19 20  1  0
 20 21  1  0
 21 22  1  0
 22 23  1  0
 23 24  1  0
 24 25  1  0
 19 26  1  0
 26 27  1  0
 27 28  2  0
 28 29  1  0
 29 30  2  0
 30 31  1  0
 31 32  2  0
 26  2  2  0
 32 27  1  0
 16  7  1  0
 17  7  1  0
 15  9  1  0
  1 33  1  0
  1 34  1  0
  1 35  1  0
  6 36  1  0
  8 37  1  0
  8 38  1  0
  9 39  1  1
 10 40  1  0
 10 41  1  0
 11 42  1  6
 12 43  1  0
 12 44  1  0
 14 45  1  0
 14 46  1  0
 14 47  1  0
 15 48  1  0
 15 49  1  0
 16 50  1  0
 16 51  1  0
 17 52  1  0
 17 53  1  0
 20 54  1  0
 20 55  1  0
 21 56  1  0
 21 57  1  0
 22 58  1  0
 22 59  1  0
 23 60  1  0
 23 61  1  0
 24 62  1  0
 24 63  1  0
 25 64  1  0
 28 65  1  0
 29 66  1  0
 30 67  1  0
 31 68  1  0
 32 69  1  0
M  END
>  <meeko>  (23) 
{"is_sidechain": false}

$$$$

     RDKit          3D

 74 77  0  0  0  0  0  0  0  0999 V2000
    5.1310   -0.8340  -54.1670 O   0  0  0  0  0  0  0  0  0  0  0  0
    6.3400   -0.6350  -54.2320 C   0  0  0  0  0  0  0  0  0  0  0  0
    7.2670   -1.3410  -53.4910 N   0  0  0  0  0  0  0  0  0  0  0  0
    6.8990   -2.2510  -52.4250 C   0  0  0  0  0  0  0  0  0  0  0  0
    6.9080   -3.7030  -52.9330 C   0  0  0  0  0  0  0  0  0  0  0  0
    7.1390   -4.7370  -51.8290 C   0  0  0  0  0  0  0  0  0  0  0  0
    6.6580   -4.2440  -50.4730 C   0  0  0  0  0  0  0  0  0  0  0  0
    7.3840   -2.9690  -50.0420 C   0  0  0  0  0  0  0  0  0  0  0  0
    7.8190   -2.0850  -51.2130 C   0  0  0  0  0  0  0  0  0  0  0  0
    6.9620    0.3880  -55.0970 C   0  0  0  0  0  0  0  0  0  0  0  0
    6.2010    1.1290  -55.9300 N   0  0  0  0  0  0  0  0  0  0  0  0
    7.0760    1.9390  -56.5540 N   0  0  0  0  0  0  0  0  0  0  0  0
    6.5740    2.8720  -57.5510 C   0  0  0  0  0  0  0  0  0  0  0  0
    6.2150    2.1690  -58.8590 C   0  0  0  0  0  0  0  0  0  0  0  0
    7.4160    1.9810  -59.7900 C   0  0  0  0  0  0  0  0  0  0  0  0
    8.0630    3.3060  -60.2090 C   0  0  0  0  0  0  0  0  0  0  0  0
    9.2650    3.0890  -61.1220 C   0  0  0  0  0  0  0  0  0  0  0  0
   10.2030    4.1450  -60.9730 O   0  0  0  0  0  0  0  0  0  0  0  0
    8.3770    1.7560  -56.1600 C   0  0  0  0  0  0  0  0  0  0  0  0
    9.5080    2.5020  -56.6990 C   0  0  0  0  0  0  0  0  0  0  0  0
   10.3920    1.8950  -57.5970 C   0  0  0  0  0  0  0  0  0  0  0  0
   11.4770    2.6090  -58.1070 C   0  0  0  0  0  0  0  0  0  0  0  0
   11.6820    3.9340  -57.7240 C   0  0  0  0  0  0  0  0  0  0  0  0
   10.7990    4.5480  -56.8350 C   0  0  0  0  0  0  0  0  0  0  0  0
    9.7140    3.8350  -56.3250 C   0  0  0  0  0  0  0  0  0  0  0  0
    8.3430    0.7450  -55.2090 C   0  0  0  0  0  0  0  0  0  0  0  0
    9.5120    0.1600  -54.4740 C   0  0  0  0  0  0  0  0  0  0  0  0
    9.9640   -1.2110  -55.0140 C   0  0  0  0  0  0  0  0  0  0  0  0
   11.1680   -1.1160  -55.9620 C   0  0  0  0  0  0  0  0  0  0  0  0
   11.5310   -2.4770  -56.5630 C   0  0  0  0  0  0  0  0  0  0  0  0
   11.1530   -3.6630  -55.6750 C   0  0  0  0  0  0  0  0  0  0  0  0
   11.2300   -3.3040  -54.1990 C   0  0  0  0  0  0  0  0  0  0  0  0
   10.2850   -2.1560  -53.8360 C   0  0  0  0  0  0  0  0  0  0  0  0
    8.2130   -0.9720  -53.5590 H   0  0  0  0  0  0  0  0  0  0  0  0
    5.8774   -2.0048  -52.0998 H   0  0  0  0  0  0  0  0  0  0  0  0
    5.9376   -3.9115  -53.4072 H   0  0  0  0  0  0  0  0  0  0  0  0
    7.7466   -3.7924  -53.6392 H   0  0  0  0  0  0  0  0  0  0  0  0
    6.5939   -5.6574  -52.0855 H   0  0  0  0  0  0  0  0  0  0  0  0
    8.2213   -4.9205  -51.7581 H   0  0  0  0  0  0  0  0  0  0  0  0
    5.5792   -4.0370  -50.5316 H   0  0  0  0  0  0  0  0  0  0  0  0
    6.8707   -5.0264  -49.7296 H   0  0  0  0  0  0  0  0  0  0  0  0
    6.7094   -2.3857  -49.3980 H   0  0  0  0  0  0  0  0  0  0  0  0
    8.2987   -3.2810  -49.5167 H   0  0  0  0  0  0  0  0  0  0  0  0
    7.7979   -1.0332  -50.8917 H   0  0  0  0  0  0  0  0  0  0  0  0
    8.8337   -2.3880  -51.5108 H   0  0  0  0  0  0  0  0  0  0  0  0
    5.6749    3.3665  -57.1546 H   0  0  0  0  0  0  0  0  0  0  0  0
    7.3675    3.6035  -57.7636 H   0  0  0  0  0  0  0  0  0  0  0  0
    5.7981    1.1792  -58.6213 H   0  0  0  0  0  0  0  0  0  0  0  0
    5.4892    2.8065  -59.3851 H   0  0  0  0  0  0  0  0  0  0  0  0
    8.1701    1.3717  -59.2704 H   0  0  0  0  0  0  0  0  0  0  0  0
    7.0499    1.4904  -60.7039 H   0  0  0  0  0  0  0  0  0  0  0  0
    7.3166    3.9131  -60.7422 H   0  0  0  0  0  0  0  0  0  0  0  0
    8.4136    3.8164  -59.2998 H   0  0  0  0  0  0  0  0  0  0  0  0
    9.7491    2.1361  -60.8620 H   0  0  0  0  0  0  0  0  0  0  0  0
    8.9182    3.0673  -62.1657 H   0  0  0  0  0  0  0  0  0  0  0  0
   10.0320    4.7910  -61.6800 H   0  0  0  0  0  0  0  0  0  0  0  0
   10.2313    0.8506  -57.9024 H   0  0  0  0  0  0  0  0  0  0  0  0
   12.1707    2.1265  -58.8113 H   0  0  0  0  0  0  0  0  0  0  0  0
   12.5399    4.4953  -58.1227 H   0  0  0  0  0  0  0  0  0  0  0  0
   10.9586    5.5946  -56.5363 H   0  0  0  0  0  0  0  0  0  0  0  0
    9.0178    4.3220  -55.6264 H   0  0  0  0  0  0  0  0  0  0  0  0
   10.3570    0.8597  -54.5536 H   0  0  0  0  0  0  0  0  0  0  0  0
    9.1906    0.0042  -53.4336 H   0  0  0  0  0  0  0  0  0  0  0  0
    9.1299   -1.6160  -55.6059 H   0  0  0  0  0  0  0  0  0  0  0  0
   10.9236   -0.4206  -56.7785 H   0  0  0  0  0  0  0  0  0  0  0  0
   12.0313   -0.7587  -55.3815 H   0  0  0  0  0  0  0  0  0  0  0  0
   11.0073   -2.5826  -57.5245 H   0  0  0  0  0  0  0  0  0  0  0  0
   12.6250   -2.4965  -56.6759 H   0  0  0  0  0  0  0  0  0  0  0  0
   10.1253   -3.9743  -55.9136 H   0  0  0  0  0  0  0  0  0  0  0  0
   11.8654   -4.4786  -55.8684 H   0  0  0  0  0  0  0  0  0  0  0  0
   10.9585   -4.1886  -53.6041 H   0  0  0  0  0  0  0  0  0  0  0  0
   12.2581   -2.9780  -53.9827 H   0  0  0  0  0  0  0  0  0  0  0  0
    9.3410   -2.5871  -53.4712 H   0  0  0  0  0  0  0  0  0  0  0  0
   10.7970   -1.5512  -53.0730 H   0  0  0  0  0  0  0  0  0  0  0  0
  1  2  2  0
  2  3  1  0
  3  4  1  0
  4  5  1  0
  5  6  1  0
  6  7  1  0
  7  8  1  0
  8  9  1  0
  2 10  1  0
 10 11  2  0
 11 12  1  0
 12 13  1  0
 13 14  1  0
 14 15  1  0
 15 16  1  0
 16 17  1  0
 17 18  1  0
 12 19  1  0
 19 20  1  0
 20 21  2  0
 21 22  1  0
 22 23  2  0
 23 24  1  0
 24 25  2  0
 19 26  2  0
 26 27  1  0
 27 28  1  0
 28 29  1  0
 29 30  1  0
 30 31  1  0
 31 32  1  0
 32 33  1  0
  9  4  1  0
 26 10  1  0
 33 28  1  0
 25 20  1  0
  3 34  1  0
  4 35  1  0
  5 36  1  0
  5 37  1  0
  6 38  1  0
  6 39  1  0
  7 40  1  0
  7 41  1  0
  8 42  1  0
  8 43  1  0
  9 44  1  0
  9 45  1  0
 13 46  1  0
 13 47  1  0
 14 48  1  0
 14 49  1  0
 15 50  1  0
 15 51  1  0
 16 52  1  0
 16 53  1  0
 17 54  1  0
 17 55  1  0
 18 56  1  0
 21 57  1  0
 22 58  1  0
 23 59  1  0
 24 60  1  0
 25 61  1  0
 27 62  1  0
 27 63  1  0
 28 64  1  0
 29 65  1  0
 29 66  1  0
 30 67  1  0
 30 68  1  0
 31 69  1  0
 31 70  1  0
 32 71  1  0
 32 72  1  0
 33 73  1  0
 33 74  1  0
M  END
>  <meeko>  (24) 
{"is_sidechain": false}

$$$$

     RDKit          3D

 51 55  0  0  0  0  0  0  0  0999 V2000
   10.2710   -2.5970  -53.5690 C   0  0  0  0  0  0  0  0  0  0  0  0
    9.3700   -2.5690  -52.3640 C   0  0  0  0  0  0  0  0  0  0  0  0
    9.7320   -3.3210  -51.2310 C   0  0  0  0  0  0  0  0  0  0  0  0
    8.9320   -3.3260  -50.0870 C   0  0  0  0  0  0  0  0  0  0  0  0
    7.7550   -2.5860  -50.0590 C   0  0  0  0  0  0  0  0  0  0  0  0
    7.3750   -1.8430  -51.1780 C   0  0  0  0  0  0  0  0  0  0  0  0
    8.1690   -1.8310  -52.3370 C   0  0  0  0  0  0  0  0  0  0  0  0
    7.7140   -1.0590  -53.4800 C   0  0  0  0  0  0  0  0  0  0  0  0
    6.4860   -1.2460  -54.0820 C   0  0  0  0  0  0  0  0  0  0  0  0
    6.3740   -0.3430  -55.1060 N   0  0  0  0  0  0  0  0  0  0  0  0
    7.5240    0.4090  -55.2100 C   0  0  0  0  0  0  0  0  0  0  0  0
    7.7640    1.4650  -56.1750 C   0  0  0  0  0  0  0  0  0  0  0  0
    6.8690    2.1800  -56.6080 O   0  0  0  0  0  0  0  0  0  0  0  0
    9.0920    1.6040  -56.5310 N   0  0  0  0  0  0  0  0  0  0  0  0
    9.6000    2.6570  -57.4200 C   0  0  2  0  0  0  0  0  0  0  0  0
    9.0130    2.5450  -58.8510 C   0  0  0  0  0  0  0  0  0  0  0  0
    9.6100    3.6280  -59.7670 C   0  0  1  0  0  0  0  0  0  0  0  0
    9.2960    5.0150  -59.1830 C   0  0  0  0  0  0  0  0  0  0  0  0
    9.9080    5.1500  -57.7780 C   0  0  2  0  0  0  0  0  0  0  0  0
   11.4300    4.9550  -57.8680 C   0  0  0  0  0  0  0  0  0  0  0  0
   11.7490    3.5670  -58.4440 C   0  0  2  0  0  0  0  0  0  0  0  0
   11.1340    3.4440  -59.8470 C   0  0  0  0  0  0  0  0  0  0  0  0
   11.1410    2.4900  -57.5310 C   0  0  0  0  0  0  0  0  0  0  0  0
    9.3100    4.0700  -56.8590 C   0  0  0  0  0  0  0  0  0  0  0  0
    8.3580   -0.0110  -54.1860 C   0  0  0  0  0  0  0  0  0  0  0  0
   11.3206   -2.6296  -53.2414 H   0  0  0  0  0  0  0  0  0  0  0  0
   10.0476   -3.4886  -54.1732 H   0  0  0  0  0  0  0  0  0  0  0  0
   10.1034   -1.6932  -54.1732 H   0  0  0  0  0  0  0  0  0  0  0  0
   10.6587   -3.9134  -51.2470 H   0  0  0  0  0  0  0  0  0  0  0  0
    9.2326   -3.9151  -49.2080 H   0  0  0  0  0  0  0  0  0  0  0  0
    7.1250   -2.5861  -49.1573 H   0  0  0  0  0  0  0  0  0  0  0  0
    6.4426   -1.2599  -51.1520 H   0  0  0  0  0  0  0  0  0  0  0  0
    5.7298   -1.9898  -53.7905 H   0  0  0  0  0  0  0  0  0  0  0  0
    5.5490   -0.2150  -55.6760 H   0  0  0  0  0  0  0  0  0  0  0  0
    9.7570    1.2310  -55.8690 H   0  0  0  0  0  0  0  0  0  0  0  0
    9.2498    1.5527  -59.2624 H   0  0  0  0  0  0  0  0  0  0  0  0
    7.9232    2.6851  -58.7995 H   0  0  0  0  0  0  0  0  0  0  0  0
    9.1746    3.5421  -60.7735 H   0  0  0  0  0  0  0  0  0  0  0  0
    9.7185    5.7899  -59.8395 H   0  0  0  0  0  0  0  0  0  0  0  0
    8.2050    5.1367  -59.1128 H   0  0  0  0  0  0  0  0  0  0  0  0
    9.6862    6.1473  -57.3702 H   0  0  0  0  0  0  0  0  0  0  0  0
   11.8582    5.7283  -58.5228 H   0  0  0  0  0  0  0  0  0  0  0  0
   11.8645    5.0364  -56.8607 H   0  0  0  0  0  0  0  0  0  0  0  0
   12.8392    3.4335  -58.5048 H   0  0  0  0  0  0  0  0  0  0  0  0
   11.5611    4.2178  -60.5018 H   0  0  0  0  0  0  0  0  0  0  0  0
   11.3580    2.4473  -60.2550 H   0  0  0  0  0  0  0  0  0  0  0  0
   11.3659    1.4970  -57.9474 H   0  0  0  0  0  0  0  0  0  0  0  0
   11.5775    2.5955  -56.5269 H   0  0  0  0  0  0  0  0  0  0  0  0
    9.7559    4.1600  -55.8574 H   0  0  0  0  0  0  0  0  0  0  0  0
    8.2208    4.2136  -56.8045 H   0  0  0  0  0  0  0  0  0  0  0  0
    9.3529    0.3997  -53.9588 H   0  0  0  0  0  0  0  0  0  0  0  0
  1  2  1  0
  2  3  2  0
  3  4  1  0
  4  5  2  0
  5  6  1  0
  6  7  2  0
  7  8  1  0
  8  9  2  0
  9 10  1  0
 10 11  1  0
 11 12  1  0
 12 13  2  0
 12 14  1  0
 15 14  1  1
 15 16  1  0
 16 17  1  0
 17 18  1  0
 18 19  1  0
 19 20  1  0
 20 21  1  0
 21 22  1  0
 21 23  1  0
 19 24  1  0
 11 25  2  0
  7  2  1  0
 25  8  1  0
 23 15  1  0
 24 15  1  0
 22 17  1  0
  1 26  1  0
  1 27  1  0
  1 28  1  0
  3 29  1  0
  4 30  1  0
  5 31  1  0
  6 32  1  0
  9 33  1  0
 10 34  1  0
 14 35  1  0
 16 36  1  0
 16 37  1  0
 17 38  1  6
 18 39  1  0
 18 40  1  0
 19 41  1  1
 20 42  1  0
 20 43  1  0
 21 44  1  6
 22 45  1  0
 22 46  1  0
 23 47  1  0
 23 48  1  0
 24 49  1  0
 24 50  1  0
 25 51  1  0
M  END
>  <meeko>  (25) 
{"is_sidechain": false}

$$$$

     RDKit          3D

 58 63  0  0  0  0  0  0  0  0999 V2000
    9.5730    2.1650  -55.8320 C   0  0  0  0  0  0  0  0  0  0  0  0
    8.3140    1.8590  -56.5630 C   0  0  0  0  0  0  0  0  0  0  0  0
    7.2690    1.0090  -56.1100 C   0  0  0  0  0  0  0  0  0  0  0  0
    7.1670    0.3020  -54.8160 C   0  0  0  0  0  0  0  0  0  0  0  0
    6.2080    0.4200  -54.0600 O   0  0  0  0  0  0  0  0  0  0  0  0
    8.2530   -0.5100  -54.5670 N   0  0  0  0  0  0  0  0  0  0  0  0
    8.3500   -1.4370  -53.4690 C   0  0  1  0  0  0  0  0  0  0  0  0
    7.8100   -0.8220  -52.1580 C   0  0  0  0  0  0  0  0  0  0  0  0
    7.4640   -2.0800  -51.3600 C   0  0  2  0  0  0  0  0  0  0  0  0
    8.7540   -2.9070  -51.0950 C   0  0  0  0  0  0  0  0  0  0  0  0
    9.5150   -3.2140  -52.4180 C   0  0  1  0  0  0  0  0  0  0  0  0
    8.5660   -3.8840  -53.4140 C   0  0  0  0  0  0  0  0  0  0  0  0
    7.5230   -2.7730  -53.6230 C   0  0  1  0  0  0  0  0  0  0  0  0
    6.5960   -2.7940  -52.3980 C   0  0  0  0  0  0  0  0  0  0  0  0
    9.7900   -1.9100  -53.1700 C   0  0  0  0  0  0  0  0  0  0  0  0
    6.3180    0.8610  -57.0470 N   0  0  0  0  0  0  0  0  0  0  0  0
    6.6560    1.7300  -58.0430 N   0  0  0  0  0  0  0  0  0  0  0  0
    5.7410    1.8980  -59.1250 C   0  0  0  0  0  0  0  0  0  0  0  0
    6.2150    1.6710  -60.4310 C   0  0  0  0  0  0  0  0  0  0  0  0
    5.3820    1.8690  -61.5350 C   0  0  0  0  0  0  0  0  0  0  0  0
    4.0650    2.2780  -61.3460 C   0  0  0  0  0  0  0  0  0  0  0  0
    3.5720    2.4620  -60.0560 C   0  0  0  0  0  0  0  0  0  0  0  0
    4.4020    2.2580  -58.9480 C   0  0  0  0  0  0  0  0  0  0  0  0
    3.8400    2.3060  -57.7070 O   0  0  0  0  0  0  0  0  0  0  0  0
    7.9270    2.2690  -57.8350 C   0  0  0  0  0  0  0  0  0  0  0  0
    8.7210    3.0000  -58.8290 C   0  0  0  0  0  0  0  0  0  0  0  0
    8.7310    4.4020  -58.8400 C   0  0  0  0  0  0  0  0  0  0  0  0
    9.5030    5.0990  -59.7730 C   0  0  0  0  0  0  0  0  0  0  0  0
   10.2760    4.4010  -60.6990 C   0  0  0  0  0  0  0  0  0  0  0  0
   10.2810    3.0060  -60.6910 C   0  0  0  0  0  0  0  0  0  0  0  0
    9.5110    2.3090  -59.7580 C   0  0  0  0  0  0  0  0  0  0  0  0
    9.3881    2.1201  -54.7486 H   0  0  0  0  0  0  0  0  0  0  0  0
   10.3430    1.4279  -56.1035 H   0  0  0  0  0  0  0  0  0  0  0  0
    9.9188    3.1733  -56.1035 H   0  0  0  0  0  0  0  0  0  0  0  0
    8.9000   -0.5780  -55.3510 H   0  0  0  0  0  0  0  0  0  0  0  0
    8.5773   -0.2202  -51.6491 H   0  0  0  0  0  0  0  0  0  0  0  0
    6.9665   -0.1300  -52.2979 H   0  0  0  0  0  0  0  0  0  0  0  0
    6.9981   -1.9122  -50.3778 H   0  0  0  0  0  0  0  0  0  0  0  0
    9.4146   -2.3350  -50.4268 H   0  0  0  0  0  0  0  0  0  0  0  0
    8.4635   -3.8623  -50.6335 H   0  0  0  0  0  0  0  0  0  0  0  0
   10.4037   -3.7988  -52.1383 H   0  0  0  0  0  0  0  0  0  0  0  0
    9.0797   -4.1370  -54.3532 H   0  0  0  0  0  0  0  0  0  0  0  0
    8.1459   -4.8392  -53.0661 H   0  0  0  0  0  0  0  0  0  0  0  0
    6.9730   -2.8743  -54.5702 H   0  0  0  0  0  0  0  0  0  0  0  0
    5.6620   -2.2453  -52.5892 H   0  0  0  0  0  0  0  0  0  0  0  0
    6.2658   -3.7993  -52.0975 H   0  0  0  0  0  0  0  0  0  0  0  0
   10.3310   -1.1871  -52.5418 H   0  0  0  0  0  0  0  0  0  0  0  0
   10.4254   -2.0240  -54.0607 H   0  0  0  0  0  0  0  0  0  0  0  0
    7.2511    1.3345  -60.5837 H   0  0  0  0  0  0  0  0  0  0  0  0
    5.7663    1.7019  -62.5520 H   0  0  0  0  0  0  0  0  0  0  0  0
    3.4139    2.4558  -62.2146 H   0  0  0  0  0  0  0  0  0  0  0  0
    2.5261    2.7689  -59.9079 H   0  0  0  0  0  0  0  0  0  0  0  0
    2.9620    2.7190  -57.7660 H   0  0  0  0  0  0  0  0  0  0  0  0
    8.1262    4.9577  -58.1082 H   0  0  0  0  0  0  0  0  0  0  0  0
    9.5006    6.1990  -59.7766 H   0  0  0  0  0  0  0  0  0  0  0  0
   10.8816    4.9495  -61.4355 H   0  0  0  0  0  0  0  0  0  0  0  0
   10.8923    2.4546  -61.4206 H   0  0  0  0  0  0  0  0  0  0  0  0
    9.5244    1.2091  -59.7519 H   0  0  0  0  0  0  0  0  0  0  0  0
  1  2  1  0
  2  3  1  0
  3  4  1  0
  4  5  2  0
  4  6  1  0
  7  6  1  6
  7  8  1  0
  8  9  1  0
  9 10  1  0
 10 11  1  0
 11 12  1  0
 12 13  1  0
 13 14  1  0
 11 15  1  0
  3 16  2  0
 16 17  1  0
 17 18  1  0
 18 19  2  0
 19 20  1  0
 20 21  2  0
 21 22  1  0
 22 23  2  0
 23 24  1  0
 17 25  1  0
 25 26  1  0
 26 27  2  0
 27 28  1  0
 28 29  2  0
 29 30  1  0
 30 31  2  0
 25  2  2  0
 31 26  1  0
 13  7  1  0
 23 18  1  0
 15  7  1  0
 14  9  1  0
  1 32  1  0
  1 33  1  0
  1 34  1  0
  6 35  1  0
  8 36  1  0
  8 37  1  0
  9 38  1  1
 10 39  1  0
 10 40  1  0
 11 41  1  1
 12 42  1  0
 12 43  1  0
 13 44  1  6
 14 45  1  0
 14 46  1  0
 15 47  1  0
 15 48  1  0
 19 49  1  0
 20 50  1  0
 21 51  1  0
 22 52  1  0
 24 53  1  0
 27 54  1  0
 28 55  1  0
 29 56  1  0
 30 57  1  0
 31 58  1  0
M  END
>  <meeko>  (26) 
{"is_sidechain": false}

$$$$

     RDKit          3D

 66 71  0  0  0  0  0  0  0  0999 V2000
    6.2580   -0.1250  -53.1410 C   0  0  0  0  0  0  0  0  0  0  0  0
    7.4790   -0.6030  -53.8400 C   0  0  0  0  0  0  0  0  0  0  0  0
    8.0970   -0.0010  -54.9710 C   0  0  0  0  0  0  0  0  0  0  0  0
    7.6740    1.2120  -55.6980 C   0  0  0  0  0  0  0  0  0  0  0  0
    6.5110    1.5980  -55.7530 O   0  0  0  0  0  0  0  0  0  0  0  0
    8.7240    1.8540  -56.3230 N   0  0  0  0  0  0  0  0  0  0  0  0
    8.5470    2.9500  -57.2670 C   0  0  2  0  0  0  0  0  0  0  0  0
    8.0540    2.3960  -58.6110 C   0  0  0  0  0  0  0  0  0  0  0  0
    8.4570    3.1250  -59.8960 C   0  0  2  0  0  0  0  0  0  0  0  0
    9.8830    2.7520  -60.3240 C   0  0  0  0  0  0  0  0  0  0  0  0
   10.9620    3.5490  -59.5930 C   0  0  1  0  0  0  0  0  0  0  0  0
   10.7270    5.0380  -59.8440 C   0  0  0  0  0  0  0  0  0  0  0  0
    9.3910    5.4490  -59.2270 C   0  0  1  0  0  0  0  0  0  0  0  0
    8.2380    4.6450  -59.8480 C   0  0  0  0  0  0  0  0  0  0  0  0
    9.4780    5.2690  -57.7110 C   0  0  0  0  0  0  0  0  0  0  0  0
    9.8120    3.8320  -57.2820 C   0  0  2  0  0  0  0  0  0  0  0  0
   10.9920    3.2510  -58.0850 C   0  0  0  0  0  0  0  0  0  0  0  0
    9.1830   -0.6960  -55.3570 N   0  0  0  0  0  0  0  0  0  0  0  0
    9.2700   -1.7220  -54.4800 N   0  0  0  0  0  0  0  0  0  0  0  0
   10.3750   -2.6480  -54.6670 C   0  0  0  0  0  0  0  0  0  0  0  0
   11.3870   -2.2220  -55.7410 C   0  0  0  0  0  0  0  0  0  0  0  0
   11.9060   -3.5320  -56.3140 C   0  0  0  0  0  0  0  0  0  0  0  0
   10.6840   -4.4360  -56.2960 C   0  0  0  0  0  0  0  0  0  0  0  0
   10.0010   -4.1070  -54.9730 C   0  0  0  0  0  0  0  0  0  0  0  0
    8.2560   -1.7160  -53.5440 C   0  0  0  0  0  0  0  0  0  0  0  0
    8.0660   -2.6890  -52.4740 C   0  0  0  0  0  0  0  0  0  0  0  0
    7.0690   -3.6670  -52.5740 C   0  0  0  0  0  0  0  0  0  0  0  0
    6.8660   -4.5770  -51.5350 C   0  0  0  0  0  0  0  0  0  0  0  0
    7.6470   -4.5040  -50.3810 C   0  0  0  0  0  0  0  0  0  0  0  0
    8.6220   -3.5150  -50.2620 C   0  0  0  0  0  0  0  0  0  0  0  0
    8.8260   -2.6060  -51.3010 C   0  0  0  0  0  0  0  0  0  0  0  0
    6.4110   -0.1849  -52.0533 H   0  0  0  0  0  0  0  0  0  0  0  0
    6.0570    0.9182  -53.4261 H   0  0  0  0  0  0  0  0  0  0  0  0
    5.4021   -0.7545  -53.4261 H   0  0  0  0  0  0  0  0  0  0  0  0
    9.6000    1.3360  -56.2870 H   0  0  0  0  0  0  0  0  0  0  0  0
    7.7504    3.6446  -56.9621 H   0  0  0  0  0  0  0  0  0  0  0  0
    8.4267    1.3643  -58.6929 H   0  0  0  0  0  0  0  0  0  0  0  0
    6.9614    2.5155  -58.5660 H   0  0  0  0  0  0  0  0  0  0  0  0
    7.7673    2.7689  -60.6755 H   0  0  0  0  0  0  0  0  0  0  0  0
   10.0403    1.6827  -60.1196 H   0  0  0  0  0  0  0  0  0  0  0  0
    9.9736    2.9875  -61.3947 H   0  0  0  0  0  0  0  0  0  0  0  0
   11.9433    3.2468  -59.9877 H   0  0  0  0  0  0  0  0  0  0  0  0
   11.5389    5.6208  -59.3844 H   0  0  0  0  0  0  0  0  0  0  0  0
   10.7079    5.2308  -60.9268 H   0  0  0  0  0  0  0  0  0  0  0  0
    9.1805    6.5074  -59.4404 H   0  0  0  0  0  0  0  0  0  0  0  0
    7.3299    4.8403  -59.2587 H   0  0  0  0  0  0  0  0  0  0  0  0
    8.1605    4.9771  -60.8938 H   0  0  0  0  0  0  0  0  0  0  0  0
   10.2612    5.9383  -57.3254 H   0  0  0  0  0  0  0  0  0  0  0  0
    8.4859    5.5068  -57.2997 H   0  0  0  0  0  0  0  0  0  0  0  0
   10.1697    3.8499  -56.2420 H   0  0  0  0  0  0  0  0  0  0  0  0
   11.9229    3.6680  -57.6733 H   0  0  0  0  0  0  0  0  0  0  0  0
   10.9217    2.1577  -57.9866 H   0  0  0  0  0  0  0  0  0  0  0  0
   10.8240   -2.6024  -53.6639 H   0  0  0  0  0  0  0  0  0  0  0  0
   10.8963   -1.6229  -56.5222 H   0  0  0  0  0  0  0  0  0  0  0  0
   12.1931   -1.5952  -55.3319 H   0  0  0  0  0  0  0  0  0  0  0  0
   12.2770   -3.3927  -57.3401 H   0  0  0  0  0  0  0  0  0  0  0  0
   12.7519   -3.9437  -55.7440 H   0  0  0  0  0  0  0  0  0  0  0  0
   10.0204   -4.2133  -57.1446 H   0  0  0  0  0  0  0  0  0  0  0  0
   10.9441   -5.5011  -56.3847 H   0  0  0  0  0  0  0  0  0  0  0  0
    8.9101   -4.2122  -55.0674 H   0  0  0  0  0  0  0  0  0  0  0  0
   10.3211   -4.7866  -54.1694 H   0  0  0  0  0  0  0  0  0  0  0  0
    6.4421   -3.7186  -53.4764 H   0  0  0  0  0  0  0  0  0  0  0  0
    6.0903   -5.3516  -51.6260 H   0  0  0  0  0  0  0  0  0  0  0  0
    7.4934   -5.2264  -49.5658 H   0  0  0  0  0  0  0  0  0  0  0  0
    9.2312   -3.4510  -49.3483 H   0  0  0  0  0  0  0  0  0  0  0  0
    9.5883   -1.8197  -51.1978 H   0  0  0  0  0  0  0  0  0  0  0  0
  1  2  1  0
  2  3  1  0
  3  4  1  0
  4  5  2  0
  4  6  1  0
  6  7  1  0
  7  8  1  0
  8  9  1  0
  9 10  1  0
 10 11  1  0
 11 12  1  0
 12 13  1  0
 13 14  1  0
 13 15  1  0
 15 16  1  0
 16 17  1  0
  3 18  2  0
 18 19  1  0
 19 20  1  0
 20 21  1  0
 21 22  1  0
 22 23  1  0
 23 24  1  0
 19 25  1  0
 25 26  1  0
 26 27  2  0
 27 28  1  0
 28 29  2  0
 29 30  1  0
 30 31  2  0
 25  2  2  0
 31 26  1  0
 16  7  1  0
 24 20  1  0
 14  9  1  0
 17 11  1  0
  1 32  1  0
  1 33  1  0
  1 34  1  0
  6 35  1  0
  7 36  1  1
  8 37  1  0
  8 38  1  0
  9 39  1  6
 10 40  1  0
 10 41  1  0
 11 42  1  6
 12 43  1  0
 12 44  1  0
 13 45  1  1
 14 46  1  0
 14 47  1  0
 15 48  1  0
 15 49  1  0
 16 50  1  1
 17 51  1  0
 17 52  1  0
 20 53  1  0
 21 54  1  0
 21 55  1  0
 22 56  1  0
 22 57  1  0
 23 58  1  0
 23 59  1  0
 24 60  1  0
 24 61  1  0
 27 62  1  0
 28 63  1  0
 29 64  1  0
 30 65  1  0
 31 66  1  0
M  END
>  <meeko>  (27) 
{"is_sidechain": false}

$$$$

     RDKit          3D

 66 71  0  0  0  0  0  0  0  0999 V2000
    5.9130   -0.0010  -53.2650 C   0  0  0  0  0  0  0  0  0  0  0  0
    7.1710   -0.4260  -53.9340 C   0  0  0  0  0  0  0  0  0  0  0  0
    7.8130    0.1850  -55.0530 C   0  0  0  0  0  0  0  0  0  0  0  0
    7.3620    1.3460  -55.8440 C   0  0  0  0  0  0  0  0  0  0  0  0
    6.1810    1.5730  -56.0950 O   0  0  0  0  0  0  0  0  0  0  0  0
    8.3910    2.1650  -56.2770 N   0  0  0  0  0  0  0  0  0  0  0  0
    8.1700    3.2990  -57.1740 C   0  0  1  0  0  0  0  0  0  0  0  0
    9.0640    4.4660  -56.7370 C   0  0  0  0  0  0  0  0  0  0  0  0
   10.3250    4.7720  -57.5490 C   0  0  2  0  0  0  0  0  0  0  0  0
    9.6280    5.6450  -58.6040 C   0  0  0  0  0  0  0  0  0  0  0  0
    9.1780    4.8960  -59.8690 C   0  0  1  0  0  0  0  0  0  0  0  0
   10.3200    4.0470  -60.4270 C   0  0  0  0  0  0  0  0  0  0  0  0
   10.7550    3.0290  -59.3720 C   0  0  1  0  0  0  0  0  0  0  0  0
   11.3200    3.7830  -58.1700 C   0  0  0  0  0  0  0  0  0  0  0  0
    9.5860    2.1090  -58.9920 C   0  0  0  0  0  0  0  0  0  0  0  0
    8.2720    2.8340  -58.6440 C   0  0  2  0  0  0  0  0  0  0  0  0
    7.9740    3.9890  -59.6130 C   0  0  0  0  0  0  0  0  0  0  0  0
    8.9570   -0.4470  -55.3470 N   0  0  0  0  0  0  0  0  0  0  0  0
    9.0530   -1.4520  -54.4530 N   0  0  0  0  0  0  0  0  0  0  0  0
   10.2350   -2.2950  -54.5470 C   0  0  0  0  0  0  0  0  0  0  0  0
    9.9430   -3.7610  -54.8900 C   0  0  0  0  0  0  0  0  0  0  0  0
   11.1570   -4.2140  -55.6880 C   0  0  0  0  0  0  0  0  0  0  0  0
   11.5300   -2.9810  -56.4950 C   0  0  0  0  0  0  0  0  0  0  0  0
   11.3300   -1.8270  -55.5190 C   0  0  0  0  0  0  0  0  0  0  0  0
    7.9890   -1.4930  -53.5790 C   0  0  0  0  0  0  0  0  0  0  0  0
    7.7950   -2.4560  -52.4990 C   0  0  0  0  0  0  0  0  0  0  0  0
    6.9760   -3.5740  -52.6920 C   0  0  0  0  0  0  0  0  0  0  0  0
    6.7590   -4.4780  -51.6510 C   0  0  0  0  0  0  0  0  0  0  0  0
    7.3470   -4.2610  -50.4060 C   0  0  0  0  0  0  0  0  0  0  0  0
    8.1430   -3.1350  -50.1970 C   0  0  0  0  0  0  0  0  0  0  0  0
    8.3580   -2.2300  -51.2390 C   0  0  0  0  0  0  0  0  0  0  0  0
    6.0449   -0.0455  -52.1738 H   0  0  0  0  0  0  0  0  0  0  0  0
    5.6692    1.0294  -53.5631 H   0  0  0  0  0  0  0  0  0  0  0  0
    5.0943   -0.6724  -53.5631 H   0  0  0  0  0  0  0  0  0  0  0  0
    9.3360    1.9130  -56.0260 H   0  0  0  0  0  0  0  0  0  0  0  0
    7.1486    3.7016  -57.1061 H   0  0  0  0  0  0  0  0  0  0  0  0
    8.4419    5.3731  -56.7515 H   0  0  0  0  0  0  0  0  0  0  0  0
    9.4488    4.1536  -55.7550 H   0  0  0  0  0  0  0  0  0  0  0  0
   11.1050    5.1148  -56.8533 H   0  0  0  0  0  0  0  0  0  0  0  0
    8.7390    6.0972  -58.1402 H   0  0  0  0  0  0  0  0  0  0  0  0
   10.3721    6.3856  -58.9322 H   0  0  0  0  0  0  0  0  0  0  0  0
    8.8841    5.6664  -60.5971 H   0  0  0  0  0  0  0  0  0  0  0  0
    9.9780    3.5182  -61.3289 H   0  0  0  0  0  0  0  0  0  0  0  0
   11.1697    4.6961  -60.6852 H   0  0  0  0  0  0  0  0  0  0  0  0
   11.5434    2.3756  -59.7740 H   0  0  0  0  0  0  0  0  0  0  0  0
   11.6080    3.0497  -57.4023 H   0  0  0  0  0  0  0  0  0  0  0  0
   12.1793    4.3687  -58.5285 H   0  0  0  0  0  0  0  0  0  0  0  0
    9.3905    1.4376  -59.8411 H   0  0  0  0  0  0  0  0  0  0  0  0
    9.8960    1.5802  -58.0786 H   0  0  0  0  0  0  0  0  0  0  0  0
    7.4919    2.0686  -58.7689 H   0  0  0  0  0  0  0  0  0  0  0  0
    7.6487    3.5627  -60.5734 H   0  0  0  0  0  0  0  0  0  0  0  0
    7.1945    4.6096  -59.1469 H   0  0  0  0  0  0  0  0  0  0  0  0
   10.6127   -2.2014  -53.5181 H   0  0  0  0  0  0  0  0  0  0  0  0
    9.8338   -4.3604  -53.9741 H   0  0  0  0  0  0  0  0  0  0  0  0
    9.0047   -3.8806  -55.4514 H   0  0  0  0  0  0  0  0  0  0  0  0
   11.9789   -4.5102  -55.0196 H   0  0  0  0  0  0  0  0  0  0  0  0
   10.9530   -5.0929  -56.3172 H   0  0  0  0  0  0  0  0  0  0  0  0
   12.5769   -3.0340  -56.8286 H   0  0  0  0  0  0  0  0  0  0  0  0
   10.9252   -2.8734  -57.4075 H   0  0  0  0  0  0  0  0  0  0  0  0
   12.2629   -1.6178  -54.9750 H   0  0  0  0  0  0  0  0  0  0  0  0
   11.0458   -0.8993  -56.0373 H   0  0  0  0  0  0  0  0  0  0  0  0
    6.5005   -3.7414  -53.6697 H   0  0  0  0  0  0  0  0  0  0  0  0
    6.1241   -5.3615  -51.8130 H   0  0  0  0  0  0  0  0  0  0  0  0
    7.1832   -4.9780  -49.5881 H   0  0  0  0  0  0  0  0  0  0  0  0
    8.6011   -2.9598  -49.2124 H   0  0  0  0  0  0  0  0  0  0  0  0
    8.9735   -1.3346  -51.0676 H   0  0  0  0  0  0  0  0  0  0  0  0
  1  2  1  0
  2  3  1  0
  3  4  1  0
  4  5  2  0
  4  6  1  0
  6  7  1  0
  7  8  1  0
  8  9  1  0
  9 10  1  0
 10 11  1  0
 11 12  1  0
 12 13  1  0
 13 14  1  0
 13 15  1  0
 15 16  1  0
 16 17  1  0
  3 18  2  0
 18 19  1  0
 19 20  1  0
 20 21  1  0
 21 22  1  0
 22 23  1  0
 23 24  1  0
 19 25  1  0
 25 26  1  0
 26 27  2  0
 27 28  1  0
 28 29  2  0
 29 30  1  0
 30 31  2  0
 25  2  2  0
 31 26  1  0
 16  7  1  0
 24 20  1  0
 14  9  1  0
 17 11  1  0
  1 32  1  0
  1 33  1  0
  1 34  1  0
  6 35  1  0
  7 36  1  6
  8 37  1  0
  8 38  1  0
  9 39  1  1
 10 40  1  0
 10 41  1  0
 11 42  1  6
 12 43  1  0
 12 44  1  0
 13 45  1  6
 14 46  1  0
 14 47  1  0
 15 48  1  0
 15 49  1  0
 16 50  1  1
 17 51  1  0
 17 52  1  0
 20 53  1  0
 21 54  1  0
 21 55  1  0
 22 56  1  0
 22 57  1  0
 23 58  1  0
 23 59  1  0
 24 60  1  0
 24 61  1  0
 27 62  1  0
 28 63  1  0
 29 64  1  0
 30 65  1  0
 31 66  1  0
M  END
>  <meeko>  (28) 
{"is_sidechain": false}

$$$$

     RDKit          3D

 57 61  0  0  0  0  0  0  0  0999 V2000
   10.7030    1.1950  -56.5040 C   0  0  0  0  0  0  0  0  0  0  0  0
    9.2510    1.4880  -56.6150 C   0  0  0  0  0  0  0  0  0  0  0  0
    8.2200    1.0490  -55.7310 C   0  0  0  0  0  0  0  0  0  0  0  0
    8.3610    0.2310  -54.5140 C   0  0  0  0  0  0  0  0  0  0  0  0
    7.7650    0.4550  -53.4610 O   0  0  0  0  0  0  0  0  0  0  0  0
    9.1900   -0.8560  -54.6760 N   0  0  0  0  0  0  0  0  0  0  0  0
    9.3840   -1.8480  -53.6440 C   0  0  0  0  0  0  0  0  0  0  0  0
   10.4740   -2.8400  -54.0600 C   0  0  0  0  0  0  0  0  0  0  0  0
   11.4340   -3.0910  -53.3390 O   0  0  0  0  0  0  0  0  0  0  0  0
   10.2780   -3.3680  -55.3220 N   0  0  0  0  0  0  0  0  0  0  0  0
   11.2270   -4.2030  -56.0350 C   0  0  1  0  0  0  0  0  0  0  0  0
   11.8840   -3.3830  -57.2050 C   0  0  0  0  0  0  0  0  0  0  0  0
   12.9310   -4.2230  -57.9930 C   0  0  1  0  0  0  0  0  0  0  0  0
   13.9580   -4.8060  -57.0190 C   0  0  0  0  0  0  0  0  0  0  0  0
   13.0620   -5.7060  -56.1540 C   0  0  1  0  0  0  0  0  0  0  0  0
   12.3430   -4.7870  -55.1520 C   0  0  0  0  0  0  0  0  0  0  0  0
   11.9290   -6.1600  -57.1320 C   0  0  2  0  0  0  0  0  0  0  0  0
   11.8160   -7.4910  -57.2340 F   0  0  0  0  0  0  0  0  0  0  0  0
   12.2850   -5.5200  -58.4750 C   0  0  0  0  0  0  0  0  0  0  0  0
   10.6510   -5.5080  -56.6050 C   0  0  0  0  0  0  0  0  0  0  0  0
    7.0120    1.4920  -56.1300 N   0  0  0  0  0  0  0  0  0  0  0  0
    7.2720    2.2070  -57.2410 N   0  0  0  0  0  0  0  0  0  0  0  0
    6.1780    2.8610  -57.9240 C   0  0  0  0  0  0  0  0  0  0  0  0
    8.6000    2.2300  -57.5890 C   0  0  0  0  0  0  0  0  0  0  0  0
    9.1260    2.9340  -58.7530 C   0  0  0  0  0  0  0  0  0  0  0  0
    9.5860    4.2510  -58.6360 C   0  0  0  0  0  0  0  0  0  0  0  0
   10.0940    4.9200  -59.7510 C   0  0  0  0  0  0  0  0  0  0  0  0
   10.1420    4.2770  -60.9880 C   0  0  0  0  0  0  0  0  0  0  0  0
    9.6790    2.9680  -61.1130 C   0  0  0  0  0  0  0  0  0  0  0  0
    9.1710    2.2980  -59.9980 C   0  0  0  0  0  0  0  0  0  0  0  0
   10.9854    1.1380  -55.4424 H   0  0  0  0  0  0  0  0  0  0  0  0
   10.9217    0.2346  -56.9937 H   0  0  0  0  0  0  0  0  0  0  0  0
   11.2771    1.9954  -56.9937 H   0  0  0  0  0  0  0  0  0  0  0  0
    9.4970   -1.0310  -55.6310 H   0  0  0  0  0  0  0  0  0  0  0  0
    9.6849   -1.3479  -52.7116 H   0  0  0  0  0  0  0  0  0  0  0  0
    8.4418   -2.3945  -53.4907 H   0  0  0  0  0  0  0  0  0  0  0  0
    9.5860   -2.8730  -55.8880 H   0  0  0  0  0  0  0  0  0  0  0  0
   11.0939   -3.0597  -57.8988 H   0  0  0  0  0  0  0  0  0  0  0  0
   12.4048   -2.5206  -56.7633 H   0  0  0  0  0  0  0  0  0  0  0  0
   13.3345   -3.5671  -58.7784 H   0  0  0  0  0  0  0  0  0  0  0  0
   14.7285   -5.3887  -57.5451 H   0  0  0  0  0  0  0  0  0  0  0  0
   14.5257   -4.0526  -56.4533 H   0  0  0  0  0  0  0  0  0  0  0  0
   13.6169   -6.5200  -55.6647 H   0  0  0  0  0  0  0  0  0  0  0  0
   11.9316   -5.3563  -54.3054 H   0  0  0  0  0  0  0  0  0  0  0  0
   12.9918   -4.0320  -54.6840 H   0  0  0  0  0  0  0  0  0  0  0  0
   12.9918   -6.1392  -59.0469 H   0  0  0  0  0  0  0  0  0  0  0  0
   11.4362   -5.3855  -59.1616 H   0  0  0  0  0  0  0  0  0  0  0  0
    9.9287   -5.3162  -57.4122 H   0  0  0  0  0  0  0  0  0  0  0  0
   10.0859   -6.1168  -55.8839 H   0  0  0  0  0  0  0  0  0  0  0  0
    5.4802    3.2782  -57.1831 H   0  0  0  0  0  0  0  0  0  0  0  0
    6.5717    3.6721  -58.5542 H   0  0  0  0  0  0  0  0  0  0  0  0
    5.6500    2.1303  -58.5542 H   0  0  0  0  0  0  0  0  0  0  0  0
    9.5470    4.7606  -57.6619 H   0  0  0  0  0  0  0  0  0  0  0  0
   10.4564    5.9541  -59.6541 H   0  0  0  0  0  0  0  0  0  0  0  0
   10.5455    4.8033  -61.8656 H   0  0  0  0  0  0  0  0  0  0  0  0
    9.7138    2.4630  -62.0896 H   0  0  0  0  0  0  0  0  0  0  0  0
    8.8047    1.2657  -60.0992 H   0  0  0  0  0  0  0  0  0  0  0  0
  1  2  1  0
  2  3  1  0
  3  4  1  0
  4  5  2  0
  4  6  1  0
  6  7  1  0
  7  8  1  0
  8  9  2  0
  8 10  1  0
 11 10  1  1
 11 12  1  0
 12 13  1  0
 13 14  1  0
 14 15  1  0
 15 16  1  0
 15 17  1  0
 17 18  1  6
 17 19  1  0
 17 20  1  0
  3 21  2  0
 21 22  1  0
 22 23  1  0
 22 24  1  0
 24 25  1  0
 25 26  2  0
 26 27  1  0
 27 28  2  0
 28 29  1  0
 29 30  2  0
 24  2  2  0
 30 25  1  0
 16 11  1  0
 20 11  1  0
 19 13  1  0
  1 31  1  0
  1 32  1  0
  1 33  1  0
  6 34  1  0
  7 35  1  0
  7 36  1  0
 10 37  1  0
 12 38  1  0
 12 39  1  0
 13 40  1  6
 14 41  1  0
 14 42  1  0
 15 43  1  1
 16 44  1  0
 16 45  1  0
 19 46  1  0
 19 47  1  0
 20 48  1  0
 20 49  1  0
 23 50  1  0
 23 51  1  0
 23 52  1  0
 26 53  1  0
 27 54  1  0
 28 55  1  0
 29 56  1  0
 30 57  1  0
M  END
>  <meeko>  (29) 
{"is_sidechain": false}

$$$$

     RDKit          3D

 57 61  0  0  0  0  0  0  0  0999 V2000
    9.4030    4.2870  -56.7230 C   0  0  0  0  0  0  0  0  0  0  0  0
    9.1090    3.7380  -58.0720 C   0  0  0  0  0  0  0  0  0  0  0  0
    7.9630    2.9820  -58.4850 C   0  0  0  0  0  0  0  0  0  0  0  0
    6.8260    2.5090  -57.6770 C   0  0  0  0  0  0  0  0  0  0  0  0
    5.6470    2.6710  -57.9910 O   0  0  0  0  0  0  0  0  0  0  0  0
    7.1710    1.7640  -56.5660 N   0  0  0  0  0  0  0  0  0  0  0  0
    6.1610    1.1460  -55.7240 C   0  0  0  0  0  0  0  0  0  0  0  0
    6.6800   -0.0600  -54.9270 C   0  0  0  0  0  0  0  0  0  0  0  0
    5.9120   -0.8490  -54.3830 O   0  0  0  0  0  0  0  0  0  0  0  0
    8.0490   -0.2250  -54.9630 N   0  0  0  0  0  0  0  0  0  0  0  0
    8.7390   -1.3710  -54.4070 C   0  0  2  0  0  0  0  0  0  0  0  0
   10.2210   -1.4940  -54.9000 C   0  0  0  0  0  0  0  0  0  0  0  0
   10.9450   -2.7090  -54.2480 C   0  0  2  0  0  0  0  0  0  0  0  0
   10.1210   -3.9810  -54.4760 C   0  0  0  0  0  0  0  0  0  0  0  0
    8.8330   -3.6400  -53.7070 C   0  0  2  0  0  0  0  0  0  0  0  0
    8.0080   -2.7110  -54.6120 C   0  0  0  0  0  0  0  0  0  0  0  0
    9.3200   -2.7060  -52.5570 C   0  0  1  0  0  0  0  0  0  0  0  0
    8.9760   -3.1380  -51.3370 F   0  0  0  0  0  0  0  0  0  0  0  0
   10.8370   -2.6190  -52.7260 C   0  0  0  0  0  0  0  0  0  0  0  0
    8.7190   -1.3370  -52.8710 C   0  0  0  0  0  0  0  0  0  0  0  0
    8.0220    2.7070  -59.7990 N   0  0  0  0  0  0  0  0  0  0  0  0
    9.1780    3.2490  -60.2130 N   0  0  0  0  0  0  0  0  0  0  0  0
    9.5600    3.1050  -61.6000 C   0  0  0  0  0  0  0  0  0  0  0  0
    9.8770    3.8870  -59.2190 C   0  0  0  0  0  0  0  0  0  0  0  0
   11.1530    4.5630  -59.4190 C   0  0  0  0  0  0  0  0  0  0  0  0
   11.1890    5.9120  -59.7970 C   0  0  0  0  0  0  0  0  0  0  0  0
   12.4140    6.5560  -59.9870 C   0  0  0  0  0  0  0  0  0  0  0  0
   13.6060    5.8570  -59.7980 C   0  0  0  0  0  0  0  0  0  0  0  0
   13.5770    4.5160  -59.4170 C   0  0  0  0  0  0  0  0  0  0  0  0
   12.3540    3.8710  -59.2260 C   0  0  0  0  0  0  0  0  0  0  0  0
    9.0310    3.5924  -55.9554 H   0  0  0  0  0  0  0  0  0  0  0  0
   10.4896    4.4135  -56.6074 H   0  0  0  0  0  0  0  0  0  0  0  0
    8.9060    5.2615  -56.6074 H   0  0  0  0  0  0  0  0  0  0  0  0
    8.1070    1.3850  -56.5320 H   0  0  0  0  0  0  0  0  0  0  0  0
    5.7918    1.8999  -55.0132 H   0  0  0  0  0  0  0  0  0  0  0  0
    5.3677    0.7757  -56.3901 H   0  0  0  0  0  0  0  0  0  0  0  0
    8.5350    0.2960  -55.6940 H   0  0  0  0  0  0  0  0  0  0  0  0
   10.2240   -1.6214  -55.9926 H   0  0  0  0  0  0  0  0  0  0  0  0
   10.7568   -0.5785  -54.6089 H   0  0  0  0  0  0  0  0  0  0  0  0
   11.9666   -2.7176  -54.6558 H   0  0  0  0  0  0  0  0  0  0  0  0
    9.9212   -4.1464  -55.5450 H   0  0  0  0  0  0  0  0  0  0  0  0
   10.6150   -4.9062  -54.1443 H   0  0  0  0  0  0  0  0  0  0  0  0
    8.2756   -4.5329  -53.3875 H   0  0  0  0  0  0  0  0  0  0  0  0
    8.0450   -3.0342  -55.6628 H   0  0  0  0  0  0  0  0  0  0  0  0
    6.9348   -2.6821  -54.3723 H   0  0  0  0  0  0  0  0  0  0  0  0
   11.2355   -1.6672  -52.3448 H   0  0  0  0  0  0  0  0  0  0  0  0
   11.4071   -3.3829  -52.1769 H   0  0  0  0  0  0  0  0  0  0  0  0
    7.6952   -1.2430  -52.4797 H   0  0  0  0  0  0  0  0  0  0  0  0
    9.2543   -0.4867  -52.4233 H   0  0  0  0  0  0  0  0  0  0  0  0
   10.5878    2.7175  -61.6589 H   0  0  0  0  0  0  0  0  0  0  0  0
    8.8746    2.4035  -62.0982 H   0  0  0  0  0  0  0  0  0  0  0  0
    9.5082    4.0844  -62.0982 H   0  0  0  0  0  0  0  0  0  0  0  0
   10.2499    6.4654  -59.9445 H   0  0  0  0  0  0  0  0  0  0  0  0
   12.4385    7.6144  -60.2857 H   0  0  0  0  0  0  0  0  0  0  0  0
   14.5702    6.3642  -59.9497 H   0  0  0  0  0  0  0  0  0  0  0  0
   14.5180    3.9664  -59.2670 H   0  0  0  0  0  0  0  0  0  0  0  0
   12.3341    2.8139  -58.9224 H   0  0  0  0  0  0  0  0  0  0  0  0
  1  2  1  0
  2  3  1  0
  3  4  1  0
  4  5  2  0
  4  6  1  0
  6  7  1  0
  7  8  1  0
  8  9  2  0
  8 10  1  0
 11 10  1  6
 11 12  1  0
 12 13  1  0
 13 14  1  0
 14 15  1  0
 15 16  1  0
 15 17  1  0
 17 18  1  1
 17 19  1  0
 17 20  1  0
  3 21  2  0
 21 22  1  0
 22 23  1  0
 22 24  1  0
 24 25  1  0
 25 26  2  0
 26 27  1  0
 27 28  2  0
 28 29  1  0
 29 30  2  0
 24  2  2  0
 30 25  1  0
 16 11  1  0
 20 11  1  0
 19 13  1  0
  1 31  1  0
  1 32  1  0
  1 33  1  0
  6 34  1  0
  7 35  1  0
  7 36  1  0
 10 37  1  0
 12 38  1  0
 12 39  1  0
 13 40  1  1
 14 41  1  0
 14 42  1  0
 15 43  1  1
 16 44  1  0
 16 45  1  0
 19 46  1  0
 19 47  1  0
 20 48  1  0
 20 49  1  0
 23 50  1  0
 23 51  1  0
 23 52  1  0
 26 53  1  0
 27 54  1  0
 28 55  1  0
 29 56  1  0
 30 57  1  0
M  END
>  <meeko>  (30) 
{"is_sidechain": false}

$$$$

     RDKit          3D

 47 50  0  0  0  0  0  0  0  0999 V2000
    9.3610    1.6200  -55.8740 C   0  0  0  0  0  0  0  0  0  0  0  0
    8.0210    1.6060  -56.5200 C   0  0  0  0  0  0  0  0  0  0  0  0
    6.8250    0.9800  -56.0430 C   0  0  0  0  0  0  0  0  0  0  0  0
    6.6160    0.2370  -54.7850 C   0  0  0  0  0  0  0  0  0  0  0  0
    5.9790    0.6820  -53.8340 O   0  0  0  0  0  0  0  0  0  0  0  0
    7.2180   -1.0110  -54.7590 N   0  0  0  0  0  0  0  0  0  0  0  0
    7.1560   -1.8750  -53.5730 C   0  0  0  0  0  0  0  0  0  0  0  0
    7.8790   -3.2360  -53.7280 C   0  0  0  0  0  0  0  0  0  0  0  0
    8.3660   -3.0580  -52.2760 C   0  0  0  0  0  0  0  0  0  0  0  0
    8.2080   -1.5390  -52.4870 C   0  0  0  0  0  0  0  0  0  0  0  0
    5.8190    1.1550  -56.9150 N   0  0  0  0  0  0  0  0  0  0  0  0
    6.3500    1.8540  -57.9320 N   0  0  0  0  0  0  0  0  0  0  0  0
    5.5240    2.1990  -59.0650 C   0  0  2  0  0  0  0  0  0  0  0  0
    4.0630    2.4120  -58.7300 C   0  0  0  0  0  0  0  0  0  0  0  0
    3.4140    2.3110  -60.0940 C   0  0  0  0  0  0  0  0  0  0  0  0
    4.2320    1.4490  -60.8990 O   0  0  0  0  0  0  0  0  0  0  0  0
    5.4300    1.1450  -60.1580 C   0  0  0  0  0  0  0  0  0  0  0  0
    7.6680    2.1890  -57.7270 C   0  0  0  0  0  0  0  0  0  0  0  0
    8.4670    2.9780  -58.6550 C   0  0  0  0  0  0  0  0  0  0  0  0
    8.5220    4.3710  -58.5320 C   0  0  0  0  0  0  0  0  0  0  0  0
    9.2950    5.1230  -59.4180 C   0  0  0  0  0  0  0  0  0  0  0  0
   10.0130    4.4880  -60.4300 C   0  0  0  0  0  0  0  0  0  0  0  0
    9.9580    3.1020  -60.5610 C   0  0  0  0  0  0  0  0  0  0  0  0
    9.1850    2.3470  -59.6770 C   0  0  0  0  0  0  0  0  0  0  0  0
    9.2409    1.6187  -54.7806 H   0  0  0  0  0  0  0  0  0  0  0  0
    9.9258    0.7277  -56.1819 H   0  0  0  0  0  0  0  0  0  0  0  0
    9.9071    2.5239  -56.1819 H   0  0  0  0  0  0  0  0  0  0  0  0
    7.8630   -1.2180  -55.5110 H   0  0  0  0  0  0  0  0  0  0  0  0
    6.0742   -1.8081  -53.3850 H   0  0  0  0  0  0  0  0  0  0  0  0
    7.2115   -4.0958  -53.8869 H   0  0  0  0  0  0  0  0  0  0  0  0
    8.5774   -3.4319  -54.5550 H   0  0  0  0  0  0  0  0  0  0  0  0
    7.7010   -3.4876  -51.5123 H   0  0  0  0  0  0  0  0  0  0  0  0
    9.3090   -3.4999  -51.9217 H   0  0  0  0  0  0  0  0  0  0  0  0
    7.8131   -0.9927  -51.6177 H   0  0  0  0  0  0  0  0  0  0  0  0
    9.0704   -0.8887  -52.6952 H   0  0  0  0  0  0  0  0  0  0  0  0
    6.0469    3.1086  -59.3955 H   0  0  0  0  0  0  0  0  0  0  0  0
    3.6901    1.6316  -58.0504 H   0  0  0  0  0  0  0  0  0  0  0  0
    3.8592    3.3591  -58.2090 H   0  0  0  0  0  0  0  0  0  0  0  0
    2.4032    1.8877  -59.9984 H   0  0  0  0  0  0  0  0  0  0  0  0
    3.3277    3.3054  -60.5563 H   0  0  0  0  0  0  0  0  0  0  0  0
    5.3614    0.1402  -59.7155 H   0  0  0  0  0  0  0  0  0  0  0  0
    6.3188    1.1553  -60.8060 H   0  0  0  0  0  0  0  0  0  0  0  0
    7.9547    4.8744  -57.7352 H   0  0  0  0  0  0  0  0  0  0  0  0
    9.3376    6.2176  -59.3176 H   0  0  0  0  0  0  0  0  0  0  0  0
   10.6237    5.0818  -61.1260 H   0  0  0  0  0  0  0  0  0  0  0  0
   10.5238    2.6025  -61.3612 H   0  0  0  0  0  0  0  0  0  0  0  0
    9.1402    1.2531  -59.7841 H   0  0  0  0  0  0  0  0  0  0  0  0
  1  2  1  0
  2  3  1  0
  3  4  1  0
  4  5  2  0
  4  6  1  0
  6  7  1  0
  7  8  1  0
  8  9  1  0
  9 10  1  0
  3 11  2  0
 11 12  1  0
 12 13  1  0
 13 14  1  0
 14 15  1  0
 15 16  1  0
 16 17  1  0
 12 18  1  0
 18 19  1  0
 19 20  2  0
 20 21  1  0
 21 22  2  0
 22 23  1  0
 23 24  2  0
 18  2  2  0
 24 19  1  0
 10  7  1  0
 17 13  1  0
  1 25  1  0
  1 26  1  0
  1 27  1  0
  6 28  1  0
  7 29  1  0
  8 30  1  0
  8 31  1  0
  9 32  1  0
  9 33  1  0
 10 34  1  0
 10 35  1  0
 13 36  1  6
 14 37  1  0
 14 38  1  0
 15 39  1  0
 15 40  1  0
 17 41  1  0
 17 42  1  0
 20 43  1  0
 21 44  1  0
 22 45  1  0
 23 46  1  0
 24 47  1  0
M  END
>  <meeko>  (31) 
{"is_sidechain": false}

$$$$

     RDKit          3D

 47 50  0  0  0  0  0  0  0  0999 V2000
    5.9120    0.0070  -53.5340 C   0  0  0  0  0  0  0  0  0  0  0  0
    7.2730   -0.4330  -53.9400 C   0  0  0  0  0  0  0  0  0  0  0  0
    8.1090    0.1260  -54.9580 C   0  0  0  0  0  0  0  0  0  0  0  0
    7.8490    1.2960  -55.8190 C   0  0  0  0  0  0  0  0  0  0  0  0
    6.7410    1.5730  -56.2700 O   0  0  0  0  0  0  0  0  0  0  0  0
    8.9760    2.0540  -56.0980 N   0  0  0  0  0  0  0  0  0  0  0  0
    8.9200    3.2280  -56.9790 C   0  0  0  0  0  0  0  0  0  0  0  0
    9.9330    3.1920  -58.1490 C   0  0  0  0  0  0  0  0  0  0  0  0
   10.1430    4.7020  -57.9160 C   0  0  0  0  0  0  0  0  0  0  0  0
    9.6950    4.4640  -56.4590 C   0  0  0  0  0  0  0  0  0  0  0  0
    9.2530   -0.5680  -55.0690 N   0  0  0  0  0  0  0  0  0  0  0  0
    9.1670   -1.5410  -54.1460 N   0  0  0  0  0  0  0  0  0  0  0  0
   10.2510   -2.5060  -53.9930 C   0  0  1  0  0  0  0  0  0  0  0  0
    9.9730   -3.8930  -54.5460 C   0  0  0  0  0  0  0  0  0  0  0  0
   10.4810   -3.7940  -55.9650 C   0  0  0  0  0  0  0  0  0  0  0  0
   11.6350   -2.9480  -55.9090 O   0  0  0  0  0  0  0  0  0  0  0  0
   11.4940   -2.0810  -54.7680 C   0  0  0  0  0  0  0  0  0  0  0  0
    7.9930   -1.5000  -53.4260 C   0  0  0  0  0  0  0  0  0  0  0  0
    7.6500   -2.4360  -52.3630 C   0  0  0  0  0  0  0  0  0  0  0  0
    6.8480   -3.5500  -52.6350 C   0  0  0  0  0  0  0  0  0  0  0  0
    6.5250   -4.4480  -51.6170 C   0  0  0  0  0  0  0  0  0  0  0  0
    6.9980   -4.2340  -50.3220 C   0  0  0  0  0  0  0  0  0  0  0  0
    7.7910   -3.1210  -50.0430 C   0  0  0  0  0  0  0  0  0  0  0  0
    8.1130   -2.2210  -51.0600 C   0  0  0  0  0  0  0  0  0  0  0  0
    5.8458    0.0284  -52.4362 H   0  0  0  0  0  0  0  0  0  0  0  0
    5.7179    1.0137  -53.9327 H   0  0  0  0  0  0  0  0  0  0  0  0
    5.1654   -0.6955  -53.9327 H   0  0  0  0  0  0  0  0  0  0  0  0
    9.8670    1.6520  -55.8360 H   0  0  0  0  0  0  0  0  0  0  0  0
    7.8325    3.2503  -57.1428 H   0  0  0  0  0  0  0  0  0  0  0  0
   10.8226    2.5708  -57.9679 H   0  0  0  0  0  0  0  0  0  0  0  0
    9.6652    2.7886  -59.1367 H   0  0  0  0  0  0  0  0  0  0  0  0
   11.1825    5.0441  -58.0273 H   0  0  0  0  0  0  0  0  0  0  0  0
    9.6651    5.4600  -58.5540 H   0  0  0  0  0  0  0  0  0  0  0  0
   10.5114    4.2337  -55.7586 H   0  0  0  0  0  0  0  0  0  0  0  0
    9.2046    5.2501  -55.8661 H   0  0  0  0  0  0  0  0  0  0  0  0
   10.3750   -2.5359  -52.9004 H   0  0  0  0  0  0  0  0  0  0  0  0
   10.5208   -4.6620  -53.9815 H   0  0  0  0  0  0  0  0  0  0  0  0
    8.9142   -4.1841  -54.4812 H   0  0  0  0  0  0  0  0  0  0  0  0
   10.7543   -4.7898  -56.3442 H   0  0  0  0  0  0  0  0  0  0  0  0
    9.7145   -3.3883  -56.6417 H   0  0  0  0  0  0  0  0  0  0  0  0
   12.3814   -2.1672  -54.1237 H   0  0  0  0  0  0  0  0  0  0  0  0
   11.3963   -1.0358  -55.0966 H   0  0  0  0  0  0  0  0  0  0  0  0
    6.4710   -3.7183  -53.6546 H   0  0  0  0  0  0  0  0  0  0  0  0
    5.8975   -5.3246  -51.8355 H   0  0  0  0  0  0  0  0  0  0  0  0
    6.7453   -4.9436  -49.5204 H   0  0  0  0  0  0  0  0  0  0  0  0
    8.1626   -2.9526  -49.0215 H   0  0  0  0  0  0  0  0  0  0  0  0
    8.7326   -1.3400  -50.8366 H   0  0  0  0  0  0  0  0  0  0  0  0
  1  2  1  0
  2  3  1  0
  3  4  1  0
  4  5  2  0
  4  6  1  0
  6  7  1  0
  7  8  1  0
  8  9  1  0
  9 10  1  0
  3 11  2  0
 11 12  1  0
 12 13  1  0
 13 14  1  0
 14 15  1  0
 15 16  1  0
 16 17  1  0
 12 18  1  0
 18 19  1  0
 19 20  2  0
 20 21  1  0
 21 22  2  0
 22 23  1  0
 23 24  2  0
 18  2  2  0
 24 19  1  0
 10  7  1  0
 17 13  1  0
  1 25  1  0
  1 26  1  0
  1 27  1  0
  6 28  1  0
  7 29  1  0
  8 30  1  0
  8 31  1  0
  9 32  1  0
  9 33  1  0
 10 34  1  0
 10 35  1  0
 13 36  1  1
 14 37  1  0
 14 38  1  0
 15 39  1  0
 15 40  1  0
 17 41  1  0
 17 42  1  0
 20 43  1  0
 21 44  1  0
 22 45  1  0
 23 46  1  0
 24 47  1  0
M  END
>  <meeko>  (32) 
{"is_sidechain": false}

$$$$

     RDKit          3D

 84 89  0  0  0  0  0  0  0  0999 V2000
    5.7790   -0.6960  -54.3340 C   0  0  0  0  0  0  0  0  0  0  0  0
    7.2620   -0.6260  -54.2540 C   0  0  0  0  0  0  0  0  0  0  0  0
    8.1470    0.1890  -55.0310 C   0  0  0  0  0  0  0  0  0  0  0  0
    7.8080    1.1920  -56.0610 C   0  0  0  0  0  0  0  0  0  0  0  0
    6.7410    1.1940  -56.6670 O   0  0  0  0  0  0  0  0  0  0  0  0
    8.8220    2.1100  -56.3080 N   0  0  0  0  0  0  0  0  0  0  0  0
    8.8230    3.0430  -57.4380 C   0  0  2  0  0  0  0  0  0  0  0  0
    7.3840    3.4610  -57.8250 C   0  0  0  0  0  0  0  0  0  0  0  0
    7.4050    4.3850  -59.0540 C   0  0  2  0  0  0  0  0  0  0  0  0
    8.0430    3.6410  -60.2380 C   0  0  0  0  0  0  0  0  0  0  0  0
    9.4910    3.2420  -59.8950 C   0  0  2  0  0  0  0  0  0  0  0  0
    9.4620    2.3250  -58.6580 C   0  0  0  0  0  0  0  0  0  0  0  0
   10.3110    4.5300  -59.6150 C   0  0  2  0  0  0  0  0  0  0  0  0
   11.8120    4.2320  -59.4880 C   0  0  0  0  0  0  0  0  0  0  0  0
   12.5570    5.4620  -59.1160 N   0  0  0  0  0  0  0  0  0  0  0  0
    9.6880    5.2430  -58.3890 C   0  0  1  0  0  0  0  0  0  0  0  0
    8.2370    5.6370  -58.7320 C   0  0  0  0  0  0  0  0  0  0  0  0
    9.6640    4.3170  -57.1580 C   0  0  0  0  0  0  0  0  0  0  0  0
    9.4280   -0.0490  -54.7010 N   0  0  0  0  0  0  0  0  0  0  0  0
    9.3660   -0.9790  -53.7310 N   0  0  0  0  0  0  0  0  0  0  0  0
   10.6100   -1.4450  -53.1440 C   0  0  0  0  0  0  0  0  0  0  0  0
   11.5050   -2.2370  -54.1050 C   0  0  0  0  0  0  0  0  0  0  0  0
   11.1590   -3.7240  -54.2690 C   0  0  0  0  0  0  0  0  0  0  0  0
   10.1110   -4.0370  -55.3440 C   0  0  0  0  0  0  0  0  0  0  0  0
   10.6850   -4.6490  -56.6390 C   0  0  0  0  0  0  0  0  0  0  0  0
   11.5870   -5.8650  -56.3770 C   0  0  0  0  0  0  0  0  0  0  0  0
   12.2190   -6.3940  -57.6580 C   0  0  0  0  0  0  0  0  0  0  0  0
   12.9470   -5.2900  -58.3470 N   0  0  0  0  0  0  0  0  0  0  0  0
   12.0830   -4.1250  -58.6930 C   0  0  0  0  0  0  0  0  0  0  0  0
   11.4600   -3.5720  -57.4200 C   0  0  0  0  0  0  0  0  0  0  0  0
    8.0870   -1.3540  -53.4090 C   0  0  0  0  0  0  0  0  0  0  0  0
    7.7510   -2.3430  -52.3920 C   0  0  0  0  0  0  0  0  0  0  0  0
    7.3840   -3.6410  -52.7670 C   0  0  0  0  0  0  0  0  0  0  0  0
    7.0600   -4.5860  -51.7940 C   0  0  0  0  0  0  0  0  0  0  0  0
    7.0970   -4.2400  -50.4430 C   0  0  0  0  0  0  0  0  0  0  0  0
    7.4540   -2.9460  -50.0640 C   0  0  0  0  0  0  0  0  0  0  0  0
    7.7780   -1.9980  -51.0360 C   0  0  0  0  0  0  0  0  0  0  0  0
    5.3575   -0.7159  -53.3181 H   0  0  0  0  0  0  0  0  0  0  0  0
    5.3988    0.1852  -54.8715 H   0  0  0  0  0  0  0  0  0  0  0  0
    5.4835   -1.6091  -54.8715 H   0  0  0  0  0  0  0  0  0  0  0  0
    9.7290    1.8120  -55.9690 H   0  0  0  0  0  0  0  0  0  0  0  0
    6.7958    2.5612  -58.0583 H   0  0  0  0  0  0  0  0  0  0  0  0
    6.9307    4.0013  -56.9808 H   0  0  0  0  0  0  0  0  0  0  0  0
    6.3776    4.6799  -59.3138 H   0  0  0  0  0  0  0  0  0  0  0  0
    7.4581    2.7353  -60.4562 H   0  0  0  0  0  0  0  0  0  0  0  0
    8.0507    4.3027  -61.1167 H   0  0  0  0  0  0  0  0  0  0  0  0
    9.9627    2.7015  -60.7288 H   0  0  0  0  0  0  0  0  0  0  0  0
    8.8741    1.4254  -58.8926 H   0  0  0  0  0  0  0  0  0  0  0  0
   10.4972    2.0572  -58.4001 H   0  0  0  0  0  0  0  0  0  0  0  0
   10.2531    5.2225  -60.4677 H   0  0  0  0  0  0  0  0  0  0  0  0
   11.9649    3.4676  -58.7119 H   0  0  0  0  0  0  0  0  0  0  0  0
   12.1858    3.8690  -60.4568 H   0  0  0  0  0  0  0  0  0  0  0  0
   13.2810    5.6790  -59.8130 H   0  0  0  0  0  0  0  0  0  0  0  0
   11.9380    6.2830  -59.0620 H   0  0  0  0  0  0  0  0  0  0  0  0
   13.0330    5.3720  -58.2090 H   0  0  0  0  0  0  0  0  0  0  0  0
   10.2969    6.1282  -58.1530 H   0  0  0  0  0  0  0  0  0  0  0  0
    7.7900    6.1584  -57.8727 H   0  0  0  0  0  0  0  0  0  0  0  0
    8.2444    6.2972  -59.6118 H   0  0  0  0  0  0  0  0  0  0  0  0
   10.6940    4.0210  -56.9101 H   0  0  0  0  0  0  0  0  0  0  0  0
    9.2074    4.8614  -56.3183 H   0  0  0  0  0  0  0  0  0  0  0  0
   11.1739   -0.5687  -52.7916 H   0  0  0  0  0  0  0  0  0  0  0  0
   10.3356   -2.1330  -52.3307 H   0  0  0  0  0  0  0  0  0  0  0  0
   11.4381   -1.7638  -55.0957 H   0  0  0  0  0  0  0  0  0  0  0  0
   12.5124   -2.2118  -53.6639 H   0  0  0  0  0  0  0  0  0  0  0  0
   12.0830   -4.2616  -54.5281 H   0  0  0  0  0  0  0  0  0  0  0  0
   10.7186   -4.0417  -53.3124 H   0  0  0  0  0  0  0  0  0  0  0  0
    9.3860   -4.7475  -54.9203 H   0  0  0  0  0  0  0  0  0  0  0  0
    9.6568   -3.0759  -55.6270 H   0  0  0  0  0  0  0  0  0  0  0  0
    9.8336   -5.0101  -57.2345 H   0  0  0  0  0  0  0  0  0  0  0  0
   12.3870   -5.5704  -55.6818 H   0  0  0  0  0  0  0  0  0  0  0  0
   10.9635   -6.6647  -55.9507 H   0  0  0  0  0  0  0  0  0  0  0  0
   12.9249   -7.2011  -57.4122 H   0  0  0  0  0  0  0  0  0  0  0  0
   11.4322   -6.7835  -58.3208 H   0  0  0  0  0  0  0  0  0  0  0  0
   13.7330   -4.9750  -57.7620 H   0  0  0  0  0  0  0  0  0  0  0  0
   13.3760   -5.6560  -59.2080 H   0  0  0  0  0  0  0  0  0  0  0  0
   12.6915   -3.3451  -59.1742 H   0  0  0  0  0  0  0  0  0  0  0  0
   11.2901   -4.4443  -59.3853 H   0  0  0  0  0  0  0  0  0  0  0  0
   12.2595   -3.1745  -56.7776 H   0  0  0  0  0  0  0  0  0  0  0  0
   10.7485   -2.7834  -57.7061 H   0  0  0  0  0  0  0  0  0  0  0  0
    7.3511   -3.9160  -53.8316 H   0  0  0  0  0  0  0  0  0  0  0  0
    6.7748   -5.6057  -52.0922 H   0  0  0  0  0  0  0  0  0  0  0  0
    6.8446   -4.9877  -49.6767 H   0  0  0  0  0  0  0  0  0  0  0  0
    7.4802   -2.6725  -48.9989 H   0  0  0  0  0  0  0  0  0  0  0  0
    8.0553   -0.9769  -50.7353 H   0  0  0  0  0  0  0  0  0  0  0  0
  1  2  1  0
  2  3  1  0
  3  4  1  0
  4  5  2  0
  4  6  1  0
  7  6  1  1
  7  8  1  0
  8  9  1  0
  9 10  1  0
 10 11  1  0
 11 12  1  0
 11 13  1  0
 13 14  1  0
 14 15  1  0
 13 16  1  0
 16 17  1  0
 16 18  1  0
  3 19  2  0
 19 20  1  0
 20 21  1  0
 21 22  1  0
 22 23  1  0
 23 24  1  0
 24 25  1  0
 25 26  1  0
 26 27  1  0
 27 28  1  0
 28 29  1  0
 29 30  1  0
 20 31  1  0
 31 32  1  0
 32 33  2  0
 33 34  1  0
 34 35  2  0
 35 36  1  0
 36 37  2  0
 31  2  2  0
 37 32  1  0
 12  7  1  0
 30 25  1  0
 18  7  1  0
 17  9  1  0
  1 38  1  0
  1 39  1  0
  1 40  1  0
  6 41  1  0
  8 42  1  0
  8 43  1  0
  9 44  1  6
 10 45  1  0
 10 46  1  0
 11 47  1  6
 12 48  1  0
 12 49  1  0
 13 50  1  6
 14 51  1  0
 14 52  1  0
 15 53  1  0
 15 54  1  0
 15 55  1  0
 16 56  1  1
 17 57  1  0
 17 58  1  0
 18 59  1  0
 18 60  1  0
 21 61  1  0
 21 62  1  0
 22 63  1  0
 22 64  1  0
 23 65  1  0
 23 66  1  0
 24 67  1  0
 24 68  1  0
 25 69  1  0
 26 70  1  0
 26 71  1  0
 27 72  1  0
 27 73  1  0
 28 74  1  0
 28 75  1  0
 29 76  1  0
 29 77  1  0
 30 78  1  0
 30 79  1  0
 33 80  1  0
 34 81  1  0
 35 82  1  0
 36 83  1  0
 37 84  1  0
M  CHG  2  15   1  28   1
M  END
>  <meeko>  (33) 
{"is_sidechain": false}

$$$$

     RDKit          3D

 84 89  0  0  0  0  0  0  0  0999 V2000
    5.9320   -0.3080  -54.3400 C   0  0  0  0  0  0  0  0  0  0  0  0
    7.4070   -0.4250  -54.1880 C   0  0  0  0  0  0  0  0  0  0  0  0
    8.3960    0.2920  -54.9230 C   0  0  0  0  0  0  0  0  0  0  0  0
    8.1770    1.3020  -55.9790 C   0  0  0  0  0  0  0  0  0  0  0  0
    7.0840    1.8070  -56.2070 O   0  0  0  0  0  0  0  0  0  0  0  0
    9.3290    1.6130  -56.6740 N   0  0  0  0  0  0  0  0  0  0  0  0
    9.4480    2.6580  -57.6840 C   0  0  2  0  0  0  0  0  0  0  0  0
    8.1330    2.8260  -58.4810 C   0  0  0  0  0  0  0  0  0  0  0  0
    8.2640    3.9650  -59.5070 C   0  0  2  0  0  0  0  0  0  0  0  0
    9.4110    3.6400  -60.4770 C   0  0  0  0  0  0  0  0  0  0  0  0
   10.7400    3.5180  -59.7080 C   0  0  2  0  0  0  0  0  0  0  0  0
   10.6070    2.3790  -58.6770 C   0  0  0  0  0  0  0  0  0  0  0  0
   11.0710    4.8330  -58.9580 C   0  0  1  0  0  0  0  0  0  0  0  0
   11.3940    6.0250  -59.8740 C   0  0  0  0  0  0  0  0  0  0  0  0
   12.8310    6.3830  -59.7790 N   0  0  0  0  0  0  0  0  0  0  0  0
    9.8950    5.1530  -57.9960 C   0  0  1  0  0  0  0  0  0  0  0  0
    8.5690    5.2760  -58.7690 C   0  0  0  0  0  0  0  0  0  0  0  0
    9.7560    4.0050  -56.9750 C   0  0  0  0  0  0  0  0  0  0  0  0
    9.6400   -0.0650  -54.5440 N   0  0  0  0  0  0  0  0  0  0  0  0
    9.4430   -0.9900  -53.5800 N   0  0  0  0  0  0  0  0  0  0  0  0
   10.6110   -1.5730  -52.9420 C   0  0  0  0  0  0  0  0  0  0  0  0
   11.2950   -2.6700  -53.7670 C   0  0  0  0  0  0  0  0  0  0  0  0
   10.3860   -3.8260  -54.2080 C   0  0  0  0  0  0  0  0  0  0  0  0
    9.8820   -3.7320  -55.6560 C   0  0  0  0  0  0  0  0  0  0  0  0
   10.7140   -4.4760  -56.7210 C   0  0  0  0  0  0  0  0  0  0  0  0
   11.5480   -3.5570  -57.6170 C   0  0  0  0  0  0  0  0  0  0  0  0
   12.2100   -4.3190  -58.7660 C   0  0  0  0  0  0  0  0  0  0  0  0
   12.5000   -5.7360  -58.3850 N   0  0  0  0  0  0  0  0  0  0  0  0
   12.8160   -5.9350  -56.9450 C   0  0  0  0  0  0  0  0  0  0  0  0
   11.5890   -5.5890  -56.1060 C   0  0  0  0  0  0  0  0  0  0  0  0
    8.1160   -1.2610  -53.3370 C   0  0  0  0  0  0  0  0  0  0  0  0
    7.6220   -2.2280  -52.3610 C   0  0  0  0  0  0  0  0  0  0  0  0
    7.8180   -2.0250  -50.9900 C   0  0  0  0  0  0  0  0  0  0  0  0
    7.3550   -2.9610  -50.0640 C   0  0  0  0  0  0  0  0  0  0  0  0
    6.7040   -4.1120  -50.5030 C   0  0  0  0  0  0  0  0  0  0  0  0
    6.5190   -4.3320  -51.8660 C   0  0  0  0  0  0  0  0  0  0  0  0
    6.9790   -3.3950  -52.7940 C   0  0  0  0  0  0  0  0  0  0  0  0
    5.4627   -0.2708  -53.3458 H   0  0  0  0  0  0  0  0  0  0  0  0
    5.6922    0.6120  -54.8933 H   0  0  0  0  0  0  0  0  0  0  0  0
    5.5502   -1.1787  -54.8933 H   0  0  0  0  0  0  0  0  0  0  0  0
   10.1620    1.1840  -56.2750 H   0  0  0  0  0  0  0  0  0  0  0  0
    7.9079    1.8877  -59.0091 H   0  0  0  0  0  0  0  0  0  0  0  0
    7.3219    3.0717  -57.7797 H   0  0  0  0  0  0  0  0  0  0  0  0
    7.3255    4.0717  -60.0707 H   0  0  0  0  0  0  0  0  0  0  0  0
    9.1974    2.6888  -60.9865 H   0  0  0  0  0  0  0  0  0  0  0  0
    9.4969    4.4507  -61.2155 H   0  0  0  0  0  0  0  0  0  0  0  0
   11.5476    3.3103  -60.4254 H   0  0  0  0  0  0  0  0  0  0  0  0
   10.4071    1.4361  -59.2070 H   0  0  0  0  0  0  0  0  0  0  0  0
   11.5460    2.3108  -58.1082 H   0  0  0  0  0  0  0  0  0  0  0  0
   12.0020    4.6706  -58.3950 H   0  0  0  0  0  0  0  0  0  0  0  0
   11.1564    5.7564  -60.9139 H   0  0  0  0  0  0  0  0  0  0  0  0
   10.7918    6.8891  -59.5568 H   0  0  0  0  0  0  0  0  0  0  0  0
   13.0730    6.6820  -58.8250 H   0  0  0  0  0  0  0  0  0  0  0  0
   13.4430    5.5890  -60.0110 H   0  0  0  0  0  0  0  0  0  0  0  0
   13.0800    7.1620  -60.4040 H   0  0  0  0  0  0  0  0  0  0  0  0
   10.1076    6.1073  -57.4919 H   0  0  0  0  0  0  0  0  0  0  0  0
    7.7547    5.4933  -58.0621 H   0  0  0  0  0  0  0  0  0  0  0  0
    8.6550    6.0905  -59.5033 H   0  0  0  0  0  0  0  0  0  0  0  0
   10.6969    3.9081  -56.4135 H   0  0  0  0  0  0  0  0  0  0  0  0
    8.9225    4.2406  -56.2969 H   0  0  0  0  0  0  0  0  0  0  0  0
   11.3418   -0.7710  -52.7610 H   0  0  0  0  0  0  0  0  0  0  0  0
   10.2607   -2.0473  -52.0134 H   0  0  0  0  0  0  0  0  0  0  0  0
   11.7135   -2.2035  -54.6710 H   0  0  0  0  0  0  0  0  0  0  0  0
   12.0542   -3.1161  -53.1077 H   0  0  0  0  0  0  0  0  0  0  0  0
   10.9499   -4.7645  -54.1021 H   0  0  0  0  0  0  0  0  0  0  0  0
    9.4940   -3.7812  -53.5658 H   0  0  0  0  0  0  0  0  0  0  0  0
    8.8613   -4.1414  -55.6824 H   0  0  0  0  0  0  0  0  0  0  0  0
    9.9523   -2.6669  -55.9216 H   0  0  0  0  0  0  0  0  0  0  0  0
    9.9677   -4.9474  -57.3773 H   0  0  0  0  0  0  0  0  0  0  0  0
   10.8917   -2.7810  -58.0378 H   0  0  0  0  0  0  0  0  0  0  0  0
   12.3446   -3.1150  -57.0005 H   0  0  0  0  0  0  0  0  0  0  0  0
   11.5357   -4.3128  -59.6351 H   0  0  0  0  0  0  0  0  0  0  0  0
   13.1619   -3.8234  -59.0073 H   0  0  0  0  0  0  0  0  0  0  0  0
   13.2790   -6.0870  -58.9610 H   0  0  0  0  0  0  0  0  0  0  0  0
   11.6950   -6.3290  -58.6350 H   0  0  0  0  0  0  0  0  0  0  0  0
   13.0952   -6.9848  -56.7719 H   0  0  0  0  0  0  0  0  0  0  0  0
   13.6539   -5.2825  -56.6584 H   0  0  0  0  0  0  0  0  0  0  0  0
   10.9745   -6.4950  -55.9984 H   0  0  0  0  0  0  0  0  0  0  0  0
   11.9548   -5.2144  -55.1386 H   0  0  0  0  0  0  0  0  0  0  0  0
    8.3402   -1.1222  -50.6403 H   0  0  0  0  0  0  0  0  0  0  0  0
    7.5040   -2.7900  -48.9876 H   0  0  0  0  0  0  0  0  0  0  0  0
    6.3358   -4.8476  -49.7727 H   0  0  0  0  0  0  0  0  0  0  0  0
    6.0104   -5.2441  -52.2116 H   0  0  0  0  0  0  0  0  0  0  0  0
    6.8358   -3.5741  -53.8698 H   0  0  0  0  0  0  0  0  0  0  0  0
  1  2  1  0
  2  3  1  0
  3  4  1  0
  4  5  2  0
  4  6  1  0
  7  6  1  1
  7  8  1  0
  8  9  1  0
  9 10  1  0
 10 11  1  0
 11 12  1  0
 11 13  1  0
 13 14  1  0
 14 15  1  0
 13 16  1  0
 16 17  1  0
 16 18  1  0
  3 19  2  0
 19 20  1  0
 20 21  1  0
 21 22  1  0
 22 23  1  0
 23 24  1  0
 24 25  1  0
 25 26  1  0
 26 27  1  0
 27 28  1  0
 28 29  1  0
 29 30  1  0
 20 31  1  0
 31 32  1  0
 32 33  2  0
 33 34  1  0
 34 35  2  0
 35 36  1  0
 36 37  2  0
 31  2  2  0
 37 32  1  0
 12  7  1  0
 30 25  1  0
 18  7  1  0
 17  9  1  0
  1 38  1  0
  1 39  1  0
  1 40  1  0
  6 41  1  0
  8 42  1  0
  8 43  1  0
  9 44  1  6
 10 45  1  0
 10 46  1  0
 11 47  1  6
 12 48  1  0
 12 49  1  0
 13 50  1  1
 14 51  1  0
 14 52  1  0
 15 53  1  0
 15 54  1  0
 15 55  1  0
 16 56  1  1
 17 57  1  0
 17 58  1  0
 18 59  1  0
 18 60  1  0
 21 61  1  0
 21 62  1  0
 22 63  1  0
 22 64  1  0
 23 65  1  0
 23 66  1  0
 24 67  1  0
 24 68  1  0
 25 69  1  0
 26 70  1  0
 26 71  1  0
 27 72  1  0
 27 73  1  0
 28 74  1  0
 28 75  1  0
 29 76  1  0
 29 77  1  0
 30 78  1  0
 30 79  1  0
 33 80  1  0
 34 81  1  0
 35 82  1  0
 36 83  1  0
 37 84  1  0
M  CHG  2  15   1  28   1
M  END
>  <meeko>  (34) 
{"is_sidechain": false}

$$$$

     RDKit          3D

 48 50  0  0  0  0  0  0  0  0999 V2000
    6.2740    0.0760  -53.4380 C   0  0  0  0  0  0  0  0  0  0  0  0
    7.5840   -0.4690  -53.8850 C   0  0  0  0  0  0  0  0  0  0  0  0
    8.4620    0.0460  -54.8950 C   0  0  0  0  0  0  0  0  0  0  0  0
    8.2810    1.1970  -55.7950 C   0  0  0  0  0  0  0  0  0  0  0  0
    7.1910    1.5260  -56.2670 O   0  0  0  0  0  0  0  0  0  0  0  0
    9.4210    1.9330  -56.0660 N   0  0  0  0  0  0  0  0  0  0  0  0
    9.4190    3.2510  -56.6980 C   0  0  0  0  0  0  0  0  0  0  0  0
    9.9820    3.3310  -58.1430 C   0  0  2  0  0  0  0  0  0  0  0  0
   10.2100    4.7750  -58.6050 C   0  0  0  0  0  0  0  0  0  0  0  0
   10.8310    4.8230  -60.0030 C   0  0  0  0  0  0  0  0  0  0  0  0
   10.0410    4.0000  -61.0170 C   0  0  0  0  0  0  0  0  0  0  0  0
    9.7810    2.5820  -60.5260 C   0  0  0  0  0  0  0  0  0  0  0  0
    9.1150    2.6210  -59.1770 N   0  0  2  0  0  0  0  0  0  0  0  0
    7.6620    2.9970  -59.2480 C   0  0  0  0  0  0  0  0  0  0  0  0
    9.5880   -0.6800  -54.9670 N   0  0  0  0  0  0  0  0  0  0  0  0
    9.4320   -1.6400  -54.0460 N   0  0  0  0  0  0  0  0  0  0  0  0
    8.2440   -1.5740  -53.3680 C   0  0  0  0  0  0  0  0  0  0  0  0
    7.8840   -2.5360  -52.3330 C   0  0  0  0  0  0  0  0  0  0  0  0
    6.8690   -3.4750  -52.5590 C   0  0  0  0  0  0  0  0  0  0  0  0
    6.5280   -4.4020  -51.5720 C   0  0  0  0  0  0  0  0  0  0  0  0
    7.1980   -4.3980  -50.3510 C   0  0  0  0  0  0  0  0  0  0  0  0
    8.2080   -3.4680  -50.1130 C   0  0  0  0  0  0  0  0  0  0  0  0
    8.5510   -2.5410  -51.1000 C   0  0  0  0  0  0  0  0  0  0  0  0
    6.2388    0.0906  -52.3387 H   0  0  0  0  0  0  0  0  0  0  0  0
    6.1522    1.0994  -53.8224 H   0  0  0  0  0  0  0  0  0  0  0  0
    5.4623   -0.5591  -53.8224 H   0  0  0  0  0  0  0  0  0  0  0  0
   10.2110    1.7280  -55.4640 H   0  0  0  0  0  0  0  0  0  0  0  0
    8.3783    3.6062  -56.7254 H   0  0  0  0  0  0  0  0  0  0  0  0
   10.0976    3.8656  -56.0883 H   0  0  0  0  0  0  0  0  0  0  0  0
   10.9473    2.8071  -58.0826 H   0  0  0  0  0  0  0  0  0  0  0  0
    9.2442    5.3013  -58.6242 H   0  0  0  0  0  0  0  0  0  0  0  0
   10.9040    5.2579  -57.9013 H   0  0  0  0  0  0  0  0  0  0  0  0
   10.8591    5.8692  -60.3417 H   0  0  0  0  0  0  0  0  0  0  0  0
   11.8420    4.3945  -59.9367 H   0  0  0  0  0  0  0  0  0  0  0  0
    9.0756    4.4945  -61.2001 H   0  0  0  0  0  0  0  0  0  0  0  0
   10.6375    3.9352  -61.9389 H   0  0  0  0  0  0  0  0  0  0  0  0
    9.1261    2.0627  -61.2412 H   0  0  0  0  0  0  0  0  0  0  0  0
   10.7383    2.0467  -60.4419 H   0  0  0  0  0  0  0  0  0  0  0  0
    9.0860    1.6290  -58.8460 H   0  0  0  0  0  0  0  0  0  0  0  0
    7.2600    3.1010  -58.2294 H   0  0  0  0  0  0  0  0  0  0  0  0
    7.5561    3.9521  -59.7833 H   0  0  0  0  0  0  0  0  0  0  0  0
    7.1061    2.2131  -59.7833 H   0  0  0  0  0  0  0  0  0  0  0  0
   10.1700   -2.3260  -53.9300 H   0  0  0  0  0  0  0  0  0  0  0  0
    6.3366   -3.4820  -53.5215 H   0  0  0  0  0  0  0  0  0  0  0  0
    5.7300   -5.1356  -51.7589 H   0  0  0  0  0  0  0  0  0  0  0  0
    6.9298   -5.1293  -49.5743 H   0  0  0  0  0  0  0  0  0  0  0  0
    8.7353   -3.4638  -49.1476 H   0  0  0  0  0  0  0  0  0  0  0  0
    9.3501   -1.8098  -50.9084 H   0  0  0  0  0  0  0  0  0  0  0  0
  1  2  1  0
  2  3  1  0
  3  4  1  0
  4  5  2  0
  4  6  1  0
  6  7  1  0
  7  8  1  0
  8  9  1  0
  9 10  1  0
 10 11  1  0
 11 12  1  0
 12 13  1  0
 13 14  1  0
  3 15  2  0
 15 16  1  0
 16 17  1  0
 17 18  1  0
 18 19  2  0
 19 20  1  0
 20 21  2  0
 21 22  1  0
 22 23  2  0
 17  2  2  0
 23 18  1  0
 13  8  1  0
  1 24  1  0
  1 25  1  0
  1 26  1  0
  6 27  1  0
  7 28  1  0
  7 29  1  0
  8 30  1  1
  9 31  1  0
  9 32  1  0
 10 33  1  0
 10 34  1  0
 11 35  1  0
 11 36  1  0
 12 37  1  0
 12 38  1  0
 13 39  1  1
 14 40  1  0
 14 41  1  0
 14 42  1  0
 16 43  1  0
 19 44  1  0
 20 45  1  0
 21 46  1  0
 22 47  1  0
 23 48  1  0
M  CHG  1  13   1
M  END
>  <meeko>  (35) 
{"is_sidechain": false}

$$$$

     RDKit          3D

 48 50  0  0  0  0  0  0  0  0999 V2000
    6.3330    0.2320  -53.6590 C   0  0  0  0  0  0  0  0  0  0  0  0
    7.6480   -0.3930  -53.9590 C   0  0  0  0  0  0  0  0  0  0  0  0
    8.6030    0.0420  -54.9260 C   0  0  0  0  0  0  0  0  0  0  0  0
    8.5100    1.1780  -55.8560 C   0  0  0  0  0  0  0  0  0  0  0  0
    7.4640    1.6370  -56.3010 O   0  0  0  0  0  0  0  0  0  0  0  0
    9.7490    1.6840  -56.2270 N   0  0  0  0  0  0  0  0  0  0  0  0
    9.8620    3.0260  -56.7770 C   0  0  0  0  0  0  0  0  0  0  0  0
   10.9430    3.1480  -57.8870 C   0  0  1  0  0  0  0  0  0  0  0  0
   10.3990    2.8500  -59.2820 C   0  0  0  0  0  0  0  0  0  0  0  0
    9.3690    3.8710  -59.7680 C   0  0  0  0  0  0  0  0  0  0  0  0
    9.6290    5.2820  -59.2490 C   0  0  0  0  0  0  0  0  0  0  0  0
   11.0950    5.5070  -58.9340 C   0  0  0  0  0  0  0  0  0  0  0  0
   11.5480    4.5630  -57.8510 N   0  0  2  0  0  0  0  0  0  0  0  0
   13.0520    4.5360  -57.7460 C   0  0  0  0  0  0  0  0  0  0  0  0
    9.7020   -0.7390  -54.9240 N   0  0  0  0  0  0  0  0  0  0  0  0
    9.4460   -1.6500  -53.9670 N   0  0  0  0  0  0  0  0  0  0  0  0
    8.2270   -1.5010  -53.3610 C   0  0  0  0  0  0  0  0  0  0  0  0
    7.7620   -2.4120  -52.3210 C   0  0  0  0  0  0  0  0  0  0  0  0
    8.1770   -2.2500  -50.9930 C   0  0  0  0  0  0  0  0  0  0  0  0
    7.7390   -3.1300  -50.0020 C   0  0  0  0  0  0  0  0  0  0  0  0
    6.8820   -4.1800  -50.3300 C   0  0  0  0  0  0  0  0  0  0  0  0
    6.4620   -4.3500  -51.6470 C   0  0  0  0  0  0  0  0  0  0  0  0
    6.9000   -3.4680  -52.6390 C   0  0  0  0  0  0  0  0  0  0  0  0
    6.1977    0.2963  -52.5693 H   0  0  0  0  0  0  0  0  0  0  0  0
    6.2997    1.2423  -54.0929 H   0  0  0  0  0  0  0  0  0  0  0  0
    5.5286   -0.3801  -54.0929 H   0  0  0  0  0  0  0  0  0  0  0  0
   10.4880    1.3330  -55.6120 H   0  0  0  0  0  0  0  0  0  0  0  0
    8.8893    3.3109  -57.2045 H   0  0  0  0  0  0  0  0  0  0  0  0
   10.1645    3.6903  -55.9541 H   0  0  0  0  0  0  0  0  0  0  0  0
   11.7148    2.3918  -57.6806 H   0  0  0  0  0  0  0  0  0  0  0  0
   11.2413    2.8419  -59.9894 H   0  0  0  0  0  0  0  0  0  0  0  0
    9.8886    1.8770  -59.2284 H   0  0  0  0  0  0  0  0  0  0  0  0
    9.3912    3.8935  -60.8675 H   0  0  0  0  0  0  0  0  0  0  0  0
    8.3889    3.5560  -59.3804 H   0  0  0  0  0  0  0  0  0  0  0  0
    9.3145    6.0063  -60.0149 H   0  0  0  0  0  0  0  0  0  0  0  0
    9.0562    5.4144  -58.3193 H   0  0  0  0  0  0  0  0  0  0  0  0
   11.6921    5.3319  -59.8411 H   0  0  0  0  0  0  0  0  0  0  0  0
   11.2316    6.5418  -58.5868 H   0  0  0  0  0  0  0  0  0  0  0  0
   11.2240    4.9480  -56.9480 H   0  0  0  0  0  0  0  0  0  0  0  0
   13.3455    4.5307  -56.6859 H   0  0  0  0  0  0  0  0  0  0  0  0
   13.4377    3.6308  -58.2378 H   0  0  0  0  0  0  0  0  0  0  0  0
   13.4699    5.4268  -58.2378 H   0  0  0  0  0  0  0  0  0  0  0  0
   10.1380   -2.3680  -53.7790 H   0  0  0  0  0  0  0  0  0  0  0  0
    8.8530   -1.4233  -50.7292 H   0  0  0  0  0  0  0  0  0  0  0  0
    8.0700   -2.9951  -48.9617 H   0  0  0  0  0  0  0  0  0  0  0  0
    6.5378   -4.8738  -49.5488 H   0  0  0  0  0  0  0  0  0  0  0  0
    5.7859   -5.1780  -51.9064 H   0  0  0  0  0  0  0  0  0  0  0  0
    6.5647   -3.6048  -53.6777 H   0  0  0  0  0  0  0  0  0  0  0  0
  1  2  1  0
  2  3  1  0
  3  4  1  0
  4  5  2  0
  4  6  1  0
  6  7  1  0
  7  8  1  0
  8  9  1  0
  9 10  1  0
 10 11  1  0
 11 12  1  0
 12 13  1  0
 13 14  1  0
  3 15  2  0
 15 16  1  0
 16 17  1  0
 17 18  1  0
 18 19  2  0
 19 20  1  0
 20 21  2  0
 21 22  1  0
 22 23  2  0
 17  2  2  0
 23 18  1  0
 13  8  1  0
  1 24  1  0
  1 25  1  0
  1 26  1  0
  6 27  1  0
  7 28  1  0
  7 29  1  0
  8 30  1  1
  9 31  1  0
  9 32  1  0
 10 33  1  0
 10 34  1  0
 11 35  1  0
 11 36  1  0
 12 37  1  0
 12 38  1  0
 13 39  1  1
 14 40  1  0
 14 41  1  0
 14 42  1  0
 16 43  1  0
 19 44  1  0
 20 45  1  0
 21 46  1  0
 22 47  1  0
 23 48  1  0
M  CHG  1  13   1
M  END
>  <meeko>  (36) 
{"is_sidechain": false}

$$$$

     RDKit          3D

 48 50  0  0  0  0  0  0  0  0999 V2000
    6.3050    0.1040  -53.5300 C   0  0  0  0  0  0  0  0  0  0  0  0
    7.6390   -0.4170  -53.9270 C   0  0  0  0  0  0  0  0  0  0  0  0
    8.4980    0.1080  -54.9390 C   0  0  0  0  0  0  0  0  0  0  0  0
    8.2670    1.2590  -55.8260 C   0  0  0  0  0  0  0  0  0  0  0  0
    7.2500    1.4400  -56.4930 O   0  0  0  0  0  0  0  0  0  0  0  0
    9.3210    2.1540  -55.8510 N   0  0  0  0  0  0  0  0  0  0  0  0
    9.2010    3.4470  -56.4820 C   0  0  0  0  0  0  0  0  0  0  0  0
    9.8400    3.4910  -57.9000 C   0  0  2  0  0  0  0  0  0  0  0  0
   11.1430    2.6710  -57.9530 C   0  0  0  0  0  0  0  0  0  0  0  0
   12.3680    3.5010  -57.5970 C   0  0  0  0  0  0  0  0  0  0  0  0
   12.5460    4.6750  -58.5600 C   0  0  0  0  0  0  0  0  0  0  0  0
   11.2600    5.0850  -59.2670 C   0  0  0  0  0  0  0  0  0  0  0  0
   10.1040    4.9500  -58.3110 N   0  0  1  0  0  0  0  0  0  0  0  0
    8.8550    5.5970  -58.8680 C   0  0  0  0  0  0  0  0  0  0  0  0
    9.6470   -0.5940  -55.0240 N   0  0  0  0  0  0  0  0  0  0  0  0
    9.5090   -1.5510  -54.0910 N   0  0  0  0  0  0  0  0  0  0  0  0
    8.3280   -1.5000  -53.4010 C   0  0  0  0  0  0  0  0  0  0  0  0
    7.9900   -2.4700  -52.3660 C   0  0  0  0  0  0  0  0  0  0  0  0
    8.1880   -2.1600  -51.0140 C   0  0  0  0  0  0  0  0  0  0  0  0
    7.8530   -3.0820  -50.0200 C   0  0  0  0  0  0  0  0  0  0  0  0
    7.3210   -4.3220  -50.3690 C   0  0  0  0  0  0  0  0  0  0  0  0
    7.1230   -4.6400  -51.7110 C   0  0  0  0  0  0  0  0  0  0  0  0
    7.4560   -3.7190  -52.7060 C   0  0  0  0  0  0  0  0  0  0  0  0
    6.2339    0.1318  -52.4326 H   0  0  0  0  0  0  0  0  0  0  0  0
    6.1736    1.1195  -53.9318 H   0  0  0  0  0  0  0  0  0  0  0  0
    5.5201   -0.5537  -53.9318 H   0  0  0  0  0  0  0  0  0  0  0  0
   10.0500    1.9550  -55.1620 H   0  0  0  0  0  0  0  0  0  0  0  0
    8.1333    3.6966  -56.5704 H   0  0  0  0  0  0  0  0  0  0  0  0
    9.7405    4.1716  -55.8544 H   0  0  0  0  0  0  0  0  0  0  0  0
    9.1327    3.0391  -58.6109 H   0  0  0  0  0  0  0  0  0  0  0  0
   11.0636    1.8359  -57.2414 H   0  0  0  0  0  0  0  0  0  0  0  0
   11.2706    2.3119  -58.9849 H   0  0  0  0  0  0  0  0  0  0  0  0
   12.2513    3.8910  -56.5751 H   0  0  0  0  0  0  0  0  0  0  0  0
   13.2561    2.8560  -57.6699 H   0  0  0  0  0  0  0  0  0  0  0  0
   12.9200    5.5384  -57.9902 H   0  0  0  0  0  0  0  0  0  0  0  0
   13.2520    4.3494  -59.3382 H   0  0  0  0  0  0  0  0  0  0  0  0
   11.3410    6.1299  -59.6010 H   0  0  0  0  0  0  0  0  0  0  0  0
   11.0953    4.4360  -60.1397 H   0  0  0  0  0  0  0  0  0  0  0  0
   10.3530    5.4840  -57.4690 H   0  0  0  0  0  0  0  0  0  0  0  0
    8.2133    5.9294  -58.0387 H   0  0  0  0  0  0  0  0  0  0  0  0
    9.1349    6.4635  -59.4851 H   0  0  0  0  0  0  0  0  0  0  0  0
    8.3087    4.8685  -59.4851 H   0  0  0  0  0  0  0  0  0  0  0  0
   10.2540   -2.2310  -53.9760 H   0  0  0  0  0  0  0  0  0  0  0  0
    8.6102   -1.1837  -50.7336 H   0  0  0  0  0  0  0  0  0  0  0  0
    8.0091   -2.8294  -48.9609 H   0  0  0  0  0  0  0  0  0  0  0  0
    7.0578   -5.0485  -49.5861 H   0  0  0  0  0  0  0  0  0  0  0  0
    6.7035   -5.6187  -51.9871 H   0  0  0  0  0  0  0  0  0  0  0  0
    7.2979   -3.9761  -53.7638 H   0  0  0  0  0  0  0  0  0  0  0  0
  1  2  1  0
  2  3  1  0
  3  4  1  0
  4  5  2  0
  4  6  1  0
  6  7  1  0
  7  8  1  0
  8  9  1  0
  9 10  1  0
 10 11  1  0
 11 12  1  0
 12 13  1  0
 13 14  1  0
  3 15  2  0
 15 16  1  0
 16 17  1  0
 17 18  1  0
 18 19  2  0
 19 20  1  0
 20 21  2  0
 21 22  1  0
 22 23  2  0
 17  2  2  0
 23 18  1  0
 13  8  1  0
  1 24  1  0
  1 25  1  0
  1 26  1  0
  6 27  1  0
  7 28  1  0
  7 29  1  0
  8 30  1  6
  9 31  1  0
  9 32  1  0
 10 33  1  0
 10 34  1  0
 11 35  1  0
 11 36  1  0
 12 37  1  0
 12 38  1  0
 13 39  1  1
 14 40  1  0
 14 41  1  0
 14 42  1  0
 16 43  1  0
 19 44  1  0
 20 45  1  0
 21 46  1  0
 22 47  1  0
 23 48  1  0
M  CHG  1  13   1
M  END
>  <meeko>  (37) 
{"is_sidechain": false}

$$$$

     RDKit          3D

 48 50  0  0  0  0  0  0  0  0999 V2000
    5.8070   -0.3790  -53.9170 C   0  0  0  0  0  0  0  0  0  0  0  0
    7.2710   -0.5930  -54.0560 C   0  0  0  0  0  0  0  0  0  0  0  0
    8.1540    0.0840  -54.9500 C   0  0  0  0  0  0  0  0  0  0  0  0
    7.8290    1.1200  -55.9420 C   0  0  0  0  0  0  0  0  0  0  0  0
    6.6910    1.4600  -56.2580 O   0  0  0  0  0  0  0  0  0  0  0  0
    8.9450    1.6990  -56.5190 N   0  0  0  0  0  0  0  0  0  0  0  0
    8.8390    2.5770  -57.6590 C   0  0  0  0  0  0  0  0  0  0  0  0
   10.2110    3.1010  -58.1620 C   0  0  1  0  0  0  0  0  0  0  0  0
   10.3880    2.9410  -59.6860 C   0  0  0  0  0  0  0  0  0  0  0  0
   10.1640    4.2220  -60.4750 C   0  0  0  0  0  0  0  0  0  0  0  0
   11.0710    5.3560  -59.9960 C   0  0  0  0  0  0  0  0  0  0  0  0
   11.5670    5.1800  -58.5650 C   0  0  0  0  0  0  0  0  0  0  0  0
   10.4990    4.5420  -57.7120 N   0  0  1  0  0  0  0  0  0  0  0  0
    9.3220    5.4530  -57.4840 C   0  0  0  0  0  0  0  0  0  0  0  0
    9.4270   -0.3410  -54.8050 N   0  0  0  0  0  0  0  0  0  0  0  0
    9.3440   -1.2770  -53.8430 N   0  0  0  0  0  0  0  0  0  0  0  0
    8.0800   -1.4730  -53.3550 C   0  0  0  0  0  0  0  0  0  0  0  0
    7.7910   -2.4650  -52.3250 C   0  0  0  0  0  0  0  0  0  0  0  0
    7.3300   -3.7390  -52.6780 C   0  0  0  0  0  0  0  0  0  0  0  0
    7.0650   -4.6940  -51.6950 C   0  0  0  0  0  0  0  0  0  0  0  0
    7.2580   -4.3840  -50.3500 C   0  0  0  0  0  0  0  0  0  0  0  0
    7.7160   -3.1180  -49.9870 C   0  0  0  0  0  0  0  0  0  0  0  0
    7.9820   -2.1620  -50.9710 C   0  0  0  0  0  0  0  0  0  0  0  0
    5.5418   -0.3402  -52.8502 H   0  0  0  0  0  0  0  0  0  0  0  0
    5.5277    0.5695  -54.3990 H   0  0  0  0  0  0  0  0  0  0  0  0
    5.2679   -1.2079  -54.3990 H   0  0  0  0  0  0  0  0  0  0  0  0
    9.8240    1.2390  -56.2680 H   0  0  0  0  0  0  0  0  0  0  0  0
    8.3537    2.0272  -58.4789 H   0  0  0  0  0  0  0  0  0  0  0  0
    8.2530    3.4523  -57.3419 H   0  0  0  0  0  0  0  0  0  0  0  0
   10.9638    2.4586  -57.6817 H   0  0  0  0  0  0  0  0  0  0  0  0
   11.4125    2.5905  -59.8799 H   0  0  0  0  0  0  0  0  0  0  0  0
    9.6234    2.2245  -60.0207 H   0  0  0  0  0  0  0  0  0  0  0  0
   10.3717    4.0257  -61.5372 H   0  0  0  0  0  0  0  0  0  0  0  0
    9.1203    4.5353  -60.3249 H   0  0  0  0  0  0  0  0  0  0  0  0
   11.9445    5.4075  -60.6626 H   0  0  0  0  0  0  0  0  0  0  0  0
   10.4720    6.2784  -60.0179 H   0  0  0  0  0  0  0  0  0  0  0  0
   12.4602    4.5379  -58.5676 H   0  0  0  0  0  0  0  0  0  0  0  0
   11.8125    6.1682  -58.1488 H   0  0  0  0  0  0  0  0  0  0  0  0
   10.9270    4.4320  -56.7800 H   0  0  0  0  0  0  0  0  0  0  0  0
    9.1596    5.5787  -56.4033 H   0  0  0  0  0  0  0  0  0  0  0  0
    9.5230    6.4332  -57.9410 H   0  0  0  0  0  0  0  0  0  0  0  0
    8.4236    5.0127  -57.9410 H   0  0  0  0  0  0  0  0  0  0  0  0
   10.1880   -1.7690  -53.5680 H   0  0  0  0  0  0  0  0  0  0  0  0
    7.1755   -3.9893  -53.7379 H   0  0  0  0  0  0  0  0  0  0  0  0
    6.7034   -5.6924  -51.9823 H   0  0  0  0  0  0  0  0  0  0  0  0
    7.0493   -5.1371  -49.5758 H   0  0  0  0  0  0  0  0  0  0  0  0
    7.8680   -2.8717  -48.9258 H   0  0  0  0  0  0  0  0  0  0  0  0
    8.3438   -1.1648  -50.6801 H   0  0  0  0  0  0  0  0  0  0  0  0
  1  2  1  0
  2  3  1  0
  3  4  1  0
  4  5  2  0
  4  6  1  0
  6  7  1  0
  7  8  1  0
  8  9  1  0
  9 10  1  0
 10 11  1  0
 11 12  1  0
 12 13  1  0
 13 14  1  0
  3 15  2  0
 15 16  1  0
 16 17  1  0
 17 18  1  0
 18 19  2  0
 19 20  1  0
 20 21  2  0
 21 22  1  0
 22 23  2  0
 17  2  2  0
 23 18  1  0
 13  8  1  0
  1 24  1  0
  1 25  1  0
  1 26  1  0
  6 27  1  0
  7 28  1  0
  7 29  1  0
  8 30  1  1
  9 31  1  0
  9 32  1  0
 10 33  1  0
 10 34  1  0
 11 35  1  0
 11 36  1  0
 12 37  1  0
 12 38  1  0
 13 39  1  1
 14 40  1  0
 14 41  1  0
 14 42  1  0
 16 43  1  0
 19 44  1  0
 20 45  1  0
 21 46  1  0
 22 47  1  0
 23 48  1  0
M  CHG  1  13   1
M  END
>  <meeko>  (38) 
{"is_sidechain": false}

$$$$

     RDKit          3D

 48 50  0  0  0  0  0  0  0  0999 V2000
    6.2800   -0.0070  -53.5790 C   0  0  0  0  0  0  0  0  0  0  0  0
    7.6570   -0.4090  -53.9690 C   0  0  0  0  0  0  0  0  0  0  0  0
    8.3920   -1.5330  -53.4580 C   0  0  0  0  0  0  0  0  0  0  0  0
    8.0100   -2.4780  -52.4090 C   0  0  0  0  0  0  0  0  0  0  0  0
    8.1620   -2.1530  -51.0550 C   0  0  0  0  0  0  0  0  0  0  0  0
    7.7890   -3.0640  -50.0630 C   0  0  0  0  0  0  0  0  0  0  0  0
    7.2660   -4.3070  -50.4170 C   0  0  0  0  0  0  0  0  0  0  0  0
    7.1240   -4.6460  -51.7610 C   0  0  0  0  0  0  0  0  0  0  0  0
    7.4980   -3.7360  -52.7530 C   0  0  0  0  0  0  0  0  0  0  0  0
    9.5580   -1.6700  -54.1020 N   0  0  0  0  0  0  0  0  0  0  0  0
    9.5870   -0.6610  -54.9720 N   0  0  0  0  0  0  0  0  0  0  0  0
    8.4980    0.1660  -54.9180 C   0  0  0  0  0  0  0  0  0  0  0  0
    8.4230    1.3140  -55.7800 C   0  0  0  0  0  0  0  0  0  0  0  0
    7.4620    1.5290  -56.5140 O   0  0  0  0  0  0  0  0  0  0  0  0
    9.5140    2.1580  -55.7720 N   0  0  0  0  0  0  0  0  0  0  0  0
    9.6020    3.2860  -56.6830 C   0  0  0  0  0  0  0  0  0  0  0  0
   10.4900    3.0210  -57.9290 C   0  0  2  0  0  0  0  0  0  0  0  0
   11.9470    3.4880  -57.7370 C   0  0  0  0  0  0  0  0  0  0  0  0
   12.6500    3.7860  -59.0540 C   0  0  0  0  0  0  0  0  0  0  0  0
   11.9510    4.9280  -59.7930 C   0  0  0  0  0  0  0  0  0  0  0  0
   10.4620    5.0330  -59.4750 C   0  0  0  0  0  0  0  0  0  0  0  0
    9.9200    3.6470  -59.2170 N   0  0  2  0  0  0  0  0  0  0  0  0
    8.4280    3.5770  -59.3740 C   0  0  0  0  0  0  0  0  0  0  0  0
    6.2015    0.0159  -52.4820 H   0  0  0  0  0  0  0  0  0  0  0  0
    6.0615    0.9924  -53.9832 H   0  0  0  0  0  0  0  0  0  0  0  0
    5.5581   -0.7319  -53.9832 H   0  0  0  0  0  0  0  0  0  0  0  0
    8.5774   -1.1749  -50.7708 H   0  0  0  0  0  0  0  0  0  0  0  0
    7.9082   -2.8001  -49.0018 H   0  0  0  0  0  0  0  0  0  0  0  0
    6.9655   -5.0201  -49.6352 H   0  0  0  0  0  0  0  0  0  0  0  0
    6.7178   -5.6292  -52.0408 H   0  0  0  0  0  0  0  0  0  0  0  0
    7.3896   -4.0095  -53.8129 H   0  0  0  0  0  0  0  0  0  0  0  0
   10.3920   -0.5720  -55.5850 H   0  0  0  0  0  0  0  0  0  0  0  0
   10.3560    1.8150  -55.3270 H   0  0  0  0  0  0  0  0  0  0  0  0
    8.5869    3.5330  -57.0274 H   0  0  0  0  0  0  0  0  0  0  0  0
   10.0714    4.1103  -56.1260 H   0  0  0  0  0  0  0  0  0  0  0  0
   10.4860    1.9269  -58.0425 H   0  0  0  0  0  0  0  0  0  0  0  0
   11.9452    4.4020  -57.1250 H   0  0  0  0  0  0  0  0  0  0  0  0
   12.4950    2.6696  -57.2471 H   0  0  0  0  0  0  0  0  0  0  0  0
   13.6924    4.0722  -58.8503 H   0  0  0  0  0  0  0  0  0  0  0  0
   12.6180    2.8849  -59.6840 H   0  0  0  0  0  0  0  0  0  0  0  0
   12.4355    5.8743  -59.5108 H   0  0  0  0  0  0  0  0  0  0  0  0
   12.0397    4.7209  -60.8697 H   0  0  0  0  0  0  0  0  0  0  0  0
   10.3180    5.6584  -58.5816 H   0  0  0  0  0  0  0  0  0  0  0  0
    9.9304    5.4902  -60.3225 H   0  0  0  0  0  0  0  0  0  0  0  0
   10.2840    3.0650  -59.9840 H   0  0  0  0  0  0  0  0  0  0  0  0
    7.9555    3.5548  -58.3809 H   0  0  0  0  0  0  0  0  0  0  0  0
    8.0758    4.4596  -59.9280 H   0  0  0  0  0  0  0  0  0  0  0  0
    8.1600    2.6653  -59.9280 H   0  0  0  0  0  0  0  0  0  0  0  0
  1  2  1  0
  2  3  1  0
  3  4  1  0
  4  5  2  0
  5  6  1  0
  6  7  2  0
  7  8  1  0
  8  9  2  0
  3 10  2  0
 10 11  1  0
 11 12  1  0
 12 13  1  0
 13 14  2  0
 13 15  1  0
 15 16  1  0
 16 17  1  0
 17 18  1  0
 18 19  1  0
 19 20  1  0
 20 21  1  0
 21 22  1  0
 22 23  1  0
 12  2  2  0
 22 17  1  0
  9  4  1  0
  1 24  1  0
  1 25  1  0
  1 26  1  0
  5 27  1  0
  6 28  1  0
  7 29  1  0
  8 30  1  0
  9 31  1  0
 11 32  1  0
 15 33  1  0
 16 34  1  0
 16 35  1  0
 17 36  1  6
 18 37  1  0
 18 38  1  0
 19 39  1  0
 19 40  1  0
 20 41  1  0
 20 42  1  0
 21 43  1  0
 21 44  1  0
 22 45  1  6
 23 46  1  0
 23 47  1  0
 23 48  1  0
M  CHG  1  22   1
M  END
>  <meeko>  (39) 
{"is_sidechain": false}

$$$$

     RDKit          3D

 48 50  0  0  0  0  0  0  0  0999 V2000
    5.8170   -0.5100  -53.8730 C   0  0  0  0  0  0  0  0  0  0  0  0
    7.2870   -0.5880  -54.0880 C   0  0  0  0  0  0  0  0  0  0  0  0
    8.1950   -1.4910  -53.4380 C   0  0  0  0  0  0  0  0  0  0  0  0
    7.9210   -2.4680  -52.3840 C   0  0  0  0  0  0  0  0  0  0  0  0
    8.1870   -2.1740  -51.0400 C   0  0  0  0  0  0  0  0  0  0  0  0
    7.9160   -3.1150  -50.0430 C   0  0  0  0  0  0  0  0  0  0  0  0
    7.3840   -4.3580  -50.3820 C   0  0  0  0  0  0  0  0  0  0  0  0
    7.1280   -4.6660  -51.7170 C   0  0  0  0  0  0  0  0  0  0  0  0
    7.4000   -3.7270  -52.7140 C   0  0  0  0  0  0  0  0  0  0  0  0
    9.4290   -1.3680  -53.9440 N   0  0  0  0  0  0  0  0  0  0  0  0
    9.3260   -0.4080  -54.8620 N   0  0  0  0  0  0  0  0  0  0  0  0
    8.0770    0.1410  -54.9720 C   0  0  0  0  0  0  0  0  0  0  0  0
    7.8350    1.2110  -55.8980 C   0  0  0  0  0  0  0  0  0  0  0  0
    6.7720    1.3510  -56.4990 O   0  0  0  0  0  0  0  0  0  0  0  0
    8.8850    2.0790  -56.1220 N   0  0  0  0  0  0  0  0  0  0  0  0
    8.7850    3.0850  -57.1650 C   0  0  0  0  0  0  0  0  0  0  0  0
   10.1140    3.8530  -57.4240 C   0  0  1  0  0  0  0  0  0  0  0  0
   11.2970    2.8710  -57.3760 C   0  0  0  0  0  0  0  0  0  0  0  0
   12.6270    3.5440  -57.6810 C   0  0  0  0  0  0  0  0  0  0  0  0
   12.5760    4.2640  -59.0200 C   0  0  0  0  0  0  0  0  0  0  0  0
   11.4300    5.2580  -59.0650 C   0  0  0  0  0  0  0  0  0  0  0  0
   10.1140    4.5480  -58.7970 N   0  0  2  0  0  0  0  0  0  0  0  0
    8.9760    5.5300  -58.9650 C   0  0  0  0  0  0  0  0  0  0  0  0
    5.6044   -0.4987  -52.7938 H   0  0  0  0  0  0  0  0  0  0  0  0
    5.4274    0.4101  -54.3331 H   0  0  0  0  0  0  0  0  0  0  0  0
    5.3323   -1.3837  -54.3331 H   0  0  0  0  0  0  0  0  0  0  0  0
    8.6118   -1.1964  -50.7680 H   0  0  0  0  0  0  0  0  0  0  0  0
    8.1227   -2.8746  -48.9897 H   0  0  0  0  0  0  0  0  0  0  0  0
    7.1662   -5.0959  -49.5958 H   0  0  0  0  0  0  0  0  0  0  0  0
    6.7119   -5.6483  -51.9851 H   0  0  0  0  0  0  0  0  0  0  0  0
    7.2039   -3.9772  -53.7671 H   0  0  0  0  0  0  0  0  0  0  0  0
   10.1570   -0.1500  -55.3870 H   0  0  0  0  0  0  0  0  0  0  0  0
    9.8040    1.7560  -55.8450 H   0  0  0  0  0  0  0  0  0  0  0  0
    8.4836    2.5880  -58.0989 H   0  0  0  0  0  0  0  0  0  0  0  0
    8.0463    3.8264  -56.8264 H   0  0  0  0  0  0  0  0  0  0  0  0
   10.2095    4.6197  -56.6410 H   0  0  0  0  0  0  0  0  0  0  0  0
   11.3479    2.4293  -56.3699 H   0  0  0  0  0  0  0  0  0  0  0  0
   11.1262    2.1048  -58.1465 H   0  0  0  0  0  0  0  0  0  0  0  0
   12.8521    4.2728  -56.8884 H   0  0  0  0  0  0  0  0  0  0  0  0
   13.4094    2.7722  -57.7263 H   0  0  0  0  0  0  0  0  0  0  0  0
   13.5233    4.8012  -59.1749 H   0  0  0  0  0  0  0  0  0  0  0  0
   12.4202    3.5165  -59.8119 H   0  0  0  0  0  0  0  0  0  0  0  0
   11.5888    6.0316  -58.2993 H   0  0  0  0  0  0  0  0  0  0  0  0
   11.3933    5.7211  -60.0621 H   0  0  0  0  0  0  0  0  0  0  0  0
   10.0060    3.8280  -59.5250 H   0  0  0  0  0  0  0  0  0  0  0  0
    8.6129    5.8433  -57.9751 H   0  0  0  0  0  0  0  0  0  0  0  0
    9.3305    6.4104  -59.5211 H   0  0  0  0  0  0  0  0  0  0  0  0
    8.1570    5.0505  -59.5211 H   0  0  0  0  0  0  0  0  0  0  0  0
  1  2  1  0
  2  3  1  0
  3  4  1  0
  4  5  2  0
  5  6  1  0
  6  7  2  0
  7  8  1  0
  8  9  2  0
  3 10  2  0
 10 11  1  0
 11 12  1  0
 12 13  1  0
 13 14  2  0
 13 15  1  0
 15 16  1  0
 16 17  1  0
 17 18  1  0
 18 19  1  0
 19 20  1  0
 20 21  1  0
 21 22  1  0
 22 23  1  0
 12  2  2  0
 22 17  1  0
  9  4  1  0
  1 24  1  0
  1 25  1  0
  1 26  1  0
  5 27  1  0
  6 28  1  0
  7 29  1  0
  8 30  1  0
  9 31  1  0
 11 32  1  0
 15 33  1  0
 16 34  1  0
 16 35  1  0
 17 36  1  1
 18 37  1  0
 18 38  1  0
 19 39  1  0
 19 40  1  0
 20 41  1  0
 20 42  1  0
 21 43  1  0
 21 44  1  0
 22 45  1  6
 23 46  1  0
 23 47  1  0
 23 48  1  0
M  CHG  1  22   1
M  END
>  <meeko>  (40) 
{"is_sidechain": false}

$$$$

     RDKit          3D

 48 50  0  0  0  0  0  0  0  0999 V2000
    6.3030   -0.1480  -53.6110 C   0  0  0  0  0  0  0  0  0  0  0  0
    7.6800   -0.5810  -53.9720 C   0  0  0  0  0  0  0  0  0  0  0  0
    8.4190   -1.6830  -53.4300 C   0  0  0  0  0  0  0  0  0  0  0  0
    8.0320   -2.6250  -52.3780 C   0  0  0  0  0  0  0  0  0  0  0  0
    8.6640   -2.6120  -51.1280 C   0  0  0  0  0  0  0  0  0  0  0  0
    8.2830   -3.5150  -50.1320 C   0  0  0  0  0  0  0  0  0  0  0  0
    7.2730   -4.4430  -50.3810 C   0  0  0  0  0  0  0  0  0  0  0  0
    6.6470   -4.4750  -51.6250 C   0  0  0  0  0  0  0  0  0  0  0  0
    7.0280   -3.5720  -52.6210 C   0  0  0  0  0  0  0  0  0  0  0  0
    9.6060   -1.7960  -54.0420 N   0  0  0  0  0  0  0  0  0  0  0  0
    9.6510   -0.7730  -54.8930 N   0  0  0  0  0  0  0  0  0  0  0  0
    8.5160   -0.0120  -54.9270 C   0  0  0  0  0  0  0  0  0  0  0  0
    8.3000    1.1460  -55.7530 C   0  0  0  0  0  0  0  0  0  0  0  0
    7.1880    1.5500  -56.0830 O   0  0  0  0  0  0  0  0  0  0  0  0
    9.4260    1.8520  -56.1280 N   0  0  0  0  0  0  0  0  0  0  0  0
    9.4600    2.8010  -57.2460 C   0  0  0  0  0  0  0  0  0  0  0  0
   10.4940    3.9730  -57.2440 C   0  0  2  0  0  0  0  0  0  0  0  0
    9.8590    5.2990  -57.6870 C   0  0  0  0  0  0  0  0  0  0  0  0
    9.5700    5.3600  -59.1880 C   0  0  0  0  0  0  0  0  0  0  0  0
   10.7900    4.9880  -60.0250 C   0  0  0  0  0  0  0  0  0  0  0  0
   11.4040    3.6630  -59.5940 C   0  0  0  0  0  0  0  0  0  0  0  0
   11.6990    3.6790  -58.1240 N   0  0  1  0  0  0  0  0  0  0  0  0
   12.9200    4.4820  -57.7550 C   0  0  0  0  0  0  0  0  0  0  0  0
    6.2037   -0.1168  -52.5159 H   0  0  0  0  0  0  0  0  0  0  0  0
    6.1131    0.8532  -54.0251 H   0  0  0  0  0  0  0  0  0  0  0  0
    5.5742   -0.8603  -54.0251 H   0  0  0  0  0  0  0  0  0  0  0  0
    9.4659   -1.8858  -50.9290 H   0  0  0  0  0  0  0  0  0  0  0  0
    8.7803   -3.4936  -49.1510 H   0  0  0  0  0  0  0  0  0  0  0  0
    6.9702   -5.1503  -49.5948 H   0  0  0  0  0  0  0  0  0  0  0  0
    5.8534   -5.2105  -51.8231 H   0  0  0  0  0  0  0  0  0  0  0  0
    6.5357   -3.6048  -53.6041 H   0  0  0  0  0  0  0  0  0  0  0  0
   10.5110   -0.6460  -55.4130 H   0  0  0  0  0  0  0  0  0  0  0  0
   10.3030    1.3620  -55.9940 H   0  0  0  0  0  0  0  0  0  0  0  0
    9.6482    2.2129  -58.1563 H   0  0  0  0  0  0  0  0  0  0  0  0
    8.4918    3.3174  -57.1693 H   0  0  0  0  0  0  0  0  0  0  0  0
   10.8333    4.0685  -56.2020 H   0  0  0  0  0  0  0  0  0  0  0  0
    8.9119    5.4313  -57.1435 H   0  0  0  0  0  0  0  0  0  0  0  0
   10.5813    6.0974  -57.4616 H   0  0  0  0  0  0  0  0  0  0  0  0
    8.7540    4.6599  -59.4204 H   0  0  0  0  0  0  0  0  0  0  0  0
    9.2924    6.3949  -59.4368 H   0  0  0  0  0  0  0  0  0  0  0  0
   10.4855    4.9105  -61.0792 H   0  0  0  0  0  0  0  0  0  0  0  0
   11.5479    5.7724  -59.8824 H   0  0  0  0  0  0  0  0  0  0  0  0
   10.6987    2.8479  -59.8136 H   0  0  0  0  0  0  0  0  0  0  0  0
   12.3431    3.5080  -60.1454 H   0  0  0  0  0  0  0  0  0  0  0  0
   11.9750    2.7230  -57.8410 H   0  0  0  0  0  0  0  0  0  0  0  0
   13.0049    4.5378  -56.6597 H   0  0  0  0  0  0  0  0  0  0  0  0
   13.8166    3.9967  -58.1680 H   0  0  0  0  0  0  0  0  0  0  0  0
   12.8296    5.4975  -58.1680 H   0  0  0  0  0  0  0  0  0  0  0  0
  1  2  1  0
  2  3  1  0
  3  4  1  0
  4  5  2  0
  5  6  1  0
  6  7  2  0
  7  8  1  0
  8  9  2  0
  3 10  2  0
 10 11  1  0
 11 12  1  0
 12 13  1  0
 13 14  2  0
 13 15  1  0
 15 16  1  0
 16 17  1  0
 17 18  1  0
 18 19  1  0
 19 20  1  0
 20 21  1  0
 21 22  1  0
 22 23  1  0
 12  2  2  0
 22 17  1  0
  9  4  1  0
  1 24  1  0
  1 25  1  0
  1 26  1  0
  5 27  1  0
  6 28  1  0
  7 29  1  0
  8 30  1  0
  9 31  1  0
 11 32  1  0
 15 33  1  0
 16 34  1  0
 16 35  1  0
 17 36  1  1
 18 37  1  0
 18 38  1  0
 19 39  1  0
 19 40  1  0
 20 41  1  0
 20 42  1  0
 21 43  1  0
 21 44  1  0
 22 45  1  1
 23 46  1  0
 23 47  1  0
 23 48  1  0
M  CHG  1  22   1
M  END
>  <meeko>  (41) 
{"is_sidechain": false}

$$$$

     RDKit          3D

 48 50  0  0  0  0  0  0  0  0999 V2000
    5.5310   -0.6920  -53.8790 C   0  0  0  0  0  0  0  0  0  0  0  0
    7.0030   -0.6240  -54.0860 C   0  0  0  0  0  0  0  0  0  0  0  0
    8.0150   -1.3650  -53.3950 C   0  0  0  0  0  0  0  0  0  0  0  0
    7.8640   -2.3820  -52.3540 C   0  0  0  0  0  0  0  0  0  0  0  0
    7.4070   -3.6650  -52.6880 C   0  0  0  0  0  0  0  0  0  0  0  0
    7.2620   -4.6460  -51.7040 C   0  0  0  0  0  0  0  0  0  0  0  0
    7.5640   -4.3510  -50.3760 C   0  0  0  0  0  0  0  0  0  0  0  0
    8.0060   -3.0750  -50.0290 C   0  0  0  0  0  0  0  0  0  0  0  0
    8.1520   -2.0930  -51.0130 C   0  0  0  0  0  0  0  0  0  0  0  0
    9.2340   -0.9960  -53.8130 N   0  0  0  0  0  0  0  0  0  0  0  0
    9.0070   -0.1210  -54.7910 N   0  0  0  0  0  0  0  0  0  0  0  0
    7.6910    0.1940  -54.9770 C   0  0  0  0  0  0  0  0  0  0  0  0
    7.1810    1.1300  -55.9420 C   0  0  0  0  0  0  0  0  0  0  0  0
    5.9850    1.3720  -56.0960 O   0  0  0  0  0  0  0  0  0  0  0  0
    8.1260    1.8170  -56.6730 N   0  0  0  0  0  0  0  0  0  0  0  0
    7.8140    2.7220  -57.7780 C   0  0  0  0  0  0  0  0  0  0  0  0
    9.0390    3.2870  -58.5480 C   0  0  1  0  0  0  0  0  0  0  0  0
    8.9890    2.9810  -60.0500 C   0  0  0  0  0  0  0  0  0  0  0  0
   10.0200    3.7760  -60.8600 C   0  0  0  0  0  0  0  0  0  0  0  0
   11.1280    4.3500  -59.9850 C   0  0  0  0  0  0  0  0  0  0  0  0
   10.6070    5.2290  -58.8470 C   0  0  0  0  0  0  0  0  0  0  0  0
    9.2480    4.7790  -58.3640 N   0  0  1  0  0  0  0  0  0  0  0  0
    8.1390    5.6870  -58.8220 C   0  0  0  0  0  0  0  0  0  0  0  0
    5.3124   -0.7021  -52.8010 H   0  0  0  0  0  0  0  0  0  0  0  0
    5.0548    0.1851  -54.3415 H   0  0  0  0  0  0  0  0  0  0  0  0
    5.1377   -1.6093  -54.3415 H   0  0  0  0  0  0  0  0  0  0  0  0
    7.1606   -3.9010  -53.7337 H   0  0  0  0  0  0  0  0  0  0  0  0
    6.9094   -5.6514  -51.9775 H   0  0  0  0  0  0  0  0  0  0  0  0
    7.4537   -5.1245  -49.6017 H   0  0  0  0  0  0  0  0  0  0  0  0
    8.2400   -2.8409  -48.9800 H   0  0  0  0  0  0  0  0  0  0  0  0
    8.4954   -1.0862  -50.7330 H   0  0  0  0  0  0  0  0  0  0  0  0
    9.8130    0.2170  -55.3040 H   0  0  0  0  0  0  0  0  0  0  0  0
    9.1050    1.6960  -56.4410 H   0  0  0  0  0  0  0  0  0  0  0  0
    7.1854    2.1753  -58.4963 H   0  0  0  0  0  0  0  0  0  0  0  0
    7.3163    3.5916  -57.3239 H   0  0  0  0  0  0  0  0  0  0  0  0
    9.8932    2.7624  -58.0951 H   0  0  0  0  0  0  0  0  0  0  0  0
    9.1816    1.9078  -60.1953 H   0  0  0  0  0  0  0  0  0  0  0  0
    7.9919    3.2729  -60.4114 H   0  0  0  0  0  0  0  0  0  0  0  0
   10.4712    3.1089  -61.6093 H   0  0  0  0  0  0  0  0  0  0  0  0
    9.4964    4.6190  -61.3345 H   0  0  0  0  0  0  0  0  0  0  0  0
   11.6963    3.5151  -59.5490 H   0  0  0  0  0  0  0  0  0  0  0  0
   11.7536    4.9867  -60.6279 H   0  0  0  0  0  0  0  0  0  0  0  0
   11.3164    5.1814  -58.0076 H   0  0  0  0  0  0  0  0  0  0  0  0
   10.5105    6.2567  -59.2271 H   0  0  0  0  0  0  0  0  0  0  0  0
    9.2490    4.9200  -57.3290 H   0  0  0  0  0  0  0  0  0  0  0  0
    7.6245    6.1082  -57.9457 H   0  0  0  0  0  0  0  0  0  0  0  0
    8.5599    6.5032  -59.4275 H   0  0  0  0  0  0  0  0  0  0  0  0
    7.4219    5.1133  -59.4275 H   0  0  0  0  0  0  0  0  0  0  0  0
  1  2  1  0
  2  3  1  0
  3  4  1  0
  4  5  2  0
  5  6  1  0
  6  7  2  0
  7  8  1  0
  8  9  2  0
  3 10  2  0
 10 11  1  0
 11 12  1  0
 12 13  1  0
 13 14  2  0
 13 15  1  0
 15 16  1  0
 16 17  1  0
 17 18  1  0
 18 19  1  0
 19 20  1  0
 20 21  1  0
 21 22  1  0
 22 23  1  0
 12  2  2  0
 22 17  1  0
  9  4  1  0
  1 24  1  0
  1 25  1  0
  1 26  1  0
  5 27  1  0
  6 28  1  0
  7 29  1  0
  8 30  1  0
  9 31  1  0
 11 32  1  0
 15 33  1  0
 16 34  1  0
 16 35  1  0
 17 36  1  1
 18 37  1  0
 18 38  1  0
 19 39  1  0
 19 40  1  0
 20 41  1  0
 20 42  1  0
 21 43  1  0
 21 44  1  0
 22 45  1  1
 23 46  1  0
 23 47  1  0
 23 48  1  0
M  CHG  1  22   1
M  END
>  <meeko>  (42) 
{"is_sidechain": false}

$$$$

     RDKit          3D

 79 84  0  0  0  0  0  0  0  0999 V2000
    5.2770   -0.7660  -53.7950 C   0  0  0  0  0  0  0  0  0  0  0  0
    6.7340   -0.6940  -54.0790 C   0  0  0  0  0  0  0  0  0  0  0  0
    7.3740    0.1360  -55.0480 C   0  0  0  0  0  0  0  0  0  0  0  0
    6.7460    1.1010  -55.9710 C   0  0  0  0  0  0  0  0  0  0  0  0
    5.5570    1.4040  -55.9310 O   0  0  0  0  0  0  0  0  0  0  0  0
    7.6430    1.6370  -56.8740 N   0  0  0  0  0  0  0  0  0  0  0  0
    7.3270    2.7570  -57.7530 C   0  0  2  0  0  0  0  0  0  0  0  0
    8.2640    1.8930  -58.6040 C   0  0  0  0  0  0  0  0  0  0  0  0
    9.4500    2.5730  -59.2980 C   0  0  2  0  0  0  0  0  0  0  0  0
   10.6250    2.7620  -58.3340 C   0  0  0  0  0  0  0  0  0  0  0  0
   10.4920    4.0050  -57.4490 C   0  0  2  0  0  0  0  0  0  0  0  0
    9.2790    3.9110  -56.5040 C   0  0  0  0  0  0  0  0  0  0  0  0
    7.9050    4.0690  -57.1770 C   0  0  1  0  0  0  0  0  0  0  0  0
    7.9020    5.1870  -58.2300 C   0  0  0  0  0  0  0  0  0  0  0  0
    9.1070    5.1450  -59.1790 C   0  0  2  0  0  0  0  0  0  0  0  0
    9.0850    3.8650  -60.0390 C   0  0  0  0  0  0  0  0  0  0  0  0
   10.3960    5.2810  -58.3260 C   0  0  2  0  0  0  0  0  0  0  0  0
   11.6940    5.6430  -59.0540 C   0  0  0  0  0  0  0  0  0  0  0  0
   11.7180    6.7730  -59.8940 C   0  0  0  0  0  0  0  0  0  0  0  0
   12.8700    7.1350  -60.6010 C   0  0  0  0  0  0  0  0  0  0  0  0
   14.0160    6.3580  -60.4930 C   0  0  0  0  0  0  0  0  0  0  0  0
   15.4360    6.7960  -61.3590 Cl  0  0  0  0  0  0  0  0  0  0  0  0
   14.0130    5.2190  -59.6960 C   0  0  0  0  0  0  0  0  0  0  0  0
   12.8580    4.8610  -58.9910 C   0  0  0  0  0  0  0  0  0  0  0  0
    8.7100   -0.0460  -55.0410 N   0  0  0  0  0  0  0  0  0  0  0  0
    8.9130   -0.9810  -54.0910 N   0  0  0  0  0  0  0  0  0  0  0  0
   10.2730   -1.4320  -53.8340 C   0  0  0  0  0  0  0  0  0  0  0  0
   10.8910   -2.1030  -55.0590 C   0  0  0  0  0  0  0  0  0  0  0  0
   10.3820   -3.5290  -55.2810 C   0  0  0  0  0  0  0  0  0  0  0  0
   11.5130   -4.5580  -55.3870 C   0  0  0  0  0  0  0  0  0  0  0  0
   12.1770   -4.5390  -56.7590 C   0  0  0  0  0  0  0  0  0  0  0  0
   11.1860   -4.3970  -57.7670 O   0  0  0  0  0  0  0  0  0  0  0  0
    7.7600   -1.4040  -53.4760 C   0  0  0  0  0  0  0  0  0  0  0  0
    7.7150   -2.4130  -52.4260 C   0  0  0  0  0  0  0  0  0  0  0  0
    7.8850   -2.0450  -51.0860 C   0  0  0  0  0  0  0  0  0  0  0  0
    7.8500   -3.0150  -50.0830 C   0  0  0  0  0  0  0  0  0  0  0  0
    7.6400   -4.3540  -50.4120 C   0  0  0  0  0  0  0  0  0  0  0  0
    7.4610   -4.7250  -51.7450 C   0  0  0  0  0  0  0  0  0  0  0  0
    7.4950   -3.7570  -52.7490 C   0  0  0  0  0  0  0  0  0  0  0  0
    5.1155   -0.7740  -52.7070 H   0  0  0  0  0  0  0  0  0  0  0  0
    4.7742    0.1084  -54.2339 H   0  0  0  0  0  0  0  0  0  0  0  0
    4.8629   -1.6857  -54.2339 H   0  0  0  0  0  0  0  0  0  0  0  0
    8.6100    1.3770  -56.6920 H   0  0  0  0  0  0  0  0  0  0  0  0
    6.3560    3.1468  -58.0924 H   0  0  0  0  0  0  0  0  0  0  0  0
    8.6752    1.1133  -57.9460 H   0  0  0  0  0  0  0  0  0  0  0  0
    7.6310    1.5405  -59.4317 H   0  0  0  0  0  0  0  0  0  0  0  0
    9.7733    1.8818  -60.0903 H   0  0  0  0  0  0  0  0  0  0  0  0
   10.6889    1.8766  -57.6843 H   0  0  0  0  0  0  0  0  0  0  0  0
   11.5292    2.8946  -58.9463 H   0  0  0  0  0  0  0  0  0  0  0  0
   11.3941    4.0642  -56.8223 H   0  0  0  0  0  0  0  0  0  0  0  0
    9.3058    2.9264  -56.0142 H   0  0  0  0  0  0  0  0  0  0  0  0
    9.3731    4.7551  -55.8049 H   0  0  0  0  0  0  0  0  0  0  0  0
    7.2265    4.3627  -56.3626 H   0  0  0  0  0  0  0  0  0  0  0  0
    6.9844    5.0964  -58.8299 H   0  0  0  0  0  0  0  0  0  0  0  0
    7.9554    6.1412  -57.6853 H   0  0  0  0  0  0  0  0  0  0  0  0
    9.0706    5.9810  -59.8930 H   0  0  0  0  0  0  0  0  0  0  0  0
    8.0707    3.7475  -60.4481 H   0  0  0  0  0  0  0  0  0  0  0  0
    9.8572    4.0026  -60.8102 H   0  0  0  0  0  0  0  0  0  0  0  0
   10.2905    6.1855  -57.7089 H   0  0  0  0  0  0  0  0  0  0  0  0
   10.8100    7.3854  -59.9968 H   0  0  0  0  0  0  0  0  0  0  0  0
   12.8679    8.0308  -61.2394 H   0  0  0  0  0  0  0  0  0  0  0  0
   14.9184    4.5990  -59.6194 H   0  0  0  0  0  0  0  0  0  0  0  0
   12.8626    3.9492  -58.3757 H   0  0  0  0  0  0  0  0  0  0  0  0
   10.8888   -0.5642  -53.5551 H   0  0  0  0  0  0  0  0  0  0  0  0
   10.2391   -2.1717  -53.0206 H   0  0  0  0  0  0  0  0  0  0  0  0
   10.6481   -1.5019  -55.9477 H   0  0  0  0  0  0  0  0  0  0  0  0
   11.9759   -2.1641  -54.8881 H   0  0  0  0  0  0  0  0  0  0  0  0
    9.7342   -3.8057  -54.4361 H   0  0  0  0  0  0  0  0  0  0  0  0
    9.8368   -3.5392  -56.2363 H   0  0  0  0  0  0  0  0  0  0  0  0
   12.2711   -4.3322  -54.6226 H   0  0  0  0  0  0  0  0  0  0  0  0
   11.0784   -5.5569  -55.2342 H   0  0  0  0  0  0  0  0  0  0  0  0
   12.8788   -3.6938  -56.8142 H   0  0  0  0  0  0  0  0  0  0  0  0
   12.7224   -5.4817  -56.9136 H   0  0  0  0  0  0  0  0  0  0  0  0
   11.6080   -4.6210  -58.6150 H   0  0  0  0  0  0  0  0  0  0  0  0
    8.0465   -0.9892  -50.8230 H   0  0  0  0  0  0  0  0  0  0  0  0
    7.9882   -2.7230  -49.0315 H   0  0  0  0  0  0  0  0  0  0  0  0
    7.6155   -5.1175  -49.6205 H   0  0  0  0  0  0  0  0  0  0  0  0
    7.2931   -5.7807  -52.0043 H   0  0  0  0  0  0  0  0  0  0  0  0
    7.3483   -4.0512  -53.7987 H   0  0  0  0  0  0  0  0  0  0  0  0
  1  2  1  0
  2  3  1  0
  3  4  1  0
  4  5  2  0
  4  6  1  0
  6  7  1  0
  7  8  1  0
  8  9  1  0
  9 10  1  0
 10 11  1  0
 11 12  1  0
 12 13  1  0
 13 14  1  0
 14 15  1  0
 15 16  1  0
 15 17  1  0
 17 18  1  0
 18 19  1  0
 19 20  2  0
 20 21  1  0
 21 22  1  0
 21 23  2  0
 23 24  1  0
  3 25  2  0
 25 26  1  0
 26 27  1  0
 27 28  1  0
 28 29  1  0
 29 30  1  0
 30 31  1  0
 31 32  1  0
 26 33  1  0
 33 34  1  0
 34 35  2  0
 35 36  1  0
 36 37  2  0
 37 38  1  0
 38 39  2  0
 33  2  2  0
 39 34  1  0
 13  7  1  0
 24 18  2  0
 16  9  1  0
 17 11  1  0
  1 40  1  0
  1 41  1  0
  1 42  1  0
  6 43  1  0
  7 44  1  6
  8 45  1  0
  8 46  1  0
  9 47  1  6
 10 48  1  0
 10 49  1  0
 11 50  1  1
 12 51  1  0
 12 52  1  0
 13 53  1  1
 14 54  1  0
 14 55  1  0
 15 56  1  6
 16 57  1  0
 16 58  1  0
 17 59  1  1
 19 60  1  0
 20 61  1  0
 23 62  1  0
 24 63  1  0
 27 64  1  0
 27 65  1  0
 28 66  1  0
 28 67  1  0
 29 68  1  0
 29 69  1  0
 30 70  1  0
 30 71  1  0
 31 72  1  0
 31 73  1  0
 32 74  1  0
 35 75  1  0
 36 76  1  0
 37 77  1  0
 38 78  1  0
 39 79  1  0
M  END
>  <meeko>  (43) 
{"is_sidechain": false}

$$$$

     RDKit          3D

 79 84  0  0  0  0  0  0  0  0999 V2000
    6.8470    0.0060  -52.6000 C   0  0  0  0  0  0  0  0  0  0  0  0
    7.7910   -0.8060  -53.4120 C   0  0  0  0  0  0  0  0  0  0  0  0
    8.5110   -0.4050  -54.5830 C   0  0  0  0  0  0  0  0  0  0  0  0
    8.5320    0.9180  -55.2350 C   0  0  0  0  0  0  0  0  0  0  0  0
    9.4090    1.7550  -55.0370 O   0  0  0  0  0  0  0  0  0  0  0  0
    7.4660    1.1400  -56.0910 N   0  0  0  0  0  0  0  0  0  0  0  0
    7.3680    2.3350  -56.9300 C   0  0  2  0  0  0  0  0  0  0  0  0
    6.5000    1.9030  -58.1180 C   0  0  0  0  0  0  0  0  0  0  0  0
    6.7900    2.5210  -59.4900 C   0  0  2  0  0  0  0  0  0  0  0  0
    7.9620    1.8130  -60.1810 C   0  0  0  0  0  0  0  0  0  0  0  0
    9.3370    2.3260  -59.7300 C   0  0  2  0  0  0  0  0  0  0  0  0
    9.5780    2.0120  -58.2390 C   0  0  0  0  0  0  0  0  0  0  0  0
    8.7810    2.8730  -57.2470 C   0  0  1  0  0  0  0  0  0  0  0  0
    8.7340    4.3460  -57.6700 C   0  0  0  0  0  0  0  0  0  0  0  0
    8.3760    4.5490  -59.1430 C   0  0  2  0  0  0  0  0  0  0  0  0
    6.9550    4.0470  -59.4660 C   0  0  0  0  0  0  0  0  0  0  0  0
    9.4150    3.8410  -60.0520 C   0  0  1  0  0  0  0  0  0  0  0  0
   10.8010    4.4950  -60.0500 C   0  0  0  0  0  0  0  0  0  0  0  0
   11.9210    3.7320  -59.6640 C   0  0  0  0  0  0  0  0  0  0  0  0
   13.2040    4.2850  -59.6210 C   0  0  0  0  0  0  0  0  0  0  0  0
   13.3890    5.6230  -59.9460 C   0  0  0  0  0  0  0  0  0  0  0  0
   14.9630    6.3120  -59.8920 Cl  0  0  0  0  0  0  0  0  0  0  0  0
   12.2990    6.4100  -60.3000 C   0  0  0  0  0  0  0  0  0  0  0  0
   11.0150    5.8510  -60.3420 C   0  0  0  0  0  0  0  0  0  0  0  0
    9.2240   -1.4290  -55.0780 N   0  0  0  0  0  0  0  0  0  0  0  0
    8.9840   -2.4550  -54.2430 N   0  0  0  0  0  0  0  0  0  0  0  0
    9.6270   -3.7290  -54.5180 C   0  0  0  0  0  0  0  0  0  0  0  0
   11.1530   -3.6890  -54.3830 C   0  0  0  0  0  0  0  0  0  0  0  0
   11.8660   -4.5310  -55.4450 C   0  0  0  0  0  0  0  0  0  0  0  0
   10.9800   -4.8610  -56.6480 C   0  0  0  0  0  0  0  0  0  0  0  0
   11.5880   -4.4560  -57.9860 C   0  0  0  0  0  0  0  0  0  0  0  0
   11.9230   -3.0740  -57.9560 O   0  0  0  0  0  0  0  0  0  0  0  0
    8.1310   -2.1370  -53.2150 C   0  0  0  0  0  0  0  0  0  0  0  0
    7.7030   -3.0660  -52.1770 C   0  0  0  0  0  0  0  0  0  0  0  0
    6.4650   -3.7110  -52.2760 C   0  0  0  0  0  0  0  0  0  0  0  0
    6.0550   -4.6000  -51.2830 C   0  0  0  0  0  0  0  0  0  0  0  0
    6.8830   -4.8550  -50.1890 C   0  0  0  0  0  0  0  0  0  0  0  0
    8.1220   -4.2240  -50.0900 C   0  0  0  0  0  0  0  0  0  0  0  0
    8.5340   -3.3320  -51.0820 C   0  0  0  0  0  0  0  0  0  0  0  0
    7.0436   -0.1631  -51.5310 H   0  0  0  0  0  0  0  0  0  0  0  0
    6.9851    1.0719  -52.8341 H   0  0  0  0  0  0  0  0  0  0  0  0
    5.8137   -0.2899  -52.8341 H   0  0  0  0  0  0  0  0  0  0  0  0
    6.7810    0.4060  -56.1990 H   0  0  0  0  0  0  0  0  0  0  0  0
    6.8863    3.2044  -56.4587 H   0  0  0  0  0  0  0  0  0  0  0  0
    6.6084    0.8133  -58.2218 H   0  0  0  0  0  0  0  0  0  0  0  0
    5.4923    2.2638  -57.8644 H   0  0  0  0  0  0  0  0  0  0  0  0
    5.8892    2.3505  -60.0978 H   0  0  0  0  0  0  0  0  0  0  0  0
    7.9006    0.7378  -59.9571 H   0  0  0  0  0  0  0  0  0  0  0  0
    7.8761    2.0195  -61.2580 H   0  0  0  0  0  0  0  0  0  0  0  0
   10.1431    1.8121  -60.2742 H   0  0  0  0  0  0  0  0  0  0  0  0
    9.3099    0.9592  -58.0663 H   0  0  0  0  0  0  0  0  0  0  0  0
   10.6384    2.2349  -58.0499 H   0  0  0  0  0  0  0  0  0  0  0  0
    9.3427    2.8045  -56.3037 H   0  0  0  0  0  0  0  0  0  0  0  0
    7.9810    4.8605  -57.0550 H   0  0  0  0  0  0  0  0  0  0  0  0
    9.7443    4.7558  -57.5242 H   0  0  0  0  0  0  0  0  0  0  0  0
    8.3975    5.6308  -59.3413 H   0  0  0  0  0  0  0  0  0  0  0  0
    6.2704    4.4513  -58.7058 H   0  0  0  0  0  0  0  0  0  0  0  0
    6.7336    4.3938  -60.4861 H   0  0  0  0  0  0  0  0  0  0  0  0
    9.1680    3.9667  -61.1165 H   0  0  0  0  0  0  0  0  0  0  0  0
   11.7823    2.6758  -59.3899 H   0  0  0  0  0  0  0  0  0  0  0  0
   14.0638    3.6632  -59.3310 H   0  0  0  0  0  0  0  0  0  0  0  0
   12.4447    7.4719  -60.5472 H   0  0  0  0  0  0  0  0  0  0  0  0
   10.1582    6.4871  -60.6090 H   0  0  0  0  0  0  0  0  0  0  0  0
    9.2351   -4.4757  -53.8118 H   0  0  0  0  0  0  0  0  0  0  0  0
    9.4028   -3.9838  -55.5643 H   0  0  0  0  0  0  0  0  0  0  0  0
   11.4870   -2.6454  -54.4797 H   0  0  0  0  0  0  0  0  0  0  0  0
   11.4092   -4.1106  -53.3998 H   0  0  0  0  0  0  0  0  0  0  0  0
   12.7450   -3.9736  -55.8008 H   0  0  0  0  0  0  0  0  0  0  0  0
   12.1445   -5.4847  -54.9730 H   0  0  0  0  0  0  0  0  0  0  0  0
   10.8027   -5.9465  -56.6614 H   0  0  0  0  0  0  0  0  0  0  0  0
   10.0501   -4.2854  -56.5300 H   0  0  0  0  0  0  0  0  0  0  0  0
   12.4956   -5.0493  -58.1708 H   0  0  0  0  0  0  0  0  0  0  0  0
   10.8599   -4.6393  -58.7899 H   0  0  0  0  0  0  0  0  0  0  0  0
   11.1990   -2.5870  -58.3840 H   0  0  0  0  0  0  0  0  0  0  0  0
    5.8130   -3.5160  -53.1402 H   0  0  0  0  0  0  0  0  0  0  0  0
    5.0786   -5.1004  -51.3620 H   0  0  0  0  0  0  0  0  0  0  0  0
    6.5578   -5.5542  -49.4045 H   0  0  0  0  0  0  0  0  0  0  0  0
    8.7758   -4.4290  -49.2295 H   0  0  0  0  0  0  0  0  0  0  0  0
    9.5133   -2.8373  -51.0031 H   0  0  0  0  0  0  0  0  0  0  0  0
  1  2  1  0
  2  3  1  0
  3  4  1  0
  4  5  2  0
  4  6  1  0
  6  7  1  0
  7  8  1  0
  8  9  1  0
  9 10  1  0
 10 11  1  0
 11 12  1  0
 12 13  1  0
 13 14  1  0
 14 15  1  0
 15 16  1  0
 15 17  1  0
 17 18  1  0
 18 19  1  0
 19 20  2  0
 20 21  1  0
 21 22  1  0
 21 23  2  0
 23 24  1  0
  3 25  2  0
 25 26  1  0
 26 27  1  0
 27 28  1  0
 28 29  1  0
 29 30  1  0
 30 31  1  0
 31 32  1  0
 26 33  1  0
 33 34  1  0
 34 35  2  0
 35 36  1  0
 36 37  2  0
 37 38  1  0
 38 39  2  0
 33  2  2  0
 39 34  1  0
 13  7  1  0
 24 18  2  0
 16  9  1  0
 17 11  1  0
  1 40  1  0
  1 41  1  0
  1 42  1  0
  6 43  1  0
  7 44  1  1
  8 45  1  0
  8 46  1  0
  9 47  1  6
 10 48  1  0
 10 49  1  0
 11 50  1  6
 12 51  1  0
 12 52  1  0
 13 53  1  1
 14 54  1  0
 14 55  1  0
 15 56  1  6
 16 57  1  0
 16 58  1  0
 17 59  1  6
 19 60  1  0
 20 61  1  0
 23 62  1  0
 24 63  1  0
 27 64  1  0
 27 65  1  0
 28 66  1  0
 28 67  1  0
 29 68  1  0
 29 69  1  0
 30 70  1  0
 30 71  1  0
 31 72  1  0
 31 73  1  0
 32 74  1  0
 35 75  1  0
 36 76  1  0
 37 77  1  0
 38 78  1  0
 39 79  1  0
M  END
>  <meeko>  (44) 
{"is_sidechain": false}

$$$$

     RDKit          3D

 61 64  0  0  0  0  0  0  0  0999 V2000
    5.6400   -0.4860  -53.9880 C   0  0  0  0  0  0  0  0  0  0  0  0
    7.1150   -0.5350  -54.1940 C   0  0  0  0  0  0  0  0  0  0  0  0
    7.8730    0.2720  -55.0940 C   0  0  0  0  0  0  0  0  0  0  0  0
    7.3830    1.3310  -55.9980 C   0  0  0  0  0  0  0  0  0  0  0  0
    6.2070    1.6660  -56.0670 O   0  0  0  0  0  0  0  0  0  0  0  0
    8.3860    1.8900  -56.7770 N   0  0  0  0  0  0  0  0  0  0  0  0
    8.3320    3.2150  -57.4660 C   0  0  2  0  0  0  0  0  0  0  0  0
    7.1410    3.4400  -58.4130 C   0  0  0  0  0  0  0  0  0  0  0  0
    7.1760    2.5370  -59.6430 C   0  0  0  0  0  0  0  0  0  0  0  0
    8.3920    2.7730  -60.5010 N   0  0  0  0  0  0  0  0  0  0  0  0
    9.6040    1.9640  -60.1560 C   0  0  0  0  0  0  0  0  0  0  0  0
   10.3910    2.5160  -58.9650 C   0  0  0  0  0  0  0  0  0  0  0  0
    9.6480    3.6050  -58.2160 C   0  0  2  0  0  0  0  0  0  0  0  0
   10.1740    4.1630  -56.8720 C   0  0  0  0  0  0  0  0  0  0  0  0
    8.6900    4.3690  -56.4730 C   0  0  0  0  0  0  0  0  0  0  0  0
    9.1860   -0.0280  -55.0270 N   0  0  0  0  0  0  0  0  0  0  0  0
    9.2560   -1.0280  -54.1270 N   0  0  0  0  0  0  0  0  0  0  0  0
   10.5660   -1.5740  -53.8170 C   0  0  0  0  0  0  0  0  0  0  0  0
   10.7970   -2.9870  -54.3600 C   0  0  0  0  0  0  0  0  0  0  0  0
   10.9150   -3.1060  -55.8760 C   0  0  0  0  0  0  0  0  0  0  0  0
   11.5330   -1.9000  -56.4790 N   0  0  0  0  0  0  0  0  0  0  0  0
    8.0420   -1.3590  -53.5700 C   0  0  0  0  0  0  0  0  0  0  0  0
    7.8460   -2.3490  -52.5130 C   0  0  0  0  0  0  0  0  0  0  0  0
    7.4340   -3.6480  -52.8430 C   0  0  0  0  0  0  0  0  0  0  0  0
    7.2000   -4.5930  -51.8420 C   0  0  0  0  0  0  0  0  0  0  0  0
    7.3820   -4.2470  -50.5040 C   0  0  0  0  0  0  0  0  0  0  0  0
    7.8160   -2.9660  -50.1680 C   0  0  0  0  0  0  0  0  0  0  0  0
    8.0550   -2.0220  -51.1690 C   0  0  0  0  0  0  0  0  0  0  0  0
    5.4204   -0.4787  -52.9102 H   0  0  0  0  0  0  0  0  0  0  0  0
    5.2352    0.4261  -54.4509 H   0  0  0  0  0  0  0  0  0  0  0  0
    5.1756   -1.3692  -54.4509 H   0  0  0  0  0  0  0  0  0  0  0  0
    9.2970    1.5230  -56.4870 H   0  0  0  0  0  0  0  0  0  0  0  0
    6.2112    3.2420  -57.8595 H   0  0  0  0  0  0  0  0  0  0  0  0
    7.1954    4.4799  -58.7675 H   0  0  0  0  0  0  0  0  0  0  0  0
    7.1777    1.4885  -59.3103 H   0  0  0  0  0  0  0  0  0  0  0  0
    6.2892    2.7683  -60.2513 H   0  0  0  0  0  0  0  0  0  0  0  0
    8.6110    3.7770  -60.5670 H   0  0  0  0  0  0  0  0  0  0  0  0
    8.1190    2.5090  -61.4590 H   0  0  0  0  0  0  0  0  0  0  0  0
    9.2817    0.9402  -59.9153 H   0  0  0  0  0  0  0  0  0  0  0  0
   10.2733    1.9979  -61.0283 H   0  0  0  0  0  0  0  0  0  0  0  0
   10.5975    1.6901  -58.2685 H   0  0  0  0  0  0  0  0  0  0  0  0
   11.3158    2.9615  -59.3604 H   0  0  0  0  0  0  0  0  0  0  0  0
    9.6600    4.2422  -59.1126 H   0  0  0  0  0  0  0  0  0  0  0  0
   10.7211    3.4362  -56.2536 H   0  0  0  0  0  0  0  0  0  0  0  0
   10.9093    4.9799  -56.8270 H   0  0  0  0  0  0  0  0  0  0  0  0
    8.4645    4.1527  -55.4183 H   0  0  0  0  0  0  0  0  0  0  0  0
    8.2065    5.3551  -56.5345 H   0  0  0  0  0  0  0  0  0  0  0  0
   11.3287   -0.9089  -54.2482 H   0  0  0  0  0  0  0  0  0  0  0  0
   10.6317   -1.6399  -52.7209 H   0  0  0  0  0  0  0  0  0  0  0  0
   11.7287   -3.3699  -53.9181 H   0  0  0  0  0  0  0  0  0  0  0  0
    9.9008   -3.5624  -54.0847 H   0  0  0  0  0  0  0  0  0  0  0  0
   11.5356   -3.9818  -56.1167 H   0  0  0  0  0  0  0  0  0  0  0  0
    9.9013   -3.2126  -56.2895 H   0  0  0  0  0  0  0  0  0  0  0  0
   12.3770   -2.1150  -57.0270 H   0  0  0  0  0  0  0  0  0  0  0  0
   11.7730   -1.1690  -55.7940 H   0  0  0  0  0  0  0  0  0  0  0  0
   10.8730   -1.4510  -57.1310 H   0  0  0  0  0  0  0  0  0  0  0  0
    7.2941   -3.9247  -53.8984 H   0  0  0  0  0  0  0  0  0  0  0  0
    6.8726   -5.6087  -52.1088 H   0  0  0  0  0  0  0  0  0  0  0  0
    7.1830   -4.9852  -49.7132 H   0  0  0  0  0  0  0  0  0  0  0  0
    7.9706   -2.6980  -49.1124 H   0  0  0  0  0  0  0  0  0  0  0  0
    8.4094   -1.0162  -50.8993 H   0  0  0  0  0  0  0  0  0  0  0  0
  1  2  1  0
  2  3  1  0
  3  4  1  0
  4  5  2  0
  4  6  1  0
  7  6  1  1
  7  8  1  0
  8  9  1  0
  9 10  1  0
 10 11  1  0
 11 12  1  0
 12 13  1  0
 13 14  1  0
 14 15  1  0
  3 16  2  0
 16 17  1  0
 17 18  1  0
 18 19  1  0
 19 20  1  0
 20 21  1  0
 17 22  1  0
 22 23  1  0
 23 24  2  0
 24 25  1  0
 25 26  2  0
 26 27  1  0
 27 28  2  0
 22  2  2  0
 28 23  1  0
 13  7  1  0
 15  7  1  0
  1 29  1  0
  1 30  1  0
  1 31  1  0
  6 32  1  0
  8 33  1  0
  8 34  1  0
  9 35  1  0
  9 36  1  0
 10 37  1  0
 10 38  1  0
 11 39  1  0
 11 40  1  0
 12 41  1  0
 12 42  1  0
 13 43  1  6
 14 44  1  0
 14 45  1  0
 15 46  1  0
 15 47  1  0
 18 48  1  0
 18 49  1  0
 19 50  1  0
 19 51  1  0
 20 52  1  0
 20 53  1  0
 21 54  1  0
 21 55  1  0
 21 56  1  0
 24 57  1  0
 25 58  1  0
 26 59  1  0
 27 60  1  0
 28 61  1  0
M  CHG  2  10   1  21   1
M  END
>  <meeko>  (45) 
{"is_sidechain": false}

$$$$

     RDKit          3D

 61 64  0  0  0  0  0  0  0  0999 V2000
    6.3540    0.0680  -53.6620 C   0  0  0  0  0  0  0  0  0  0  0  0
    7.7100   -0.4400  -54.0120 C   0  0  0  0  0  0  0  0  0  0  0  0
    8.5880    0.0940  -55.0020 C   0  0  0  0  0  0  0  0  0  0  0  0
    8.3460    1.2450  -55.8910 C   0  0  0  0  0  0  0  0  0  0  0  0
    7.2380    1.5430  -56.3220 O   0  0  0  0  0  0  0  0  0  0  0  0
    9.4970    1.9640  -56.1870 N   0  0  0  0  0  0  0  0  0  0  0  0
    9.5760    3.0120  -57.2450 C   0  0  1  0  0  0  0  0  0  0  0  0
   10.0440    2.4270  -58.5840 C   0  0  0  0  0  0  0  0  0  0  0  0
   10.7440    3.4500  -59.4610 C   0  0  0  0  0  0  0  0  0  0  0  0
    9.7400    4.3240  -60.1500 N   0  0  0  0  0  0  0  0  0  0  0  0
    8.9230    5.2390  -59.3000 C   0  0  0  0  0  0  0  0  0  0  0  0
    7.8040    4.4930  -58.5840 C   0  0  0  0  0  0  0  0  0  0  0  0
    8.2930    3.9170  -57.2540 C   0  0  2  0  0  0  0  0  0  0  0  0
    9.0510    4.9130  -56.3440 C   0  0  0  0  0  0  0  0  0  0  0  0
   10.3730    4.2710  -56.7880 C   0  0  0  0  0  0  0  0  0  0  0  0
    9.7400   -0.6060  -55.0610 N   0  0  0  0  0  0  0  0  0  0  0  0
    9.6100   -1.5410  -54.0960 N   0  0  0  0  0  0  0  0  0  0  0  0
   10.6940   -2.4950  -53.9250 C   0  0  0  0  0  0  0  0  0  0  0  0
   10.4900   -3.8030  -54.6960 C   0  0  0  0  0  0  0  0  0  0  0  0
   11.4270   -3.9330  -55.8900 C   0  0  0  0  0  0  0  0  0  0  0  0
   11.5410   -2.6230  -56.5790 N   0  0  0  0  0  0  0  0  0  0  0  0
    8.4010   -1.5010  -53.4420 C   0  0  0  0  0  0  0  0  0  0  0  0
    7.9810   -2.4270  -52.3910 C   0  0  0  0  0  0  0  0  0  0  0  0
    7.4620   -3.6880  -52.7070 C   0  0  0  0  0  0  0  0  0  0  0  0
    7.0480   -4.5540  -51.6930 C   0  0  0  0  0  0  0  0  0  0  0  0
    7.1640   -4.1740  -50.3580 C   0  0  0  0  0  0  0  0  0  0  0  0
    7.7060   -2.9320  -50.0320 C   0  0  0  0  0  0  0  0  0  0  0  0
    8.1170   -2.0630  -51.0440 C   0  0  0  0  0  0  0  0  0  0  0  0
    6.2484    0.1076  -52.5678 H   0  0  0  0  0  0  0  0  0  0  0  0
    6.2212    1.0768  -54.0799 H   0  0  0  0  0  0  0  0  0  0  0  0
    5.5911   -0.6053  -54.0799 H   0  0  0  0  0  0  0  0  0  0  0  0
   10.3320    1.4870  -55.8460 H   0  0  0  0  0  0  0  0  0  0  0  0
   10.7419    1.6011  -58.3819 H   0  0  0  0  0  0  0  0  0  0  0  0
    9.1503    2.0831  -59.1254 H   0  0  0  0  0  0  0  0  0  0  0  0
   11.3996    4.0745  -58.8363 H   0  0  0  0  0  0  0  0  0  0  0  0
   11.3371    2.9209  -60.2215 H   0  0  0  0  0  0  0  0  0  0  0  0
   10.2010    4.8600  -60.9000 H   0  0  0  0  0  0  0  0  0  0  0  0
    9.0860    3.7030  -60.6480 H   0  0  0  0  0  0  0  0  0  0  0  0
    9.5768    5.7070  -58.5493 H   0  0  0  0  0  0  0  0  0  0  0  0
    8.4667    5.9977  -59.9528 H   0  0  0  0  0  0  0  0  0  0  0  0
    6.9738    5.1884  -58.3913 H   0  0  0  0  0  0  0  0  0  0  0  0
    7.4705    3.6629  -59.2241 H   0  0  0  0  0  0  0  0  0  0  0  0
    7.3207    3.4800  -56.9825 H   0  0  0  0  0  0  0  0  0  0  0  0
    8.9394    5.9678  -56.6353 H   0  0  0  0  0  0  0  0  0  0  0  0
    8.7991    5.0090  -55.2776 H   0  0  0  0  0  0  0  0  0  0  0  0
   10.8842    4.8041  -57.6031 H   0  0  0  0  0  0  0  0  0  0  0  0
   11.2205    4.1823  -56.0924 H   0  0  0  0  0  0  0  0  0  0  0  0
   11.6264   -2.0276  -54.2745 H   0  0  0  0  0  0  0  0  0  0  0  0
   10.7293   -2.7536  -52.8564 H   0  0  0  0  0  0  0  0  0  0  0  0
   10.6709   -4.6461  -54.0131 H   0  0  0  0  0  0  0  0  0  0  0  0
    9.4593   -3.8053  -55.0803 H   0  0  0  0  0  0  0  0  0  0  0  0
   12.4209   -4.2514  -55.5424 H   0  0  0  0  0  0  0  0  0  0  0  0
   11.0248   -4.6800  -56.5901 H   0  0  0  0  0  0  0  0  0  0  0  0
   11.7590   -2.7540  -57.5780 H   0  0  0  0  0  0  0  0  0  0  0  0
   10.6680   -2.0810  -56.5340 H   0  0  0  0  0  0  0  0  0  0  0  0
   12.2930   -2.0390  -56.1880 H   0  0  0  0  0  0  0  0  0  0  0  0
    7.3799   -3.9982  -53.7592 H   0  0  0  0  0  0  0  0  0  0  0  0
    6.6293   -5.5385  -51.9490 H   0  0  0  0  0  0  0  0  0  0  0  0
    6.8280   -4.8539  -49.5612 H   0  0  0  0  0  0  0  0  0  0  0  0
    7.8098   -2.6367  -48.9775 H   0  0  0  0  0  0  0  0  0  0  0  0
    8.5504   -1.0863  -50.7830 H   0  0  0  0  0  0  0  0  0  0  0  0
  1  2  1  0
  2  3  1  0
  3  4  1  0
  4  5  2  0
  4  6  1  0
  7  6  1  1
  7  8  1  0
  8  9  1  0
  9 10  1  0
 10 11  1  0
 11 12  1  0
 12 13  1  0
 13 14  1  0
 14 15  1  0
  3 16  2  0
 16 17  1  0
 17 18  1  0
 18 19  1  0
 19 20  1  0
 20 21  1  0
 17 22  1  0
 22 23  1  0
 23 24  2  0
 24 25  1  0
 25 26  2  0
 26 27  1  0
 27 28  2  0
 22  2  2  0
 28 23  1  0
 13  7  1  0
 15  7  1  0
  1 29  1  0
  1 30  1  0
  1 31  1  0
  6 32  1  0
  8 33  1  0
  8 34  1  0
  9 35  1  0
  9 36  1  0
 10 37  1  0
 10 38  1  0
 11 39  1  0
 11 40  1  0
 12 41  1  0
 12 42  1  0
 13 43  1  1
 14 44  1  0
 14 45  1  0
 15 46  1  0
 15 47  1  0
 18 48  1  0
 18 49  1  0
 19 50  1  0
 19 51  1  0
 20 52  1  0
 20 53  1  0
 21 54  1  0
 21 55  1  0
 21 56  1  0
 24 57  1  0
 25 58  1  0
 26 59  1  0
 27 60  1  0
 28 61  1  0
M  CHG  2  10   1  21   1
M  END
>  <meeko>  (46) 
{"is_sidechain": false}

$$$$

     RDKit          3D

 61 64  0  0  0  0  0  0  0  0999 V2000
    5.8870   -0.4210  -53.7960 C   0  0  0  0  0  0  0  0  0  0  0  0
    7.3450   -0.5900  -54.0470 C   0  0  0  0  0  0  0  0  0  0  0  0
    8.1800    0.1120  -54.9790 C   0  0  0  0  0  0  0  0  0  0  0  0
    7.8500    1.1990  -55.9270 C   0  0  0  0  0  0  0  0  0  0  0  0
    6.7000    1.6180  -56.0430 O   0  0  0  0  0  0  0  0  0  0  0  0
    8.9010    1.6820  -56.6930 N   0  0  0  0  0  0  0  0  0  0  0  0
    8.7830    2.8650  -57.6200 C   0  0  2  0  0  0  0  0  0  0  0  0
    8.0800    2.3950  -58.9150 C   0  0  0  0  0  0  0  0  0  0  0  0
    8.0610    3.4150  -60.0430 C   0  0  0  0  0  0  0  0  0  0  0  0
    9.3090    3.3780  -60.8660 N   0  0  0  0  0  0  0  0  0  0  0  0
   10.6370    3.5730  -60.2090 C   0  0  0  0  0  0  0  0  0  0  0  0
   10.5220    4.4510  -58.9760 C   0  0  0  0  0  0  0  0  0  0  0  0
   10.1740    3.6060  -57.7470 C   0  0  1  0  0  0  0  0  0  0  0  0
    9.7540    4.4560  -56.5200 C   0  0  0  0  0  0  0  0  0  0  0  0
    8.2830    4.1430  -56.8610 C   0  0  0  0  0  0  0  0  0  0  0  0
    9.4300   -0.3960  -54.9720 N   0  0  0  0  0  0  0  0  0  0  0  0
    9.4110   -1.3360  -54.0030 N   0  0  0  0  0  0  0  0  0  0  0  0
   10.6340   -2.0840  -53.7830 C   0  0  0  0  0  0  0  0  0  0  0  0
   10.6680   -3.4450  -54.4890 C   0  0  0  0  0  0  0  0  0  0  0  0
   11.0380   -3.4650  -55.9740 C   0  0  0  0  0  0  0  0  0  0  0  0
   11.5330   -2.1620  -56.4600 N   0  0  0  0  0  0  0  0  0  0  0  0
    8.1830   -1.5100  -53.4310 C   0  0  0  0  0  0  0  0  0  0  0  0
    7.8960   -2.5110  -52.4120 C   0  0  0  0  0  0  0  0  0  0  0  0
    7.3040   -3.7290  -52.7670 C   0  0  0  0  0  0  0  0  0  0  0  0
    7.0190   -4.6810  -51.7870 C   0  0  0  0  0  0  0  0  0  0  0  0
    7.3260   -4.4240  -50.4520 C   0  0  0  0  0  0  0  0  0  0  0  0
    7.9240   -3.2170  -50.0940 C   0  0  0  0  0  0  0  0  0  0  0  0
    8.2110   -2.2620  -51.0710 C   0  0  0  0  0  0  0  0  0  0  0  0
    5.7016   -0.3995  -52.7119 H   0  0  0  0  0  0  0  0  0  0  0  0
    5.5446    0.5229  -54.2453 H   0  0  0  0  0  0  0  0  0  0  0  0
    5.3377   -1.2615  -54.2453 H   0  0  0  0  0  0  0  0  0  0  0  0
    9.7890    1.2020  -56.6000 H   0  0  0  0  0  0  0  0  0  0  0  0
    8.5986    1.4952  -59.2774 H   0  0  0  0  0  0  0  0  0  0  0  0
    7.0287    2.2149  -58.6459 H   0  0  0  0  0  0  0  0  0  0  0  0
    7.2010    3.2040  -60.6957 H   0  0  0  0  0  0  0  0  0  0  0  0
    7.9874    4.4147  -59.5900 H   0  0  0  0  0  0  0  0  0  0  0  0
    9.2100    4.0960  -61.6010 H   0  0  0  0  0  0  0  0  0  0  0  0
    9.3380    2.4900  -61.3880 H   0  0  0  0  0  0  0  0  0  0  0  0
   11.0375    2.5920  -59.9136 H   0  0  0  0  0  0  0  0  0  0  0  0
   11.3080    4.0692  -60.9257 H   0  0  0  0  0  0  0  0  0  0  0  0
   11.4810    4.9618  -58.8045 H   0  0  0  0  0  0  0  0  0  0  0  0
    9.7230    5.1895  -59.1381 H   0  0  0  0  0  0  0  0  0  0  0  0
   11.0803    2.9864  -57.8149 H   0  0  0  0  0  0  0  0  0  0  0  0
   10.0919    4.0567  -55.5523 H   0  0  0  0  0  0  0  0  0  0  0  0
   10.1034    5.4917  -56.3966 H   0  0  0  0  0  0  0  0  0  0  0  0
    7.6466    3.9354  -55.9881 H   0  0  0  0  0  0  0  0  0  0  0  0
    7.6387    4.8862  -57.3535 H   0  0  0  0  0  0  0  0  0  0  0  0
   11.4783   -1.4824  -54.1506 H   0  0  0  0  0  0  0  0  0  0  0  0
   10.6950   -2.2839  -52.7030 H   0  0  0  0  0  0  0  0  0  0  0  0
   11.4001   -4.0722  -53.9592 H   0  0  0  0  0  0  0  0  0  0  0  0
    9.6282   -3.8024  -54.4558 H   0  0  0  0  0  0  0  0  0  0  0  0
   11.8234   -4.2192  -56.1300 H   0  0  0  0  0  0  0  0  0  0  0  0
   10.1245   -3.7027  -56.5387 H   0  0  0  0  0  0  0  0  0  0  0  0
   10.7610   -1.5220  -56.6820 H   0  0  0  0  0  0  0  0  0  0  0  0
   12.1490   -2.2190  -57.2780 H   0  0  0  0  0  0  0  0  0  0  0  0
   12.0590   -1.6880  -55.6900 H   0  0  0  0  0  0  0  0  0  0  0  0
    7.0631   -3.9360  -53.8201 H   0  0  0  0  0  0  0  0  0  0  0  0
    6.5512   -5.6359  -52.0688 H   0  0  0  0  0  0  0  0  0  0  0  0
    7.0963   -5.1739  -49.6807 H   0  0  0  0  0  0  0  0  0  0  0  0
    8.1700   -3.0167  -49.0407 H   0  0  0  0  0  0  0  0  0  0  0  0
    8.6859   -1.3115  -50.7863 H   0  0  0  0  0  0  0  0  0  0  0  0
  1  2  1  0
  2  3  1  0
  3  4  1  0
  4  5  2  0
  4  6  1  0
  7  6  1  1
  7  8  1  0
  8  9  1  0
  9 10  1  0
 10 11  1  0
 11 12  1  0
 12 13  1  0
 13 14  1  0
 14 15  1  0
  3 16  2  0
 16 17  1  0
 17 18  1  0
 18 19  1  0
 19 20  1  0
 20 21  1  0
 17 22  1  0
 22 23  1  0
 23 24  2  0
 24 25  1  0
 25 26  2  0
 26 27  1  0
 27 28  2  0
 22  2  2  0
 28 23  1  0
 13  7  1  0
 15  7  1  0
  1 29  1  0
  1 30  1  0
  1 31  1  0
  6 32  1  0
  8 33  1  0
  8 34  1  0
  9 35  1  0
  9 36  1  0
 10 37  1  0
 10 38  1  0
 11 39  1  0
 11 40  1  0
 12 41  1  0
 12 42  1  0
 13 43  1  1
 14 44  1  0
 14 45  1  0
 15 46  1  0
 15 47  1  0
 18 48  1  0
 18 49  1  0
 19 50  1  0
 19 51  1  0
 20 52  1  0
 20 53  1  0
 21 54  1  0
 21 55  1  0
 21 56  1  0
 24 57  1  0
 25 58  1  0
 26 59  1  0
 27 60  1  0
 28 61  1  0
M  CHG  2  10   1  21   1
M  END
>  <meeko>  (47) 
{"is_sidechain": false}

$$$$

     RDKit          3D

 61 64  0  0  0  0  0  0  0  0999 V2000
    7.0060    0.4240  -53.4900 C   0  0  0  0  0  0  0  0  0  0  0  0
    8.2040   -0.2950  -54.0080 C   0  0  0  0  0  0  0  0  0  0  0  0
    9.0810    0.1500  -55.0390 C   0  0  0  0  0  0  0  0  0  0  0  0
    8.9670    1.3780  -55.8520 C   0  0  0  0  0  0  0  0  0  0  0  0
    9.7050    2.3470  -55.7150 O   0  0  0  0  0  0  0  0  0  0  0  0
    7.9340    1.3310  -56.7820 N   0  0  0  0  0  0  0  0  0  0  0  0
    7.1530    2.5210  -57.2620 C   0  0  1  0  0  0  0  0  0  0  0  0
    7.9710    3.7580  -57.6860 C   0  0  0  0  0  0  0  0  0  0  0  0
    8.7920    3.5240  -58.9520 C   0  0  0  0  0  0  0  0  0  0  0  0
    7.9360    3.1930  -60.1460 N   0  0  0  0  0  0  0  0  0  0  0  0
    7.6310    1.7420  -60.3460 C   0  0  0  0  0  0  0  0  0  0  0  0
    6.4930    1.2250  -59.4630 C   0  0  0  0  0  0  0  0  0  0  0  0
    6.1020    2.2030  -58.3740 C   0  0  1  0  0  0  0  0  0  0  0  0
    5.1180    1.8100  -57.2460 C   0  0  0  0  0  0  0  0  0  0  0  0
    5.9200    2.7710  -56.3300 C   0  0  0  0  0  0  0  0  0  0  0  0
   10.0750   -0.7380  -55.2490 N   0  0  0  0  0  0  0  0  0  0  0  0
    9.7460   -1.7910  -54.4710 N   0  0  0  0  0  0  0  0  0  0  0  0
   10.5460   -3.0000  -54.5860 C   0  0  0  0  0  0  0  0  0  0  0  0
   10.1400   -3.9780  -55.6930 C   0  0  0  0  0  0  0  0  0  0  0  0
   11.2160   -4.1730  -56.7500 C   0  0  0  0  0  0  0  0  0  0  0  0
   11.6600   -2.8400  -57.2350 N   0  0  0  0  0  0  0  0  0  0  0  0
    8.6680   -1.5530  -53.6510 C   0  0  0  0  0  0  0  0  0  0  0  0
    8.1450   -2.4870  -52.6590 C   0  0  0  0  0  0  0  0  0  0  0  0
    8.7550   -2.5830  -51.4010 C   0  0  0  0  0  0  0  0  0  0  0  0
    8.2750   -3.4860  -50.4510 C   0  0  0  0  0  0  0  0  0  0  0  0
    7.1800   -4.2950  -50.7510 C   0  0  0  0  0  0  0  0  0  0  0  0
    6.5560   -4.1920  -51.9940 C   0  0  0  0  0  0  0  0  0  0  0  0
    7.0320   -3.2880  -52.9450 C   0  0  0  0  0  0  0  0  0  0  0  0
    7.0203    0.4154  -52.3901 H   0  0  0  0  0  0  0  0  0  0  0  0
    7.0188    1.4638  -53.8487 H   0  0  0  0  0  0  0  0  0  0  0  0
    6.0945   -0.0764  -53.8487 H   0  0  0  0  0  0  0  0  0  0  0  0
    7.4260    0.4490  -56.6700 H   0  0  0  0  0  0  0  0  0  0  0  0
    7.2771    4.5920  -57.8672 H   0  0  0  0  0  0  0  0  0  0  0  0
    8.6767    3.9810  -56.8722 H   0  0  0  0  0  0  0  0  0  0  0  0
    9.3665    4.4358  -59.1726 H   0  0  0  0  0  0  0  0  0  0  0  0
    9.4512    2.6632  -58.7665 H   0  0  0  0  0  0  0  0  0  0  0  0
    8.4680    3.5060  -60.9720 H   0  0  0  0  0  0  0  0  0  0  0  0
    7.0830    3.7700  -60.1620 H   0  0  0  0  0  0  0  0  0  0  0  0
    7.3513    1.5878  -61.3986 H   0  0  0  0  0  0  0  0  0  0  0  0
    8.5352    1.1819  -60.0656 H   0  0  0  0  0  0  0  0  0  0  0  0
    5.6144    1.0361  -60.0973 H   0  0  0  0  0  0  0  0  0  0  0  0
    6.8472    0.3070  -58.9712 H   0  0  0  0  0  0  0  0  0  0  0  0
    5.7917    2.9356  -59.1336 H   0  0  0  0  0  0  0  0  0  0  0  0
    4.0730    2.1050  -57.4218 H   0  0  0  0  0  0  0  0  0  0  0  0
    4.9316    0.7611  -56.9721 H   0  0  0  0  0  0  0  0  0  0  0  0
    5.5543    3.8084  -56.3215 H   0  0  0  0  0  0  0  0  0  0  0  0
    5.9773    2.6197  -55.2420 H   0  0  0  0  0  0  0  0  0  0  0  0
   11.5871   -2.6970  -54.7714 H   0  0  0  0  0  0  0  0  0  0  0  0
   10.3934   -3.5443  -53.6424 H   0  0  0  0  0  0  0  0  0  0  0  0
    9.9212   -4.9533  -55.2338 H   0  0  0  0  0  0  0  0  0  0  0  0
    9.2615   -3.5505  -56.1984 H   0  0  0  0  0  0  0  0  0  0  0  0
   12.0704   -4.7104  -56.3127 H   0  0  0  0  0  0  0  0  0  0  0  0
   10.8133   -4.7601  -57.5886 H   0  0  0  0  0  0  0  0  0  0  0  0
   10.9190   -2.3610  -57.7690 H   0  0  0  0  0  0  0  0  0  0  0  0
   11.9330   -2.2140  -56.4640 H   0  0  0  0  0  0  0  0  0  0  0  0
   12.4750   -2.9190  -57.8610 H   0  0  0  0  0  0  0  0  0  0  0  0
    9.6169   -1.9431  -51.1609 H   0  0  0  0  0  0  0  0  0  0  0  0
    8.7603   -3.5592  -49.4665 H   0  0  0  0  0  0  0  0  0  0  0  0
    6.8080   -5.0148  -50.0070 H   0  0  0  0  0  0  0  0  0  0  0  0
    5.6865   -4.8248  -52.2255 H   0  0  0  0  0  0  0  0  0  0  0  0
    6.5320   -3.2044  -53.9212 H   0  0  0  0  0  0  0  0  0  0  0  0
  1  2  1  0
  2  3  1  0
  3  4  1  0
  4  5  2  0
  4  6  1  0
  7  6  1  1
  7  8  1  0
  8  9  1  0
  9 10  1  0
 10 11  1  0
 11 12  1  0
 12 13  1  0
 13 14  1  0
 14 15  1  0
  3 16  2  0
 16 17  1  0
 17 18  1  0
 18 19  1  0
 19 20  1  0
 20 21  1  0
 17 22  1  0
 22 23  1  0
 23 24  2  0
 24 25  1  0
 25 26  2  0
 26 27  1  0
 27 28  2  0
 22  2  2  0
 28 23  1  0
 13  7  1  0
 15  7  1  0
  1 29  1  0
  1 30  1  0
  1 31  1  0
  6 32  1  0
  8 33  1  0
  8 34  1  0
  9 35  1  0
  9 36  1  0
 10 37  1  0
 10 38  1  0
 11 39  1  0
 11 40  1  0
 12 41  1  0
 12 42  1  0
 13 43  1  6
 14 44  1  0
 14 45  1  0
 15 46  1  0
 15 47  1  0
 18 48  1  0
 18 49  1  0
 19 50  1  0
 19 51  1  0
 20 52  1  0
 20 53  1  0
 21 54  1  0
 21 55  1  0
 21 56  1  0
 24 57  1  0
 25 58  1  0
 26 59  1  0
 27 60  1  0
 28 61  1  0
M  CHG  2  10   1  21   1
M  END
>  <meeko>  (48) 
{"is_sidechain": false}

$$$$

     RDKit          3D

 41 44  0  0  0  0  0  0  0  0999 V2000
    6.2660    2.4170  -57.9330 C   0  0  0  0  0  0  0  0  0  0  0  0
    7.4190    1.9260  -57.2130 N   0  0  0  0  0  0  0  0  0  0  0  0
    7.2230    1.1740  -56.1150 N   0  0  0  0  0  0  0  0  0  0  0  0
    8.4550    0.9090  -55.6470 C   0  0  0  0  0  0  0  0  0  0  0  0
    8.6660    0.0860  -54.4350 C   0  0  0  0  0  0  0  0  0  0  0  0
    8.1020    0.3140  -53.3660 O   0  0  0  0  0  0  0  0  0  0  0  0
    9.5720   -0.9700  -54.6280 N   0  0  0  0  0  0  0  0  0  0  0  0
   10.0480   -1.7090  -53.5710 N   0  0  0  0  0  0  0  0  0  0  0  0
   10.6350   -2.8480  -53.8060 C   0  0  0  0  0  0  0  0  0  0  0  0
   11.1040   -3.4120  -55.0900 C   0  0  0  0  0  0  0  0  0  0  0  0
   11.3610   -2.5210  -56.1410 C   0  0  0  0  0  0  0  0  0  0  0  0
   11.7870   -2.9890  -57.3930 C   0  0  0  0  0  0  0  0  0  0  0  0
   11.9310   -4.3740  -57.5690 C   0  0  0  0  0  0  0  0  0  0  0  0
   12.3170   -5.2550  -58.6000 C   0  0  0  0  0  0  0  0  0  0  0  0
   12.2670   -6.5360  -58.2220 N   0  0  0  0  0  0  0  0  0  0  0  0
   11.8430   -6.5110  -56.9000 O   0  0  0  0  0  0  0  0  0  0  0  0
   11.6480   -5.2210  -56.5110 C   0  0  0  0  0  0  0  0  0  0  0  0
   11.2250   -4.7980  -55.2550 C   0  0  0  0  0  0  0  0  0  0  0  0
    9.4350    1.5100  -56.4890 C   0  0  0  0  0  0  0  0  0  0  0  0
    8.7420    2.1460  -57.5010 C   0  0  0  0  0  0  0  0  0  0  0  0
    9.2420    2.9000  -58.6440 C   0  0  0  0  0  0  0  0  0  0  0  0
    9.4320    2.2760  -59.8830 C   0  0  0  0  0  0  0  0  0  0  0  0
    9.9140    3.0040  -60.9730 C   0  0  0  0  0  0  0  0  0  0  0  0
   10.2130    4.3580  -60.8290 C   0  0  0  0  0  0  0  0  0  0  0  0
   10.0350    4.9850  -59.5970 C   0  0  0  0  0  0  0  0  0  0  0  0
    9.5530    4.2570  -58.5070 C   0  0  0  0  0  0  0  0  0  0  0  0
    5.4982    2.7440  -57.2164 H   0  0  0  0  0  0  0  0  0  0  0  0
    6.5630    3.2667  -58.5653 H   0  0  0  0  0  0  0  0  0  0  0  0
    5.8593    1.6140  -58.5653 H   0  0  0  0  0  0  0  0  0  0  0  0
   10.2880   -0.7850  -55.3230 H   0  0  0  0  0  0  0  0  0  0  0  0
   10.8063   -3.4809  -52.9228 H   0  0  0  0  0  0  0  0  0  0  0  0
   11.2269   -1.4408  -55.9821 H   0  0  0  0  0  0  0  0  0  0  0  0
   12.0023   -2.2896  -58.2143 H   0  0  0  0  0  0  0  0  0  0  0  0
   12.6248   -4.9250  -59.6031 H   0  0  0  0  0  0  0  0  0  0  0  0
   11.0001   -5.5060  -54.4438 H   0  0  0  0  0  0  0  0  0  0  0  0
   10.5267    1.4746  -56.3590 H   0  0  0  0  0  0  0  0  0  0  0  0
    9.2004    1.2069  -59.9984 H   0  0  0  0  0  0  0  0  0  0  0  0
   10.0577    2.5092  -61.9449 H   0  0  0  0  0  0  0  0  0  0  0  0
   10.5897    4.9320  -61.6884 H   0  0  0  0  0  0  0  0  0  0  0  0
   10.2740    6.0527  -59.4833 H   0  0  0  0  0  0  0  0  0  0  0  0
    9.4171    4.7536  -57.5349 H   0  0  0  0  0  0  0  0  0  0  0  0
  1  2  1  0
  2  3  1  0
  3  4  2  0
  4  5  1  0
  5  6  2  0
  5  7  1  0
  7  8  1  0
  8  9  2  0
  9 10  1  0
 10 11  2  0
 11 12  1  0
 12 13  2  0
 13 14  1  0
 14 15  2  0
 15 16  1  0
 16 17  1  0
 17 18  2  0
  4 19  1  0
 19 20  2  0
 20 21  1  0
 21 22  2  0
 22 23  1  0
 23 24  2  0
 24 25  1  0
 25 26  2  0
 20  2  1  0
 26 21  1  0
 18 10  1  0
 17 13  1  0
  1 27  1  0
  1 28  1  0
  1 29  1  0
  7 30  1  0
  9 31  1  0
 11 32  1  0
 12 33  1  0
 14 34  1  0
 18 35  1  0
 19 36  1  0
 22 37  1  0
 23 38  1  0
 24 39  1  0
 25 40  1  0
 26 41  1  0
M  END
>  <meeko>  (49) 
{"is_sidechain": false}

$$$$

     RDKit          3D

 41 44  0  0  0  0  0  0  0  0999 V2000
    8.9900    3.3550  -60.8380 C   0  0  0  0  0  0  0  0  0  0  0  0
    9.1960    3.0650  -59.4360 N   0  0  0  0  0  0  0  0  0  0  0  0
    8.2890    2.3060  -58.7960 N   0  0  0  0  0  0  0  0  0  0  0  0
    8.7060    2.2640  -57.5180 C   0  0  0  0  0  0  0  0  0  0  0  0
    7.9490    1.5280  -56.4790 C   0  0  0  0  0  0  0  0  0  0  0  0
    6.7320    1.3570  -56.5430 O   0  0  0  0  0  0  0  0  0  0  0  0
    8.7550    1.0410  -55.4430 N   0  0  0  0  0  0  0  0  0  0  0  0
    8.3370    0.2200  -54.4230 N   0  0  0  0  0  0  0  0  0  0  0  0
    8.9710   -0.8980  -54.2470 C   0  0  0  0  0  0  0  0  0  0  0  0
    8.6250   -1.8200  -53.1430 C   0  0  0  0  0  0  0  0  0  0  0  0
    9.6270   -2.3460  -52.3130 C   0  0  0  0  0  0  0  0  0  0  0  0
    9.3080   -3.2210  -51.2620 C   0  0  0  0  0  0  0  0  0  0  0  0
    7.9600   -3.5540  -51.0640 C   0  0  0  0  0  0  0  0  0  0  0  0
    7.2070   -4.3520  -50.1800 C   0  0  0  0  0  0  0  0  0  0  0  0
    5.8980   -4.3130  -50.4450 N   0  0  0  0  0  0  0  0  0  0  0  0
    5.7710   -3.4670  -51.5380 O   0  0  0  0  0  0  0  0  0  0  0  0
    7.0020   -3.0150  -51.9060 C   0  0  0  0  0  0  0  0  0  0  0  0
    7.2760   -2.1460  -52.9600 C   0  0  0  0  0  0  0  0  0  0  0  0
    9.9080    3.0150  -57.3750 C   0  0  0  0  0  0  0  0  0  0  0  0
   10.2200    3.4970  -58.6320 C   0  0  0  0  0  0  0  0  0  0  0  0
   11.3450    4.3180  -59.0640 C   0  0  0  0  0  0  0  0  0  0  0  0
   11.1480    5.6440  -59.4710 C   0  0  0  0  0  0  0  0  0  0  0  0
   12.2300    6.4220  -59.8880 C   0  0  0  0  0  0  0  0  0  0  0  0
   13.5140    5.8790  -59.9050 C   0  0  0  0  0  0  0  0  0  0  0  0
   13.7180    4.5590  -59.5090 C   0  0  0  0  0  0  0  0  0  0  0  0
   12.6360    3.7790  -59.0930 C   0  0  0  0  0  0  0  0  0  0  0  0
    8.3556    4.2480  -60.9384 H   0  0  0  0  0  0  0  0  0  0  0  0
    9.9611    3.5389  -61.3209 H   0  0  0  0  0  0  0  0  0  0  0  0
    8.4966    2.4986  -61.3209 H   0  0  0  0  0  0  0  0  0  0  0  0
    9.7440    0.9450  -55.6430 H   0  0  0  0  0  0  0  0  0  0  0  0
    9.7857   -1.1670  -54.9354 H   0  0  0  0  0  0  0  0  0  0  0  0
   10.6770   -2.0690  -52.4882 H   0  0  0  0  0  0  0  0  0  0  0  0
   10.0936   -3.6338  -50.6120 H   0  0  0  0  0  0  0  0  0  0  0  0
    7.6478   -4.9415  -49.3626 H   0  0  0  0  0  0  0  0  0  0  0  0
    6.4832   -1.7420  -53.6068 H   0  0  0  0  0  0  0  0  0  0  0  0
   10.4757    3.1789  -56.4472 H   0  0  0  0  0  0  0  0  0  0  0  0
   10.1358    6.0745  -59.4620 H   0  0  0  0  0  0  0  0  0  0  0  0
   12.0692    7.4636  -60.2032 H   0  0  0  0  0  0  0  0  0  0  0  0
   14.3663    6.4931  -60.2312 H   0  0  0  0  0  0  0  0  0  0  0  0
   14.7311    4.1308  -59.5238 H   0  0  0  0  0  0  0  0  0  0  0  0
   12.7999    2.7353  -58.7866 H   0  0  0  0  0  0  0  0  0  0  0  0
  1  2  1  0
  2  3  1  0
  3  4  2  0
  4  5  1  0
  5  6  2  0
  5  7  1  0
  7  8  1  0
  8  9  2  0
  9 10  1  0
 10 11  2  0
 11 12  1  0
 12 13  2  0
 13 14  1  0
 14 15  2  0
 15 16  1  0
 16 17  1  0
 17 18  2  0
  4 19  1  0
 19 20  2  0
 20 21  1  0
 21 22  2  0
 22 23  1  0
 23 24  2  0
 24 25  1  0
 25 26  2  0
 20  2  1  0
 26 21  1  0
 18 10  1  0
 17 13  1  0
  1 27  1  0
  1 28  1  0
  1 29  1  0
  7 30  1  0
  9 31  1  0
 11 32  1  0
 12 33  1  0
 14 34  1  0
 18 35  1  0
 19 36  1  0
 22 37  1  0
 23 38  1  0
 24 39  1  0
 25 40  1  0
 26 41  1  0
M  END
>  <meeko>  (50) 
{"is_sidechain": false}

$$$$

     RDKit          3D

 57 60  0  0  0  0  0  0  0  0999 V2000
    9.5680   -4.1680  -49.7280 C   0  0  0  0  0  0  0  0  0  0  0  0
    8.9070   -4.3950  -50.9660 O   0  0  0  0  0  0  0  0  0  0  0  0
    8.1500   -3.3750  -51.4820 C   0  0  0  0  0  0  0  0  0  0  0  0
    6.8710   -3.0140  -51.0520 C   0  0  0  0  0  0  0  0  0  0  0  0
    6.2670   -3.6440  -50.0330 F   0  0  0  0  0  0  0  0  0  0  0  0
    6.1640   -1.9780  -51.6620 C   0  0  0  0  0  0  0  0  0  0  0  0
    6.7180   -1.2690  -52.7340 C   0  0  0  0  0  0  0  0  0  0  0  0
    7.9950   -1.6240  -53.2020 C   0  0  0  0  0  0  0  0  0  0  0  0
    8.7180   -2.6430  -52.5430 C   0  0  0  0  0  0  0  0  0  0  0  0
    9.9700   -2.9150  -53.0480 O   0  0  0  0  0  0  0  0  0  0  0  0
   11.0140   -2.2220  -52.3630 C   0  0  0  0  0  0  0  0  0  0  0  0
    8.6270   -0.8800  -54.3590 C   0  0  0  0  0  0  0  0  0  0  0  0
    7.6330   -0.0540  -55.1930 C   0  0  2  0  0  0  0  0  0  0  0  0
    8.3400    0.8140  -56.1280 N   0  0  0  0  0  0  0  0  0  0  0  0
    7.6680    1.5130  -57.1190 C   0  0  0  0  0  0  0  0  0  0  0  0
    6.4450    1.4930  -57.2230 O   0  0  0  0  0  0  0  0  0  0  0  0
    8.5540    2.2470  -58.0440 C   0  0  0  0  0  0  0  0  0  0  0  0
    8.3380    2.2190  -59.3710 N   0  0  0  0  0  0  0  0  0  0  0  0
    9.3240    2.9610  -59.8960 N   0  0  0  0  0  0  0  0  0  0  0  0
    9.3880    3.1170  -61.3320 C   0  0  0  0  0  0  0  0  0  0  0  0
   10.1790    3.4880  -58.9620 C   0  0  0  0  0  0  0  0  0  0  0  0
   11.3210    4.3370  -59.2820 C   0  0  0  0  0  0  0  0  0  0  0  0
   12.6200    3.8260  -59.2030 C   0  0  0  0  0  0  0  0  0  0  0  0
   13.7150    4.6370  -59.5090 C   0  0  0  0  0  0  0  0  0  0  0  0
   13.5160    5.9630  -59.8920 C   0  0  0  0  0  0  0  0  0  0  0  0
   12.2240    6.4800  -59.9670 C   0  0  0  0  0  0  0  0  0  0  0  0
   11.1280    5.6710  -59.6620 C   0  0  0  0  0  0  0  0  0  0  0  0
    9.7020    3.0490  -57.7350 C   0  0  0  0  0  0  0  0  0  0  0  0
   10.2480    3.3810  -56.3930 C   0  0  0  0  0  0  0  0  0  0  0  0
    6.7350    0.7560  -54.2540 C   0  0  0  0  0  0  0  0  0  0  0  0
    5.9010   -0.1830  -53.3890 C   0  0  0  0  0  0  0  0  0  0  0  0
    8.8843   -4.4028  -48.8989 H   0  0  0  0  0  0  0  0  0  0  0  0
   10.4573   -4.8122  -49.6636 H   0  0  0  0  0  0  0  0  0  0  0  0
    9.8738   -3.1133  -49.6636 H   0  0  0  0  0  0  0  0  0  0  0  0
    5.1602   -1.7154  -51.2966 H   0  0  0  0  0  0  0  0  0  0  0  0
   10.8676   -2.3192  -51.2771 H   0  0  0  0  0  0  0  0  0  0  0  0
   11.9860   -2.6548  -52.6421 H   0  0  0  0  0  0  0  0  0  0  0  0
   10.9926   -1.1582  -52.6421 H   0  0  0  0  0  0  0  0  0  0  0  0
    9.3898   -0.1978  -53.9555 H   0  0  0  0  0  0  0  0  0  0  0  0
    9.0500   -1.6405  -55.0318 H   0  0  0  0  0  0  0  0  0  0  0  0
    7.0037   -0.7326  -55.7876 H   0  0  0  0  0  0  0  0  0  0  0  0
    9.3350    0.6850  -56.2550 H   0  0  0  0  0  0  0  0  0  0  0  0
    9.7952    4.1095  -61.5752 H   0  0  0  0  0  0  0  0  0  0  0  0
   10.0397    2.3392  -61.7566 H   0  0  0  0  0  0  0  0  0  0  0  0
    8.3778    3.0210  -61.7566 H   0  0  0  0  0  0  0  0  0  0  0  0
   12.7802    2.7811  -58.8986 H   0  0  0  0  0  0  0  0  0  0  0  0
   14.7349    4.2296  -59.4479 H   0  0  0  0  0  0  0  0  0  0  0  0
   14.3787    6.6008  -60.1349 H   0  0  0  0  0  0  0  0  0  0  0  0
   12.0677    7.5267  -60.2669 H   0  0  0  0  0  0  0  0  0  0  0  0
   10.1096    6.0826  -59.7203 H   0  0  0  0  0  0  0  0  0  0  0  0
    9.5826    2.9764  -55.6161 H   0  0  0  0  0  0  0  0  0  0  0  0
   11.2494    2.9387  -56.2849 H   0  0  0  0  0  0  0  0  0  0  0  0
   10.3161    4.4736  -56.2849 H   0  0  0  0  0  0  0  0  0  0  0  0
    7.3610    1.3876  -53.6066 H   0  0  0  0  0  0  0  0  0  0  0  0
    6.0622    1.3867  -54.8536 H   0  0  0  0  0  0  0  0  0  0  0  0
    5.4112    0.4091  -52.6019 H   0  0  0  0  0  0  0  0  0  0  0  0
    5.1718   -0.6752  -54.0494 H   0  0  0  0  0  0  0  0  0  0  0  0
  1  2  1  0
  2  3  1  0
  3  4  1  0
  4  5  1  0
  4  6  2  0
  6  7  1  0
  7  8  2  0
  8  9  1  0
  9 10  1  0
 10 11  1  0
  8 12  1  0
 12 13  1  0
 13 14  1  0
 14 15  1  0
 15 16  2  0
 15 17  1  0
 17 18  2  0
 18 19  1  0
 19 20  1  0
 19 21  1  0
 21 22  1  0
 22 23  2  0
 23 24  1  0
 24 25  2  0
 25 26  1  0
 26 27  2  0
 21 28  2  0
 28 29  1  0
 13 30  1  0
 30 31  1  0
  9  3  2  0
 28 17  1  0
 31  7  1  0
 27 22  1  0
  1 32  1  0
  1 33  1  0
  1 34  1  0
  6 35  1  0
 11 36  1  0
 11 37  1  0
 11 38  1  0
 12 39  1  0
 12 40  1  0
 13 41  1  6
 14 42  1  0
 20 43  1  0
 20 44  1  0
 20 45  1  0
 23 46  1  0
 24 47  1  0
 25 48  1  0
 26 49  1  0
 27 50  1  0
 29 51  1  0
 29 52  1  0
 29 53  1  0
 30 54  1  0
 30 55  1  0
 31 56  1  0
 31 57  1  0
M  END
>  <meeko>  (51) 
{"is_sidechain": false}

$$$$

     RDKit          3D

 57 61  0  0  0  0  0  0  0  0999 V2000
    7.2800    1.4110  -56.4630 O   0  0  0  0  0  0  0  0  0  0  0  0
    8.3390    1.1680  -55.8890 C   0  0  0  0  0  0  0  0  0  0  0  0
    9.5230    1.8170  -56.2200 N   0  0  0  0  0  0  0  0  0  0  0  0
    9.6630    2.8800  -57.2710 C   0  0  2  0  0  0  0  0  0  0  0  0
   11.0180    3.5900  -56.9880 C   0  0  0  0  0  0  0  0  0  0  0  0
   11.8610    4.1250  -58.1410 C   0  0  2  0  0  0  0  0  0  0  0  0
   13.1380    4.5200  -57.6020 O   0  0  0  0  0  0  0  0  0  0  0  0
   11.3170    5.3680  -58.8280 C   0  0  0  0  0  0  0  0  0  0  0  0
   10.0410    5.2460  -59.6690 C   0  0  1  0  0  0  0  0  0  0  0  0
    9.9240    3.9410  -60.4660 C   0  0  0  0  0  0  0  0  0  0  0  0
    9.0390    2.8570  -59.8450 C   0  0  2  0  0  0  0  0  0  0  0  0
    7.6880    3.4500  -59.4700 C   0  0  0  0  0  0  0  0  0  0  0  0
    7.9030    4.4950  -58.3880 C   0  0  2  0  0  0  0  0  0  0  0  0
    8.7670    5.6440  -58.9070 C   0  0  0  0  0  0  0  0  0  0  0  0
    8.4540    3.8450  -57.1180 C   0  0  0  0  0  0  0  0  0  0  0  0
    9.6390    2.1270  -58.6350 C   0  0  0  0  0  0  0  0  0  0  0  0
    8.4430    0.1840  -54.8040 C   0  0  0  0  0  0  0  0  0  0  0  0
    7.5210    0.0460  -53.8100 N   0  0  0  0  0  0  0  0  0  0  0  0
    8.0810   -0.9760  -53.0870 N   0  0  0  0  0  0  0  0  0  0  0  0
    7.4020   -1.4710  -51.9050 C   0  0  0  0  0  0  0  0  0  0  0  0
    6.9970   -2.9410  -52.0050 C   0  0  0  0  0  0  0  0  0  0  0  0
    7.4430   -3.7750  -50.8130 C   0  0  0  0  0  0  0  0  0  0  0  0
    8.5680   -3.1660  -50.1940 O   0  0  0  0  0  0  0  0  0  0  0  0
    9.2780   -1.4730  -53.5520 C   0  0  0  0  0  0  0  0  0  0  0  0
   10.3330   -2.3860  -53.3770 C   0  0  0  0  0  0  0  0  0  0  0  0
   11.1560   -2.1050  -54.4500 C   0  0  0  0  0  0  0  0  0  0  0  0
   10.6820   -1.0980  -55.2470 O   0  0  0  0  0  0  0  0  0  0  0  0
    9.5150   -0.7330  -54.6560 C   0  0  0  0  0  0  0  0  0  0  0  0
   10.3420    1.5930  -55.6670 H   0  0  0  0  0  0  0  0  0  0  0  0
   10.7958    4.4466  -56.3346 H   0  0  0  0  0  0  0  0  0  0  0  0
   11.6417    2.7831  -56.5758 H   0  0  0  0  0  0  0  0  0  0  0  0
   11.8877    3.3140  -58.8837 H   0  0  0  0  0  0  0  0  0  0  0  0
   13.7770    4.5500  -58.3330 H   0  0  0  0  0  0  0  0  0  0  0  0
   11.1167    6.1109  -58.0419 H   0  0  0  0  0  0  0  0  0  0  0  0
   12.0950    5.6305  -59.5600 H   0  0  0  0  0  0  0  0  0  0  0  0
   10.1498    6.0108  -60.4521 H   0  0  0  0  0  0  0  0  0  0  0  0
    9.5124    4.1862  -61.4562 H   0  0  0  0  0  0  0  0  0  0  0  0
   10.9387    3.5172  -60.4951 H   0  0  0  0  0  0  0  0  0  0  0  0
    8.9382    2.0867  -60.6237 H   0  0  0  0  0  0  0  0  0  0  0  0
    7.2309    3.9195  -60.3535 H   0  0  0  0  0  0  0  0  0  0  0  0
    7.0185    2.6587  -59.1017 H   0  0  0  0  0  0  0  0  0  0  0  0
    6.9351    4.9406  -58.1149 H   0  0  0  0  0  0  0  0  0  0  0  0
    8.1472    6.2506  -59.5837 H   0  0  0  0  0  0  0  0  0  0  0  0
    9.1155    6.1778  -58.0105 H   0  0  0  0  0  0  0  0  0  0  0  0
    8.7628    4.6550  -56.4409 H   0  0  0  0  0  0  0  0  0  0  0  0
    7.6343    3.2104  -56.7502 H   0  0  0  0  0  0  0  0  0  0  0  0
    9.0605    1.2028  -58.4894 H   0  0  0  0  0  0  0  0  0  0  0  0
   10.6991    1.9876  -58.8932 H   0  0  0  0  0  0  0  0  0  0  0  0
    8.0742   -1.3530  -51.0423 H   0  0  0  0  0  0  0  0  0  0  0  0
    6.4762   -0.8872  -51.7956 H   0  0  0  0  0  0  0  0  0  0  0  0
    5.9008   -2.9961  -52.0781 H   0  0  0  0  0  0  0  0  0  0  0  0
    7.4953   -3.3545  -52.8942 H   0  0  0  0  0  0  0  0  0  0  0  0
    6.6195   -3.8442  -50.0870 H   0  0  0  0  0  0  0  0  0  0  0  0
    7.7188   -4.7827  -51.1573 H   0  0  0  0  0  0  0  0  0  0  0  0
    8.5510   -2.2260  -50.4450 H   0  0  0  0  0  0  0  0  0  0  0  0
   10.4688   -3.1362  -52.5841 H   0  0  0  0  0  0  0  0  0  0  0  0
   12.0986   -2.6375  -54.6448 H   0  0  0  0  0  0  0  0  0  0  0  0
  1  2  2  0
  2  3  1  0
  4  3  1  1
  4  5  1  0
  5  6  1  0
  6  7  1  0
  6  8  1  0
  8  9  1  0
  9 10  1  0
 10 11  1  0
 11 12  1  0
 12 13  1  0
 13 14  1  0
 13 15  1  0
 11 16  1  0
  2 17  1  0
 17 18  2  0
 18 19  1  0
 19 20  1  0
 20 21  1  0
 21 22  1  0
 22 23  1  0
 19 24  1  0
 24 25  1  0
 25 26  2  0
 26 27  1  0
 27 28  1  0
 15  4  1  0
 28 17  1  0
 16  4  1  0
 28 24  2  0
 14  9  1  0
  3 29  1  0
  5 30  1  0
  5 31  1  0
  6 32  1  6
  7 33  1  0
  8 34  1  0
  8 35  1  0
  9 36  1  6
 10 37  1  0
 10 38  1  0
 11 39  1  6
 12 40  1  0
 12 41  1  0
 13 42  1  1
 14 43  1  0
 14 44  1  0
 15 45  1  0
 15 46  1  0
 16 47  1  0
 16 48  1  0
 20 49  1  0
 20 50  1  0
 21 51  1  0
 21 52  1  0
 22 53  1  0
 22 54  1  0
 23 55  1  0
 25 56  1  0
 26 57  1  0
M  END
>  <meeko>  (52) 
{"is_sidechain": false}

$$$$

     RDKit          3D

 57 61  0  0  0  0  0  0  0  0999 V2000
    7.1550    1.4230  -56.3610 O   0  0  0  0  0  0  0  0  0  0  0  0
    8.2300    1.1830  -55.8240 C   0  0  0  0  0  0  0  0  0  0  0  0
    9.4150    1.8210  -56.1410 N   0  0  0  0  0  0  0  0  0  0  0  0
    9.6290    2.7530  -57.2880 C   0  0  2  0  0  0  0  0  0  0  0  0
   11.1480    3.0820  -57.2860 C   0  0  0  0  0  0  0  0  0  0  0  0
   11.6350    4.4540  -57.7350 C   0  0  1  0  0  0  0  0  0  0  0  0
   13.0330    4.5070  -57.3940 O   0  0  0  0  0  0  0  0  0  0  0  0
   11.5360    4.7330  -59.2270 C   0  0  0  0  0  0  0  0  0  0  0  0
   10.1450    4.9120  -59.8480 C   0  0  1  0  0  0  0  0  0  0  0  0
    9.6050    3.6360  -60.5100 C   0  0  0  0  0  0  0  0  0  0  0  0
    8.5760    2.8430  -59.7060 C   0  0  2  0  0  0  0  0  0  0  0  0
    7.4980    3.7620  -59.1550 C   0  0  0  0  0  0  0  0  0  0  0  0
    8.1470    4.7480  -58.1930 C   0  0  2  0  0  0  0  0  0  0  0  0
    9.1320    5.6420  -58.9560 C   0  0  0  0  0  0  0  0  0  0  0  0
    8.7320    3.9900  -56.9940 C   0  0  0  0  0  0  0  0  0  0  0  0
    9.1930    2.0110  -58.5830 C   0  0  0  0  0  0  0  0  0  0  0  0
    8.4060    0.1750  -54.7800 C   0  0  0  0  0  0  0  0  0  0  0  0
    7.5270    0.0100  -53.7450 N   0  0  0  0  0  0  0  0  0  0  0  0
    8.1470   -1.0200  -53.0780 N   0  0  0  0  0  0  0  0  0  0  0  0
    7.5580   -1.5380  -51.8580 C   0  0  0  0  0  0  0  0  0  0  0  0
    7.1950   -3.0120  -51.9830 C   0  0  0  0  0  0  0  0  0  0  0  0
    7.5950   -3.7830  -50.7350 C   0  0  0  0  0  0  0  0  0  0  0  0
    8.4970   -3.0100  -49.9550 O   0  0  0  0  0  0  0  0  0  0  0  0
    9.3250   -1.4910  -53.6200 C   0  0  0  0  0  0  0  0  0  0  0  0
   10.3930   -2.4010  -53.5180 C   0  0  0  0  0  0  0  0  0  0  0  0
   11.1570   -2.0890  -54.6250 C   0  0  0  0  0  0  0  0  0  0  0  0
   10.6340   -1.0710  -55.3730 O   0  0  0  0  0  0  0  0  0  0  0  0
    9.4980   -0.7240  -54.7210 C   0  0  0  0  0  0  0  0  0  0  0  0
   10.2240    1.4000  -55.6870 H   0  0  0  0  0  0  0  0  0  0  0  0
   11.5008    2.9430  -56.2534 H   0  0  0  0  0  0  0  0  0  0  0  0
   11.5517    2.4081  -58.0560 H   0  0  0  0  0  0  0  0  0  0  0  0
   10.9929    5.1993  -57.2427 H   0  0  0  0  0  0  0  0  0  0  0  0
   13.2540    5.4310  -57.1880 H   0  0  0  0  0  0  0  0  0  0  0  0
   12.1001    5.6569  -59.4226 H   0  0  0  0  0  0  0  0  0  0  0  0
   11.9252    3.8183  -59.6981 H   0  0  0  0  0  0  0  0  0  0  0  0
   10.3018    5.6173  -60.6775 H   0  0  0  0  0  0  0  0  0  0  0  0
    9.1367    3.9244  -61.4626 H   0  0  0  0  0  0  0  0  0  0  0  0
   10.4733    2.9691  -60.6161 H   0  0  0  0  0  0  0  0  0  0  0  0
    8.1225    2.1296  -60.4098 H   0  0  0  0  0  0  0  0  0  0  0  0
    7.0200    4.3095  -59.9806 H   0  0  0  0  0  0  0  0  0  0  0  0
    6.7329    3.1718  -58.6295 H   0  0  0  0  0  0  0  0  0  0  0  0
    7.4076    5.4393  -57.7624 H   0  0  0  0  0  0  0  0  0  0  0  0
    8.5469    6.3198  -59.5949 H   0  0  0  0  0  0  0  0  0  0  0  0
    9.7275    6.1546  -58.1861 H   0  0  0  0  0  0  0  0  0  0  0  0
    9.3370    4.7048  -56.4169 H   0  0  0  0  0  0  0  0  0  0  0  0
    7.8560    3.5799  -56.4701 H   0  0  0  0  0  0  0  0  0  0  0  0
    8.4526    1.2512  -58.2925 H   0  0  0  0  0  0  0  0  0  0  0  0
   10.1297    1.6217  -59.0085 H   0  0  0  0  0  0  0  0  0  0  0  0
    8.2793   -1.4180  -51.0362 H   0  0  0  0  0  0  0  0  0  0  0  0
    6.6338   -0.9752  -51.6603 H   0  0  0  0  0  0  0  0  0  0  0  0
    6.1085   -3.1031  -52.1286 H   0  0  0  0  0  0  0  0  0  0  0  0
    7.7374   -3.4333  -52.8423 H   0  0  0  0  0  0  0  0  0  0  0  0
    6.6967   -4.0048  -50.1402 H   0  0  0  0  0  0  0  0  0  0  0  0
    8.0866   -4.7212  -51.0319 H   0  0  0  0  0  0  0  0  0  0  0  0
    8.0960   -2.1370  -49.8040 H   0  0  0  0  0  0  0  0  0  0  0  0
   10.5738   -3.1676  -52.7501 H   0  0  0  0  0  0  0  0  0  0  0  0
   12.0930   -2.6077  -54.8797 H   0  0  0  0  0  0  0  0  0  0  0  0
  1  2  2  0
  2  3  1  0
  4  3  1  1
  4  5  1  0
  5  6  1  0
  6  7  1  0
  6  8  1  0
  8  9  1  0
  9 10  1  0
 10 11  1  0
 11 12  1  0
 12 13  1  0
 13 14  1  0
 13 15  1  0
 11 16  1  0
  2 17  1  0
 17 18  2  0
 18 19  1  0
 19 20  1  0
 20 21  1  0
 21 22  1  0
 22 23  1  0
 19 24  1  0
 24 25  1  0
 25 26  2  0
 26 27  1  0
 27 28  1  0
 15  4  1  0
 28 17  1  0
 16  4  1  0
 28 24  2  0
 14  9  1  0
  3 29  1  0
  5 30  1  0
  5 31  1  0
  6 32  1  1
  7 33  1  0
  8 34  1  0
  8 35  1  0
  9 36  1  6
 10 37  1  0
 10 38  1  0
 11 39  1  6
 12 40  1  0
 12 41  1  0
 13 42  1  1
 14 43  1  0
 14 44  1  0
 15 45  1  0
 15 46  1  0
 16 47  1  0
 16 48  1  0
 20 49  1  0
 20 50  1  0
 21 51  1  0
 21 52  1  0
 22 53  1  0
 22 54  1  0
 23 55  1  0
 25 56  1  0
 26 57  1  0
M  END
>  <meeko>  (53) 
{"is_sidechain": false}

$$$$

     RDKit          3D

 79 84  0  0  0  0  0  0  0  0999 V2000
    6.5050   -0.0940  -53.9670 C   0  0  0  0  0  0  0  0  0  0  0  0
    7.9190   -0.5820  -53.9440 C   0  0  0  0  0  0  0  0  0  0  0  0
    8.9980   -0.0500  -54.7330 C   0  0  0  0  0  0  0  0  0  0  0  0
    8.8920    1.0340  -55.7130 C   0  0  0  0  0  0  0  0  0  0  0  0
    7.8130    1.4320  -56.1280 O   0  0  0  0  0  0  0  0  0  0  0  0
   10.0920    1.5870  -56.1270 N   0  0  0  0  0  0  0  0  0  0  0  0
   10.1250    2.5610  -57.1880 C   0  0  1  0  0  0  0  0  0  0  0  0
   11.5620    3.0160  -57.5090 C   0  0  0  0  0  0  0  0  0  0  0  0
   11.6820    3.6400  -58.9060 C   0  0  0  0  0  0  0  0  0  0  0  0
   10.3930    4.3600  -59.3420 C   0  0  2  0  0  0  0  0  0  0  0  0
   10.5950    5.0020  -60.7190 C   0  0  0  0  0  0  0  0  0  0  0  0
   10.0260    5.4370  -58.2860 C   0  0  0  0  0  0  0  0  0  0  0  0
    8.8600    4.8150  -57.5340 C   0  0  1  0  0  0  0  0  0  0  0  0
    8.0560    4.1850  -58.6540 C   0  0  0  0  0  0  0  0  0  0  0  0
    9.1560    3.3860  -59.3560 C   0  0  2  0  0  0  0  0  0  0  0  0
    9.4070    2.1410  -58.4880 C   0  0  0  0  0  0  0  0  0  0  0  0
    9.3520    3.7230  -56.6090 N   0  0  0  0  0  0  0  0  0  0  0  0
   10.1230   -0.7850  -54.3950 C   0  0  0  0  0  0  0  0  0  0  0  0
    9.7660   -1.7350  -53.4660 N   0  0  0  0  0  0  0  0  0  0  0  0
   10.6820   -2.7290  -52.9160 C   0  0  0  0  0  0  0  0  0  0  0  0
   11.3600   -3.5900  -53.9930 C   0  0  0  0  0  0  0  0  0  0  0  0
   10.3210   -4.3000  -54.8620 C   0  0  0  0  0  0  0  0  0  0  0  0
   10.8590   -4.5580  -56.2560 N   0  0  0  0  0  0  0  0  0  0  0  0
   11.2720   -3.2580  -56.9310 C   0  0  0  0  0  0  0  0  0  0  0  0
   12.1950   -3.5050  -58.1220 C   0  0  0  0  0  0  0  0  0  0  0  0
   11.9910   -4.8760  -58.7480 C   0  0  0  0  0  0  0  0  0  0  0  0
   12.2370   -5.9910  -57.7310 C   0  0  0  0  0  0  0  0  0  0  0  0
   11.9840   -5.5670  -56.2870 C   0  0  0  0  0  0  0  0  0  0  0  0
    8.4280   -1.6090  -53.1560 C   0  0  0  0  0  0  0  0  0  0  0  0
    7.7190   -2.4600  -52.1980 C   0  0  0  0  0  0  0  0  0  0  0  0
    6.9380   -3.5340  -52.6380 C   0  0  0  0  0  0  0  0  0  0  0  0
    6.2700   -4.3430  -51.7150 C   0  0  0  0  0  0  0  0  0  0  0  0
    6.3890   -4.0910  -50.3490 C   0  0  0  0  0  0  0  0  0  0  0  0
    7.1830   -3.0350  -49.9010 C   0  0  0  0  0  0  0  0  0  0  0  0
    7.8460   -2.2220  -50.8230 C   0  0  0  0  0  0  0  0  0  0  0  0
    6.1434    0.0308  -52.9357 H   0  0  0  0  0  0  0  0  0  0  0  0
    6.4590    0.8720  -54.4911 H   0  0  0  0  0  0  0  0  0  0  0  0
    5.8730   -0.8260  -54.4911 H   0  0  0  0  0  0  0  0  0  0  0  0
   10.9070    1.0430  -55.8870 H   0  0  0  0  0  0  0  0  0  0  0  0
   11.8713    3.7616  -56.7617 H   0  0  0  0  0  0  0  0  0  0  0  0
   12.2082    2.1262  -57.4835 H   0  0  0  0  0  0  0  0  0  0  0  0
   12.5071    4.3675  -58.8979 H   0  0  0  0  0  0  0  0  0  0  0  0
   11.8685    2.8254  -59.6213 H   0  0  0  0  0  0  0  0  0  0  0  0
   10.9230    6.0444  -60.5930 H   0  0  0  0  0  0  0  0  0  0  0  0
   11.3602    4.4416  -61.2761 H   0  0  0  0  0  0  0  0  0  0  0  0
    9.6468    4.9808  -61.2761 H   0  0  0  0  0  0  0  0  0  0  0  0
   10.8722    5.6290  -57.6099 H   0  0  0  0  0  0  0  0  0  0  0  0
    9.7758    6.4094  -58.7353 H   0  0  0  0  0  0  0  0  0  0  0  0
    8.3036    5.5364  -56.9175 H   0  0  0  0  0  0  0  0  0  0  0  0
    7.2604    3.5312  -58.2673 H   0  0  0  0  0  0  0  0  0  0  0  0
    7.5204    4.8987  -59.2972 H   0  0  0  0  0  0  0  0  0  0  0  0
    8.9278    3.0569  -60.3805 H   0  0  0  0  0  0  0  0  0  0  0  0
    8.4462    1.6663  -58.2400 H   0  0  0  0  0  0  0  0  0  0  0  0
   10.0348    1.4270  -59.0412 H   0  0  0  0  0  0  0  0  0  0  0  0
    9.9000    4.1550  -55.8600 H   0  0  0  0  0  0  0  0  0  0  0  0
    8.5240    3.3080  -56.1690 H   0  0  0  0  0  0  0  0  0  0  0  0
   11.1338   -0.6340  -54.8019 H   0  0  0  0  0  0  0  0  0  0  0  0
   11.4627   -2.2061  -52.3440 H   0  0  0  0  0  0  0  0  0  0  0  0
   10.0884   -3.4052  -52.2832 H   0  0  0  0  0  0  0  0  0  0  0  0
   11.9817   -2.9445  -54.6308 H   0  0  0  0  0  0  0  0  0  0  0  0
   11.9789   -4.3508  -53.4949 H   0  0  0  0  0  0  0  0  0  0  0  0
   10.0582   -5.2606  -54.3950 H   0  0  0  0  0  0  0  0  0  0  0  0
    9.4343   -3.6542  -54.9439 H   0  0  0  0  0  0  0  0  0  0  0  0
   10.0910   -4.9460  -56.8220 H   0  0  0  0  0  0  0  0  0  0  0  0
   10.3692   -2.7370  -57.2824 H   0  0  0  0  0  0  0  0  0  0  0  0
   11.8188   -2.6498  -56.1954 H   0  0  0  0  0  0  0  0  0  0  0  0
   11.9985   -2.7371  -58.8847 H   0  0  0  0  0  0  0  0  0  0  0  0
   13.2309   -3.4580  -57.7550 H   0  0  0  0  0  0  0  0  0  0  0  0
   10.9583   -4.9507  -59.1194 H   0  0  0  0  0  0  0  0  0  0  0  0
   12.7095   -4.9924  -59.5728 H   0  0  0  0  0  0  0  0  0  0  0  0
   11.5691   -6.8321  -57.9686 H   0  0  0  0  0  0  0  0  0  0  0  0
   13.2993   -6.2667  -57.8050 H   0  0  0  0  0  0  0  0  0  0  0  0
   11.7058   -6.4469  -55.6884 H   0  0  0  0  0  0  0  0  0  0  0  0
   12.8962   -5.1169  -55.8684 H   0  0  0  0  0  0  0  0  0  0  0  0
    6.8494   -3.7424  -53.7144 H   0  0  0  0  0  0  0  0  0  0  0  0
    5.6492   -5.1801  -52.0668 H   0  0  0  0  0  0  0  0  0  0  0  0
    5.8568   -4.7248  -49.6244 H   0  0  0  0  0  0  0  0  0  0  0  0
    7.2868   -2.8429  -48.8229 H   0  0  0  0  0  0  0  0  0  0  0  0
    8.4716   -1.3899  -50.4676 H   0  0  0  0  0  0  0  0  0  0  0  0
  1  2  1  0
  2  3  1  0
  3  4  1  0
  4  5  2  0
  4  6  1  0
  7  6  1  1
  7  8  1  0
  8  9  1  0
  9 10  1  0
 10 11  1  6
 10 12  1  0
 12 13  1  0
 13 14  1  0
 14 15  1  0
 15 16  1  0
 13 17  1  0
  3 18  2  0
 18 19  1  0
 19 20  1  0
 20 21  1  0
 21 22  1  0
 22 23  1  0
 23 24  1  0
 24 25  1  0
 25 26  1  0
 26 27  1  0
 27 28  1  0
 19 29  1  0
 29 30  1  0
 30 31  2  0
 31 32  1  0
 32 33  2  0
 33 34  1  0
 34 35  2  0
 29  2  2  0
 35 30  1  0
 16  7  1  0
 28 23  1  0
 17  7  1  0
 15 10  1  0
  1 36  1  0
  1 37  1  0
  1 38  1  0
  6 39  1  0
  8 40  1  0
  8 41  1  0
  9 42  1  0
  9 43  1  0
 11 44  1  0
 11 45  1  0
 11 46  1  0
 12 47  1  0
 12 48  1  0
 13 49  1  1
 14 50  1  0
 14 51  1  0
 15 52  1  6
 16 53  1  0
 16 54  1  0
 17 55  1  0
 17 56  1  0
 18 57  1  0
 20 58  1  0
 20 59  1  0
 21 60  1  0
 21 61  1  0
 22 62  1  0
 22 63  1  0
 23 64  1  0
 24 65  1  0
 24 66  1  0
 25 67  1  0
 25 68  1  0
 26 69  1  0
 26 70  1  0
 27 71  1  0
 27 72  1  0
 28 73  1  0
 28 74  1  0
 31 75  1  0
 32 76  1  0
 33 77  1  0
 34 78  1  0
 35 79  1  0
M  CHG  2  17   1  23   1
M  END
>  <meeko>  (54) 
{"is_sidechain": false}

$$$$

     RDKit          3D

 79 84  0  0  0  0  0  0  0  0999 V2000
    6.5390   -0.0410  -54.1760 C   0  0  0  0  0  0  0  0  0  0  0  0
    7.9660   -0.4810  -54.0840 C   0  0  0  0  0  0  0  0  0  0  0  0
    9.0570    0.0610  -54.8440 C   0  0  0  0  0  0  0  0  0  0  0  0
    8.9710    1.1120  -55.8600 C   0  0  0  0  0  0  0  0  0  0  0  0
    7.9720    1.8040  -56.0030 O   0  0  0  0  0  0  0  0  0  0  0  0
   10.1240    1.3070  -56.6070 N   0  0  0  0  0  0  0  0  0  0  0  0
   10.2410    2.4720  -57.4480 C   0  0  2  0  0  0  0  0  0  0  0  0
   11.6220    2.5710  -58.1290 C   0  0  0  0  0  0  0  0  0  0  0  0
   11.9390    3.9950  -58.6050 C   0  0  0  0  0  0  0  0  0  0  0  0
   10.6750    4.7730  -59.0170 C   0  0  1  0  0  0  0  0  0  0  0  0
   11.0650    6.1640  -59.5280 C   0  0  0  0  0  0  0  0  0  0  0  0
    9.9200    3.9800  -60.1150 C   0  0  0  0  0  0  0  0  0  0  0  0
    8.7360    3.3820  -59.3730 C   0  0  2  0  0  0  0  0  0  0  0  0
    8.3050    4.5310  -58.4830 C   0  0  0  0  0  0  0  0  0  0  0  0
    9.6440    4.8820  -57.8320 C   0  0  1  0  0  0  0  0  0  0  0  0
    9.8980    3.8090  -56.7590 C   0  0  0  0  0  0  0  0  0  0  0  0
    9.1860    2.2310  -58.5020 N   0  0  0  0  0  0  0  0  0  0  0  0
   10.1910   -0.6260  -54.4430 C   0  0  0  0  0  0  0  0  0  0  0  0
    9.8280   -1.5650  -53.5050 N   0  0  0  0  0  0  0  0  0  0  0  0
   10.7580   -2.5170  -52.8990 C   0  0  0  0  0  0  0  0  0  0  0  0
   11.3920   -3.4750  -53.9190 C   0  0  0  0  0  0  0  0  0  0  0  0
   10.3310   -4.1510  -54.7880 C   0  0  0  0  0  0  0  0  0  0  0  0
   10.8410   -4.3720  -56.1970 N   0  0  0  0  0  0  0  0  0  0  0  0
   11.8670   -5.4800  -56.2530 C   0  0  0  0  0  0  0  0  0  0  0  0
   12.0670   -5.9090  -57.7030 C   0  0  0  0  0  0  0  0  0  0  0  0
   11.9250   -4.7620  -58.7030 C   0  0  0  0  0  0  0  0  0  0  0  0
   12.2490   -3.4240  -58.0580 C   0  0  0  0  0  0  0  0  0  0  0  0
   11.3320   -3.1110  -56.8770 C   0  0  0  0  0  0  0  0  0  0  0  0
    8.4740   -1.4740  -53.2500 C   0  0  0  0  0  0  0  0  0  0  0  0
    7.7500   -2.3290  -52.3080 C   0  0  0  0  0  0  0  0  0  0  0  0
    7.8370   -2.0840  -50.9310 C   0  0  0  0  0  0  0  0  0  0  0  0
    7.1570   -2.8970  -50.0230 C   0  0  0  0  0  0  0  0  0  0  0  0
    6.3900   -3.9640  -50.4870 C   0  0  0  0  0  0  0  0  0  0  0  0
    6.3090   -4.2250  -51.8550 C   0  0  0  0  0  0  0  0  0  0  0  0
    6.9920   -3.4130  -52.7640 C   0  0  0  0  0  0  0  0  0  0  0  0
    6.1283    0.0856  -53.1634 H   0  0  0  0  0  0  0  0  0  0  0  0
    6.4844    0.9157  -54.7161 H   0  0  0  0  0  0  0  0  0  0  0  0
    5.9551   -0.8008  -54.7161 H   0  0  0  0  0  0  0  0  0  0  0  0
   10.9430    0.9480  -56.1340 H   0  0  0  0  0  0  0  0  0  0  0  0
   12.3936    2.2590  -57.4098 H   0  0  0  0  0  0  0  0  0  0  0  0
   11.6073    1.9173  -59.0135 H   0  0  0  0  0  0  0  0  0  0  0  0
   12.4369    4.5377  -57.7879 H   0  0  0  0  0  0  0  0  0  0  0  0
   12.5867    3.9156  -59.4905 H   0  0  0  0  0  0  0  0  0  0  0  0
   11.2517    6.8298  -58.6725 H   0  0  0  0  0  0  0  0  0  0  0  0
   11.9764    6.0879  -60.1391 H   0  0  0  0  0  0  0  0  0  0  0  0
   10.2468    6.5728  -60.1391 H   0  0  0  0  0  0  0  0  0  0  0  0
    9.5819    4.6488  -60.9202 H   0  0  0  0  0  0  0  0  0  0  0  0
   10.5482    3.2193  -60.6015 H   0  0  0  0  0  0  0  0  0  0  0  0
    7.9519    2.9959  -60.0410 H   0  0  0  0  0  0  0  0  0  0  0  0
    7.9030    5.3714  -59.0679 H   0  0  0  0  0  0  0  0  0  0  0  0
    7.4962    4.2911  -57.7771 H   0  0  0  0  0  0  0  0  0  0  0  0
    9.6991    5.8714  -57.3544 H   0  0  0  0  0  0  0  0  0  0  0  0
   10.7379    4.1195  -56.1201 H   0  0  0  0  0  0  0  0  0  0  0  0
    8.9968    3.6849  -56.1406 H   0  0  0  0  0  0  0  0  0  0  0  0
    8.3630    1.8950  -57.9910 H   0  0  0  0  0  0  0  0  0  0  0  0
    9.4860    1.4630  -59.1120 H   0  0  0  0  0  0  0  0  0  0  0  0
   11.2119   -0.4501  -54.8129 H   0  0  0  0  0  0  0  0  0  0  0  0
   11.5614   -1.9533  -52.4023 H   0  0  0  0  0  0  0  0  0  0  0  0
   10.1831   -3.1291  -52.1884 H   0  0  0  0  0  0  0  0  0  0  0  0
   12.0752   -2.9062  -54.5668 H   0  0  0  0  0  0  0  0  0  0  0  0
   11.9351   -4.2564  -53.3672 H   0  0  0  0  0  0  0  0  0  0  0  0
   10.0687   -5.1227  -54.3442 H   0  0  0  0  0  0  0  0  0  0  0  0
    9.4481   -3.4966  -54.8343 H   0  0  0  0  0  0  0  0  0  0  0  0
   10.0360   -4.7240  -56.7370 H   0  0  0  0  0  0  0  0  0  0  0  0
   12.8211   -5.1185  -55.8418 H   0  0  0  0  0  0  0  0  0  0  0  0
   11.5161   -6.3375  -55.6601 H   0  0  0  0  0  0  0  0  0  0  0  0
   13.0757   -6.3360  -57.8038 H   0  0  0  0  0  0  0  0  0  0  0  0
   11.2792   -6.6406  -57.9357 H   0  0  0  0  0  0  0  0  0  0  0  0
   12.6148   -4.9314  -59.5429 H   0  0  0  0  0  0  0  0  0  0  0  0
   10.8831   -4.7348  -59.0547 H   0  0  0  0  0  0  0  0  0  0  0  0
   13.2894   -3.4461  -57.7015 H   0  0  0  0  0  0  0  0  0  0  0  0
   12.0998   -2.6408  -58.8159 H   0  0  0  0  0  0  0  0  0  0  0  0
   11.8873   -2.5052  -56.1458 H   0  0  0  0  0  0  0  0  0  0  0  0
   10.4566   -2.5653  -57.2589 H   0  0  0  0  0  0  0  0  0  0  0  0
    8.4456   -1.2448  -50.5631 H   0  0  0  0  0  0  0  0  0  0  0  0
    7.2263   -2.6961  -48.9437 H   0  0  0  0  0  0  0  0  0  0  0  0
    5.8475   -4.6015  -49.7733 H   0  0  0  0  0  0  0  0  0  0  0  0
    5.7069   -5.0708  -52.2183 H   0  0  0  0  0  0  0  0  0  0  0  0
    6.9336   -3.6266  -53.8415 H   0  0  0  0  0  0  0  0  0  0  0  0
  1  2  1  0
  2  3  1  0
  3  4  1  0
  4  5  2  0
  4  6  1  0
  7  6  1  1
  7  8  1  0
  8  9  1  0
  9 10  1  0
 10 11  1  6
 10 12  1  0
 12 13  1  0
 13 14  1  0
 14 15  1  0
 15 16  1  0
 13 17  1  0
  3 18  2  0
 18 19  1  0
 19 20  1  0
 20 21  1  0
 21 22  1  0
 22 23  1  0
 23 24  1  0
 24 25  1  0
 25 26  1  0
 26 27  1  0
 27 28  1  0
 19 29  1  0
 29 30  1  0
 30 31  2  0
 31 32  1  0
 32 33  2  0
 33 34  1  0
 34 35  2  0
 29  2  2  0
 35 30  1  0
 16  7  1  0
 28 23  1  0
 17  7  1  0
 15 10  1  0
  1 36  1  0
  1 37  1  0
  1 38  1  0
  6 39  1  0
  8 40  1  0
  8 41  1  0
  9 42  1  0
  9 43  1  0
 11 44  1  0
 11 45  1  0
 11 46  1  0
 12 47  1  0
 12 48  1  0
 13 49  1  6
 14 50  1  0
 14 51  1  0
 15 52  1  1
 16 53  1  0
 16 54  1  0
 17 55  1  0
 17 56  1  0
 18 57  1  0
 20 58  1  0
 20 59  1  0
 21 60  1  0
 21 61  1  0
 22 62  1  0
 22 63  1  0
 23 64  1  0
 24 65  1  0
 24 66  1  0
 25 67  1  0
 25 68  1  0
 26 69  1  0
 26 70  1  0
 27 71  1  0
 27 72  1  0
 28 73  1  0
 28 74  1  0
 31 75  1  0
 32 76  1  0
 33 77  1  0
 34 78  1  0
 35 79  1  0
M  CHG  2  17   1  23   1
M  END
>  <meeko>  (55) 
{"is_sidechain": false}

$$$$

     RDKit          3D

 73 78  0  0  0  0  0  0  0  0999 V2000
    8.3950   -2.8650  -50.7480 C   0  0  0  0  0  0  0  0  0  0  0  0
    7.5610   -2.7550  -52.0000 C   0  0  0  0  0  0  0  0  0  0  0  0
    6.3420   -2.9270  -51.9610 O   0  0  0  0  0  0  0  0  0  0  0  0
    8.2450   -2.4640  -53.1630 N   0  0  0  0  0  0  0  0  0  0  0  0
    9.0920   -3.4040  -53.8860 C   0  0  0  0  0  0  0  0  0  0  0  0
    9.7560   -2.5820  -54.9790 C   0  0  0  0  0  0  0  0  0  0  0  0
    9.7870   -1.1820  -54.3750 C   0  0  0  0  0  0  0  0  0  0  0  0
    8.4480   -1.0910  -53.6290 C   0  0  1  0  0  0  0  0  0  0  0  0
    7.3360   -0.5890  -54.5770 C   0  0  0  0  0  0  0  0  0  0  0  0
    7.5600    0.8140  -55.1530 C   0  0  0  0  0  0  0  0  0  0  0  0
    6.7620    1.0650  -56.4380 C   0  0  0  0  0  0  0  0  0  0  0  0
    7.6080    1.6520  -57.5890 C   0  0  1  0  0  0  0  0  0  0  0  0
    6.9510    2.8510  -58.2960 C   0  0  0  0  0  0  0  0  0  0  0  0
    5.8600    2.5190  -59.2350 C   0  0  0  0  0  0  0  0  0  0  0  0
    4.5190    2.5940  -58.8320 C   0  0  0  0  0  0  0  0  0  0  0  0
    3.4930    2.2790  -59.7240 C   0  0  0  0  0  0  0  0  0  0  0  0
    3.7980    1.8850  -61.0250 C   0  0  0  0  0  0  0  0  0  0  0  0
    5.1280    1.8060  -61.4360 C   0  0  0  0  0  0  0  0  0  0  0  0
    6.1550    2.1220  -60.5460 C   0  0  0  0  0  0  0  0  0  0  0  0
    7.3770    4.1280  -58.1560 C   0  0  0  0  0  0  0  0  0  0  0  0
    6.8330    5.3710  -58.7930 C   0  0  0  0  0  0  0  0  0  0  0  0
    8.5300    4.2860  -57.2220 C   0  0  0  0  0  0  0  0  0  0  0  0
    9.0450    3.3320  -56.5000 N   0  0  0  0  0  0  0  0  0  0  0  0
    8.9160    2.0600  -57.0280 N   0  0  0  0  0  0  0  0  0  0  0  0
   10.1990    1.4560  -57.5910 C   0  0  2  0  0  0  0  0  0  0  0  0
   11.5110    1.9630  -56.8490 C   0  0  0  0  0  0  0  0  0  0  0  0
   11.7230    3.2260  -57.6380 C   0  0  1  0  0  0  0  0  0  0  0  0
   12.3940    4.5650  -57.5580 C   0  0  0  0  0  0  0  0  0  0  0  0
   11.6180    5.2610  -58.7450 C   0  0  1  0  0  0  0  0  0  0  0  0
   11.7170    4.1460  -59.8460 C   0  0  0  0  0  0  0  0  0  0  0  0
   11.6830    2.8050  -59.0860 C   0  0  2  0  0  0  0  0  0  0  0  0
   10.4380    1.8960  -59.0920 C   0  0  0  0  0  0  0  0  0  0  0  0
   10.1460    5.5450  -58.5730 N   0  0  0  0  0  0  0  0  0  0  0  0
    9.4570    5.5350  -57.3500 C   0  0  0  0  0  0  0  0  0  0  0  0
    9.6190    6.3150  -56.4310 O   0  0  0  0  0  0  0  0  0  0  0  0
    7.7443   -2.7792  -49.8653 H   0  0  0  0  0  0  0  0  0  0  0  0
    8.9070   -3.8385  -50.7328 H   0  0  0  0  0  0  0  0  0  0  0  0
    9.1419   -2.0576  -50.7328 H   0  0  0  0  0  0  0  0  0  0  0  0
    9.8487   -3.8365  -53.2149 H   0  0  0  0  0  0  0  0  0  0  0  0
    8.5150   -4.2454  -54.2972 H   0  0  0  0  0  0  0  0  0  0  0  0
   10.7727   -2.9467  -55.1871 H   0  0  0  0  0  0  0  0  0  0  0  0
    9.2275   -2.6297  -55.9425 H   0  0  0  0  0  0  0  0  0  0  0  0
   10.6333   -1.0706  -53.6812 H   0  0  0  0  0  0  0  0  0  0  0  0
    9.9156   -0.3905  -55.1280 H   0  0  0  0  0  0  0  0  0  0  0  0
    8.4334   -0.3736  -52.7953 H   0  0  0  0  0  0  0  0  0  0  0  0
    7.2598   -1.2947  -55.4174 H   0  0  0  0  0  0  0  0  0  0  0  0
    6.4195   -0.5300  -53.9716 H   0  0  0  0  0  0  0  0  0  0  0  0
    7.2552    1.5555  -54.3999 H   0  0  0  0  0  0  0  0  0  0  0  0
    8.6273    0.9014  -55.4044 H   0  0  0  0  0  0  0  0  0  0  0  0
    6.3346    0.1087  -56.7738 H   0  0  0  0  0  0  0  0  0  0  0  0
    5.9882    1.8084  -56.1960 H   0  0  0  0  0  0  0  0  0  0  0  0
    7.7134    0.8722  -58.3577 H   0  0  0  0  0  0  0  0  0  0  0  0
    4.2740    2.9034  -57.8052 H   0  0  0  0  0  0  0  0  0  0  0  0
    2.4437    2.3418  -59.3999 H   0  0  0  0  0  0  0  0  0  0  0  0
    2.9894    1.6362  -61.7281 H   0  0  0  0  0  0  0  0  0  0  0  0
    5.3679    1.4941  -62.4632 H   0  0  0  0  0  0  0  0  0  0  0  0
    7.2026    2.0591  -60.8755 H   0  0  0  0  0  0  0  0  0  0  0  0
    6.5232    6.0788  -58.0100 H   0  0  0  0  0  0  0  0  0  0  0  0
    7.6111    5.8333  -59.4182 H   0  0  0  0  0  0  0  0  0  0  0  0
    5.9655    5.1131  -59.4182 H   0  0  0  0  0  0  0  0  0  0  0  0
   10.0515    0.3729  -57.4677 H   0  0  0  0  0  0  0  0  0  0  0  0
   11.3351    2.1630  -55.7817 H   0  0  0  0  0  0  0  0  0  0  0  0
   12.3562    1.2593  -56.8281 H   0  0  0  0  0  0  0  0  0  0  0  0
   11.1362    3.6997  -56.8372 H   0  0  0  0  0  0  0  0  0  0  0  0
   12.2176    5.0640  -56.5937 H   0  0  0  0  0  0  0  0  0  0  0  0
   13.4917    4.5635  -57.6298 H   0  0  0  0  0  0  0  0  0  0  0  0
   12.0537    6.2567  -58.9148 H   0  0  0  0  0  0  0  0  0  0  0  0
   10.8661    4.2154  -60.5397 H   0  0  0  0  0  0  0  0  0  0  0  0
   12.6326    4.2490  -60.4469 H   0  0  0  0  0  0  0  0  0  0  0  0
   12.4779    2.2194  -59.5709 H   0  0  0  0  0  0  0  0  0  0  0  0
    9.5653    2.4486  -59.4700 H   0  0  0  0  0  0  0  0  0  0  0  0
   10.5847    1.0230  -59.7450 H   0  0  0  0  0  0  0  0  0  0  0  0
    9.6250    5.0230  -59.2630 H   0  0  0  0  0  0  0  0  0  0  0  0
  1  2  1  0
  2  3  2  0
  2  4  1  0
  4  5  1  0
  5  6  1  0
  6  7  1  0
  7  8  1  0
  8  9  1  0
  9 10  1  0
 10 11  1  0
 11 12  1  0
 12 13  1  0
 13 14  1  0
 14 15  2  0
 15 16  1  0
 16 17  2  0
 17 18  1  0
 18 19  2  0
 13 20  2  0
 20 21  1  0
 20 22  1  0
 22 23  2  0
 23 24  1  0
 24 25  1  0
 25 26  1  0
 26 27  1  0
 27 28  1  0
 28 29  1  0
 29 30  1  0
 30 31  1  0
 31 32  1  0
 29 33  1  0
 33 34  1  0
 34 35  2  0
  8  4  1  0
 24 12  1  0
 32 25  1  0
 19 14  1  0
 34 22  1  0
 31 27  1  0
  1 36  1  0
  1 37  1  0
  1 38  1  0
  5 39  1  0
  5 40  1  0
  6 41  1  0
  6 42  1  0
  7 43  1  0
  7 44  1  0
  8 45  1  1
  9 46  1  0
  9 47  1  0
 10 48  1  0
 10 49  1  0
 11 50  1  0
 11 51  1  0
 12 52  1  6
 15 53  1  0
 16 54  1  0
 17 55  1  0
 18 56  1  0
 19 57  1  0
 21 58  1  0
 21 59  1  0
 21 60  1  0
 25 61  1  1
 26 62  1  0
 26 63  1  0
 27 64  1  6
 28 65  1  0
 28 66  1  0
 29 67  1  1
 30 68  1  0
 30 69  1  0
 31 70  1  6
 32 71  1  0
 32 72  1  0
 33 73  1  0
M  END
>  <meeko>  (56) 
{"is_sidechain": false}

$$$$

     RDKit          3D

 73 78  0  0  0  0  0  0  0  0999 V2000
    9.2450   -2.8920  -51.9390 C   0  0  0  0  0  0  0  0  0  0  0  0
    8.8300   -3.3690  -53.3050 C   0  0  0  0  0  0  0  0  0  0  0  0
    7.6460   -3.6220  -53.5380 O   0  0  0  0  0  0  0  0  0  0  0  0
    9.8090   -3.4970  -54.2670 N   0  0  0  0  0  0  0  0  0  0  0  0
    9.6320   -4.4530  -55.3480 C   0  0  0  0  0  0  0  0  0  0  0  0
   11.0490   -4.8260  -55.7500 C   0  0  0  0  0  0  0  0  0  0  0  0
   11.8020   -3.5180  -55.5560 C   0  0  0  0  0  0  0  0  0  0  0  0
   11.1530   -2.9100  -54.2990 C   0  0  1  0  0  0  0  0  0  0  0  0
   11.2170   -1.3730  -54.3150 C   0  0  0  0  0  0  0  0  0  0  0  0
   11.5590   -0.7600  -55.6790 C   0  0  0  0  0  0  0  0  0  0  0  0
   10.2880   -0.4640  -56.4880 C   0  0  0  0  0  0  0  0  0  0  0  0
    9.7550    0.9610  -56.2340 C   0  0  2  0  0  0  0  0  0  0  0  0
    8.2280    1.0060  -56.2640 C   0  0  0  0  0  0  0  0  0  0  0  0
    7.5660    0.4910  -55.0510 C   0  0  0  0  0  0  0  0  0  0  0  0
    8.1710    0.6380  -53.7960 C   0  0  0  0  0  0  0  0  0  0  0  0
    7.5420    0.1500  -52.6500 C   0  0  0  0  0  0  0  0  0  0  0  0
    6.3060   -0.4900  -52.7500 C   0  0  0  0  0  0  0  0  0  0  0  0
    5.7010   -0.6440  -53.9970 C   0  0  0  0  0  0  0  0  0  0  0  0
    6.3280   -0.1560  -55.1440 C   0  0  0  0  0  0  0  0  0  0  0  0
    7.5130    1.5310  -57.2850 C   0  0  0  0  0  0  0  0  0  0  0  0
    6.0260    1.6640  -57.3800 C   0  0  0  0  0  0  0  0  0  0  0  0
    8.3600    2.0360  -58.3980 C   0  0  0  0  0  0  0  0  0  0  0  0
    9.6590    2.0510  -58.4260 N   0  0  0  0  0  0  0  0  0  0  0  0
   10.3020    1.8800  -57.2540 N   0  0  0  0  0  0  0  0  0  0  0  0
   11.1050    3.0560  -56.8480 C   0  0  1  0  0  0  0  0  0  0  0  0
   11.8040    3.7750  -58.0290 C   0  0  0  0  0  0  0  0  0  0  0  0
   11.1560    5.1620  -58.2110 C   0  0  1  0  0  0  0  0  0  0  0  0
   10.5050    5.4840  -59.5670 C   0  0  0  0  0  0  0  0  0  0  0  0
    9.0300    5.0580  -59.4700 C   0  0  2  0  0  0  0  0  0  0  0  0
    8.7100    5.2350  -57.9710 C   0  0  0  0  0  0  0  0  0  0  0  0
   10.0320    5.2650  -57.1890 C   0  0  1  0  0  0  0  0  0  0  0  0
   10.2710    4.1500  -56.1680 C   0  0  0  0  0  0  0  0  0  0  0  0
    8.8490    3.7190  -60.0290 N   0  0  0  0  0  0  0  0  0  0  0  0
    7.8020    2.9270  -59.5540 C   0  0  0  0  0  0  0  0  0  0  0  0
    6.6330    2.9980  -59.8760 O   0  0  0  0  0  0  0  0  0  0  0  0
    8.7283   -3.4859  -51.1706 H   0  0  0  0  0  0  0  0  0  0  0  0
   10.3326   -3.0103  -51.8241 H   0  0  0  0  0  0  0  0  0  0  0  0
    8.9774   -1.8313  -51.8241 H   0  0  0  0  0  0  0  0  0  0  0  0
    9.0793   -5.3380  -54.9998 H   0  0  0  0  0  0  0  0  0  0  0  0
    9.0509   -4.0397  -56.1856 H   0  0  0  0  0  0  0  0  0  0  0  0
   11.4516   -5.6166  -55.0997 H   0  0  0  0  0  0  0  0  0  0  0  0
   11.1236   -5.2274  -56.7714 H   0  0  0  0  0  0  0  0  0  0  0  0
   12.8743   -3.7023  -55.3944 H   0  0  0  0  0  0  0  0  0  0  0  0
   11.7407   -2.8554  -56.4319 H   0  0  0  0  0  0  0  0  0  0  0  0
   11.6799   -3.1473  -53.3630 H   0  0  0  0  0  0  0  0  0  0  0  0
   10.2362   -0.9859  -54.0016 H   0  0  0  0  0  0  0  0  0  0  0  0
   12.0323   -1.0888  -53.6334 H   0  0  0  0  0  0  0  0  0  0  0  0
   12.1116    0.1782  -55.5226 H   0  0  0  0  0  0  0  0  0  0  0  0
   12.1706   -1.4806  -56.2417 H   0  0  0  0  0  0  0  0  0  0  0  0
   10.5164   -0.5713  -57.5587 H   0  0  0  0  0  0  0  0  0  0  0  0
    9.5121   -1.1765  -56.1711 H   0  0  0  0  0  0  0  0  0  0  0  0
   10.0805    1.2737  -55.2308 H   0  0  0  0  0  0  0  0  0  0  0  0
    9.1461    1.1403  -53.7136 H   0  0  0  0  0  0  0  0  0  0  0  0
    8.0208    0.2699  -51.6670 H   0  0  0  0  0  0  0  0  0  0  0  0
    5.8094   -0.8726  -51.8461 H   0  0  0  0  0  0  0  0  0  0  0  0
    4.7280   -1.1510  -54.0765 H   0  0  0  0  0  0  0  0  0  0  0  0
    5.8474   -0.2802  -56.1257 H   0  0  0  0  0  0  0  0  0  0  0  0
    5.5959    1.7025  -56.3683 H   0  0  0  0  0  0  0  0  0  0  0  0
    5.7743    2.5882  -57.9208 H   0  0  0  0  0  0  0  0  0  0  0  0
    5.6143    0.7991  -57.9208 H   0  0  0  0  0  0  0  0  0  0  0  0
   11.8403    2.6125  -56.1605 H   0  0  0  0  0  0  0  0  0  0  0  0
   12.8756    3.8921  -57.8100 H   0  0  0  0  0  0  0  0  0  0  0  0
   11.6919    3.1833  -58.9495 H   0  0  0  0  0  0  0  0  0  0  0  0
   11.9944    5.8664  -58.1066 H   0  0  0  0  0  0  0  0  0  0  0  0
   10.5740    6.5624  -59.7727 H   0  0  0  0  0  0  0  0  0  0  0  0
   11.0146    4.9515  -60.3835 H   0  0  0  0  0  0  0  0  0  0  0  0
    8.3200    5.6509  -60.0652 H   0  0  0  0  0  0  0  0  0  0  0  0
    8.1665    6.1788  -57.8168 H   0  0  0  0  0  0  0  0  0  0  0  0
    8.0835    4.4021  -57.6191 H   0  0  0  0  0  0  0  0  0  0  0  0
    9.9934    6.1955  -56.6036 H   0  0  0  0  0  0  0  0  0  0  0  0
   10.8156    4.5493  -55.2997 H   0  0  0  0  0  0  0  0  0  0  0  0
    9.3122    3.7387  -55.8194 H   0  0  0  0  0  0  0  0  0  0  0  0
    9.7030    3.1890  -59.8490 H   0  0  0  0  0  0  0  0  0  0  0  0
  1  2  1  0
  2  3  2  0
  2  4  1  0
  4  5  1  0
  5  6  1  0
  6  7  1  0
  7  8  1  0
  8  9  1  0
  9 10  1  0
 10 11  1  0
 11 12  1  0
 12 13  1  0
 13 14  1  0
 14 15  2  0
 15 16  1  0
 16 17  2  0
 17 18  1  0
 18 19  2  0
 13 20  2  0
 20 21  1  0
 20 22  1  0
 22 23  2  0
 23 24  1  0
 24 25  1  0
 25 26  1  0
 26 27  1  0
 27 28  1  0
 28 29  1  0
 29 30  1  0
 30 31  1  0
 31 32  1  0
 29 33  1  0
 33 34  1  0
 34 35  2  0
  8  4  1  0
 24 12  1  0
 32 25  1  0
 19 14  1  0
 34 22  1  0
 31 27  1  0
  1 36  1  0
  1 37  1  0
  1 38  1  0
  5 39  1  0
  5 40  1  0
  6 41  1  0
  6 42  1  0
  7 43  1  0
  7 44  1  0
  8 45  1  1
  9 46  1  0
  9 47  1  0
 10 48  1  0
 10 49  1  0
 11 50  1  0
 11 51  1  0
 12 52  1  1
 15 53  1  0
 16 54  1  0
 17 55  1  0
 18 56  1  0
 19 57  1  0
 21 58  1  0
 21 59  1  0
 21 60  1  0
 25 61  1  1
 26 62  1  0
 26 63  1  0
 27 64  1  1
 28 65  1  0
 28 66  1  0
 29 67  1  6
 30 68  1  0
 30 69  1  0
 31 70  1  1
 32 71  1  0
 32 72  1  0
 33 73  1  0
M  END
>  <meeko>  (57) 
{"is_sidechain": false}

$$$$

     RDKit          3D

 73 78  0  0  0  0  0  0  0  0999 V2000
    7.4390   -2.1800  -51.0910 C   0  0  0  0  0  0  0  0  0  0  0  0
    7.2760   -2.5840  -52.5340 C   0  0  0  0  0  0  0  0  0  0  0  0
    6.3100   -3.2600  -52.8820 O   0  0  0  0  0  0  0  0  0  0  0  0
    8.2560   -2.1500  -53.4060 N   0  0  0  0  0  0  0  0  0  0  0  0
    9.5700   -2.7610  -53.5510 C   0  0  0  0  0  0  0  0  0  0  0  0
   10.4560   -1.6430  -54.0760 C   0  0  0  0  0  0  0  0  0  0  0  0
    9.4890   -0.8260  -54.9170 C   0  0  0  0  0  0  0  0  0  0  0  0
    8.1990   -0.8490  -54.0850 C   0  0  1  0  0  0  0  0  0  0  0  0
    6.9570   -0.6410  -54.9690 C   0  0  0  0  0  0  0  0  0  0  0  0
    6.6060    0.8410  -55.1860 C   0  0  0  0  0  0  0  0  0  0  0  0
    6.2240    1.1500  -56.6390 C   0  0  0  0  0  0  0  0  0  0  0  0
    6.6150    2.5330  -57.2180 C   0  0  2  0  0  0  0  0  0  0  0  0
    6.4930    2.7880  -58.7290 C   0  0  0  0  0  0  0  0  0  0  0  0
    5.4320    2.0670  -59.4600 C   0  0  0  0  0  0  0  0  0  0  0  0
    5.7280    0.9270  -60.2170 C   0  0  0  0  0  0  0  0  0  0  0  0
    4.7220    0.2690  -60.9290 C   0  0  0  0  0  0  0  0  0  0  0  0
    3.4130    0.7490  -60.8940 C   0  0  0  0  0  0  0  0  0  0  0  0
    3.1090    1.8860  -60.1470 C   0  0  0  0  0  0  0  0  0  0  0  0
    4.1140    2.5450  -59.4360 C   0  0  0  0  0  0  0  0  0  0  0  0
    7.2080    3.7490  -59.3650 C   0  0  0  0  0  0  0  0  0  0  0  0
    7.0840    4.1960  -60.7900 C   0  0  0  0  0  0  0  0  0  0  0  0
    8.1100    4.5330  -58.4720 C   0  0  0  0  0  0  0  0  0  0  0  0
    8.2020    4.3830  -57.1790 N   0  0  0  0  0  0  0  0  0  0  0  0
    7.8860    3.1160  -56.7070 N   0  0  0  0  0  0  0  0  0  0  0  0
    9.1210    2.2810  -56.3340 C   0  0  2  0  0  0  0  0  0  0  0  0
   10.3170    3.1670  -55.7510 C   0  0  0  0  0  0  0  0  0  0  0  0
   10.9760    3.5350  -57.0530 C   0  0  1  0  0  0  0  0  0  0  0  0
   11.8940    4.5480  -57.6670 C   0  0  0  0  0  0  0  0  0  0  0  0
   11.5850    4.2240  -59.1830 C   0  0  1  0  0  0  0  0  0  0  0  0
   11.6730    2.6600  -59.1700 C   0  0  0  0  0  0  0  0  0  0  0  0
   11.1660    2.2300  -57.7820 C   0  0  2  0  0  0  0  0  0  0  0  0
    9.7810    1.5840  -57.5930 C   0  0  0  0  0  0  0  0  0  0  0  0
   10.2210    4.5640  -59.7330 N   0  0  0  0  0  0  0  0  0  0  0  0
    9.2730    5.3710  -59.0890 C   0  0  0  0  0  0  0  0  0  0  0  0
    9.3650    6.5720  -58.9130 O   0  0  0  0  0  0  0  0  0  0  0  0
    7.1072   -3.0024  -50.4402 H   0  0  0  0  0  0  0  0  0  0  0  0
    8.4973   -1.9574  -50.8898 H   0  0  0  0  0  0  0  0  0  0  0  0
    6.8315   -1.2853  -50.8898 H   0  0  0  0  0  0  0  0  0  0  0  0
    9.9382   -3.1253  -52.5806 H   0  0  0  0  0  0  0  0  0  0  0  0
    9.5537   -3.6315  -54.2233 H   0  0  0  0  0  0  0  0  0  0  0  0
   10.8706   -1.0438  -53.2519 H   0  0  0  0  0  0  0  0  0  0  0  0
   11.3304   -2.0030  -54.6379 H   0  0  0  0  0  0  0  0  0  0  0  0
    9.8542    0.2029  -55.0510 H   0  0  0  0  0  0  0  0  0  0  0  0
    9.3554   -1.2256  -55.9331 H   0  0  0  0  0  0  0  0  0  0  0  0
    8.1189   -0.0292  -53.3560 H   0  0  0  0  0  0  0  0  0  0  0  0
    7.1451   -1.1025  -55.9496 H   0  0  0  0  0  0  0  0  0  0  0  0
    6.1057   -1.1048  -54.4492 H   0  0  0  0  0  0  0  0  0  0  0  0
    5.7577    1.1010  -54.5358 H   0  0  0  0  0  0  0  0  0  0  0  0
    7.5000    1.4341  -54.9432 H   0  0  0  0  0  0  0  0  0  0  0  0
    6.6987    0.3852  -57.2712 H   0  0  0  0  0  0  0  0  0  0  0  0
    5.1240    1.1549  -56.6377 H   0  0  0  0  0  0  0  0  0  0  0  0
    5.7642    3.0791  -56.7844 H   0  0  0  0  0  0  0  0  0  0  0  0
    6.7596    0.5468  -60.2514 H   0  0  0  0  0  0  0  0  0  0  0  0
    4.9626   -0.6285  -61.5177 H   0  0  0  0  0  0  0  0  0  0  0  0
    2.6214    0.2310  -61.4552 H   0  0  0  0  0  0  0  0  0  0  0  0
    2.0765    2.2644  -60.1176 H   0  0  0  0  0  0  0  0  0  0  0  0
    3.8701    3.4454  -58.8530 H   0  0  0  0  0  0  0  0  0  0  0  0
    6.7901    5.2556  -60.8176 H   0  0  0  0  0  0  0  0  0  0  0  0
    8.0509    4.0703  -61.2992 H   0  0  0  0  0  0  0  0  0  0  0  0
    6.3200    3.5902  -61.2992 H   0  0  0  0  0  0  0  0  0  0  0  0
    8.7266    1.5636  -55.5993 H   0  0  0  0  0  0  0  0  0  0  0  0
    9.9515    4.0505  -55.2070 H   0  0  0  0  0  0  0  0  0  0  0  0
   10.9630    2.6709  -55.0117 H   0  0  0  0  0  0  0  0  0  0  0  0
   10.3509    4.4382  -56.9941 H   0  0  0  0  0  0  0  0  0  0  0  0
   11.6204    5.5783  -57.3958 H   0  0  0  0  0  0  0  0  0  0  0  0
   12.9501    4.4923  -57.3644 H   0  0  0  0  0  0  0  0  0  0  0  0
   12.2652    4.8168  -59.8121 H   0  0  0  0  0  0  0  0  0  0  0  0
   11.0381    2.2329  -59.9603 H   0  0  0  0  0  0  0  0  0  0  0  0
   12.6983    2.3079  -59.3565 H   0  0  0  0  0  0  0  0  0  0  0  0
   11.8965    1.4682  -57.4721 H   0  0  0  0  0  0  0  0  0  0  0  0
    9.1607    1.7493  -58.4862 H   0  0  0  0  0  0  0  0  0  0  0  0
    9.8685    0.4978  -57.4429 H   0  0  0  0  0  0  0  0  0  0  0  0
    9.7810    3.7200  -60.0750 H   0  0  0  0  0  0  0  0  0  0  0  0
  1  2  1  0
  2  3  2  0
  2  4  1  0
  4  5  1  0
  5  6  1  0
  6  7  1  0
  7  8  1  0
  8  9  1  0
  9 10  1  0
 10 11  1  0
 11 12  1  0
 12 13  1  0
 13 14  1  0
 14 15  2  0
 15 16  1  0
 16 17  2  0
 17 18  1  0
 18 19  2  0
 13 20  2  0
 20 21  1  0
 20 22  1  0
 22 23  2  0
 23 24  1  0
 24 25  1  0
 25 26  1  0
 26 27  1  0
 27 28  1  0
 28 29  1  0
 29 30  1  0
 30 31  1  0
 31 32  1  0
 29 33  1  0
 33 34  1  0
 34 35  2  0
  8  4  1  0
 24 12  1  0
 32 25  1  0
 19 14  1  0
 34 22  1  0
 31 27  1  0
  1 36  1  0
  1 37  1  0
  1 38  1  0
  5 39  1  0
  5 40  1  0
  6 41  1  0
  6 42  1  0
  7 43  1  0
  7 44  1  0
  8 45  1  1
  9 46  1  0
  9 47  1  0
 10 48  1  0
 10 49  1  0
 11 50  1  0
 11 51  1  0
 12 52  1  1
 15 53  1  0
 16 54  1  0
 17 55  1  0
 18 56  1  0
 19 57  1  0
 21 58  1  0
 21 59  1  0
 21 60  1  0
 25 61  1  6
 26 62  1  0
 26 63  1  0
 27 64  1  6
 28 65  1  0
 28 66  1  0
 29 67  1  1
 30 68  1  0
 30 69  1  0
 31 70  1  1
 32 71  1  0
 32 72  1  0
 33 73  1  0
M  END
>  <meeko>  (58) 
{"is_sidechain": false}

$$$$

     RDKit          3D

 73 78  0  0  0  0  0  0  0  0999 V2000
    9.1600   -2.9850  -52.1630 C   0  0  0  0  0  0  0  0  0  0  0  0
    8.7360   -3.2510  -53.5850 C   0  0  0  0  0  0  0  0  0  0  0  0
    7.5460   -3.2350  -53.8940 O   0  0  0  0  0  0  0  0  0  0  0  0
    9.7470   -3.5000  -54.4910 N   0  0  0  0  0  0  0  0  0  0  0  0
    9.6800   -4.4670  -55.5770 C   0  0  0  0  0  0  0  0  0  0  0  0
   11.1190   -4.9180  -55.7670 C   0  0  0  0  0  0  0  0  0  0  0  0
   11.9060   -3.6590  -55.4410 C   0  0  0  0  0  0  0  0  0  0  0  0
   11.1240   -3.0390  -54.2740 C   0  0  1  0  0  0  0  0  0  0  0  0
   11.2560   -1.5070  -54.2320 C   0  0  0  0  0  0  0  0  0  0  0  0
   11.7590   -0.9200  -55.5530 C   0  0  0  0  0  0  0  0  0  0  0  0
   10.6380   -0.4490  -56.4850 C   0  0  0  0  0  0  0  0  0  0  0  0
   10.0460    0.9550  -56.2230 C   0  0  2  0  0  0  0  0  0  0  0  0
    8.5140    1.0200  -56.3120 C   0  0  0  0  0  0  0  0  0  0  0  0
    7.7740    0.5790  -55.1110 C   0  0  0  0  0  0  0  0  0  0  0  0
    8.3630    0.6610  -53.8420 C   0  0  0  0  0  0  0  0  0  0  0  0
    7.6570    0.2590  -52.7060 C   0  0  0  0  0  0  0  0  0  0  0  0
    6.3560   -0.2240  -52.8270 C   0  0  0  0  0  0  0  0  0  0  0  0
    5.7580   -0.3070  -54.0820 C   0  0  0  0  0  0  0  0  0  0  0  0
    6.4630    0.0940  -55.2190 C   0  0  0  0  0  0  0  0  0  0  0  0
    7.8480    1.5350  -57.3750 C   0  0  0  0  0  0  0  0  0  0  0  0
    6.3690    1.7310  -57.5320 C   0  0  0  0  0  0  0  0  0  0  0  0
    8.7260    2.0120  -58.5010 C   0  0  0  0  0  0  0  0  0  0  0  0
   10.0310    1.9320  -58.4840 N   0  0  0  0  0  0  0  0  0  0  0  0
   10.6360    1.8770  -57.2210 N   0  0  0  0  0  0  0  0  0  0  0  0
   11.3590    3.1610  -56.7510 C   0  0  2  0  0  0  0  0  0  0  0  0
   10.3850    4.2000  -56.1120 C   0  0  0  0  0  0  0  0  0  0  0  0
    9.5850    4.5450  -57.3410 C   0  0  1  0  0  0  0  0  0  0  0  0
    8.5880    5.6160  -57.6570 C   0  0  0  0  0  0  0  0  0  0  0  0
    8.6400    5.5020  -59.1960 C   0  0  1  0  0  0  0  0  0  0  0  0
   10.1730    5.6330  -59.4260 C   0  0  0  0  0  0  0  0  0  0  0  0
   10.5900    4.5050  -58.5330 C   0  0  1  0  0  0  0  0  0  0  0  0
   11.8990    4.0430  -57.9290 C   0  0  0  0  0  0  0  0  0  0  0  0
    8.0200    4.2210  -59.7970 N   0  0  0  0  0  0  0  0  0  0  0  0
    8.0600    2.8080  -59.6750 C   0  0  0  0  0  0  0  0  0  0  0  0
    7.4740    2.1430  -60.5310 O   0  0  0  0  0  0  0  0  0  0  0  0
    8.4344   -3.4402  -51.4728 H   0  0  0  0  0  0  0  0  0  0  0  0
   10.1548   -3.4212  -51.9893 H   0  0  0  0  0  0  0  0  0  0  0  0
    9.2002   -1.8995  -51.9893 H   0  0  0  0  0  0  0  0  0  0  0  0
    9.0381   -5.3172  -55.3028 H   0  0  0  0  0  0  0  0  0  0  0  0
    9.2487   -4.0398  -56.4943 H   0  0  0  0  0  0  0  0  0  0  0  0
   11.3735   -5.7355  -55.0764 H   0  0  0  0  0  0  0  0  0  0  0  0
   11.3244   -5.3147  -56.7722 H   0  0  0  0  0  0  0  0  0  0  0  0
   12.9343   -3.9056  -55.1381 H   0  0  0  0  0  0  0  0  0  0  0  0
   12.0025   -2.9796  -56.3007 H   0  0  0  0  0  0  0  0  0  0  0  0
   11.5068   -3.3497  -53.2907 H   0  0  0  0  0  0  0  0  0  0  0  0
   10.2695   -1.0750  -54.0082 H   0  0  0  0  0  0  0  0  0  0  0  0
   11.9950   -1.2588  -53.4559 H   0  0  0  0  0  0  0  0  0  0  0  0
   12.4064   -0.0600  -55.3265 H   0  0  0  0  0  0  0  0  0  0  0  0
   12.2963   -1.7238  -56.0776 H   0  0  0  0  0  0  0  0  0  0  0  0
   11.0358   -0.4546  -57.5106 H   0  0  0  0  0  0  0  0  0  0  0  0
    9.8065   -1.1461  -56.3042 H   0  0  0  0  0  0  0  0  0  0  0  0
   10.2942    1.2344  -55.1884 H   0  0  0  0  0  0  0  0  0  0  0  0
    9.3888    1.0448  -53.7399 H   0  0  0  0  0  0  0  0  0  0  0  0
    8.1289    0.3239  -51.7145 H   0  0  0  0  0  0  0  0  0  0  0  0
    5.8010   -0.5398  -51.9313 H   0  0  0  0  0  0  0  0  0  0  0  0
    4.7307   -0.6883  -54.1777 H   0  0  0  0  0  0  0  0  0  0  0  0
    5.9855    0.0287  -56.2078 H   0  0  0  0  0  0  0  0  0  0  0  0
    5.8999    1.7932  -56.5390 H   0  0  0  0  0  0  0  0  0  0  0  0
    6.1793    2.6621  -58.0861 H   0  0  0  0  0  0  0  0  0  0  0  0
    5.9433    0.8814  -58.0861 H   0  0  0  0  0  0  0  0  0  0  0  0
   12.1307    2.7497  -56.0836 H   0  0  0  0  0  0  0  0  0  0  0  0
    9.7613    3.7527  -55.3240 H   0  0  0  0  0  0  0  0  0  0  0  0
   10.8621    5.0486  -55.5999 H   0  0  0  0  0  0  0  0  0  0  0  0
    8.7904    3.8262  -57.0921 H   0  0  0  0  0  0  0  0  0  0  0  0
    7.5896    5.3890  -57.2549 H   0  0  0  0  0  0  0  0  0  0  0  0
    8.7958    6.6112  -57.2371 H   0  0  0  0  0  0  0  0  0  0  0  0
    8.0236    6.2536  -59.7109 H   0  0  0  0  0  0  0  0  0  0  0  0
   10.4567    5.4655  -60.4755 H   0  0  0  0  0  0  0  0  0  0  0  0
   10.6194    6.6164  -59.2172 H   0  0  0  0  0  0  0  0  0  0  0  0
   10.6762    3.8021  -59.3748 H   0  0  0  0  0  0  0  0  0  0  0  0
   12.4919    3.4522  -58.6427 H   0  0  0  0  0  0  0  0  0  0  0  0
   12.5810    4.8516  -57.6274 H   0  0  0  0  0  0  0  0  0  0  0  0
    7.5460    4.4210  -60.6690 H   0  0  0  0  0  0  0  0  0  0  0  0
  1  2  1  0
  2  3  2  0
  2  4  1  0
  4  5  1  0
  5  6  1  0
  6  7  1  0
  7  8  1  0
  8  9  1  0
  9 10  1  0
 10 11  1  0
 11 12  1  0
 12 13  1  0
 13 14  1  0
 14 15  2  0
 15 16  1  0
 16 17  2  0
 17 18  1  0
 18 19  2  0
 13 20  2  0
 20 21  1  0
 20 22  1  0
 22 23  2  0
 23 24  1  0
 24 25  1  0
 25 26  1  0
 26 27  1  0
 27 28  1  0
 28 29  1  0
 29 30  1  0
 30 31  1  0
 31 32  1  0
 29 33  1  0
 33 34  1  0
 34 35  2  0
  8  4  1  0
 24 12  1  0
 32 25  1  0
 19 14  1  0
 34 22  1  0
 31 27  1  0
  1 36  1  0
  1 37  1  0
  1 38  1  0
  5 39  1  0
  5 40  1  0
  6 41  1  0
  6 42  1  0
  7 43  1  0
  7 44  1  0
  8 45  1  1
  9 46  1  0
  9 47  1  0
 10 48  1  0
 10 49  1  0
 11 50  1  0
 11 51  1  0
 12 52  1  1
 15 53  1  0
 16 54  1  0
 17 55  1  0
 18 56  1  0
 19 57  1  0
 21 58  1  0
 21 59  1  0
 21 60  1  0
 25 61  1  1
 26 62  1  0
 26 63  1  0
 27 64  1  6
 28 65  1  0
 28 66  1  0
 29 67  1  6
 30 68  1  0
 30 69  1  0
 31 70  1  6
 32 71  1  0
 32 72  1  0
 33 73  1  0
M  END
>  <meeko>  (59) 
{"is_sidechain": false}

$$$$

     RDKit          3D

 73 78  0  0  0  0  0  0  0  0999 V2000
    7.7840   -2.2910  -50.6880 C   0  0  0  0  0  0  0  0  0  0  0  0
    7.3000   -2.5270  -52.0950 C   0  0  0  0  0  0  0  0  0  0  0  0
    6.2810   -3.1930  -52.2880 O   0  0  0  0  0  0  0  0  0  0  0  0
    8.0230   -1.9760  -53.1320 N   0  0  0  0  0  0  0  0  0  0  0  0
    9.0000   -2.7910  -53.8340 C   0  0  0  0  0  0  0  0  0  0  0  0
   10.0480   -1.7940  -54.2910 C   0  0  0  0  0  0  0  0  0  0  0  0
    9.2100   -0.5710  -54.6260 C   0  0  0  0  0  0  0  0  0  0  0  0
    8.1130   -0.5680  -53.5460 C   0  0  1  0  0  0  0  0  0  0  0  0
    6.7900   -0.0040  -54.0910 C   0  0  0  0  0  0  0  0  0  0  0  0
    6.7000    0.0750  -55.6210 C   0  0  0  0  0  0  0  0  0  0  0  0
    6.5910    1.5140  -56.1410 C   0  0  0  0  0  0  0  0  0  0  0  0
    7.4460    1.7580  -57.4070 C   0  0  1  0  0  0  0  0  0  0  0  0
    6.8370    2.7940  -58.3500 C   0  0  0  0  0  0  0  0  0  0  0  0
    5.6770    2.3130  -59.1250 C   0  0  0  0  0  0  0  0  0  0  0  0
    5.8610    1.4900  -60.2460 C   0  0  0  0  0  0  0  0  0  0  0  0
    4.7600    1.0430  -60.9770 C   0  0  0  0  0  0  0  0  0  0  0  0
    3.4710    1.4080  -60.5920 C   0  0  0  0  0  0  0  0  0  0  0  0
    3.2800    2.2200  -59.4740 C   0  0  0  0  0  0  0  0  0  0  0  0
    4.3790    2.6700  -58.7410 C   0  0  0  0  0  0  0  0  0  0  0  0
    7.3230    4.0430  -58.5430 C   0  0  0  0  0  0  0  0  0  0  0  0
    6.7580    5.0800  -59.4650 C   0  0  0  0  0  0  0  0  0  0  0  0
    8.5350    4.3810  -57.7210 C   0  0  0  0  0  0  0  0  0  0  0  0
    9.0280    3.5740  -56.8140 N   0  0  0  0  0  0  0  0  0  0  0  0
    8.7910    2.1850  -56.9770 N   0  0  0  0  0  0  0  0  0  0  0  0
   10.0140    1.2760  -57.3470 C   0  0  2  0  0  0  0  0  0  0  0  0
   11.3420    1.6430  -56.6000 C   0  0  0  0  0  0  0  0  0  0  0  0
   11.5980    2.9940  -57.2180 C   0  0  1  0  0  0  0  0  0  0  0  0
   12.7410    3.9730  -57.3330 C   0  0  0  0  0  0  0  0  0  0  0  0
   12.0590    4.9570  -58.3560 C   0  0  1  0  0  0  0  0  0  0  0  0
   11.7660    3.9180  -59.4830 C   0  0  0  0  0  0  0  0  0  0  0  0
   11.0120    2.9060  -58.6610 C   0  0  1  0  0  0  0  0  0  0  0  0
   10.5080    1.4960  -58.8170 C   0  0  0  0  0  0  0  0  0  0  0  0
   10.8180    5.6030  -57.6930 N   0  0  0  0  0  0  0  0  0  0  0  0
    9.5120    5.5760  -58.2280 C   0  0  0  0  0  0  0  0  0  0  0  0
    9.1840    6.3370  -59.1270 O   0  0  0  0  0  0  0  0  0  0  0  0
    7.0312   -2.6581  -49.9749 H   0  0  0  0  0  0  0  0  0  0  0  0
    8.7307   -2.8286  -50.5309 H   0  0  0  0  0  0  0  0  0  0  0  0
    7.9435   -1.2140  -50.5309 H   0  0  0  0  0  0  0  0  0  0  0  0
    9.4407   -3.5405  -53.1602 H   0  0  0  0  0  0  0  0  0  0  0  0
    8.5594   -3.3553  -54.6691 H   0  0  0  0  0  0  0  0  0  0  0  0
   10.7670   -1.5759  -53.4876 H   0  0  0  0  0  0  0  0  0  0  0  0
   10.6587   -2.1526  -55.1327 H   0  0  0  0  0  0  0  0  0  0  0  0
    9.8157    0.3456  -54.5714 H   0  0  0  0  0  0  0  0  0  0  0  0
    8.8010   -0.6031  -55.6466 H   0  0  0  0  0  0  0  0  0  0  0  0
    8.3433    0.0859  -52.6919 H   0  0  0  0  0  0  0  0  0  0  0  0
    5.9721   -0.6470  -53.7338 H   0  0  0  0  0  0  0  0  0  0  0  0
    6.7233    1.0313  -53.7252 H   0  0  0  0  0  0  0  0  0  0  0  0
    7.6025   -0.3853  -56.0495 H   0  0  0  0  0  0  0  0  0  0  0  0
    5.7853   -0.4550  -55.9248 H   0  0  0  0  0  0  0  0  0  0  0  0
    5.5381    1.7222  -56.3820 H   0  0  0  0  0  0  0  0  0  0  0  0
    6.9676    2.1817  -55.3521 H   0  0  0  0  0  0  0  0  0  0  0  0
    7.4919    0.8189  -57.9780 H   0  0  0  0  0  0  0  0  0  0  0  0
    6.8766    1.1962  -60.5496 H   0  0  0  0  0  0  0  0  0  0  0  0
    4.9093    0.4018  -61.8582 H   0  0  0  0  0  0  0  0  0  0  0  0
    2.6040    1.0556  -61.1701 H   0  0  0  0  0  0  0  0  0  0  0  0
    2.2623    2.5059  -59.1699 H   0  0  0  0  0  0  0  0  0  0  0  0
    4.2247    3.3077  -57.8581 H   0  0  0  0  0  0  0  0  0  0  0  0
    6.3144    5.8942  -58.8732 H   0  0  0  0  0  0  0  0  0  0  0  0
    7.5611    5.4833  -60.0994 H   0  0  0  0  0  0  0  0  0  0  0  0
    5.9837    4.6239  -60.0994 H   0  0  0  0  0  0  0  0  0  0  0  0
    9.6140    0.2789  -57.1109 H   0  0  0  0  0  0  0  0  0  0  0  0
   11.1978    1.7085  -55.5115 H   0  0  0  0  0  0  0  0  0  0  0  0
   12.1591    0.9139  -56.7041 H   0  0  0  0  0  0  0  0  0  0  0  0
   11.2641    3.4732  -56.2859 H   0  0  0  0  0  0  0  0  0  0  0  0
   12.9747    4.4597  -56.3746 H   0  0  0  0  0  0  0  0  0  0  0  0
   13.7148    3.5561  -57.6296 H   0  0  0  0  0  0  0  0  0  0  0  0
   12.6179    5.8345  -58.7134 H   0  0  0  0  0  0  0  0  0  0  0  0
   11.1476    4.3423  -60.2877 H   0  0  0  0  0  0  0  0  0  0  0  0
   12.6456    3.5364  -60.0222 H   0  0  0  0  0  0  0  0  0  0  0  0
   10.0846    3.2626  -59.1330 H   0  0  0  0  0  0  0  0  0  0  0  0
    9.6881    1.4251  -59.5469 H   0  0  0  0  0  0  0  0  0  0  0  0
   11.2352    0.7630  -59.1963 H   0  0  0  0  0  0  0  0  0  0  0  0
   10.7660    5.3600  -56.7110 H   0  0  0  0  0  0  0  0  0  0  0  0
  1  2  1  0
  2  3  2  0
  2  4  1  0
  4  5  1  0
  5  6  1  0
  6  7  1  0
  7  8  1  0
  8  9  1  0
  9 10  1  0
 10 11  1  0
 11 12  1  0
 12 13  1  0
 13 14  1  0
 14 15  2  0
 15 16  1  0
 16 17  2  0
 17 18  1  0
 18 19  2  0
 13 20  2  0
 20 21  1  0
 20 22  1  0
 22 23  2  0
 23 24  1  0
 24 25  1  0
 25 26  1  0
 26 27  1  0
 27 28  1  0
 28 29  1  0
 29 30  1  0
 30 31  1  0
 31 32  1  0
 29 33  1  0
 33 34  1  0
 34 35  2  0
  8  4  1  0
 24 12  1  0
 32 25  1  0
 19 14  1  0
 34 22  1  0
 31 27  1  0
  1 36  1  0
  1 37  1  0
  1 38  1  0
  5 39  1  0
  5 40  1  0
  6 41  1  0
  6 42  1  0
  7 43  1  0
  7 44  1  0
  8 45  1  1
  9 46  1  0
  9 47  1  0
 10 48  1  0
 10 49  1  0
 11 50  1  0
 11 51  1  0
 12 52  1  6
 15 53  1  0
 16 54  1  0
 17 55  1  0
 18 56  1  0
 19 57  1  0
 21 58  1  0
 21 59  1  0
 21 60  1  0
 25 61  1  6
 26 62  1  0
 26 63  1  0
 27 64  1  1
 28 65  1  0
 28 66  1  0
 29 67  1  6
 30 68  1  0
 30 69  1  0
 31 70  1  1
 32 71  1  0
 32 72  1  0
 33 73  1  0
M  END
>  <meeko>  (60) 
{"is_sidechain": false}

$$$$

     RDKit          3D

 73 78  0  0  0  0  0  0  0  0999 V2000
    3.0210    1.9910  -60.8380 C   0  0  0  0  0  0  0  0  0  0  0  0
    4.3610    1.3000  -60.8150 C   0  0  0  0  0  0  0  0  0  0  0  0
    4.4340    0.0800  -60.6750 O   0  0  0  0  0  0  0  0  0  0  0  0
    5.4730    2.1060  -60.9640 N   0  0  0  0  0  0  0  0  0  0  0  0
    5.9490    2.6440  -62.2290 C   0  0  0  0  0  0  0  0  0  0  0  0
    7.4590    2.6860  -62.0670 C   0  0  0  0  0  0  0  0  0  0  0  0
    7.6260    3.0070  -60.5890 C   0  0  0  0  0  0  0  0  0  0  0  0
    6.4940    2.2190  -59.9150 C   0  0  1  0  0  0  0  0  0  0  0  0
    5.9650    2.9000  -58.6390 C   0  0  0  0  0  0  0  0  0  0  0  0
    6.9790    2.9630  -57.4880 C   0  0  0  0  0  0  0  0  0  0  0  0
    7.4140    1.5850  -56.9680 C   0  0  0  0  0  0  0  0  0  0  0  0
    8.5010    1.6070  -55.8670 C   0  0  2  0  0  0  0  0  0  0  0  0
    9.8880    1.1810  -56.4150 C   0  0  0  0  0  0  0  0  0  0  0  0
   10.4670    2.0980  -57.4250 C   0  0  0  0  0  0  0  0  0  0  0  0
   10.2150    1.8840  -58.7870 C   0  0  0  0  0  0  0  0  0  0  0  0
   10.7680    2.7270  -59.7520 C   0  0  0  0  0  0  0  0  0  0  0  0
   11.5780    3.7940  -59.3670 C   0  0  0  0  0  0  0  0  0  0  0  0
   11.8310    4.0220  -58.0160 C   0  0  0  0  0  0  0  0  0  0  0  0
   11.2770    3.1800  -57.0490 C   0  0  0  0  0  0  0  0  0  0  0  0
   10.5690    0.0800  -56.0080 C   0  0  0  0  0  0  0  0  0  0  0  0
   11.9020   -0.4300  -56.4520 C   0  0  0  0  0  0  0  0  0  0  0  0
    9.9340   -0.6090  -54.8730 C   0  0  0  0  0  0  0  0  0  0  0  0
    8.9580   -0.1410  -54.1840 N   0  0  0  0  0  0  0  0  0  0  0  0
    8.1480    0.8420  -54.6490 N   0  0  0  0  0  0  0  0  0  0  0  0
    6.7550    0.7500  -54.0200 C   0  0  2  0  0  0  0  0  0  0  0  0
    6.9240    0.1520  -52.5820 C   0  0  0  0  0  0  0  0  0  0  0  0
    6.8660   -1.3770  -52.7940 C   0  0  2  0  0  0  0  0  0  0  0  0
    8.0420   -2.3220  -52.4980 C   0  0  0  0  0  0  0  0  0  0  0  0
    8.1200   -3.2710  -53.7390 C   0  0  1  0  0  0  0  0  0  0  0  0
    6.6810   -3.0810  -54.4080 C   0  0  0  0  0  0  0  0  0  0  0  0
    6.6050   -1.5810  -54.2890 C   0  0  1  0  0  0  0  0  0  0  0  0
    5.7960   -0.3630  -54.6460 C   0  0  0  0  0  0  0  0  0  0  0  0
    9.2130   -2.9490  -54.7320 N   0  0  0  0  0  0  0  0  0  0  0  0
   10.2610   -2.0560  -54.4410 C   0  0  0  0  0  0  0  0  0  0  0  0
   11.2980   -2.3370  -53.8650 O   0  0  0  0  0  0  0  0  0  0  0  0
    2.6811    2.1663  -59.8066 H   0  0  0  0  0  0  0  0  0  0  0  0
    3.1138    2.9537  -61.3621 H   0  0  0  0  0  0  0  0  0  0  0  0
    2.2905    1.3571  -61.3621 H   0  0  0  0  0  0  0  0  0  0  0  0
    5.6637    1.9881  -63.0647 H   0  0  0  0  0  0  0  0  0  0  0  0
    5.5205    3.6312  -62.4567 H   0  0  0  0  0  0  0  0  0  0  0  0
    7.9122    1.7151  -62.3161 H   0  0  0  0  0  0  0  0  0  0  0  0
    7.9499    3.4131  -62.7306 H   0  0  0  0  0  0  0  0  0  0  0  0
    8.6082    2.6727  -60.2236 H   0  0  0  0  0  0  0  0  0  0  0  0
    7.5780    4.0857  -60.3791 H   0  0  0  0  0  0  0  0  0  0  0  0
    6.8310    1.2369  -59.5517 H   0  0  0  0  0  0  0  0  0  0  0  0
    5.6701    3.9284  -58.8947 H   0  0  0  0  0  0  0  0  0  0  0  0
    5.1226    2.2890  -58.2827 H   0  0  0  0  0  0  0  0  0  0  0  0
    7.8726    3.4978  -57.8422 H   0  0  0  0  0  0  0  0  0  0  0  0
    6.4830    3.4784  -56.6524 H   0  0  0  0  0  0  0  0  0  0  0  0
    6.5263    1.0803  -56.5591 H   0  0  0  0  0  0  0  0  0  0  0  0
    7.8612    1.0630  -57.8268 H   0  0  0  0  0  0  0  0  0  0  0  0
    8.5618    2.6587  -55.5504 H   0  0  0  0  0  0  0  0  0  0  0  0
    9.5759    1.0445  -59.0980 H   0  0  0  0  0  0  0  0  0  0  0  0
   10.5643    2.5491  -60.8182 H   0  0  0  0  0  0  0  0  0  0  0  0
   12.0169    4.4551  -60.1288 H   0  0  0  0  0  0  0  0  0  0  0  0
   12.4674    4.8656  -57.7107 H   0  0  0  0  0  0  0  0  0  0  0  0
   11.4775    3.3668  -55.9837 H   0  0  0  0  0  0  0  0  0  0  0  0
   12.5167   -0.6652  -55.5706 H   0  0  0  0  0  0  0  0  0  0  0  0
   11.7642   -1.3389  -57.0561 H   0  0  0  0  0  0  0  0  0  0  0  0
   12.4061    0.3388  -57.0561 H   0  0  0  0  0  0  0  0  0  0  0  0
    6.3404    1.7624  -54.1345 H   0  0  0  0  0  0  0  0  0  0  0  0
    7.8902    0.4486  -52.1479 H   0  0  0  0  0  0  0  0  0  0  0  0
    6.1511    0.5089  -51.8854 H   0  0  0  0  0  0  0  0  0  0  0  0
    6.1232   -1.6613  -52.0341 H   0  0  0  0  0  0  0  0  0  0  0  0
    8.9768   -1.7530  -52.3869 H   0  0  0  0  0  0  0  0  0  0  0  0
    7.8991   -2.8787  -51.5601 H   0  0  0  0  0  0  0  0  0  0  0  0
    8.3683   -4.2972  -53.4304 H   0  0  0  0  0  0  0  0  0  0  0  0
    6.6577   -3.4197  -55.4543 H   0  0  0  0  0  0  0  0  0  0  0  0
    5.8543   -3.6484  -53.9555 H   0  0  0  0  0  0  0  0  0  0  0  0
    7.0794   -1.5014  -55.2782 H   0  0  0  0  0  0  0  0  0  0  0  0
    5.6805   -0.2464  -55.7337 H   0  0  0  0  0  0  0  0  0  0  0  0
    4.7572   -0.3567  -54.2843 H   0  0  0  0  0  0  0  0  0  0  0  0
    8.7850   -2.6820  -55.6080 H   0  0  0  0  0  0  0  0  0  0  0  0
  1  2  1  0
  2  3  2  0
  2  4  1  0
  4  5  1  0
  5  6  1  0
  6  7  1  0
  7  8  1  0
  8  9  1  0
  9 10  1  0
 10 11  1  0
 11 12  1  0
 12 13  1  0
 13 14  1  0
 14 15  2  0
 15 16  1  0
 16 17  2  0
 17 18  1  0
 18 19  2  0
 13 20  2  0
 20 21  1  0
 20 22  1  0
 22 23  2  0
 23 24  1  0
 24 25  1  0
 25 26  1  0
 26 27  1  0
 27 28  1  0
 28 29  1  0
 29 30  1  0
 30 31  1  0
 31 32  1  0
 29 33  1  0
 33 34  1  0
 34 35  2  0
  8  4  1  0
 24 12  1  0
 32 25  1  0
 19 14  1  0
 34 22  1  0
 31 27  1  0
  1 36  1  0
  1 37  1  0
  1 38  1  0
  5 39  1  0
  5 40  1  0
  6 41  1  0
  6 42  1  0
  7 43  1  0
  7 44  1  0
  8 45  1  1
  9 46  1  0
  9 47  1  0
 10 48  1  0
 10 49  1  0
 11 50  1  0
 11 51  1  0
 12 52  1  1
 15 53  1  0
 16 54  1  0
 17 55  1  0
 18 56  1  0
 19 57  1  0
 21 58  1  0
 21 59  1  0
 21 60  1  0
 25 61  1  6
 26 62  1  0
 26 63  1  0
 27 64  1  1
 28 65  1  0
 28 66  1  0
 29 67  1  6
 30 68  1  0
 30 69  1  0
 31 70  1  6
 32 71  1  0
 32 72  1  0
 33 73  1  0
M  END
>  <meeko>  (61) 
{"is_sidechain": false}

$$$$

     RDKit          3D

 73 78  0  0  0  0  0  0  0  0999 V2000
    9.8740   -3.4310  -54.9530 C   0  0  0  0  0  0  0  0  0  0  0  0
    9.6630   -1.9750  -54.6180 C   0  0  0  0  0  0  0  0  0  0  0  0
   10.4090   -1.1140  -55.0820 O   0  0  0  0  0  0  0  0  0  0  0  0
    8.6000   -1.6830  -53.7870 N   0  0  0  0  0  0  0  0  0  0  0  0
    8.5180   -2.0280  -52.3760 C   0  0  0  0  0  0  0  0  0  0  0  0
    7.0340   -2.2300  -52.1280 C   0  0  0  0  0  0  0  0  0  0  0  0
    6.3990   -1.2100  -53.0610 C   0  0  0  0  0  0  0  0  0  0  0  0
    7.2970   -1.2550  -54.3070 C   0  0  1  0  0  0  0  0  0  0  0  0
    7.3500    0.1020  -55.0300 C   0  0  0  0  0  0  0  0  0  0  0  0
    6.0200    0.4570  -55.7060 C   0  0  0  0  0  0  0  0  0  0  0  0
    6.1370    1.6400  -56.6830 C   0  0  0  0  0  0  0  0  0  0  0  0
    7.2720    1.4970  -57.7230 C   0  0  1  0  0  0  0  0  0  0  0  0
    6.9700    1.9520  -59.1590 C   0  0  0  0  0  0  0  0  0  0  0  0
    5.5740    1.8470  -59.6180 C   0  0  0  0  0  0  0  0  0  0  0  0
    4.6060    2.7300  -59.1250 C   0  0  0  0  0  0  0  0  0  0  0  0
    3.2830    2.6370  -59.5630 C   0  0  0  0  0  0  0  0  0  0  0  0
    2.9210    1.6590  -60.4890 C   0  0  0  0  0  0  0  0  0  0  0  0
    3.8790    0.7730  -60.9790 C   0  0  0  0  0  0  0  0  0  0  0  0
    5.2020    0.8640  -60.5450 C   0  0  0  0  0  0  0  0  0  0  0  0
    7.9480    2.3310  -60.0170 C   0  0  0  0  0  0  0  0  0  0  0  0
    7.8060    2.6710  -61.4710 C   0  0  0  0  0  0  0  0  0  0  0  0
    9.3290    2.2880  -59.4360 C   0  0  0  0  0  0  0  0  0  0  0  0
    9.6020    1.9850  -58.1960 N   0  0  0  0  0  0  0  0  0  0  0  0
    8.5610    2.1160  -57.2900 N   0  0  0  0  0  0  0  0  0  0  0  0
    8.5910    3.4190  -56.4920 C   0  0  2  0  0  0  0  0  0  0  0  0
    8.0220    4.6030  -57.3120 C   0  0  0  0  0  0  0  0  0  0  0  0
    9.2400    5.3550  -57.8360 C   0  0  2  0  0  0  0  0  0  0  0  0
    9.4490    5.5690  -59.3290 C   0  0  0  0  0  0  0  0  0  0  0  0
   10.9330    5.2030  -59.5570 C   0  0  1  0  0  0  0  0  0  0  0  0
   11.5810    5.2170  -58.1140 C   0  0  0  0  0  0  0  0  0  0  0  0
   10.4510    4.5450  -57.4040 C   0  0  1  0  0  0  0  0  0  0  0  0
   10.0370    3.9450  -56.0890 C   0  0  0  0  0  0  0  0  0  0  0  0
   11.1030    3.9280  -60.3240 N   0  0  0  0  0  0  0  0  0  0  0  0
   10.5140    2.6630  -60.3370 C   0  0  0  0  0  0  0  0  0  0  0  0
   10.9290    1.8130  -61.1220 O   0  0  0  0  0  0  0  0  0  0  0  0
    9.9583   -4.0127  -54.0232 H   0  0  0  0  0  0  0  0  0  0  0  0
    9.0199   -3.7997  -55.5400 H   0  0  0  0  0  0  0  0  0  0  0  0
   10.7976   -3.5421  -55.5400 H   0  0  0  0  0  0  0  0  0  0  0  0
    9.0778   -2.9516  -52.1670 H   0  0  0  0  0  0  0  0  0  0  0  0
    8.9522   -1.2534  -51.7268 H   0  0  0  0  0  0  0  0  0  0  0  0
    6.7237   -3.2528  -52.3878 H   0  0  0  0  0  0  0  0  0  0  0  0
    6.7449   -2.0987  -51.0748 H   0  0  0  0  0  0  0  0  0  0  0  0
    5.3662   -1.4948  -53.3103 H   0  0  0  0  0  0  0  0  0  0  0  0
    6.3331   -0.2059  -52.6167 H   0  0  0  0  0  0  0  0  0  0  0  0
    6.9214   -1.9427  -55.0790 H   0  0  0  0  0  0  0  0  0  0  0  0
    7.5928    0.8842  -54.2957 H   0  0  0  0  0  0  0  0  0  0  0  0
    8.1174    0.0338  -55.8151 H   0  0  0  0  0  0  0  0  0  0  0  0
    5.6641   -0.4227  -56.2623 H   0  0  0  0  0  0  0  0  0  0  0  0
    5.3179    0.7543  -54.9131 H   0  0  0  0  0  0  0  0  0  0  0  0
    5.1841    1.7353  -57.2241 H   0  0  0  0  0  0  0  0  0  0  0  0
    6.3753    2.5265  -56.0769 H   0  0  0  0  0  0  0  0  0  0  0  0
    7.3647    0.4016  -57.7609 H   0  0  0  0  0  0  0  0  0  0  0  0
    4.8880    3.4990  -58.3908 H   0  0  0  0  0  0  0  0  0  0  0  0
    2.5260    3.3357  -59.1773 H   0  0  0  0  0  0  0  0  0  0  0  0
    1.8787    1.5868  -60.8329 H   0  0  0  0  0  0  0  0  0  0  0  0
    3.5918    0.0014  -61.7085 H   0  0  0  0  0  0  0  0  0  0  0  0
    5.9554    0.1619  -60.9317 H   0  0  0  0  0  0  0  0  0  0  0  0
    7.3839    3.6818  -61.5717 H   0  0  0  0  0  0  0  0  0  0  0  0
    8.7938    2.6364  -61.9538 H   0  0  0  0  0  0  0  0  0  0  0  0
    7.1362    1.9442  -61.9538 H   0  0  0  0  0  0  0  0  0  0  0  0
    8.0076    3.1478  -55.5998 H   0  0  0  0  0  0  0  0  0  0  0  0
    7.4092    4.2333  -58.1474 H   0  0  0  0  0  0  0  0  0  0  0  0
    7.3737    5.2491  -56.7018 H   0  0  0  0  0  0  0  0  0  0  0  0
    9.0856    6.3669  -57.4333 H   0  0  0  0  0  0  0  0  0  0  0  0
    8.7899    4.9107  -59.9141 H   0  0  0  0  0  0  0  0  0  0  0  0
    9.2135    6.5957  -59.6458 H   0  0  0  0  0  0  0  0  0  0  0  0
   11.4522    5.9224  -60.2074 H   0  0  0  0  0  0  0  0  0  0  0  0
   12.5140    4.6363  -58.0654 H   0  0  0  0  0  0  0  0  0  0  0  0
   11.8963    6.1960  -57.7241 H   0  0  0  0  0  0  0  0  0  0  0  0
   10.9670    3.5919  -57.5920 H   0  0  0  0  0  0  0  0  0  0  0  0
   10.7028    3.1245  -55.7834 H   0  0  0  0  0  0  0  0  0  0  0  0
   10.0658    4.6304  -55.2291 H   0  0  0  0  0  0  0  0  0  0  0  0
   11.8960    3.9290  -60.9520 H   0  0  0  0  0  0  0  0  0  0  0  0
  1  2  1  0
  2  3  2  0
  2  4  1  0
  4  5  1  0
  5  6  1  0
  6  7  1  0
  7  8  1  0
  8  9  1  0
  9 10  1  0
 10 11  1  0
 11 12  1  0
 12 13  1  0
 13 14  1  0
 14 15  2  0
 15 16  1  0
 16 17  2  0
 17 18  1  0
 18 19  2  0
 13 20  2  0
 20 21  1  0
 20 22  1  0
 22 23  2  0
 23 24  1  0
 24 25  1  0
 25 26  1  0
 26 27  1  0
 27 28  1  0
 28 29  1  0
 29 30  1  0
 30 31  1  0
 31 32  1  0
 29 33  1  0
 33 34  1  0
 34 35  2  0
  8  4  1  0
 24 12  1  0
 32 25  1  0
 19 14  1  0
 34 22  1  0
 31 27  1  0
  1 36  1  0
  1 37  1  0
  1 38  1  0
  5 39  1  0
  5 40  1  0
  6 41  1  0
  6 42  1  0
  7 43  1  0
  7 44  1  0
  8 45  1  6
  9 46  1  0
  9 47  1  0
 10 48  1  0
 10 49  1  0
 11 50  1  0
 11 51  1  0
 12 52  1  6
 15 53  1  0
 16 54  1  0
 17 55  1  0
 18 56  1  0
 19 57  1  0
 21 58  1  0
 21 59  1  0
 21 60  1  0
 25 61  1  6
 26 62  1  0
 26 63  1  0
 27 64  1  1
 28 65  1  0
 28 66  1  0
 29 67  1  1
 30 68  1  0
 30 69  1  0
 31 70  1  6
 32 71  1  0
 32 72  1  0
 33 73  1  0
M  END
>  <meeko>  (62) 
{"is_sidechain": false}

$$$$

     RDKit          3D

 73 78  0  0  0  0  0  0  0  0999 V2000
   10.7810   -4.9560  -56.9930 C   0  0  0  0  0  0  0  0  0  0  0  0
   11.4590   -3.6140  -56.9080 C   0  0  0  0  0  0  0  0  0  0  0  0
   12.2060   -3.2340  -57.8110 O   0  0  0  0  0  0  0  0  0  0  0  0
   11.2070   -2.8430  -55.7930 N   0  0  0  0  0  0  0  0  0  0  0  0
   11.4980   -3.3720  -54.4700 C   0  0  0  0  0  0  0  0  0  0  0  0
   11.1550   -2.2440  -53.5110 C   0  0  0  0  0  0  0  0  0  0  0  0
   10.0630   -1.4840  -54.2560 C   0  0  0  0  0  0  0  0  0  0  0  0
   10.5150   -1.5510  -55.7220 C   0  0  1  0  0  0  0  0  0  0  0  0
   11.4550   -0.3930  -56.1100 C   0  0  0  0  0  0  0  0  0  0  0  0
   10.8060    0.9970  -56.0660 C   0  0  0  0  0  0  0  0  0  0  0  0
   11.2900    1.9170  -57.1960 C   0  0  0  0  0  0  0  0  0  0  0  0
   10.1970    2.8240  -57.8060 C   0  0  1  0  0  0  0  0  0  0  0  0
   10.4990    3.2930  -59.2280 C   0  0  0  0  0  0  0  0  0  0  0  0
   11.6310    4.2330  -59.3420 C   0  0  0  0  0  0  0  0  0  0  0  0
   12.9460    3.7530  -59.3950 C   0  0  0  0  0  0  0  0  0  0  0  0
   14.0150    4.6420  -59.5190 C   0  0  0  0  0  0  0  0  0  0  0  0
   13.7790    6.0140  -59.5890 C   0  0  0  0  0  0  0  0  0  0  0  0
   12.4740    6.5010  -59.5310 C   0  0  0  0  0  0  0  0  0  0  0  0
   11.4030    5.6150  -59.4060 C   0  0  0  0  0  0  0  0  0  0  0  0
    9.7700    2.9390  -60.3110 C   0  0  0  0  0  0  0  0  0  0  0  0
    9.9540    3.3960  -61.7230 C   0  0  0  0  0  0  0  0  0  0  0  0
    8.6710    1.9950  -59.9930 C   0  0  0  0  0  0  0  0  0  0  0  0
    8.3740    1.5300  -58.8170 N   0  0  0  0  0  0  0  0  0  0  0  0
    8.8850    2.1500  -57.7390 N   0  0  0  0  0  0  0  0  0  0  0  0
    7.8370    2.6620  -56.8240 C   0  0  1  0  0  0  0  0  0  0  0  0
    7.2640    4.0160  -57.2690 C   0  0  0  0  0  0  0  0  0  0  0  0
    5.9150    3.7580  -57.9440 C   0  0  1  0  0  0  0  0  0  0  0  0
    5.9080    3.6220  -59.4750 C   0  0  0  0  0  0  0  0  0  0  0  0
    5.4070    2.2090  -59.8410 C   0  0  2  0  0  0  0  0  0  0  0  0
    4.7040    1.7390  -58.5550 C   0  0  0  0  0  0  0  0  0  0  0  0
    5.3980    2.4440  -57.3780 C   0  0  1  0  0  0  0  0  0  0  0  0
    6.5960    1.7380  -56.7110 C   0  0  0  0  0  0  0  0  0  0  0  0
    6.4190    1.2350  -60.2510 N   0  0  0  0  0  0  0  0  0  0  0  0
    7.5200    1.6780  -60.9860 C   0  0  0  0  0  0  0  0  0  0  0  0
    7.5520    1.9070  -62.1780 O   0  0  0  0  0  0  0  0  0  0  0  0
   10.5895   -5.3350  -55.9783 H   0  0  0  0  0  0  0  0  0  0  0  0
    9.8275   -4.8516  -57.5314 H   0  0  0  0  0  0  0  0  0  0  0  0
   11.4308   -5.6616  -57.5314 H   0  0  0  0  0  0  0  0  0  0  0  0
   10.8788   -4.2573  -54.2628 H   0  0  0  0  0  0  0  0  0  0  0  0
   12.5463   -3.6913  -54.3742 H   0  0  0  0  0  0  0  0  0  0  0  0
   10.7810   -2.6378  -52.5544 H   0  0  0  0  0  0  0  0  0  0  0  0
   12.0204   -1.6169  -53.2505 H   0  0  0  0  0  0  0  0  0  0  0  0
    9.0853   -1.9703  -54.1235 H   0  0  0  0  0  0  0  0  0  0  0  0
    9.9356   -0.4531  -53.8939 H   0  0  0  0  0  0  0  0  0  0  0  0
    9.6721   -1.4595  -56.4229 H   0  0  0  0  0  0  0  0  0  0  0  0
   12.3080   -0.3958  -55.4155 H   0  0  0  0  0  0  0  0  0  0  0  0
   11.7500   -0.5670  -57.1553 H   0  0  0  0  0  0  0  0  0  0  0  0
    9.7158    0.8785  -56.1522 H   0  0  0  0  0  0  0  0  0  0  0  0
   11.0921    1.4655  -55.1127 H   0  0  0  0  0  0  0  0  0  0  0  0
   12.0856    2.5621  -56.7950 H   0  0  0  0  0  0  0  0  0  0  0  0
   11.6334    1.2576  -58.0067 H   0  0  0  0  0  0  0  0  0  0  0  0
   10.1768    3.7390  -57.1958 H   0  0  0  0  0  0  0  0  0  0  0  0
   13.1369    2.6712  -59.3387 H   0  0  0  0  0  0  0  0  0  0  0  0
   15.0454    4.2592  -59.5615 H   0  0  0  0  0  0  0  0  0  0  0  0
   14.6226    6.7126  -59.6900 H   0  0  0  0  0  0  0  0  0  0  0  0
   12.2884    7.5839  -59.5838 H   0  0  0  0  0  0  0  0  0  0  0  0
   10.3748    6.0028  -59.3574 H   0  0  0  0  0  0  0  0  0  0  0  0
   10.3648    4.4164  -61.7275 H   0  0  0  0  0  0  0  0  0  0  0  0
   10.6494    2.7184  -62.2400 H   0  0  0  0  0  0  0  0  0  0  0  0
    8.9831    3.3893  -62.2400 H   0  0  0  0  0  0  0  0  0  0  0  0
    8.3725    2.7304  -55.8656 H   0  0  0  0  0  0  0  0  0  0  0  0
    7.1254    4.6686  -56.3944 H   0  0  0  0  0  0  0  0  0  0  0  0
    7.9532    4.5121  -57.9682 H   0  0  0  0  0  0  0  0  0  0  0  0
    5.3043    4.6490  -57.7360 H   0  0  0  0  0  0  0  0  0  0  0  0
    5.2378    4.3774  -59.9112 H   0  0  0  0  0  0  0  0  0  0  0  0
    6.9228    3.7753  -59.8707 H   0  0  0  0  0  0  0  0  0  0  0  0
    4.7736    2.2717  -60.7381 H   0  0  0  0  0  0  0  0  0  0  0  0
    3.6393    2.0137  -58.5849 H   0  0  0  0  0  0  0  0  0  0  0  0
    4.7685    0.6459  -58.4502 H   0  0  0  0  0  0  0  0  0  0  0  0
    4.6442    2.5035  -56.5791 H   0  0  0  0  0  0  0  0  0  0  0  0
    6.3710    1.5467  -55.6514 H   0  0  0  0  0  0  0  0  0  0  0  0
    6.7939    0.7783  -57.2107 H   0  0  0  0  0  0  0  0  0  0  0  0
    6.8010    0.8140  -59.4040 H   0  0  0  0  0  0  0  0  0  0  0  0
  1  2  1  0
  2  3  2  0
  2  4  1  0
  4  5  1  0
  5  6  1  0
  6  7  1  0
  7  8  1  0
  8  9  1  0
  9 10  1  0
 10 11  1  0
 11 12  1  0
 12 13  1  0
 13 14  1  0
 14 15  2  0
 15 16  1  0
 16 17  2  0
 17 18  1  0
 18 19  2  0
 13 20  2  0
 20 21  1  0
 20 22  1  0
 22 23  2  0
 23 24  1  0
 24 25  1  0
 25 26  1  0
 26 27  1  0
 27 28  1  0
 28 29  1  0
 29 30  1  0
 30 31  1  0
 31 32  1  0
 29 33  1  0
 33 34  1  0
 34 35  2  0
  8  4  1  0
 24 12  1  0
 32 25  1  0
 19 14  1  0
 34 22  1  0
 31 27  1  0
  1 36  1  0
  1 37  1  0
  1 38  1  0
  5 39  1  0
  5 40  1  0
  6 41  1  0
  6 42  1  0
  7 43  1  0
  7 44  1  0
  8 45  1  6
  9 46  1  0
  9 47  1  0
 10 48  1  0
 10 49  1  0
 11 50  1  0
 11 51  1  0
 12 52  1  1
 15 53  1  0
 16 54  1  0
 17 55  1  0
 18 56  1  0
 19 57  1  0
 21 58  1  0
 21 59  1  0
 21 60  1  0
 25 61  1  1
 26 62  1  0
 26 63  1  0
 27 64  1  6
 28 65  1  0
 28 66  1  0
 29 67  1  6
 30 68  1  0
 30 69  1  0
 31 70  1  1
 32 71  1  0
 32 72  1  0
 33 73  1  0
M  END
>  <meeko>  (63) 
{"is_sidechain": false}

$$$$

     RDKit          3D

 66 71  0  0  0  0  0  0  0  0999 V2000
    2.9950    1.0710  -62.5950 C   0  0  0  0  0  0  0  0  0  0  0  0
    3.9240    0.3920  -61.7610 O   0  0  0  0  0  0  0  0  0  0  0  0
    4.3800    1.0720  -60.6640 C   0  0  0  0  0  0  0  0  0  0  0  0
    3.6640    2.0200  -59.9320 C   0  0  0  0  0  0  0  0  0  0  0  0
    4.2500    2.6440  -58.8240 C   0  0  0  0  0  0  0  0  0  0  0  0
    5.5560    2.3260  -58.4280 C   0  0  0  0  0  0  0  0  0  0  0  0
    6.1920    2.9940  -57.2250 C   0  0  0  0  0  0  0  0  0  0  0  0
    7.1510    2.1110  -56.4850 C   0  0  0  0  0  0  0  0  0  0  0  0
    6.9220    1.0240  -55.6470 C   0  0  0  0  0  0  0  0  0  0  0  0
    5.6190    0.4270  -55.2630 C   0  0  0  0  0  0  0  0  0  0  0  0
    8.2180    0.5850  -55.2490 C   0  0  0  0  0  0  0  0  0  0  0  0
    8.5880   -0.5720  -54.4080 C   0  0  0  0  0  0  0  0  0  0  0  0
    9.7110   -1.0650  -54.3870 O   0  0  0  0  0  0  0  0  0  0  0  0
    7.5290   -1.0150  -53.6420 N   0  0  0  0  0  0  0  0  0  0  0  0
    7.5830   -2.0230  -52.5920 C   0  0  2  0  0  0  0  0  0  0  0  0
    7.7490   -1.3780  -51.1950 C   0  0  0  0  0  0  0  0  0  0  0  0
    7.7510   -2.4560  -50.0970 C   0  0  1  0  0  0  0  0  0  0  0  0
    6.4200   -3.2240  -50.1360 C   0  0  0  0  0  0  0  0  0  0  0  0
    6.2400   -3.8940  -51.5070 C   0  0  2  0  0  0  0  0  0  0  0  0
    7.4020   -4.8700  -51.7530 C   0  0  0  0  0  0  0  0  0  0  0  0
    8.7380   -4.1120  -51.7240 C   0  0  2  0  0  0  0  0  0  0  0  0
    8.9090   -3.4360  -50.3520 C   0  0  0  0  0  0  0  0  0  0  0  0
    8.7360   -3.0330  -52.8220 C   0  0  0  0  0  0  0  0  0  0  0  0
    6.2480   -2.8150  -52.6020 C   0  0  0  0  0  0  0  0  0  0  0  0
    9.1760    1.3900  -55.7390 N   0  0  0  0  0  0  0  0  0  0  0  0
    8.5200    2.2630  -56.5310 N   0  0  0  0  0  0  0  0  0  0  0  0
    9.2530    3.3980  -57.1520 C   0  0  0  0  0  0  0  0  0  0  0  0
    9.4180    3.2560  -58.6140 C   0  0  0  0  0  0  0  0  0  0  0  0
   10.0090    2.2210  -59.0570 O   0  0  0  0  0  0  0  0  0  0  0  0
    8.9760    4.1980  -59.3490 O   0  0  0  0  0  0  0  0  0  0  0  0
   10.4080    4.0730  -56.4020 C   0  0  0  0  0  0  0  0  0  0  0  0
    9.1240    4.8130  -56.5800 C   0  0  0  0  0  0  0  0  0  0  0  0
    6.2710    1.3820  -59.1740 C   0  0  0  0  0  0  0  0  0  0  0  0
    5.6840    0.7610  -60.2800 C   0  0  0  0  0  0  0  0  0  0  0  0
    2.2639    1.6053  -61.9705 H   0  0  0  0  0  0  0  0  0  0  0  0
    3.5310    1.7917  -63.2300 H   0  0  0  0  0  0  0  0  0  0  0  0
    2.4710    0.3415  -63.2300 H   0  0  0  0  0  0  0  0  0  0  0  0
    2.6360    2.2779  -60.2264 H   0  0  0  0  0  0  0  0  0  0  0  0
    3.6779    3.3933  -58.2572 H   0  0  0  0  0  0  0  0  0  0  0  0
    6.7357    3.8859  -57.5696 H   0  0  0  0  0  0  0  0  0  0  0  0
    5.3789    3.2431  -56.5272 H   0  0  0  0  0  0  0  0  0  0  0  0
    5.5410    0.3913  -54.1664 H   0  0  0  0  0  0  0  0  0  0  0  0
    4.8009    1.0401  -55.6690 H   0  0  0  0  0  0  0  0  0  0  0  0
    5.5491   -0.5929  -55.6690 H   0  0  0  0  0  0  0  0  0  0  0  0
    6.7120   -0.4080  -53.7230 H   0  0  0  0  0  0  0  0  0  0  0  0
    8.7004   -0.8269  -51.1621 H   0  0  0  0  0  0  0  0  0  0  0  0
    6.9062   -0.6936  -51.0182 H   0  0  0  0  0  0  0  0  0  0  0  0
    7.8755   -1.9814  -49.1125 H   0  0  0  0  0  0  0  0  0  0  0  0
    6.4210   -3.9948  -49.3512 H   0  0  0  0  0  0  0  0  0  0  0  0
    5.5918   -2.5201  -49.9665 H   0  0  0  0  0  0  0  0  0  0  0  0
    5.2857   -4.4406  -51.5287 H   0  0  0  0  0  0  0  0  0  0  0  0
    7.4031   -5.6407  -50.9682 H   0  0  0  0  0  0  0  0  0  0  0  0
    7.2753   -5.3422  -52.7384 H   0  0  0  0  0  0  0  0  0  0  0  0
    9.5651   -4.8161  -51.8975 H   0  0  0  0  0  0  0  0  0  0  0  0
    8.9144   -4.2052  -49.5657 H   0  0  0  0  0  0  0  0  0  0  0  0
    9.8589   -2.8815  -50.3400 H   0  0  0  0  0  0  0  0  0  0  0  0
    9.6960   -2.4962  -52.8032 H   0  0  0  0  0  0  0  0  0  0  0  0
    8.5915   -3.5201  -53.7977 H   0  0  0  0  0  0  0  0  0  0  0  0
    6.1228   -3.2969  -53.5829 H   0  0  0  0  0  0  0  0  0  0  0  0
    5.4227   -2.1137  -52.4093 H   0  0  0  0  0  0  0  0  0  0  0  0
   10.6985    3.7121  -55.4043 H   0  0  0  0  0  0  0  0  0  0  0  0
   11.4617    4.2858  -56.6353 H   0  0  0  0  0  0  0  0  0  0  0  0
    8.4726    4.9955  -55.7126 H   0  0  0  0  0  0  0  0  0  0  0  0
    8.8487    5.7927  -56.9976 H   0  0  0  0  0  0  0  0  0  0  0  0
    7.3021    1.1271  -58.8879 H   0  0  0  0  0  0  0  0  0  0  0  0
    6.2573    0.0183  -60.8542 H   0  0  0  0  0  0  0  0  0  0  0  0
  1  2  1  0
  2  3  1  0
  3  4  1  0
  4  5  2  0
  5  6  1  0
  6  7  1  0
  7  8  1  0
  8  9  2  0
  9 10  1  0
  9 11  1  0
 11 12  1  0
 12 13  2  0
 12 14  1  0
 15 14  1  6
 15 16  1  0
 16 17  1  0
 17 18  1  0
 18 19  1  0
 19 20  1  0
 20 21  1  0
 21 22  1  0
 21 23  1  0
 19 24  1  0
 11 25  2  0
 25 26  1  0
 26 27  1  0
 27 28  1  0
 28 29  2  0
 28 30  1  0
 27 31  1  0
 31 32  1  0
  6 33  2  0
 33 34  1  0
 34  3  2  0
 26  8  1  0
 32 27  1  0
 23 15  1  0
 24 15  1  0
 22 17  1  0
  1 35  1  0
  1 36  1  0
  1 37  1  0
  4 38  1  0
  5 39  1  0
  7 40  1  0
  7 41  1  0
 10 42  1  0
 10 43  1  0
 10 44  1  0
 14 45  1  0
 16 46  1  0
 16 47  1  0
 17 48  1  1
 18 49  1  0
 18 50  1  0
 19 51  1  1
 20 52  1  0
 20 53  1  0
 21 54  1  6
 22 55  1  0
 22 56  1  0
 23 57  1  0
 23 58  1  0
 24 59  1  0
 24 60  1  0
 31 61  1  0
 31 62  1  0
 32 63  1  0
 32 64  1  0
 33 65  1  0
 34 66  1  0
M  CHG  1  30  -1
M  END
>  <meeko>  (64) 
{"is_sidechain": false}

$$$$

     RDKit          3D

 53 55  0  0  0  0  0  0  0  0999 V2000
    8.0970    5.7850  -59.0240 C   0  0  0  0  0  0  0  0  0  0  0  0
    9.0340    4.7390  -58.7590 O   0  0  0  0  0  0  0  0  0  0  0  0
    8.7100    3.9590  -57.6790 C   0  0  0  0  0  0  0  0  0  0  0  0
    8.3090    4.4190  -56.6170 O   0  0  0  0  0  0  0  0  0  0  0  0
    8.9380    2.4600  -58.0010 C   0  0  2  0  0  0  0  0  0  0  0  0
   10.2980    1.9830  -57.3900 C   0  0  0  0  0  0  0  0  0  0  0  0
   11.3280    3.0660  -57.0330 C   0  0  0  0  0  0  0  0  0  0  0  0
   12.2650    3.3390  -58.2150 C   0  0  0  0  0  0  0  0  0  0  0  0
   13.0680    4.6210  -58.0010 C   0  0  0  0  0  0  0  0  0  0  0  0
   13.0010    5.5340  -59.2180 C   0  0  0  0  0  0  0  0  0  0  0  0
   11.6680    5.5930  -59.7060 O   0  0  0  0  0  0  0  0  0  0  0  0
    9.0940    2.3440  -59.5700 C   0  0  0  0  0  0  0  0  0  0  0  0
    7.7910    2.2790  -60.2940 C   0  0  0  0  0  0  0  0  0  0  0  0
    6.6680    1.8570  -59.7110 C   0  0  0  0  0  0  0  0  0  0  0  0
    6.6510    1.4070  -58.3520 C   0  0  0  0  0  0  0  0  0  0  0  0
    7.6970    1.6550  -57.5340 C   0  0  0  0  0  0  0  0  0  0  0  0
    7.5910    1.1270  -56.1660 C   0  0  0  0  0  0  0  0  0  0  0  0
    6.3440    0.7900  -55.6270 C   0  0  0  0  0  0  0  0  0  0  0  0
    6.2510    0.2720  -54.3340 C   0  0  0  0  0  0  0  0  0  0  0  0
    7.4040    0.0760  -53.5760 C   0  0  0  0  0  0  0  0  0  0  0  0
    8.6530    0.3890  -54.1120 C   0  0  0  0  0  0  0  0  0  0  0  0
    8.7470    0.9050  -55.4050 C   0  0  0  0  0  0  0  0  0  0  0  0
    5.5180    1.8200  -60.6560 C   0  0  0  0  0  0  0  0  0  0  0  0
    6.0610    2.6050  -61.8560 C   0  0  0  0  0  0  0  0  0  0  0  0
    7.5900    2.5990  -61.7340 C   0  0  0  0  0  0  0  0  0  0  0  0
    7.7283    6.1966  -58.0729 H   0  0  0  0  0  0  0  0  0  0  0  0
    8.5897    6.5810  -59.6015 H   0  0  0  0  0  0  0  0  0  0  0  0
    7.2518    5.3825  -59.6015 H   0  0  0  0  0  0  0  0  0  0  0  0
   10.0696    1.4275  -56.4685 H   0  0  0  0  0  0  0  0  0  0  0  0
   10.7738    1.3920  -58.1864 H   0  0  0  0  0  0  0  0  0  0  0  0
   10.7989    3.9941  -56.7708 H   0  0  0  0  0  0  0  0  0  0  0  0
   11.9288    2.7133  -56.1818 H   0  0  0  0  0  0  0  0  0  0  0  0
   12.9609    2.4940  -58.3234 H   0  0  0  0  0  0  0  0  0  0  0  0
   11.6544    3.4586  -59.1221 H   0  0  0  0  0  0  0  0  0  0  0  0
   12.6609    5.1561  -57.1304 H   0  0  0  0  0  0  0  0  0  0  0  0
   14.1198    4.3447  -57.8356 H   0  0  0  0  0  0  0  0  0  0  0  0
   13.3305    6.5444  -58.9344 H   0  0  0  0  0  0  0  0  0  0  0  0
   13.6575    5.1359  -60.0057 H   0  0  0  0  0  0  0  0  0  0  0  0
   11.2530    4.7320  -59.5300 H   0  0  0  0  0  0  0  0  0  0  0  0
    9.6494    3.2224  -59.9306 H   0  0  0  0  0  0  0  0  0  0  0  0
    9.6250    1.4024  -59.7738 H   0  0  0  0  0  0  0  0  0  0  0  0
    5.7792    0.8549  -57.9709 H   0  0  0  0  0  0  0  0  0  0  0  0
    5.4324    0.9341  -56.2255 H   0  0  0  0  0  0  0  0  0  0  0  0
    5.2669    0.0183  -53.9131 H   0  0  0  0  0  0  0  0  0  0  0  0
    7.3289   -0.3257  -52.5547 H   0  0  0  0  0  0  0  0  0  0  0  0
    9.5635    0.2292  -53.5157 H   0  0  0  0  0  0  0  0  0  0  0  0
    9.7343    1.1390  -55.8297 H   0  0  0  0  0  0  0  0  0  0  0  0
    5.2651    0.7869  -60.9364 H   0  0  0  0  0  0  0  0  0  0  0  0
    4.5894    2.2368  -60.2387 H   0  0  0  0  0  0  0  0  0  0  0  0
    5.7541    2.1214  -62.7951 H   0  0  0  0  0  0  0  0  0  0  0  0
    5.6697    3.6330  -61.8650 H   0  0  0  0  0  0  0  0  0  0  0  0
    8.0383    1.8295  -62.3796 H   0  0  0  0  0  0  0  0  0  0  0  0
    8.0609    3.5430  -62.0458 H   0  0  0  0  0  0  0  0  0  0  0  0
  1  2  1  0
  2  3  1  0
  3  4  2  0
  3  5  1  0
  5  6  1  1
  6  7  1  0
  7  8  1  0
  8  9  1  0
  9 10  1  0
 10 11  1  0
  5 12  1  0
 12 13  1  0
 13 14  2  0
 14 15  1  0
 15 16  2  0
 16 17  1  0
 17 18  2  0
 18 19  1  0
 19 20  2  0
 20 21  1  0
 21 22  2  0
 14 23  1  0
 23 24  1  0
 24 25  1  0
 16  5  1  0
 22 17  1  0
 25 13  1  0
  1 26  1  0
  1 27  1  0
  1 28  1  0
  6 29  1  0
  6 30  1  0
  7 31  1  0
  7 32  1  0
  8 33  1  0
  8 34  1  0
  9 35  1  0
  9 36  1  0
 10 37  1  0
 10 38  1  0
 11 39  1  0
 12 40  1  0
 12 41  1  0
 15 42  1  0
 18 43  1  0
 19 44  1  0
 20 45  1  0
 21 46  1  0
 22 47  1  0
 23 48  1  0
 23 49  1  0
 24 50  1  0
 24 51  1  0
 25 52  1  0
 25 53  1  0
M  END
>  <meeko>  (65) 
{"is_sidechain": false}

$$$$

     RDKit          3D

 53 55  0  0  0  0  0  0  0  0999 V2000
    9.3120    5.5850  -56.0680 C   0  0  0  0  0  0  0  0  0  0  0  0
    8.3460    4.6890  -56.6190 O   0  0  0  0  0  0  0  0  0  0  0  0
    8.3640    4.6120  -57.9840 C   0  0  0  0  0  0  0  0  0  0  0  0
    7.9450    5.5070  -58.7100 O   0  0  0  0  0  0  0  0  0  0  0  0
    9.0060    3.2930  -58.4810 C   0  0  1  0  0  0  0  0  0  0  0  0
    9.9690    2.6810  -57.4100 C   0  0  0  0  0  0  0  0  0  0  0  0
    9.5440    1.3090  -56.8550 C   0  0  0  0  0  0  0  0  0  0  0  0
    8.8820    1.4020  -55.4740 C   0  0  0  0  0  0  0  0  0  0  0  0
    8.3310    0.0620  -54.9750 C   0  0  0  0  0  0  0  0  0  0  0  0
    6.8060    0.0330  -54.9840 C   0  0  0  0  0  0  0  0  0  0  0  0
    6.2830    1.1380  -55.7070 O   0  0  0  0  0  0  0  0  0  0  0  0
    7.8390    2.2690  -58.7350 C   0  0  0  0  0  0  0  0  0  0  0  0
    7.2920    2.2940  -60.1240 C   0  0  0  0  0  0  0  0  0  0  0  0
    7.9390    2.8400  -61.1560 C   0  0  0  0  0  0  0  0  0  0  0  0
    9.2290    3.4430  -61.0120 C   0  0  0  0  0  0  0  0  0  0  0  0
    9.7520    3.6610  -59.7890 C   0  0  0  0  0  0  0  0  0  0  0  0
   11.0790    4.2970  -59.7300 C   0  0  0  0  0  0  0  0  0  0  0  0
   11.2060    5.6800  -59.9160 C   0  0  0  0  0  0  0  0  0  0  0  0
   12.4590    6.2890  -59.8440 C   0  0  0  0  0  0  0  0  0  0  0  0
   13.5930    5.5240  -59.5740 C   0  0  0  0  0  0  0  0  0  0  0  0
   13.4720    4.1500  -59.3700 C   0  0  0  0  0  0  0  0  0  0  0  0
   12.2190    3.5390  -59.4410 C   0  0  0  0  0  0  0  0  0  0  0  0
    7.1940    2.6860  -62.4360 C   0  0  0  0  0  0  0  0  0  0  0  0
    5.8120    2.2290  -61.9540 C   0  0  0  0  0  0  0  0  0  0  0  0
    6.0000    1.6780  -60.5350 C   0  0  0  0  0  0  0  0  0  0  0  0
    9.2667    5.5429  -54.9697 H   0  0  0  0  0  0  0  0  0  0  0  0
   10.3175    5.2926  -56.4049 H   0  0  0  0  0  0  0  0  0  0  0  0
    9.0959    6.6096  -56.4049 H   0  0  0  0  0  0  0  0  0  0  0  0
   10.9623    2.5696  -57.8693 H   0  0  0  0  0  0  0  0  0  0  0  0
    9.9556    3.3737  -56.5556 H   0  0  0  0  0  0  0  0  0  0  0  0
    8.8300    0.8527  -57.5564 H   0  0  0  0  0  0  0  0  0  0  0  0
   10.4544    0.7016  -56.7442 H   0  0  0  0  0  0  0  0  0  0  0  0
    9.6294    1.7629  -54.7521 H   0  0  0  0  0  0  0  0  0  0  0  0
    8.0294    2.0908  -55.5669 H   0  0  0  0  0  0  0  0  0  0  0  0
    8.7054   -0.7410  -55.6269 H   0  0  0  0  0  0  0  0  0  0  0  0
    8.6677   -0.0789  -53.9373 H   0  0  0  0  0  0  0  0  0  0  0  0
    6.4662   -0.9003  -55.4568 H   0  0  0  0  0  0  0  0  0  0  0  0
    6.4470    0.0902  -53.9458 H   0  0  0  0  0  0  0  0  0  0  0  0
    6.7580    1.9330  -55.4060 H   0  0  0  0  0  0  0  0  0  0  0  0
    8.2186    1.2567  -58.5323 H   0  0  0  0  0  0  0  0  0  0  0  0
    7.0148    2.5580  -58.0663 H   0  0  0  0  0  0  0  0  0  0  0  0
    9.7989    3.7312  -61.9077 H   0  0  0  0  0  0  0  0  0  0  0  0
   10.3128    6.2888  -60.1199 H   0  0  0  0  0  0  0  0  0  0  0  0
   12.5525    7.3738  -60.0004 H   0  0  0  0  0  0  0  0  0  0  0  0
   14.5815    6.0037  -59.5220 H   0  0  0  0  0  0  0  0  0  0  0  0
   14.3656    3.5464  -59.1527 H   0  0  0  0  0  0  0  0  0  0  0  0
   12.1274    2.4564  -59.2689 H   0  0  0  0  0  0  0  0  0  0  0  0
    7.1315    3.6410  -62.9784 H   0  0  0  0  0  0  0  0  0  0  0  0
    7.6684    1.9881  -63.1416 H   0  0  0  0  0  0  0  0  0  0  0  0
    5.1146    3.0796  -61.9411 H   0  0  0  0  0  0  0  0  0  0  0  0
    5.3928    1.4634  -62.6234 H   0  0  0  0  0  0  0  0  0  0  0  0
    5.1799    1.9935  -59.8732 H   0  0  0  0  0  0  0  0  0  0  0  0
    6.0005    0.5791  -60.4857 H   0  0  0  0  0  0  0  0  0  0  0  0
  1  2  1  0
  2  3  1  0
  3  4  2  0
  3  5  1  0
  5  6  1  1
  6  7  1  0
  7  8  1  0
  8  9  1  0
  9 10  1  0
 10 11  1  0
  5 12  1  0
 12 13  1  0
 13 14  2  0
 14 15  1  0
 15 16  2  0
 16 17  1  0
 17 18  2  0
 18 19  1  0
 19 20  2  0
 20 21  1  0
 21 22  2  0
 14 23  1  0
 23 24  1  0
 24 25  1  0
 16  5  1  0
 22 17  1  0
 25 13  1  0
  1 26  1  0
  1 27  1  0
  1 28  1  0
  6 29  1  0
  6 30  1  0
  7 31  1  0
  7 32  1  0
  8 33  1  0
  8 34  1  0
  9 35  1  0
  9 36  1  0
 10 37  1  0
 10 38  1  0
 11 39  1  0
 12 40  1  0
 12 41  1  0
 15 42  1  0
 18 43  1  0
 19 44  1  0
 20 45  1  0
 21 46  1  0
 22 47  1  0
 23 48  1  0
 23 49  1  0
 24 50  1  0
 24 51  1  0
 25 52  1  0
 25 53  1  0
M  END
>  <meeko>  (66) 
{"is_sidechain": false}

$$$$

     RDKit          3D

 37 39  0  0  0  0  0  0  0  0999 V2000
   13.3600    4.1720  -59.1250 C   0  0  0  0  0  0  0  0  0  0  0  0
   11.8990    4.3750  -58.9850 C   0  0  0  0  0  0  0  0  0  0  0  0
   10.8920    4.1540  -59.9480 C   0  0  0  0  0  0  0  0  0  0  0  0
    9.7080    4.4900  -59.3230 C   0  0  0  0  0  0  0  0  0  0  0  0
    8.2970    4.4750  -59.8230 C   0  0  0  0  0  0  0  0  0  0  0  0
    7.4690    3.3630  -59.3110 N   0  0  0  0  0  0  0  0  0  0  0  0
    8.1940    2.4280  -58.6020 N   0  0  0  0  0  0  0  0  0  0  0  0
    7.5630    1.7580  -57.6920 C   0  0  0  0  0  0  0  0  0  0  0  0
    6.1250    1.8550  -57.2930 C   0  0  0  0  0  0  0  0  0  0  0  0
    5.1500    2.0150  -58.1980 C   0  0  0  0  0  0  0  0  0  0  0  0
    5.3640    2.1490  -59.6490 C   0  0  0  0  0  0  0  0  0  0  0  0
    4.3680    1.6380  -60.4980 C   0  0  0  0  0  0  0  0  0  0  0  0
    4.4980    1.7650  -61.8850 C   0  0  0  0  0  0  0  0  0  0  0  0
    3.4590    1.2190  -62.7670 N   0  0  0  0  0  0  0  0  0  0  0  0
    3.5740    0.0420  -63.1330 O   0  0  0  0  0  0  0  0  0  0  0  0
    2.5310    1.9720  -63.0980 O   0  0  0  0  0  0  0  0  0  0  0  0
    5.6100    2.4040  -62.4370 C   0  0  0  0  0  0  0  0  0  0  0  0
    6.5940    2.9260  -61.5920 C   0  0  0  0  0  0  0  0  0  0  0  0
    6.4930    2.8210  -60.1910 C   0  0  0  0  0  0  0  0  0  0  0  0
   10.0600    4.8660  -58.0540 N   0  0  0  0  0  0  0  0  0  0  0  0
    9.1900    5.2810  -56.9770 C   0  0  0  0  0  0  0  0  0  0  0  0
   11.3890    4.8230  -57.8330 N   0  0  0  0  0  0  0  0  0  0  0  0
   13.8186    4.1083  -58.1272 H   0  0  0  0  0  0  0  0  0  0  0  0
   13.5494    3.2389  -59.6759 H   0  0  0  0  0  0  0  0  0  0  0  0
   13.7966    5.0181  -59.6759 H   0  0  0  0  0  0  0  0  0  0  0  0
   11.0226    3.7910  -60.9781 H   0  0  0  0  0  0  0  0  0  0  0  0
    7.8195    5.4210  -59.5279 H   0  0  0  0  0  0  0  0  0  0  0  0
    8.3565    4.3398  -60.9130 H   0  0  0  0  0  0  0  0  0  0  0  0
    8.1634    1.0203  -57.1395 H   0  0  0  0  0  0  0  0  0  0  0  0
    5.8604    1.7933  -56.2271 H   0  0  0  0  0  0  0  0  0  0  0  0
    4.1138    2.0487  -57.8303 H   0  0  0  0  0  0  0  0  0  0  0  0
    3.4857    1.1379  -60.0719 H   0  0  0  0  0  0  0  0  0  0  0  0
    5.7111    2.4960  -63.5285 H   0  0  0  0  0  0  0  0  0  0  0  0
    7.4672    3.4303  -62.0314 H   0  0  0  0  0  0  0  0  0  0  0  0
    9.6668    5.0536  -56.0121 H   0  0  0  0  0  0  0  0  0  0  0  0
    9.0072    6.3633  -57.0496 H   0  0  0  0  0  0  0  0  0  0  0  0
    8.2339    4.7420  -57.0496 H   0  0  0  0  0  0  0  0  0  0  0  0
  1  2  1  0
  2  3  1  0
  3  4  2  0
  4  5  1  0
  5  6  1  0
  6  7  1  0
  7  8  2  0
  8  9  1  0
  9 10  2  0
 10 11  1  0
 11 12  1  0
 12 13  2  0
 13 14  1  0
 14 15  2  0
 14 16  1  0
 13 17  1  0
 17 18  2  0
 18 19  1  0
  4 20  1  0
 20 21  1  0
 20 22  1  0
 22  2  2  0
 19  6  1  0
 19 11  2  0
  1 23  1  0
  1 24  1  0
  1 25  1  0
  3 26  1  0
  5 27  1  0
  5 28  1  0
  8 29  1  0
  9 30  1  0
 10 31  1  0
 12 32  1  0
 17 33  1  0
 18 34  1  0
 21 35  1  0
 21 36  1  0
 21 37  1  0
M  CHG  2  14   1  16  -1
M  END
>  <meeko>  (67) 
{"is_sidechain": false}

$$$$

     RDKit          3D

 62 65  0  0  0  0  0  0  0  0999 V2000
   10.7390    2.7820  -56.7830 C   0  0  0  0  0  0  0  0  0  0  0  0
    9.4660    3.5560  -56.4760 C   0  0  0  0  0  0  0  0  0  0  0  0
    8.3690    3.2630  -57.4520 C   0  0  0  0  0  0  0  0  0  0  0  0
    8.1720    3.8720  -58.7190 C   0  0  0  0  0  0  0  0  0  0  0  0
    9.0030    4.9100  -59.4020 C   0  0  0  0  0  0  0  0  0  0  0  0
   10.1270    4.2910  -60.2370 C   0  0  0  0  0  0  0  0  0  0  0  0
   11.4990    4.8260  -59.8440 C   0  0  0  0  0  0  0  0  0  0  0  0
   11.4260    5.6410  -58.6830 O   0  0  0  0  0  0  0  0  0  0  0  0
    7.0730    3.4180  -59.3190 N   0  0  0  0  0  0  0  0  0  0  0  0
    6.5320    2.5470  -58.4410 N   0  0  0  0  0  0  0  0  0  0  0  0
    5.2910    1.8850  -58.8430 C   0  0  0  0  0  0  0  0  0  0  0  0
    5.2940    1.4950  -60.3190 C   0  0  0  0  0  0  0  0  0  0  0  0
    4.0220    2.6350  -58.4360 C   0  0  0  0  0  0  0  0  0  0  0  0
    7.2960    2.3840  -57.3080 C   0  0  0  0  0  0  0  0  0  0  0  0
    6.9780    1.5060  -56.2080 C   0  0  0  0  0  0  0  0  0  0  0  0
    5.8870    1.4930  -55.6510 O   0  0  0  0  0  0  0  0  0  0  0  0
    8.0110    0.6610  -55.8720 N   0  0  0  0  0  0  0  0  0  0  0  0
    7.9510   -0.3790  -54.8420 C   0  0  2  0  0  0  0  0  0  0  0  0
    6.7730   -1.3550  -55.0830 C   0  0  0  0  0  0  0  0  0  0  0  0
    6.7660   -2.4670  -54.0200 C   0  0  1  0  0  0  0  0  0  0  0  0
    8.0840   -3.2540  -54.0990 C   0  0  0  0  0  0  0  0  0  0  0  0
    9.2720   -2.3130  -53.8420 C   0  0  2  0  0  0  0  0  0  0  0  0
    9.1330   -1.6860  -52.4460 C   0  0  0  0  0  0  0  0  0  0  0  0
    7.8220   -0.8910  -52.3580 C   0  0  2  0  0  0  0  0  0  0  0  0
    6.6360   -1.8340  -52.6250 C   0  0  0  0  0  0  0  0  0  0  0  0
    7.8290    0.2240  -53.4200 C   0  0  0  0  0  0  0  0  0  0  0  0
    9.2690   -1.1970  -54.8980 C   0  0  0  0  0  0  0  0  0  0  0  0
   11.2247    2.4867  -55.8413 H   0  0  0  0  0  0  0  0  0  0  0  0
   10.4898    1.8824  -57.3649 H   0  0  0  0  0  0  0  0  0  0  0  0
   11.4230    3.4172  -57.3649 H   0  0  0  0  0  0  0  0  0  0  0  0
    9.1225    3.2846  -55.4669 H   0  0  0  0  0  0  0  0  0  0  0  0
    9.7005    4.6283  -56.5478 H   0  0  0  0  0  0  0  0  0  0  0  0
    8.3553    5.5036  -60.0639 H   0  0  0  0  0  0  0  0  0  0  0  0
    9.4645    5.5385  -58.6261 H   0  0  0  0  0  0  0  0  0  0  0  0
   10.1171    3.2007  -60.0913 H   0  0  0  0  0  0  0  0  0  0  0  0
    9.9504    4.5563  -61.2898 H   0  0  0  0  0  0  0  0  0  0  0  0
   12.1697    3.9775  -59.6437 H   0  0  0  0  0  0  0  0  0  0  0  0
   11.8812    5.4394  -60.6733 H   0  0  0  0  0  0  0  0  0  0  0  0
   11.7670    5.1370  -57.9270 H   0  0  0  0  0  0  0  0  0  0  0  0
    5.2632    0.9502  -58.2639 H   0  0  0  0  0  0  0  0  0  0  0  0
    5.3024    0.3987  -60.4086 H   0  0  0  0  0  0  0  0  0  0  0  0
    4.3927    1.8957  -60.8060 H   0  0  0  0  0  0  0  0  0  0  0  0
    6.1890    1.9096  -60.8060 H   0  0  0  0  0  0  0  0  0  0  0  0
    3.9554    2.6744  -57.3387 H   0  0  0  0  0  0  0  0  0  0  0  0
    4.0559    3.6583  -58.8383 H   0  0  0  0  0  0  0  0  0  0  0  0
    3.1419    2.1118  -58.8383 H   0  0  0  0  0  0  0  0  0  0  0  0
    8.7910    0.6360  -56.5150 H   0  0  0  0  0  0  0  0  0  0  0  0
    5.8257   -0.7984  -55.0304 H   0  0  0  0  0  0  0  0  0  0  0  0
    6.8897   -1.8138  -56.0759 H   0  0  0  0  0  0  0  0  0  0  0  0
    5.9189   -3.1453  -54.1998 H   0  0  0  0  0  0  0  0  0  0  0  0
    8.0791   -4.0506  -53.3405 H   0  0  0  0  0  0  0  0  0  0  0  0
    8.1823   -3.6956  -55.1017 H   0  0  0  0  0  0  0  0  0  0  0  0
   10.2124   -2.8806  -53.9007 H   0  0  0  0  0  0  0  0  0  0  0  0
    9.1281   -2.4825  -51.6873 H   0  0  0  0  0  0  0  0  0  0  0  0
    9.9804   -1.0077  -52.2677 H   0  0  0  0  0  0  0  0  0  0  0  0
    7.7269   -0.4483  -51.3555 H   0  0  0  0  0  0  0  0  0  0  0  0
    6.6252   -2.6289  -51.8647 H   0  0  0  0  0  0  0  0  0  0  0  0
    5.7005   -1.2572  -52.5778 H   0  0  0  0  0  0  0  0  0  0  0  0
    6.8925    0.7967  -53.3492 H   0  0  0  0  0  0  0  0  0  0  0  0
    8.6917    0.8818  -53.2382 H   0  0  0  0  0  0  0  0  0  0  0  0
   10.1183   -0.5233  -54.7113 H   0  0  0  0  0  0  0  0  0  0  0  0
    9.3527   -1.6574  -55.8935 H   0  0  0  0  0  0  0  0  0  0  0  0
  1  2  1  0
  2  3  1  0
  3  4  1  0
  4  5  1  0
  5  6  1  0
  6  7  1  0
  7  8  1  0
  4  9  2  0
  9 10  1  0
 10 11  1  0
 11 12  1  0
 11 13  1  0
 10 14  1  0
 14 15  1  0
 15 16  2  0
 15 17  1  0
 18 17  1  6
 18 19  1  0
 19 20  1  0
 20 21  1  0
 21 22  1  0
 22 23  1  0
 23 24  1  0
 24 25  1  0
 24 26  1  0
 22 27  1  0
 14  3  2  0
 26 18  1  0
 27 18  1  0
 25 20  1  0
  1 28  1  0
  1 29  1  0
  1 30  1  0
  2 31  1  0
  2 32  1  0
  5 33  1  0
  5 34  1  0
  6 35  1  0
  6 36  1  0
  7 37  1  0
  7 38  1  0
  8 39  1  0
 11 40  1  0
 12 41  1  0
 12 42  1  0
 12 43  1  0
 13 44  1  0
 13 45  1  0
 13 46  1  0
 17 47  1  0
 19 48  1  0
 19 49  1  0
 20 50  1  6
 21 51  1  0
 21 52  1  0
 22 53  1  1
 23 54  1  0
 23 55  1  0
 24 56  1  1
 25 57  1  0
 25 58  1  0
 26 59  1  0
 26 60  1  0
 27 61  1  0
 27 62  1  0
M  END
>  <meeko>  (68) 
{"is_sidechain": false}

$$$$

     RDKit          3D

 77 81  0  0  0  0  0  0  0  0999 V2000
    6.2770    1.5040  -59.8780 C   0  0  0  0  0  0  0  0  0  0  0  0
    7.5420    1.5140  -59.2250 O   0  0  0  0  0  0  0  0  0  0  0  0
    8.0690    2.8370  -59.0800 C   0  0  1  0  0  0  0  0  0  0  0  0
    7.9820    3.3680  -57.6360 C   0  0  1  0  0  0  0  0  0  0  0  0
    8.2810    2.3190  -56.6680 N   0  0  0  0  0  0  0  0  0  0  0  0
    7.3020    1.5520  -56.0730 C   0  0  0  0  0  0  0  0  0  0  0  0
    6.1050    1.7630  -56.2530 O   0  0  0  0  0  0  0  0  0  0  0  0
    7.8230    0.4900  -55.1920 C   0  0  0  0  0  0  0  0  0  0  0  0
    9.0350   -0.0260  -55.3960 N   0  0  0  0  0  0  0  0  0  0  0  0
    9.2030   -0.9530  -54.4370 N   0  0  0  0  0  0  0  0  0  0  0  0
   10.5290   -1.5470  -54.4050 C   0  0  0  0  0  0  0  0  0  0  0  0
   10.8360   -2.3500  -55.6690 C   0  0  0  0  0  0  0  0  0  0  0  0
   10.3940   -3.8050  -55.5150 C   0  0  0  0  0  0  0  0  0  0  0  0
   10.9050   -4.7180  -56.6350 C   0  0  0  0  0  0  0  0  0  0  0  0
   11.6350   -3.9950  -57.7630 C   0  0  0  0  0  0  0  0  0  0  0  0
   11.6320   -4.7930  -58.9380 O   0  0  0  0  0  0  0  0  0  0  0  0
    8.0850   -1.1320  -53.6320 C   0  0  0  0  0  0  0  0  0  0  0  0
    7.9000   -2.1520  -52.4810 C   0  0  2  0  0  0  0  0  0  0  0  0
    9.1560   -2.9940  -52.1190 C   0  0  0  0  0  0  0  0  0  0  0  0
    8.8840   -3.9880  -50.9730 C   0  0  1  0  0  0  0  0  0  0  0  0
    8.4400   -3.2050  -49.7280 C   0  0  0  0  0  0  0  0  0  0  0  0
    7.1690   -2.4050  -50.0450 C   0  0  2  0  0  0  0  0  0  0  0  0
    6.0580   -3.3740  -50.4790 C   0  0  0  0  0  0  0  0  0  0  0  0
    6.5050   -4.1700  -51.7170 C   0  0  2  0  0  0  0  0  0  0  0  0
    7.7750   -4.9590  -51.3900 C   0  0  0  0  0  0  0  0  0  0  0  0
    6.7980   -3.1920  -52.8670 C   0  0  0  0  0  0  0  0  0  0  0  0
    7.4590   -1.4120  -51.1860 C   0  0  0  0  0  0  0  0  0  0  0  0
    7.1980   -0.1320  -54.0680 C   0  0  0  0  0  0  0  0  0  0  0  0
    5.8720    0.2690  -53.5170 C   0  0  0  0  0  0  0  0  0  0  0  0
    9.0200    4.5010  -57.6580 C   0  0  2  0  0  0  0  0  0  0  0  0
    8.4390    5.6590  -58.2630 O   0  0  0  0  0  0  0  0  0  0  0  0
   10.1570    4.0000  -58.5550 C   0  0  0  0  0  0  0  0  0  0  0  0
    9.5810    2.8200  -59.3550 C   0  0  2  0  0  0  0  0  0  0  0  0
    9.9040    2.8940  -60.8410 C   0  0  0  0  0  0  0  0  0  0  0  0
    5.4755    1.4977  -59.1246 H   0  0  0  0  0  0  0  0  0  0  0  0
    6.1819    2.4014  -60.5070 H   0  0  0  0  0  0  0  0  0  0  0  0
    6.1961    0.6052  -60.5070 H   0  0  0  0  0  0  0  0  0  0  0  0
    7.4807    3.4585  -59.7711 H   0  0  0  0  0  0  0  0  0  0  0  0
    6.9844    3.7158  -57.3298 H   0  0  0  0  0  0  0  0  0  0  0  0
    9.2560    2.1180  -56.4800 H   0  0  0  0  0  0  0  0  0  0  0  0
   11.2741   -0.7438  -54.3066 H   0  0  0  0  0  0  0  0  0  0  0  0
   10.5675   -2.2379  -53.5499 H   0  0  0  0  0  0  0  0  0  0  0  0
   10.3025   -1.9001  -56.5193 H   0  0  0  0  0  0  0  0  0  0  0  0
   11.9222   -2.3303  -55.8413 H   0  0  0  0  0  0  0  0  0  0  0  0
   10.7734   -4.1850  -54.5550 H   0  0  0  0  0  0  0  0  0  0  0  0
    9.2951   -3.8173  -55.5619 H   0  0  0  0  0  0  0  0  0  0  0  0
   11.5972   -5.4492  -56.1921 H   0  0  0  0  0  0  0  0  0  0  0  0
   10.0164   -5.1825  -57.0873 H   0  0  0  0  0  0  0  0  0  0  0  0
   11.1292   -3.0405  -57.9704 H   0  0  0  0  0  0  0  0  0  0  0  0
   12.6752   -3.8092  -57.4572 H   0  0  0  0  0  0  0  0  0  0  0  0
   10.7070   -4.8610  -59.2320 H   0  0  0  0  0  0  0  0  0  0  0  0
    9.4721   -3.5581  -53.0089 H   0  0  0  0  0  0  0  0  0  0  0  0
    9.9407   -2.3001  -51.7832 H   0  0  0  0  0  0  0  0  0  0  0  0
    9.7982   -4.5571  -50.7485 H   0  0  0  0  0  0  0  0  0  0  0  0
    8.2340   -3.9086  -48.9079 H   0  0  0  0  0  0  0  0  0  0  0  0
    9.2407   -2.5126  -49.4288 H   0  0  0  0  0  0  0  0  0  0  0  0
    6.8479   -1.8501  -49.1511 H   0  0  0  0  0  0  0  0  0  0  0  0
    5.8418   -4.0716  -49.6564 H   0  0  0  0  0  0  0  0  0  0  0  0
    5.1547   -2.7978  -50.7282 H   0  0  0  0  0  0  0  0  0  0  0  0
    5.7074   -4.8673  -52.0129 H   0  0  0  0  0  0  0  0  0  0  0  0
    7.5706   -5.6584  -50.5660 H   0  0  0  0  0  0  0  0  0  0  0  0
    8.0957   -5.5236  -52.2779 H   0  0  0  0  0  0  0  0  0  0  0  0
    7.1398   -3.7641  -53.7421 H   0  0  0  0  0  0  0  0  0  0  0  0
    5.8725   -2.6411  -53.0904 H   0  0  0  0  0  0  0  0  0  0  0  0
    6.5480   -0.8327  -51.3970 H   0  0  0  0  0  0  0  0  0  0  0  0
    8.2775   -0.7488  -50.8693 H   0  0  0  0  0  0  0  0  0  0  0  0
    5.9128    0.2567  -52.4178 H   0  0  0  0  0  0  0  0  0  0  0  0
    5.6224    1.2828  -53.8633 H   0  0  0  0  0  0  0  0  0  0  0  0
    5.1025   -0.4366  -53.8633 H   0  0  0  0  0  0  0  0  0  0  0  0
    9.3658    4.7598  -56.6464 H   0  0  0  0  0  0  0  0  0  0  0  0
    7.7700    5.9960  -57.6400 H   0  0  0  0  0  0  0  0  0  0  0  0
   10.4860    4.7986  -59.2362 H   0  0  0  0  0  0  0  0  0  0  0  0
   11.0317    3.6945  -57.9620 H   0  0  0  0  0  0  0  0  0  0  0  0
   10.0367    1.8706  -59.0373 H   0  0  0  0  0  0  0  0  0  0  0  0
   10.9685    3.1379  -60.9732 H   0  0  0  0  0  0  0  0  0  0  0  0
    9.6890    1.9233  -61.3117 H   0  0  0  0  0  0  0  0  0  0  0  0
    9.2879    3.6743  -61.3117 H   0  0  0  0  0  0  0  0  0  0  0  0
  1  2  1  0
  2  3  1  0
  3  4  1  0
  4  5  1  0
  5  6  1  0
  6  7  2  0
  6  8  1  0
  8  9  2  0
  9 10  1  0
 10 11  1  0
 11 12  1  0
 12 13  1  0
 13 14  1  0
 14 15  1  0
 15 16  1  0
 10 17  1  0
 18 17  1  6
 18 19  1  0
 19 20  1  0
 20 21  1  0
 21 22  1  0
 22 23  1  0
 23 24  1  0
 24 25  1  0
 24 26  1  0
 22 27  1  0
 17 28  2  0
 28 29  1  0
  4 30  1  0
 30 31  1  0
 30 32  1  0
 32 33  1  0
 33 34  1  0
 33  3  1  0
 28  8  1  0
 26 18  1  0
 27 18  1  0
 25 20  1  0
  1 35  1  0
  1 36  1  0
  1 37  1  0
  3 38  1  6
  4 39  1  1
  5 40  1  0
 11 41  1  0
 11 42  1  0
 12 43  1  0
 12 44  1  0
 13 45  1  0
 13 46  1  0
 14 47  1  0
 14 48  1  0
 15 49  1  0
 15 50  1  0
 16 51  1  0
 19 52  1  0
 19 53  1  0
 20 54  1  1
 21 55  1  0
 21 56  1  0
 22 57  1  1
 23 58  1  0
 23 59  1  0
 24 60  1  6
 25 61  1  0
 25 62  1  0
 26 63  1  0
 26 64  1  0
 27 65  1  0
 27 66  1  0
 29 67  1  0
 29 68  1  0
 29 69  1  0
 30 70  1  1
 31 71  1  0
 32 72  1  0
 32 73  1  0
 33 74  1  1
 34 75  1  0
 34 76  1  0
 34 77  1  0
M  END
>  <meeko>  (69) 
{"is_sidechain": false}

$$$$

     RDKit          3D

 59 63  0  0  0  0  0  0  0  0999 V2000
    6.2750   -0.0750  -53.6910 C   0  0  0  0  0  0  0  0  0  0  0  0
    7.6560   -0.4920  -54.0460 C   0  0  0  0  0  0  0  0  0  0  0  0
    8.4870    0.0960  -55.0420 C   0  0  0  0  0  0  0  0  0  0  0  0
    8.1750    1.2320  -55.9330 C   0  0  0  0  0  0  0  0  0  0  0  0
    7.0410    1.6720  -56.0860 O   0  0  0  0  0  0  0  0  0  0  0  0
    9.2950    1.7310  -56.5630 N   0  0  0  0  0  0  0  0  0  0  0  0
    9.3350    2.8450  -57.5030 C   0  0  2  0  0  0  0  0  0  0  0  0
    9.0590    4.1970  -56.7980 C   0  0  0  0  0  0  0  0  0  0  0  0
    9.1540    5.3600  -57.8010 C   0  0  1  0  0  0  0  0  0  0  0  0
   10.5670    5.3950  -58.4060 C   0  0  0  0  0  0  0  0  0  0  0  0
   10.8600    4.0720  -59.1310 C   0  0  2  0  0  0  0  0  0  0  0  0
    9.8270    3.8660  -60.2500 C   0  0  0  0  0  0  0  0  0  0  0  0
    8.4110    3.8210  -59.6560 C   0  0  2  0  0  0  0  0  0  0  0  0
    8.1260    5.1440  -58.9250 C   0  0  0  0  0  0  0  0  0  0  0  0
    8.3160    2.6570  -58.6540 C   0  0  0  0  0  0  0  0  0  0  0  0
   10.7550    2.9130  -58.1280 C   0  0  0  0  0  0  0  0  0  0  0  0
    9.6810   -0.5270  -55.1050 N   0  0  0  0  0  0  0  0  0  0  0  0
    9.6150   -1.4970  -54.1650 N   0  0  0  0  0  0  0  0  0  0  0  0
   10.7960   -2.3460  -54.0100 C   0  0  0  0  0  0  0  0  0  0  0  0
   11.2710   -2.4580  -52.5620 C   0  0  0  0  0  0  0  0  0  0  0  0
   10.6440   -3.7140  -54.6720 C   0  0  0  0  0  0  0  0  0  0  0  0
    8.4120   -1.5190  -53.4960 C   0  0  0  0  0  0  0  0  0  0  0  0
    8.0410   -2.4440  -52.4330 C   0  0  0  0  0  0  0  0  0  0  0  0
    7.5450   -3.7160  -52.7450 C   0  0  0  0  0  0  0  0  0  0  0  0
    7.1610   -4.5910  -51.7280 C   0  0  0  0  0  0  0  0  0  0  0  0
    7.2550   -4.1940  -50.3940 C   0  0  0  0  0  0  0  0  0  0  0  0
    7.7250   -2.9210  -50.0770 C   0  0  0  0  0  0  0  0  0  0  0  0
    8.1100   -2.0450  -51.0940 C   0  0  0  0  0  0  0  0  0  0  0  0
    6.1714   -0.0437  -52.5963 H   0  0  0  0  0  0  0  0  0  0  0  0
    6.0752    0.9235  -54.1069 H   0  0  0  0  0  0  0  0  0  0  0  0
    5.5559   -0.7961  -54.1069 H   0  0  0  0  0  0  0  0  0  0  0  0
   10.1520    1.2400  -56.3150 H   0  0  0  0  0  0  0  0  0  0  0  0
    8.0495    4.1776  -56.3615 H   0  0  0  0  0  0  0  0  0  0  0  0
    9.8116    4.3461  -56.0097 H   0  0  0  0  0  0  0  0  0  0  0  0
    8.9482    6.3105  -57.2871 H   0  0  0  0  0  0  0  0  0  0  0  0
   10.6361    6.2265  -59.1228 H   0  0  0  0  0  0  0  0  0  0  0  0
   11.3021    5.5361  -57.5999 H   0  0  0  0  0  0  0  0  0  0  0  0
   11.8717    4.1020  -59.5617 H   0  0  0  0  0  0  0  0  0  0  0  0
    9.8952    4.6979  -60.9664 H   0  0  0  0  0  0  0  0  0  0  0  0
   10.0342    2.9148  -60.7621 H   0  0  0  0  0  0  0  0  0  0  0  0
    7.6762    3.6762  -60.4616 H   0  0  0  0  0  0  0  0  0  0  0  0
    8.1900    5.9764  -59.6413 H   0  0  0  0  0  0  0  0  0  0  0  0
    7.1177    5.1031  -58.4873 H   0  0  0  0  0  0  0  0  0  0  0  0
    7.2995    2.6225  -58.2350 H   0  0  0  0  0  0  0  0  0  0  0  0
    8.5429    1.7174  -59.1790 H   0  0  0  0  0  0  0  0  0  0  0  0
   10.9647    1.9668  -58.6484 H   0  0  0  0  0  0  0  0  0  0  0  0
   11.4850    3.0796  -57.3222 H   0  0  0  0  0  0  0  0  0  0  0  0
   11.5953   -1.8250  -54.5574 H   0  0  0  0  0  0  0  0  0  0  0  0
   10.4284   -2.2593  -51.8833 H   0  0  0  0  0  0  0  0  0  0  0  0
   11.6571   -3.4718  -52.3802 H   0  0  0  0  0  0  0  0  0  0  0  0
   12.0694   -1.7235  -52.3802 H   0  0  0  0  0  0  0  0  0  0  0  0
   10.5579   -4.4892  -53.8963 H   0  0  0  0  0  0  0  0  0  0  0  0
    9.7397   -3.7199  -55.2982 H   0  0  0  0  0  0  0  0  0  0  0  0
   11.5250   -3.9182  -55.2982 H   0  0  0  0  0  0  0  0  0  0  0  0
    7.4577   -4.0268  -53.7966 H   0  0  0  0  0  0  0  0  0  0  0  0
    6.7842   -5.5937  -51.9782 H   0  0  0  0  0  0  0  0  0  0  0  0
    6.9581   -4.8860  -49.5921 H   0  0  0  0  0  0  0  0  0  0  0  0
    7.7927   -2.6061  -49.0252 H   0  0  0  0  0  0  0  0  0  0  0  0
    8.4692   -1.0365  -50.8411 H   0  0  0  0  0  0  0  0  0  0  0  0
  1  2  1  0
  2  3  1  0
  3  4  1  0
  4  5  2  0
  4  6  1  0
  7  6  1  1
  7  8  1  0
  8  9  1  0
  9 10  1  0
 10 11  1  0
 11 12  1  0
 12 13  1  0
 13 14  1  0
 13 15  1  0
 11 16  1  0
  3 17  2  0
 17 18  1  0
 18 19  1  0
 19 20  1  0
 19 21  1  0
 18 22  1  0
 22 23  1  0
 23 24  2  0
 24 25  1  0
 25 26  2  0
 26 27  1  0
 27 28  2  0
 22  2  2  0
 28 23  1  0
 15  7  1  0
 16  7  1  0
 14  9  1  0
  1 29  1  0
  1 30  1  0
  1 31  1  0
  6 32  1  0
  8 33  1  0
  8 34  1  0
  9 35  1  1
 10 36  1  0
 10 37  1  0
 11 38  1  6
 12 39  1  0
 12 40  1  0
 13 41  1  6
 14 42  1  0
 14 43  1  0
 15 44  1  0
 15 45  1  0
 16 46  1  0
 16 47  1  0
 19 48  1  0
 20 49  1  0
 20 50  1  0
 20 51  1  0
 21 52  1  0
 21 53  1  0
 21 54  1  0
 24 55  1  0
 25 56  1  0
 26 57  1  0
 27 58  1  0
 28 59  1  0
M  END
>  <meeko>  (70) 
{"is_sidechain": false}

$$$$

     RDKit          3D

 60 64  0  0  0  0  0  0  0  0999 V2000
    5.7730   -0.5390  -53.8150 C   0  0  0  0  0  0  0  0  0  0  0  0
    7.2320   -0.6660  -54.0660 C   0  0  0  0  0  0  0  0  0  0  0  0
    8.0030    0.0860  -55.0030 C   0  0  0  0  0  0  0  0  0  0  0  0
    7.5360    1.1450  -55.9200 C   0  0  0  0  0  0  0  0  0  0  0  0
    6.4400    1.1260  -56.4700 O   0  0  0  0  0  0  0  0  0  0  0  0
    8.4600    2.1540  -56.0840 N   0  0  0  0  0  0  0  0  0  0  0  0
    8.2260    3.3400  -56.8720 C   0  0  0  0  0  0  0  0  0  0  0  0
    9.3840    3.6900  -57.8320 C   0  0  2  0  0  0  0  0  0  0  0  0
   10.6880    4.0280  -57.0670 C   0  0  0  0  0  0  0  0  0  0  0  0
   11.8100    4.4160  -58.0470 C   0  0  1  0  0  0  0  0  0  0  0  0
   12.0740    3.2410  -59.0030 C   0  0  0  0  0  0  0  0  0  0  0  0
   10.7980    2.9090  -59.7950 C   0  0  2  0  0  0  0  0  0  0  0  0
   10.3660    4.1450  -60.6000 C   0  0  0  0  0  0  0  0  0  0  0  0
   10.0950    5.3230  -59.6510 C   0  0  2  0  0  0  0  0  0  0  0  0
   11.3730    5.6450  -58.8610 C   0  0  0  0  0  0  0  0  0  0  0  0
    8.9790    4.9330  -58.6690 C   0  0  0  0  0  0  0  0  0  0  0  0
    9.6770    2.5240  -58.8130 C   0  0  0  0  0  0  0  0  0  0  0  0
    9.3000   -0.2850  -54.9730 N   0  0  0  0  0  0  0  0  0  0  0  0
    9.3520   -1.2450  -54.0280 N   0  0  0  0  0  0  0  0  0  0  0  0
   10.6250   -1.8850  -53.7620 C   0  0  0  0  0  0  0  0  0  0  0  0
   10.8870   -3.0400  -54.7140 C   0  0  0  0  0  0  0  0  0  0  0  0
   11.1560   -2.5360  -56.0210 O   0  0  0  0  0  0  0  0  0  0  0  0
    8.1360   -1.5210  -53.4540 C   0  0  0  0  0  0  0  0  0  0  0  0
    7.9200   -2.5330  -52.4280 C   0  0  0  0  0  0  0  0  0  0  0  0
    7.4840   -3.8130  -52.7850 C   0  0  0  0  0  0  0  0  0  0  0  0
    7.2790   -4.7850  -51.8040 C   0  0  0  0  0  0  0  0  0  0  0  0
    7.5060   -4.4800  -50.4630 C   0  0  0  0  0  0  0  0  0  0  0  0
    7.9320   -3.2030  -50.1000 C   0  0  0  0  0  0  0  0  0  0  0  0
    8.1360   -2.2300  -51.0790 C   0  0  0  0  0  0  0  0  0  0  0  0
    5.5875   -0.5229  -52.7309 H   0  0  0  0  0  0  0  0  0  0  0  0
    5.4036    0.3947  -54.2642 H   0  0  0  0  0  0  0  0  0  0  0  0
    5.2478   -1.3948  -54.2642 H   0  0  0  0  0  0  0  0  0  0  0  0
    9.3130    2.0450  -55.5420 H   0  0  0  0  0  0  0  0  0  0  0  0
    7.3153    3.1853  -57.4693 H   0  0  0  0  0  0  0  0  0  0  0  0
    8.1301    4.1789  -56.1670 H   0  0  0  0  0  0  0  0  0  0  0  0
   10.4982    4.8694  -56.3843 H   0  0  0  0  0  0  0  0  0  0  0  0
   11.0053    3.1402  -56.5004 H   0  0  0  0  0  0  0  0  0  0  0  0
   12.7265    4.6523  -57.4865 H   0  0  0  0  0  0  0  0  0  0  0  0
   12.8765    3.5149  -59.7037 H   0  0  0  0  0  0  0  0  0  0  0  0
   12.3743    2.3598  -58.4171 H   0  0  0  0  0  0  0  0  0  0  0  0
   10.9937    2.0708  -60.4800 H   0  0  0  0  0  0  0  0  0  0  0  0
   11.1665    4.4201  -61.3025 H   0  0  0  0  0  0  0  0  0  0  0  0
    9.4460    3.9103  -61.1555 H   0  0  0  0  0  0  0  0  0  0  0  0
    9.7885    6.2045  -60.2333 H   0  0  0  0  0  0  0  0  0  0  0  0
   12.1745    5.9221  -59.5616 H   0  0  0  0  0  0  0  0  0  0  0  0
   11.1729    6.4810  -58.1746 H   0  0  0  0  0  0  0  0  0  0  0  0
    8.7862    5.7767  -57.9900 H   0  0  0  0  0  0  0  0  0  0  0  0
    8.0747    4.6880  -59.2454 H   0  0  0  0  0  0  0  0  0  0  0  0
    8.7639    2.2912  -59.3804 H   0  0  0  0  0  0  0  0  0  0  0  0
    9.9999    1.6465  -58.2336 H   0  0  0  0  0  0  0  0  0  0  0  0
   11.4277   -1.1414  -53.8752 H   0  0  0  0  0  0  0  0  0  0  0  0
   10.5982   -2.2859  -52.7380 H   0  0  0  0  0  0  0  0  0  0  0  0
   11.7540   -3.6165  -54.3591 H   0  0  0  0  0  0  0  0  0  0  0  0
   10.0002   -3.6898  -54.7502 H   0  0  0  0  0  0  0  0  0  0  0  0
   12.0560   -2.1660  -56.0030 H   0  0  0  0  0  0  0  0  0  0  0  0
    7.3019   -4.0548  -53.8425 H   0  0  0  0  0  0  0  0  0  0  0  0
    6.9384   -5.7913  -52.0893 H   0  0  0  0  0  0  0  0  0  0  0  0
    7.3489   -5.2473  -49.6906 H   0  0  0  0  0  0  0  0  0  0  0  0
    8.1074   -2.9624  -49.0411 H   0  0  0  0  0  0  0  0  0  0  0  0
    8.4676   -1.2219  -50.7896 H   0  0  0  0  0  0  0  0  0  0  0  0
  1  2  1  0
  2  3  1  0
  3  4  1  0
  4  5  2  0
  4  6  1  0
  6  7  1  0
  8  7  1  1
  8  9  1  0
  9 10  1  0
 10 11  1  0
 11 12  1  0
 12 13  1  0
 13 14  1  0
 14 15  1  0
 14 16  1  0
 12 17  1  0
  3 18  2  0
 18 19  1  0
 19 20  1  0
 20 21  1  0
 21 22  1  0
 19 23  1  0
 23 24  1  0
 24 25  2  0
 25 26  1  0
 26 27  2  0
 27 28  1  0
 28 29  2  0
 23  2  2  0
 29 24  1  0
 16  8  1  0
 17  8  1  0
 15 10  1  0
  1 30  1  0
  1 31  1  0
  1 32  1  0
  6 33  1  0
  7 34  1  0
  7 35  1  0
  9 36  1  0
  9 37  1  0
 10 38  1  1
 11 39  1  0
 11 40  1  0
 12 41  1  6
 13 42  1  0
 13 43  1  0
 14 44  1  6
 15 45  1  0
 15 46  1  0
 16 47  1  0
 16 48  1  0
 17 49  1  0
 17 50  1  0
 20 51  1  0
 20 52  1  0
 21 53  1  0
 21 54  1  0
 22 55  1  0
 25 56  1  0
 26 57  1  0
 27 58  1  0
 28 59  1  0
 29 60  1  0
M  END
>  <meeko>  (71) 
{"is_sidechain": false}

$$$$

     RDKit          3D

 66 71  0  0  0  0  0  0  0  0999 V2000
    5.8010   -0.1000  -53.9200 C   0  0  0  0  0  0  0  0  0  0  0  0
    7.2360   -0.3950  -54.1870 C   0  0  0  0  0  0  0  0  0  0  0  0
    8.1150    0.2400  -55.1250 C   0  0  0  0  0  0  0  0  0  0  0  0
    7.8830    1.3370  -56.0920 C   0  0  0  0  0  0  0  0  0  0  0  0
    6.7680    1.8430  -56.1990 O   0  0  0  0  0  0  0  0  0  0  0  0
    8.9900    1.7530  -56.7990 N   0  0  0  0  0  0  0  0  0  0  0  0
    9.0040    2.8690  -57.7530 C   0  0  2  0  0  0  0  0  0  0  0  0
    8.8650    4.2340  -57.0350 C   0  0  0  0  0  0  0  0  0  0  0  0
    8.9390    5.3880  -58.0500 C   0  0  1  0  0  0  0  0  0  0  0  0
   10.2950    5.3440  -58.7720 C   0  0  0  0  0  0  0  0  0  0  0  0
   10.4530    4.0080  -59.5130 C   0  0  2  0  0  0  0  0  0  0  0  0
    9.3210    3.8590  -60.5410 C   0  0  0  0  0  0  0  0  0  0  0  0
    7.9590    3.8930  -59.8290 C   0  0  2  0  0  0  0  0  0  0  0  0
    7.8100    5.2290  -59.0820 C   0  0  0  0  0  0  0  0  0  0  0  0
    7.8840    2.7370  -58.8170 C   0  0  0  0  0  0  0  0  0  0  0  0
   10.3660    2.8560  -58.4990 C   0  0  0  0  0  0  0  0  0  0  0  0
    9.3560   -0.2710  -55.0220 N   0  0  0  0  0  0  0  0  0  0  0  0
    9.2750   -1.2110  -54.0640 N   0  0  0  0  0  0  0  0  0  0  0  0
   10.5170   -1.8830  -53.6660 C   0  0  0  0  0  0  0  0  0  0  0  0
   10.3600   -3.4170  -53.6630 C   0  0  0  0  0  0  0  0  0  0  0  0
   10.6810   -4.0800  -55.0040 C   0  0  0  0  0  0  0  0  0  0  0  0
   10.5990   -3.1020  -56.1110 N   0  0  0  0  0  0  0  0  0  0  0  0
   11.5450   -1.9600  -56.0170 C   0  0  0  0  0  0  0  0  0  0  0  0
   11.6800   -1.4650  -54.5760 C   0  0  0  0  0  0  0  0  0  0  0  0
    8.0200   -1.3410  -53.5350 C   0  0  0  0  0  0  0  0  0  0  0  0
    7.6760   -2.2750  -52.4720 C   0  0  0  0  0  0  0  0  0  0  0  0
    6.9880   -3.4560  -52.7700 C   0  0  0  0  0  0  0  0  0  0  0  0
    6.6700   -4.3570  -51.7520 C   0  0  0  0  0  0  0  0  0  0  0  0
    7.0350   -4.0790  -50.4350 C   0  0  0  0  0  0  0  0  0  0  0  0
    7.7130   -2.8990  -50.1320 C   0  0  0  0  0  0  0  0  0  0  0  0
    8.0300   -1.9960  -51.1480 C   0  0  0  0  0  0  0  0  0  0  0  0
    5.6298   -0.0648  -52.8340 H   0  0  0  0  0  0  0  0  0  0  0  0
    5.5374    0.8711  -54.3644 H   0  0  0  0  0  0  0  0  0  0  0  0
    5.1757   -0.8884  -54.3644 H   0  0  0  0  0  0  0  0  0  0  0  0
    9.8900    1.4500  -56.4550 H   0  0  0  0  0  0  0  0  0  0  0  0
    7.8969    4.2719  -56.5141 H   0  0  0  0  0  0  0  0  0  0  0  0
    9.6887    4.3417  -56.3139 H   0  0  0  0  0  0  0  0  0  0  0  0
    8.8300    6.3489  -57.5258 H   0  0  0  0  0  0  0  0  0  0  0  0
   10.3492    6.1705  -59.4958 H   0  0  0  0  0  0  0  0  0  0  0  0
   11.1018    5.4433  -58.0309 H   0  0  0  0  0  0  0  0  0  0  0  0
   11.4256    3.9826  -60.0263 H   0  0  0  0  0  0  0  0  0  0  0  0
    9.3747    4.6855  -61.2649 H   0  0  0  0  0  0  0  0  0  0  0  0
    9.4318    2.8979  -61.0645 H   0  0  0  0  0  0  0  0  0  0  0  0
    7.1527    3.7894  -60.5701 H   0  0  0  0  0  0  0  0  0  0  0  0
    7.8587    6.0569  -59.8046 H   0  0  0  0  0  0  0  0  0  0  0  0
    6.8417    5.2430  -58.5603 H   0  0  0  0  0  0  0  0  0  0  0  0
    6.9050    2.7583  -58.3158 H   0  0  0  0  0  0  0  0  0  0  0  0
    8.0160    1.7863  -59.3544 H   0  0  0  0  0  0  0  0  0  0  0  0
   10.4747    1.8997  -59.0316 H   0  0  0  0  0  0  0  0  0  0  0  0
   11.1706    2.9804  -57.7593 H   0  0  0  0  0  0  0  0  0  0  0  0
   10.7444   -1.5675  -52.6371 H   0  0  0  0  0  0  0  0  0  0  0  0
   11.0367   -3.8321  -52.9016 H   0  0  0  0  0  0  0  0  0  0  0  0
    9.3014   -3.6273  -53.4503 H   0  0  0  0  0  0  0  0  0  0  0  0
   11.6988   -4.4955  -54.9655 H   0  0  0  0  0  0  0  0  0  0  0  0
    9.9460   -4.8780  -55.1857 H   0  0  0  0  0  0  0  0  0  0  0  0
   10.6570   -3.5560  -57.0320 H   0  0  0  0  0  0  0  0  0  0  0  0
    9.6320   -2.6910  -56.0970 H   0  0  0  0  0  0  0  0  0  0  0  0
   12.5325   -2.2824  -56.3788 H   0  0  0  0  0  0  0  0  0  0  0  0
   11.1547   -1.1353  -56.6315 H   0  0  0  0  0  0  0  0  0  0  0  0
   12.6122   -1.8706  -54.1559 H   0  0  0  0  0  0  0  0  0  0  0  0
   11.6784   -0.3656  -54.6134 H   0  0  0  0  0  0  0  0  0  0  0  0
    6.6971   -3.6751  -53.8080 H   0  0  0  0  0  0  0  0  0  0  0  0
    6.1314   -5.2864  -51.9888 H   0  0  0  0  0  0  0  0  0  0  0  0
    6.7877   -4.7916  -49.6343 H   0  0  0  0  0  0  0  0  0  0  0  0
    7.9980   -2.6797  -49.0924 H   0  0  0  0  0  0  0  0  0  0  0  0
    8.5596   -1.0625  -50.9068 H   0  0  0  0  0  0  0  0  0  0  0  0
  1  2  1  0
  2  3  1  0
  3  4  1  0
  4  5  2  0
  4  6  1  0
  7  6  1  1
  7  8  1  0
  8  9  1  0
  9 10  1  0
 10 11  1  0
 11 12  1  0
 12 13  1  0
 13 14  1  0
 13 15  1  0
 11 16  1  0
  3 17  2  0
 17 18  1  0
 18 19  1  0
 19 20  1  0
 20 21  1  0
 21 22  1  0
 22 23  1  0
 23 24  1  0
 18 25  1  0
 25 26  1  0
 26 27  2  0
 27 28  1  0
 28 29  2  0
 29 30  1  0
 30 31  2  0
 25  2  2  0
 31 26  1  0
 15  7  1  0
 24 19  1  0
 16  7  1  0
 14  9  1  0
  1 32  1  0
  1 33  1  0
  1 34  1  0
  6 35  1  0
  8 36  1  0
  8 37  1  0
  9 38  1  1
 10 39  1  0
 10 40  1  0
 11 41  1  6
 12 42  1  0
 12 43  1  0
 13 44  1  6
 14 45  1  0
 14 46  1  0
 15 47  1  0
 15 48  1  0
 16 49  1  0
 16 50  1  0
 19 51  1  0
 20 52  1  0
 20 53  1  0
 21 54  1  0
 21 55  1  0
 22 56  1  0
 22 57  1  0
 23 58  1  0
 23 59  1  0
 24 60  1  0
 24 61  1  0
 27 62  1  0
 28 63  1  0
 29 64  1  0
 30 65  1  0
 31 66  1  0
M  CHG  1  22   1
M  END
>  <meeko>  (72) 
{"is_sidechain": false}

$$$$

     RDKit          3D

 65 69  0  0  0  0  0  0  0  0999 V2000
    5.9960   -0.3110  -53.7760 C   0  0  0  0  0  0  0  0  0  0  0  0
    7.4390   -0.5730  -54.0230 C   0  0  0  0  0  0  0  0  0  0  0  0
    8.2990    0.0820  -54.9640 C   0  0  0  0  0  0  0  0  0  0  0  0
    7.9820    1.2050  -55.8720 C   0  0  0  0  0  0  0  0  0  0  0  0
    6.8340    1.5470  -56.1320 O   0  0  0  0  0  0  0  0  0  0  0  0
    9.1030    1.8060  -56.4220 N   0  0  0  0  0  0  0  0  0  0  0  0
    9.0680    2.8640  -57.4350 C   0  0  2  0  0  0  0  0  0  0  0  0
   10.4680    2.9410  -58.1030 C   0  0  0  0  0  0  0  0  0  0  0  0
   10.5030    4.0290  -59.1880 C   0  0  1  0  0  0  0  0  0  0  0  0
    9.4500    3.7090  -60.2590 C   0  0  0  0  0  0  0  0  0  0  0  0
    8.0520    3.6570  -59.6210 C   0  0  2  0  0  0  0  0  0  0  0  0
    7.7400    5.0170  -58.9740 C   0  0  0  0  0  0  0  0  0  0  0  0
    8.7900    5.3460  -57.8990 C   0  0  2  0  0  0  0  0  0  0  0  0
   10.1830    5.3890  -58.5470 C   0  0  0  0  0  0  0  0  0  0  0  0
    8.7650    4.2520  -56.8160 C   0  0  0  0  0  0  0  0  0  0  0  0
    8.0260    2.5620  -58.5400 C   0  0  0  0  0  0  0  0  0  0  0  0
    9.5290   -0.4580  -54.9400 N   0  0  0  0  0  0  0  0  0  0  0  0
    9.4660   -1.4210  -54.0040 N   0  0  0  0  0  0  0  0  0  0  0  0
   10.6610   -2.2020  -53.7370 C   0  0  0  0  0  0  0  0  0  0  0  0
   11.2390   -2.9010  -54.9720 C   0  0  0  0  0  0  0  0  0  0  0  0
   10.4120   -4.1100  -55.4200 C   0  0  0  0  0  0  0  0  0  0  0  0
   10.7500   -4.5790  -56.8370 C   0  0  0  0  0  0  0  0  0  0  0  0
   11.6510   -3.6220  -57.5990 C   0  0  0  0  0  0  0  0  0  0  0  0
   11.7950   -4.0890  -58.8690 F   0  0  0  0  0  0  0  0  0  0  0  0
    8.2310   -1.5360  -53.4160 C   0  0  0  0  0  0  0  0  0  0  0  0
    7.8970   -2.5020  -52.3750 C   0  0  0  0  0  0  0  0  0  0  0  0
    7.4580   -3.7840  -52.7240 C   0  0  0  0  0  0  0  0  0  0  0  0
    7.1400   -4.7120  -51.7300 C   0  0  0  0  0  0  0  0  0  0  0  0
    7.2670   -4.3640  -50.3860 C   0  0  0  0  0  0  0  0  0  0  0  0
    7.7150   -3.0910  -50.0330 C   0  0  0  0  0  0  0  0  0  0  0  0
    8.0320   -2.1630  -51.0260 C   0  0  0  0  0  0  0  0  0  0  0  0
    5.8097   -0.2772  -52.6924 H   0  0  0  0  0  0  0  0  0  0  0  0
    5.7160    0.6527  -54.2265 H   0  0  0  0  0  0  0  0  0  0  0  0
    5.3951   -1.1147  -54.2265 H   0  0  0  0  0  0  0  0  0  0  0  0
    9.9610    1.2760  -56.3400 H   0  0  0  0  0  0  0  0  0  0  0  0
   11.2203    3.1747  -57.3352 H   0  0  0  0  0  0  0  0  0  0  0  0
   10.6850    1.9706  -58.5734 H   0  0  0  0  0  0  0  0  0  0  0  0
   11.5002    4.0633  -59.6509 H   0  0  0  0  0  0  0  0  0  0  0  0
    9.4685    4.4901  -61.0333 H   0  0  0  0  0  0  0  0  0  0  0  0
    9.6782    2.7321  -60.7101 H   0  0  0  0  0  0  0  0  0  0  0  0
    7.3009    3.4320  -60.3925 H   0  0  0  0  0  0  0  0  0  0  0  0
    7.7540    5.7992  -59.7473 H   0  0  0  0  0  0  0  0  0  0  0  0
    6.7465    4.9719  -58.5041 H   0  0  0  0  0  0  0  0  0  0  0  0
    8.5640    6.3221  -57.4449 H   0  0  0  0  0  0  0  0  0  0  0  0
   10.2015    6.1705  -59.3209 H   0  0  0  0  0  0  0  0  0  0  0  0
   10.9349    5.6122  -57.7757 H   0  0  0  0  0  0  0  0  0  0  0  0
    9.5239    4.4810  -56.0533 H   0  0  0  0  0  0  0  0  0  0  0  0
    7.7637    4.2263  -56.3612 H   0  0  0  0  0  0  0  0  0  0  0  0
    7.0230    2.5216  -58.0901 H   0  0  0  0  0  0  0  0  0  0  0  0
    8.2724    1.5967  -59.0063 H   0  0  0  0  0  0  0  0  0  0  0  0
   11.4297   -1.5291  -53.3292 H   0  0  0  0  0  0  0  0  0  0  0  0
   10.3718   -2.9936  -53.0301 H   0  0  0  0  0  0  0  0  0  0  0  0
   11.2764   -2.1766  -55.7989 H   0  0  0  0  0  0  0  0  0  0  0  0
   12.2396   -3.2698  -54.7021 H   0  0  0  0  0  0  0  0  0  0  0  0
   10.5997   -4.9399  -54.7228 H   0  0  0  0  0  0  0  0  0  0  0  0
    9.3560   -3.8021  -55.4204 H   0  0  0  0  0  0  0  0  0  0  0  0
   11.2568   -5.5529  -56.7687 H   0  0  0  0  0  0  0  0  0  0  0  0
    9.8015   -4.6370  -57.3910 H   0  0  0  0  0  0  0  0  0  0  0  0
   11.1962   -2.6207  -57.6204 H   0  0  0  0  0  0  0  0  0  0  0  0
   12.6326   -3.5536  -57.1072 H   0  0  0  0  0  0  0  0  0  0  0  0
    7.3631   -4.0616  -53.7842 H   0  0  0  0  0  0  0  0  0  0  0  0
    6.7895   -5.7171  -52.0074 H   0  0  0  0  0  0  0  0  0  0  0  0
    7.0137   -5.0940  -49.6031 H   0  0  0  0  0  0  0  0  0  0  0  0
    7.8184   -2.8187  -48.9723 H   0  0  0  0  0  0  0  0  0  0  0  0
    8.3894   -1.1611  -50.7458 H   0  0  0  0  0  0  0  0  0  0  0  0
  1  2  1  0
  2  3  1  0
  3  4  1  0
  4  5  2  0
  4  6  1  0
  7  6  1  1
  7  8  1  0
  8  9  1  0
  9 10  1  0
 10 11  1  0
 11 12  1  0
 12 13  1  0
 13 14  1  0
 13 15  1  0
 11 16  1  0
  3 17  2  0
 17 18  1  0
 18 19  1  0
 19 20  1  0
 20 21  1  0
 21 22  1  0
 22 23  1  0
 23 24  1  0
 18 25  1  0
 25 26  1  0
 26 27  2  0
 27 28  1  0
 28 29  2  0
 29 30  1  0
 30 31  2  0
 25  2  2  0
 31 26  1  0
 15  7  1  0
 16  7  1  0
 14  9  1  0
  1 32  1  0
  1 33  1  0
  1 34  1  0
  6 35  1  0
  8 36  1  0
  8 37  1  0
  9 38  1  6
 10 39  1  0
 10 40  1  0
 11 41  1  6
 12 42  1  0
 12 43  1  0
 13 44  1  1
 14 45  1  0
 14 46  1  0
 15 47  1  0
 15 48  1  0
 16 49  1  0
 16 50  1  0
 19 51  1  0
 19 52  1  0
 20 53  1  0
 20 54  1  0
 21 55  1  0
 21 56  1  0
 22 57  1  0
 22 58  1  0
 23 59  1  0
 23 60  1  0
 27 61  1  0
 28 62  1  0
 29 63  1  0
 30 64  1  0
 31 65  1  0
M  END
>  <meeko>  (73) 
{"is_sidechain": false}

$$$$

     RDKit          3D

 61 65  0  0  0  0  0  0  0  0999 V2000
    5.9860   -0.2670  -53.9380 C   0  0  0  0  0  0  0  0  0  0  0  0
    7.4340   -0.5320  -54.1420 C   0  0  0  0  0  0  0  0  0  0  0  0
    8.3010    0.1360  -55.0590 C   0  0  0  0  0  0  0  0  0  0  0  0
    7.9640    1.2280  -55.9950 C   0  0  0  0  0  0  0  0  0  0  0  0
    6.8230    1.6580  -56.1380 O   0  0  0  0  0  0  0  0  0  0  0  0
    9.0650    1.7000  -56.6750 N   0  0  0  0  0  0  0  0  0  0  0  0
    9.0800    2.7830  -57.6530 C   0  0  2  0  0  0  0  0  0  0  0  0
    8.8190    4.1550  -56.9850 C   0  0  0  0  0  0  0  0  0  0  0  0
    8.8870    5.2860  -58.0270 C   0  0  1  0  0  0  0  0  0  0  0  0
   10.2840    5.3020  -58.6690 C   0  0  0  0  0  0  0  0  0  0  0  0
   10.5600    3.9570  -59.3580 C   0  0  2  0  0  0  0  0  0  0  0  0
    9.5010    3.7130  -60.4440 C   0  0  0  0  0  0  0  0  0  0  0  0
    8.1000    3.6870  -59.8130 C   0  0  2  0  0  0  0  0  0  0  0  0
    7.8320    5.0330  -59.1180 C   0  0  0  0  0  0  0  0  0  0  0  0
    8.0310    2.5560  -58.7710 C   0  0  0  0  0  0  0  0  0  0  0  0
   10.4820    2.8300  -58.3140 C   0  0  0  0  0  0  0  0  0  0  0  0
    9.5550   -0.3560  -54.9870 N   0  0  0  0  0  0  0  0  0  0  0  0
    9.4860   -1.3130  -54.0430 N   0  0  0  0  0  0  0  0  0  0  0  0
   10.6990   -2.0290  -53.7010 C   0  0  0  0  0  0  0  0  0  0  0  0
   11.2160   -2.9250  -54.8250 C   0  0  2  0  0  0  0  0  0  0  0  0
   11.4600   -2.1340  -56.0070 O   0  0  0  0  0  0  0  0  0  0  0  0
   10.2390   -4.0440  -55.2060 C   0  0  0  0  0  0  0  0  0  0  0  0
   10.4410   -4.4150  -56.5700 O   0  0  0  0  0  0  0  0  0  0  0  0
    8.2330   -1.4690  -53.5020 C   0  0  0  0  0  0  0  0  0  0  0  0
    7.8980   -2.4280  -52.4570 C   0  0  0  0  0  0  0  0  0  0  0  0
    8.1020   -2.1050  -51.1110 C   0  0  0  0  0  0  0  0  0  0  0  0
    7.7700   -3.0210  -50.1110 C   0  0  0  0  0  0  0  0  0  0  0  0
    7.2380   -4.2640  -50.4520 C   0  0  0  0  0  0  0  0  0  0  0  0
    7.0440   -4.5950  -51.7930 C   0  0  0  0  0  0  0  0  0  0  0  0
    7.3760   -3.6810  -52.7930 C   0  0  0  0  0  0  0  0  0  0  0  0
    5.7688   -0.2272  -52.8604 H   0  0  0  0  0  0  0  0  0  0  0  0
    5.7204    0.6947  -54.4013 H   0  0  0  0  0  0  0  0  0  0  0  0
    5.3970   -1.0723  -54.4013 H   0  0  0  0  0  0  0  0  0  0  0  0
    9.9340    1.2320  -56.4210 H   0  0  0  0  0  0  0  0  0  0  0  0
    7.8206    4.1483  -56.5232 H   0  0  0  0  0  0  0  0  0  0  0  0
    9.5904    4.3300  -56.2205 H   0  0  0  0  0  0  0  0  0  0  0  0
    8.6927    6.2521  -57.5382 H   0  0  0  0  0  0  0  0  0  0  0  0
   10.3336    6.1100  -59.4138 H   0  0  0  0  0  0  0  0  0  0  0  0
   11.0393    5.4692  -57.8870 H   0  0  0  0  0  0  0  0  0  0  0  0
   11.5603    3.9743  -59.8152 H   0  0  0  0  0  0  0  0  0  0  0  0
    9.5503    4.5205  -61.1893 H   0  0  0  0  0  0  0  0  0  0  0  0
    9.6971    2.7457  -60.9298 H   0  0  0  0  0  0  0  0  0  0  0  0
    7.3456    3.5158  -60.5951 H   0  0  0  0  0  0  0  0  0  0  0  0
    7.8775    5.8418  -59.8622 H   0  0  0  0  0  0  0  0  0  0  0  0
    6.8349    5.0056  -58.6542 H   0  0  0  0  0  0  0  0  0  0  0  0
    7.0256    2.5354  -58.3252 H   0  0  0  0  0  0  0  0  0  0  0  0
    8.2444    1.5992  -59.2700 H   0  0  0  0  0  0  0  0  0  0  0  0
   10.6795    1.8673  -58.8081 H   0  0  0  0  0  0  0  0  0  0  0  0
   11.2322    3.0225  -57.5329 H   0  0  0  0  0  0  0  0  0  0  0  0
   11.4795   -1.2939  -53.4550 H   0  0  0  0  0  0  0  0  0  0  0  0
   10.4590   -2.6837  -52.8502 H   0  0  0  0  0  0  0  0  0  0  0  0
   12.1386   -3.3884  -54.4455 H   0  0  0  0  0  0  0  0  0  0  0  0
   12.3790   -1.8130  -55.9760 H   0  0  0  0  0  0  0  0  0  0  0  0
   10.4130   -4.9171  -54.5599 H   0  0  0  0  0  0  0  0  0  0  0  0
    9.2069   -3.6871  -55.0744 H   0  0  0  0  0  0  0  0  0  0  0  0
   10.6490   -5.3710  -56.5720 H   0  0  0  0  0  0  0  0  0  0  0  0
    8.5252   -1.1265  -50.8399 H   0  0  0  0  0  0  0  0  0  0  0  0
    7.9282   -2.7620  -49.0537 H   0  0  0  0  0  0  0  0  0  0  0  0
    6.9714   -4.9833  -49.6637 H   0  0  0  0  0  0  0  0  0  0  0  0
    6.6289   -5.5775  -52.0621 H   0  0  0  0  0  0  0  0  0  0  0  0
    7.2266   -3.9469  -53.8499 H   0  0  0  0  0  0  0  0  0  0  0  0
  1  2  1  0
  2  3  1  0
  3  4  1  0
  4  5  2  0
  4  6  1  0
  7  6  1  1
  7  8  1  0
  8  9  1  0
  9 10  1  0
 10 11  1  0
 11 12  1  0
 12 13  1  0
 13 14  1  0
 13 15  1  0
 11 16  1  0
  3 17  2  0
 17 18  1  0
 18 19  1  0
 19 20  1  0
 20 21  1  0
 20 22  1  0
 22 23  1  0
 18 24  1  0
 24 25  1  0
 25 26  2  0
 26 27  1  0
 27 28  2  0
 28 29  1  0
 29 30  2  0
 24  2  2  0
 30 25  1  0
 15  7  1  0
 16  7  1  0
 14  9  1  0
  1 31  1  0
  1 32  1  0
  1 33  1  0
  6 34  1  0
  8 35  1  0
  8 36  1  0
  9 37  1  1
 10 38  1  0
 10 39  1  0
 11 40  1  6
 12 41  1  0
 12 42  1  0
 13 43  1  6
 14 44  1  0
 14 45  1  0
 15 46  1  0
 15 47  1  0
 16 48  1  0
 16 49  1  0
 19 50  1  0
 19 51  1  0
 20 52  1  1
 21 53  1  0
 22 54  1  0
 22 55  1  0
 23 56  1  0
 26 57  1  0
 27 58  1  0
 28 59  1  0
 29 60  1  0
 30 61  1  0
M  END
>  <meeko>  (74) 
{"is_sidechain": false}

$$$$

     RDKit          3D

 61 65  0  0  0  0  0  0  0  0999 V2000
    6.0920    0.0440  -53.7830 C   0  0  0  0  0  0  0  0  0  0  0  0
    7.4550   -0.3970  -54.1800 C   0  0  0  0  0  0  0  0  0  0  0  0
    8.2770    0.1840  -55.1900 C   0  0  0  0  0  0  0  0  0  0  0  0
    7.9690    1.3430  -56.0550 C   0  0  0  0  0  0  0  0  0  0  0  0
    6.8790    1.9020  -56.0630 O   0  0  0  0  0  0  0  0  0  0  0  0
    9.0430    1.7180  -56.8330 N   0  0  0  0  0  0  0  0  0  0  0  0
    9.0940    2.8630  -57.7360 C   0  0  2  0  0  0  0  0  0  0  0  0
    9.0330    4.2030  -56.9610 C   0  0  0  0  0  0  0  0  0  0  0  0
    9.1400    5.3930  -57.9290 C   0  0  1  0  0  0  0  0  0  0  0  0
   10.4770    5.3170  -58.6840 C   0  0  0  0  0  0  0  0  0  0  0  0
   10.5550    4.0050  -59.4810 C   0  0  2  0  0  0  0  0  0  0  0  0
    9.3950    3.9500  -60.4870 C   0  0  0  0  0  0  0  0  0  0  0  0
    8.0520    4.0190  -59.7420 C   0  0  2  0  0  0  0  0  0  0  0  0
    7.9820    5.3290  -58.9400 C   0  0  0  0  0  0  0  0  0  0  0  0
    7.9450    2.8270  -58.7740 C   0  0  0  0  0  0  0  0  0  0  0  0
   10.4380    2.8180  -58.5120 C   0  0  0  0  0  0  0  0  0  0  0  0
    9.4610   -0.4560  -55.2820 N   0  0  0  0  0  0  0  0  0  0  0  0
    9.3740   -1.4540  -54.3740 N   0  0  0  0  0  0  0  0  0  0  0  0
   10.5340   -2.3110  -54.1910 C   0  0  0  0  0  0  0  0  0  0  0  0
   10.8460   -3.2370  -55.3700 C   0  0  1  0  0  0  0  0  0  0  0  0
   11.4850   -2.5190  -56.4360 O   0  0  0  0  0  0  0  0  0  0  0  0
   11.6990   -4.4620  -55.0250 C   0  0  0  0  0  0  0  0  0  0  0  0
   12.4440   -4.8200  -56.1960 O   0  0  0  0  0  0  0  0  0  0  0  0
    8.2050   -1.4380  -53.6520 C   0  0  0  0  0  0  0  0  0  0  0  0
    7.8970   -2.3390  -52.5460 C   0  0  0  0  0  0  0  0  0  0  0  0
    7.3770   -3.6120  -52.8060 C   0  0  0  0  0  0  0  0  0  0  0  0
    7.0820   -4.4830  -51.7560 C   0  0  0  0  0  0  0  0  0  0  0  0
    7.3080   -4.0870  -50.4380 C   0  0  0  0  0  0  0  0  0  0  0  0
    7.8310   -2.8220  -50.1710 C   0  0  0  0  0  0  0  0  0  0  0  0
    8.1290   -1.9520  -51.2220 C   0  0  0  0  0  0  0  0  0  0  0  0
    6.0193    0.0675  -52.6857 H   0  0  0  0  0  0  0  0  0  0  0  0
    5.9005    1.0499  -54.1848 H   0  0  0  0  0  0  0  0  0  0  0  0
    5.3476   -0.6591  -54.1848 H   0  0  0  0  0  0  0  0  0  0  0  0
    9.8870    1.1830  -56.6430 H   0  0  0  0  0  0  0  0  0  0  0  0
    8.0784    4.2634  -56.4179 H   0  0  0  0  0  0  0  0  0  0  0  0
    9.8755    4.2432  -56.2549 H   0  0  0  0  0  0  0  0  0  0  0  0
    9.0883    6.3353  -57.3639 H   0  0  0  0  0  0  0  0  0  0  0  0
   10.5540    6.1689  -59.3757 H   0  0  0  0  0  0  0  0  0  0  0  0
   11.3040    5.3498  -57.9594 H   0  0  0  0  0  0  0  0  0  0  0  0
   11.5136    3.9557  -60.0183 H   0  0  0  0  0  0  0  0  0  0  0  0
    9.4721    4.8013  -61.1794 H   0  0  0  0  0  0  0  0  0  0  0  0
    9.4486    3.0065  -61.0500 H   0  0  0  0  0  0  0  0  0  0  0  0
    7.2258    3.9834  -60.4673 H   0  0  0  0  0  0  0  0  0  0  0  0
    8.0542    6.1824  -59.6303 H   0  0  0  0  0  0  0  0  0  0  0  0
    7.0268    5.3672  -58.3959 H   0  0  0  0  0  0  0  0  0  0  0  0
    6.9804    2.8744  -58.2474 H   0  0  0  0  0  0  0  0  0  0  0  0
    8.0178    1.8936  -59.3514 H   0  0  0  0  0  0  0  0  0  0  0  0
   10.4917    1.8800  -59.0841 H   0  0  0  0  0  0  0  0  0  0  0  0
   11.2632    2.8752  -57.7869 H   0  0  0  0  0  0  0  0  0  0  0  0
   11.4101   -1.6679  -54.0208 H   0  0  0  0  0  0  0  0  0  0  0  0
   10.3013   -2.9660  -53.3384 H   0  0  0  0  0  0  0  0  0  0  0  0
    9.8607   -3.6140  -55.6816 H   0  0  0  0  0  0  0  0  0  0  0  0
   10.9930   -2.7830  -57.2410 H   0  0  0  0  0  0  0  0  0  0  0  0
   12.3880   -4.2188  -54.2028 H   0  0  0  0  0  0  0  0  0  0  0  0
   11.0597   -5.2981  -54.7054 H   0  0  0  0  0  0  0  0  0  0  0  0
   13.3420   -5.0450  -55.8930 H   0  0  0  0  0  0  0  0  0  0  0  0
    7.1996   -3.9282  -53.8445 H   0  0  0  0  0  0  0  0  0  0  0  0
    6.6715   -5.4813  -51.9679 H   0  0  0  0  0  0  0  0  0  0  0  0
    7.0739   -4.7719  -49.6097 H   0  0  0  0  0  0  0  0  0  0  0  0
    8.0090   -2.5092  -49.1315 H   0  0  0  0  0  0  0  0  0  0  0  0
    8.5481   -0.9578  -51.0077 H   0  0  0  0  0  0  0  0  0  0  0  0
  1  2  1  0
  2  3  1  0
  3  4  1  0
  4  5  2  0
  4  6  1  0
  7  6  1  1
  7  8  1  0
  8  9  1  0
  9 10  1  0
 10 11  1  0
 11 12  1  0
 12 13  1  0
 13 14  1  0
 13 15  1  0
 11 16  1  0
  3 17  2  0
 17 18  1  0
 18 19  1  0
 19 20  1  0
 20 21  1  0
 20 22  1  0
 22 23  1  0
 18 24  1  0
 24 25  1  0
 25 26  2  0
 26 27  1  0
 27 28  2  0
 28 29  1  0
 29 30  2  0
 24  2  2  0
 30 25  1  0
 15  7  1  0
 16  7  1  0
 14  9  1  0
  1 31  1  0
  1 32  1  0
  1 33  1  0
  6 34  1  0
  8 35  1  0
  8 36  1  0
  9 37  1  1
 10 38  1  0
 10 39  1  0
 11 40  1  6
 12 41  1  0
 12 42  1  0
 13 43  1  6
 14 44  1  0
 14 45  1  0
 15 46  1  0
 15 47  1  0
 16 48  1  0
 16 49  1  0
 19 50  1  0
 19 51  1  0
 20 52  1  6
 21 53  1  0
 22 54  1  0
 22 55  1  0
 23 56  1  0
 26 57  1  0
 27 58  1  0
 28 59  1  0
 29 60  1  0
 30 61  1  0
M  END
>  <meeko>  (75) 
{"is_sidechain": false}

$$$$

     RDKit          3D

 59 63  0  0  0  0  0  0  0  0999 V2000
    5.8960    0.4100  -52.7450 C   0  0  0  0  0  0  0  0  0  0  0  0
    6.2320   -0.3990  -53.9870 C   0  0  0  0  0  0  0  0  0  0  0  0
    7.7000   -0.6430  -54.1300 C   0  0  0  0  0  0  0  0  0  0  0  0
    8.6150    0.0300  -54.9970 C   0  0  0  0  0  0  0  0  0  0  0  0
    8.3380    1.1260  -55.9490 C   0  0  0  0  0  0  0  0  0  0  0  0
    7.2080    1.5400  -56.1900 O   0  0  0  0  0  0  0  0  0  0  0  0
    9.4860    1.6260  -56.5260 N   0  0  0  0  0  0  0  0  0  0  0  0
    9.5670    2.7190  -57.4880 C   0  0  2  0  0  0  0  0  0  0  0  0
    9.0990    4.0590  -56.8690 C   0  0  0  0  0  0  0  0  0  0  0  0
    9.2390    5.2040  -57.8890 C   0  0  1  0  0  0  0  0  0  0  0  0
   10.7130    5.3360  -58.3040 C   0  0  0  0  0  0  0  0  0  0  0  0
   11.1990    4.0250  -58.9400 C   0  0  2  0  0  0  0  0  0  0  0  0
   10.3440    3.7130  -60.1780 C   0  0  0  0  0  0  0  0  0  0  0  0
    8.8680    3.5700  -59.7750 C   0  0  2  0  0  0  0  0  0  0  0  0
    8.3900    4.8830  -59.1300 C   0  0  0  0  0  0  0  0  0  0  0  0
    8.7280    2.4260  -58.7560 C   0  0  0  0  0  0  0  0  0  0  0  0
   11.0470    2.8830  -57.9220 C   0  0  0  0  0  0  0  0  0  0  0  0
    9.8660   -0.4550  -54.8550 N   0  0  0  0  0  0  0  0  0  0  0  0
    9.7490   -1.4130  -53.9160 N   0  0  0  0  0  0  0  0  0  0  0  0
   10.9400   -2.1430  -53.5180 C   0  0  0  0  0  0  0  0  0  0  0  0
   11.1630   -3.3830  -54.3650 C   0  0  0  0  0  0  0  0  0  0  0  0
    8.4700   -1.5720  -53.4440 C   0  0  0  0  0  0  0  0  0  0  0  0
    8.0840   -2.5350  -52.4210 C   0  0  0  0  0  0  0  0  0  0  0  0
    7.6320   -3.8080  -52.7850 C   0  0  0  0  0  0  0  0  0  0  0  0
    7.2640   -4.7290  -51.8040 C   0  0  0  0  0  0  0  0  0  0  0  0
    7.3450   -4.3820  -50.4550 C   0  0  0  0  0  0  0  0  0  0  0  0
    7.7880   -3.1130  -50.0870 C   0  0  0  0  0  0  0  0  0  0  0  0
    8.1560   -2.1900  -51.0670 C   0  0  0  0  0  0  0  0  0  0  0  0
    6.1400   -0.1775  -51.8476 H   0  0  0  0  0  0  0  0  0  0  0  0
    6.4819    1.3410  -52.7442 H   0  0  0  0  0  0  0  0  0  0  0  0
    4.8230    0.6520  -52.7442 H   0  0  0  0  0  0  0  0  0  0  0  0
    5.7172   -1.3692  -53.9263 H   0  0  0  0  0  0  0  0  0  0  0  0
    5.9019    0.1792  -54.8626 H   0  0  0  0  0  0  0  0  0  0  0  0
   10.3350    1.1700  -56.1960 H   0  0  0  0  0  0  0  0  0  0  0  0
    8.0448    3.9697  -56.5679 H   0  0  0  0  0  0  0  0  0  0  0  0
    9.7263    4.2842  -55.9939 H   0  0  0  0  0  0  0  0  0  0  0  0
    8.8954    6.1465  -57.4379 H   0  0  0  0  0  0  0  0  0  0  0  0
   10.8145    6.1539  -59.0325 H   0  0  0  0  0  0  0  0  0  0  0  0
   11.3210    5.5524  -57.4132 H   0  0  0  0  0  0  0  0  0  0  0  0
   12.2543    4.1253  -59.2338 H   0  0  0  0  0  0  0  0  0  0  0  0
   10.4451    4.5312  -60.9062 H   0  0  0  0  0  0  0  0  0  0  0  0
   10.6888    2.7696  -60.6265 H   0  0  0  0  0  0  0  0  0  0  0  0
    8.2606    3.3498  -60.6653 H   0  0  0  0  0  0  0  0  0  0  0  0
    8.4865    5.7018  -59.8581 H   0  0  0  0  0  0  0  0  0  0  0  0
    7.3384    4.7723  -58.8270 H   0  0  0  0  0  0  0  0  0  0  0  0
    7.6701    2.3214  -58.4732 H   0  0  0  0  0  0  0  0  0  0  0  0
    9.0932    1.4956  -59.2154 H   0  0  0  0  0  0  0  0  0  0  0  0
   11.3939    1.9447  -58.3795 H   0  0  0  0  0  0  0  0  0  0  0  0
   11.6485    3.1235  -57.0330 H   0  0  0  0  0  0  0  0  0  0  0  0
   11.8124   -1.4812  -53.6224 H   0  0  0  0  0  0  0  0  0  0  0  0
   10.8049   -2.4663  -52.4753 H   0  0  0  0  0  0  0  0  0  0  0  0
   11.3193   -4.2520  -53.7089 H   0  0  0  0  0  0  0  0  0  0  0  0
   10.2817   -3.5567  -54.9999 H   0  0  0  0  0  0  0  0  0  0  0  0
   12.0496   -3.2388  -54.9999 H   0  0  0  0  0  0  0  0  0  0  0  0
    7.5666   -4.0835  -53.8479 H   0  0  0  0  0  0  0  0  0  0  0  0
    6.9098   -5.7292  -52.0941 H   0  0  0  0  0  0  0  0  0  0  0  0
    7.0591   -5.1103  -49.6818 H   0  0  0  0  0  0  0  0  0  0  0  0
    7.8477   -2.8386  -49.0234 H   0  0  0  0  0  0  0  0  0  0  0  0
    8.5037   -1.1884  -50.7740 H   0  0  0  0  0  0  0  0  0  0  0  0
  1  2  1  0
  2  3  1  0
  3  4  1  0
  4  5  1  0
  5  6  2  0
  5  7  1  0
  8  7  1  1
  8  9  1  0
  9 10  1  0
 10 11  1  0
 11 12  1  0
 12 13  1  0
 13 14  1  0
 14 15  1  0
 14 16  1  0
 12 17  1  0
  4 18  2  0
 18 19  1  0
 19 20  1  0
 20 21  1  0
 19 22  1  0
 22 23  1  0
 23 24  2  0
 24 25  1  0
 25 26  2  0
 26 27  1  0
 27 28  2  0
 22  3  2  0
 28 23  1  0
 16  8  1  0
 17  8  1  0
 15 10  1  0
  1 29  1  0
  1 30  1  0
  1 31  1  0
  2 32  1  0
  2 33  1  0
  7 34  1  0
  9 35  1  0
  9 36  1  0
 10 37  1  1
 11 38  1  0
 11 39  1  0
 12 40  1  6
 13 41  1  0
 13 42  1  0
 14 43  1  6
 15 44  1  0
 15 45  1  0
 16 46  1  0
 16 47  1  0
 17 48  1  0
 17 49  1  0
 20 50  1  0
 20 51  1  0
 21 52  1  0
 21 53  1  0
 21 54  1  0
 24 55  1  0
 25 56  1  0
 26 57  1  0
 27 58  1  0
 28 59  1  0
M  END
>  <meeko>  (76) 
{"is_sidechain": false}

$$$$

     RDKit          3D

 66 70  0  0  0  0  0  0  0  0999 V2000
   11.8010   -4.7250  -58.7950 C   0  0  0  0  0  0  0  0  0  0  0  0
   11.9750   -4.0620  -57.4530 C   0  0  0  0  0  0  0  0  0  0  0  0
   12.2720   -2.8770  -57.3480 O   0  0  0  0  0  0  0  0  0  0  0  0
   11.7610   -4.9030  -56.3830 N   0  0  0  0  0  0  0  0  0  0  0  0
   11.7370   -4.3840  -55.0270 C   0  0  0  0  0  0  0  0  0  0  0  0
   10.3860   -3.7460  -54.7150 C   0  0  0  0  0  0  0  0  0  0  0  0
   10.5130   -2.4870  -53.8620 C   0  0  0  0  0  0  0  0  0  0  0  0
    9.4280   -1.5430  -54.0670 N   0  0  0  0  0  0  0  0  0  0  0  0
    9.5770   -0.5930  -55.0080 N   0  0  0  0  0  0  0  0  0  0  0  0
    8.4130    0.0880  -54.9860 C   0  0  0  0  0  0  0  0  0  0  0  0
    8.1780    1.2200  -55.9050 C   0  0  0  0  0  0  0  0  0  0  0  0
    7.0650    1.6880  -56.1180 O   0  0  0  0  0  0  0  0  0  0  0  0
    9.3400    1.6750  -56.4910 N   0  0  0  0  0  0  0  0  0  0  0  0
    9.4500    2.7390  -57.4820 C   0  0  2  0  0  0  0  0  0  0  0  0
    8.5240    2.4820  -58.6970 C   0  0  0  0  0  0  0  0  0  0  0  0
    8.6940    3.5910  -59.7500 C   0  0  1  0  0  0  0  0  0  0  0  0
    8.3500    4.9490  -59.1160 C   0  0  0  0  0  0  0  0  0  0  0  0
    9.2850    5.2320  -57.9290 C   0  0  2  0  0  0  0  0  0  0  0  0
   10.7410    5.2450  -58.4230 C   0  0  0  0  0  0  0  0  0  0  0  0
   11.0940    3.8880  -59.0500 C   0  0  2  0  0  0  0  0  0  0  0  0
   10.1540    3.6140  -60.2340 C   0  0  0  0  0  0  0  0  0  0  0  0
   10.9140    2.7830  -57.9960 C   0  0  0  0  0  0  0  0  0  0  0  0
    9.1150    4.1240  -56.8750 C   0  0  0  0  0  0  0  0  0  0  0  0
    7.5240   -0.4460  -54.0060 C   0  0  0  0  0  0  0  0  0  0  0  0
    6.1570    0.0410  -53.6890 C   0  0  0  0  0  0  0  0  0  0  0  0
    8.2130   -1.5030  -53.4260 C   0  0  0  0  0  0  0  0  0  0  0  0
    7.8020   -2.4310  -52.3820 C   0  0  0  0  0  0  0  0  0  0  0  0
    8.1460   -2.1920  -51.0470 C   0  0  0  0  0  0  0  0  0  0  0  0
    7.7520   -3.0850  -50.0480 C   0  0  0  0  0  0  0  0  0  0  0  0
    7.0080   -4.2160  -50.3800 C   0  0  0  0  0  0  0  0  0  0  0  0
    6.6520   -4.4540  -51.7060 C   0  0  0  0  0  0  0  0  0  0  0  0
    7.0450   -3.5630  -52.7050 C   0  0  0  0  0  0  0  0  0  0  0  0
   11.5242   -5.7797  -58.6498 H   0  0  0  0  0  0  0  0  0  0  0  0
   11.0072   -4.2117  -59.3574 H   0  0  0  0  0  0  0  0  0  0  0  0
   12.7446   -4.6676  -59.3574 H   0  0  0  0  0  0  0  0  0  0  0  0
   11.2520   -5.7590  -56.5640 H   0  0  0  0  0  0  0  0  0  0  0  0
   11.9179   -5.2087  -54.3219 H   0  0  0  0  0  0  0  0  0  0  0  0
   12.5200   -3.6177  -54.9287 H   0  0  0  0  0  0  0  0  0  0  0  0
    9.8945   -3.4810  -55.6628 H   0  0  0  0  0  0  0  0  0  0  0  0
    9.7970   -4.4776  -54.1424 H   0  0  0  0  0  0  0  0  0  0  0  0
   10.5233   -2.7825  -52.8025 H   0  0  0  0  0  0  0  0  0  0  0  0
   11.4442   -1.9834  -54.1606 H   0  0  0  0  0  0  0  0  0  0  0  0
   10.1670    1.1440  -56.2220 H   0  0  0  0  0  0  0  0  0  0  0  0
    8.7803    1.5122  -59.1484 H   0  0  0  0  0  0  0  0  0  0  0  0
    7.4794    2.4765  -58.3525 H   0  0  0  0  0  0  0  0  0  0  0  0
    8.0246    3.3979  -60.6013 H   0  0  0  0  0  0  0  0  0  0  0  0
    8.4683    5.7421  -59.8690 H   0  0  0  0  0  0  0  0  0  0  0  0
    7.3106    4.9247  -58.7567 H   0  0  0  0  0  0  0  0  0  0  0  0
    9.0366    6.2070  -57.4844 H   0  0  0  0  0  0  0  0  0  0  0  0
   10.8633    6.0373  -59.1762 H   0  0  0  0  0  0  0  0  0  0  0  0
   11.4102    5.4346  -57.5708 H   0  0  0  0  0  0  0  0  0  0  0  0
   12.1363    3.9027  -59.4012 H   0  0  0  0  0  0  0  0  0  0  0  0
   10.2759    4.4063  -60.9873 H   0  0  0  0  0  0  0  0  0  0  0  0
   10.4040    2.6383  -60.6762 H   0  0  0  0  0  0  0  0  0  0  0  0
   11.1667    1.8117  -58.4461 H   0  0  0  0  0  0  0  0  0  0  0  0
   11.5781    2.9976  -57.1457 H   0  0  0  0  0  0  0  0  0  0  0  0
    9.7912    4.3217  -56.0302 H   0  0  0  0  0  0  0  0  0  0  0  0
    8.0698    4.1178  -56.5321 H   0  0  0  0  0  0  0  0  0  0  0  0
    6.0281    0.0869  -52.5975 H   0  0  0  0  0  0  0  0  0  0  0  0
    6.0167    1.0444  -54.1173 H   0  0  0  0  0  0  0  0  0  0  0  0
    5.4139   -0.6477  -54.1173 H   0  0  0  0  0  0  0  0  0  0  0  0
    8.7290   -1.2973  -50.7832 H   0  0  0  0  0  0  0  0  0  0  0  0
    8.0285   -2.8960  -49.0002 H   0  0  0  0  0  0  0  0  0  0  0  0
    6.7014   -4.9218  -49.5940 H   0  0  0  0  0  0  0  0  0  0  0  0
    6.0609   -5.3447  -51.9652 H   0  0  0  0  0  0  0  0  0  0  0  0
    6.7589   -3.7509  -53.7504 H   0  0  0  0  0  0  0  0  0  0  0  0
  1  2  1  0
  2  3  2  0
  2  4  1  0
  4  5  1  0
  5  6  1  0
  6  7  1  0
  7  8  1  0
  8  9  1  0
  9 10  2  0
 10 11  1  0
 11 12  2  0
 11 13  1  0
 14 13  1  1
 14 15  1  0
 15 16  1  0
 16 17  1  0
 17 18  1  0
 18 19  1  0
 19 20  1  0
 20 21  1  0
 20 22  1  0
 18 23  1  0
 10 24  1  0
 24 25  1  0
 24 26  2  0
 26 27  1  0
 27 28  2  0
 28 29  1  0
 29 30  2  0
 30 31  1  0
 31 32  2  0
 26  8  1  0
 32 27  1  0
 22 14  1  0
 23 14  1  0
 21 16  1  0
  1 33  1  0
  1 34  1  0
  1 35  1  0
  4 36  1  0
  5 37  1  0
  5 38  1  0
  6 39  1  0
  6 40  1  0
  7 41  1  0
  7 42  1  0
 13 43  1  0
 15 44  1  0
 15 45  1  0
 16 46  1  6
 17 47  1  0
 17 48  1  0
 18 49  1  1
 19 50  1  0
 19 51  1  0
 20 52  1  6
 21 53  1  0
 21 54  1  0
 22 55  1  0
 22 56  1  0
 23 57  1  0
 23 58  1  0
 25 59  1  0
 25 60  1  0
 25 61  1  0
 28 62  1  0
 29 63  1  0
 30 64  1  0
 31 65  1  0
 32 66  1  0
M  END
>  <meeko>  (77) 
{"is_sidechain": false}

$$$$

     RDKit          3D

 62 66  0  0  0  0  0  0  0  0999 V2000
    5.5320   -0.3840  -53.9790 C   0  0  0  0  0  0  0  0  0  0  0  0
    6.9750   -0.4650  -54.3200 C   0  0  0  0  0  0  0  0  0  0  0  0
    7.6900    0.2630  -55.3120 C   0  0  0  0  0  0  0  0  0  0  0  0
    7.1790    1.2820  -56.2840 C   0  0  0  0  0  0  0  0  0  0  0  0
    8.2250    2.2950  -56.8190 C   0  0  2  0  0  0  0  0  0  0  0  0
    9.4680    2.3960  -55.8980 C   0  0  0  0  0  0  0  0  0  0  0  0
   10.4540    3.4550  -56.4240 C   0  0  1  0  0  0  0  0  0  0  0  0
   10.9040    3.0680  -57.8410 C   0  0  0  0  0  0  0  0  0  0  0  0
    9.6890    2.9960  -58.7790 C   0  0  2  0  0  0  0  0  0  0  0  0
    8.9930    4.3660  -58.8160 C   0  0  0  0  0  0  0  0  0  0  0  0
    8.5360    4.7580  -57.4020 C   0  0  2  0  0  0  0  0  0  0  0  0
    9.7560    4.8230  -56.4700 C   0  0  0  0  0  0  0  0  0  0  0  0
    7.5560    3.6970  -56.8770 C   0  0  0  0  0  0  0  0  0  0  0  0
    8.7050    1.9360  -58.2510 C   0  0  0  0  0  0  0  0  0  0  0  0
    8.9820   -0.0820  -55.3430 N   0  0  0  0  0  0  0  0  0  0  0  0
    9.1050   -1.0100  -54.3770 N   0  0  0  0  0  0  0  0  0  0  0  0
   10.4100   -1.6000  -54.1500 C   0  0  0  0  0  0  0  0  0  0  0  0
   10.9620   -2.3830  -55.3420 C   0  0  0  0  0  0  0  0  0  0  0  0
   10.4010   -3.7940  -55.5280 C   0  0  0  0  0  0  0  0  0  0  0  0
   10.8080   -4.4580  -56.8360 C   0  0  0  0  0  0  0  0  0  0  0  0
   11.5150   -3.5120  -57.6280 O   0  0  0  0  0  0  0  0  0  0  0  0
    7.9320   -1.2660  -53.7100 C   0  0  0  0  0  0  0  0  0  0  0  0
    7.7940   -2.2120  -52.6100 C   0  0  0  0  0  0  0  0  0  0  0  0
    7.9100   -1.7770  -51.2860 C   0  0  0  0  0  0  0  0  0  0  0  0
    7.7770   -2.6840  -50.2340 C   0  0  0  0  0  0  0  0  0  0  0  0
    7.5230   -4.0290  -50.5010 C   0  0  0  0  0  0  0  0  0  0  0  0
    7.3970   -4.4670  -51.8190 C   0  0  0  0  0  0  0  0  0  0  0  0
    7.5280   -3.5600  -52.8710 C   0  0  0  0  0  0  0  0  0  0  0  0
    5.4135   -0.3773  -52.8854 H   0  0  0  0  0  0  0  0  0  0  0  0
    5.1071    0.5394  -54.3995 H   0  0  0  0  0  0  0  0  0  0  0  0
    5.0065   -1.2541  -54.3995 H   0  0  0  0  0  0  0  0  0  0  0  0
    6.7597    0.7437  -57.1468 H   0  0  0  0  0  0  0  0  0  0  0  0
    6.4436    1.8810  -55.7269 H   0  0  0  0  0  0  0  0  0  0  0  0
    9.1442    2.6765  -54.8848 H   0  0  0  0  0  0  0  0  0  0  0  0
    9.9748    1.4198  -55.8817 H   0  0  0  0  0  0  0  0  0  0  0  0
   11.3281    3.5089  -55.7583 H   0  0  0  0  0  0  0  0  0  0  0  0
   11.6102    3.8227  -58.2174 H   0  0  0  0  0  0  0  0  0  0  0  0
   11.3922    2.0828  -57.8075 H   0  0  0  0  0  0  0  0  0  0  0  0
   10.0176    2.7236  -59.7928 H   0  0  0  0  0  0  0  0  0  0  0  0
    9.6961    5.1223  -59.1950 H   0  0  0  0  0  0  0  0  0  0  0  0
    8.1161    4.3093  -59.4777 H   0  0  0  0  0  0  0  0  0  0  0  0
    8.0425    5.7406  -57.4325 H   0  0  0  0  0  0  0  0  0  0  0  0
   10.4611    5.5796  -56.8448 H   0  0  0  0  0  0  0  0  0  0  0  0
    9.4232    5.0934  -55.4570 H   0  0  0  0  0  0  0  0  0  0  0  0
    7.2279    3.9803  -55.8660 H   0  0  0  0  0  0  0  0  0  0  0  0
    6.6974    3.6456  -57.5627 H   0  0  0  0  0  0  0  0  0  0  0  0
    7.8343    1.8863  -58.9214 H   0  0  0  0  0  0  0  0  0  0  0  0
    9.2183    0.9637  -58.2177 H   0  0  0  0  0  0  0  0  0  0  0  0
   11.1169   -0.7916  -53.9115 H   0  0  0  0  0  0  0  0  0  0  0  0
   10.2915   -2.3204  -53.3272 H   0  0  0  0  0  0  0  0  0  0  0  0
   10.7417   -1.8091  -56.2542 H   0  0  0  0  0  0  0  0  0  0  0  0
   12.0362   -2.5120  -55.1436 H   0  0  0  0  0  0  0  0  0  0  0  0
   10.7584   -4.4200  -54.6971 H   0  0  0  0  0  0  0  0  0  0  0  0
    9.3053   -3.6992  -55.5482 H   0  0  0  0  0  0  0  0  0  0  0  0
   11.4553   -5.3224  -56.6264 H   0  0  0  0  0  0  0  0  0  0  0  0
    9.9133   -4.8032  -57.3749 H   0  0  0  0  0  0  0  0  0  0  0  0
   12.1240   -3.0440  -57.0310 H   0  0  0  0  0  0  0  0  0  0  0  0
    8.1068   -0.7159  -51.0731 H   0  0  0  0  0  0  0  0  0  0  0  0
    7.8725   -2.3381  -49.1942 H   0  0  0  0  0  0  0  0  0  0  0  0
    7.4220   -4.7446  -49.6717 H   0  0  0  0  0  0  0  0  0  0  0  0
    7.1943   -5.5275  -52.0292 H   0  0  0  0  0  0  0  0  0  0  0  0
    7.4217   -3.9064  -53.9096 H   0  0  0  0  0  0  0  0  0  0  0  0
  1  2  1  0
  2  3  1  0
  3  4  1  0
  5  4  1  1
  5  6  1  0
  6  7  1  0
  7  8  1  0
  8  9  1  0
  9 10  1  0
 10 11  1  0
 11 12  1  0
 11 13  1  0
  9 14  1  0
  3 15  2  0
 15 16  1  0
 16 17  1  0
 17 18  1  0
 18 19  1  0
 19 20  1  0
 20 21  1  0
 16 22  1  0
 22 23  1  0
 23 24  2  0
 24 25  1  0
 25 26  2  0
 26 27  1  0
 27 28  2  0
 22  2  2  0
 28 23  1  0
 13  5  1  0
 14  5  1  0
 12  7  1  0
  1 29  1  0
  1 30  1  0
  1 31  1  0
  4 32  1  0
  4 33  1  0
  6 34  1  0
  6 35  1  0
  7 36  1  1
  8 37  1  0
  8 38  1  0
  9 39  1  6
 10 40  1  0
 10 41  1  0
 11 42  1  6
 12 43  1  0
 12 44  1  0
 13 45  1  0
 13 46  1  0
 14 47  1  0
 14 48  1  0
 17 49  1  0
 17 50  1  0
 18 51  1  0
 18 52  1  0
 19 53  1  0
 19 54  1  0
 20 55  1  0
 20 56  1  0
 21 57  1  0
 24 58  1  0
 25 59  1  0
 26 60  1  0
 27 61  1  0
 28 62  1  0
M  END
>  <meeko>  (78) 
{"is_sidechain": false}

$$$$

     RDKit          3D

 67 71  0  0  0  0  0  0  0  0999 V2000
    6.5320   -0.3190  -53.7200 C   0  0  0  0  0  0  0  0  0  0  0  0
    7.9430   -0.6540  -54.0400 C   0  0  0  0  0  0  0  0  0  0  0  0
    8.7770    0.0050  -54.9940 C   0  0  0  0  0  0  0  0  0  0  0  0
    8.3980    1.0820  -55.9250 C   0  0  0  0  0  0  0  0  0  0  0  0
    7.2540    1.5150  -56.0340 O   0  0  0  0  0  0  0  0  0  0  0  0
    9.4770    1.5650  -56.6500 N   0  0  0  0  0  0  0  0  0  0  0  0
    9.4340    2.7270  -57.5360 C   0  0  2  0  0  0  0  0  0  0  0  0
    9.1990    4.0380  -56.7480 C   0  0  0  0  0  0  0  0  0  0  0  0
    9.2180    5.2500  -57.6960 C   0  0  1  0  0  0  0  0  0  0  0  0
   10.5860    5.3290  -58.3920 C   0  0  0  0  0  0  0  0  0  0  0  0
   10.8360    4.0490  -59.2030 C   0  0  2  0  0  0  0  0  0  0  0  0
    9.7320    3.8890  -60.2600 C   0  0  0  0  0  0  0  0  0  0  0  0
    8.3610    3.8000  -59.5730 C   0  0  2  0  0  0  0  0  0  0  0  0
    8.1180    5.0810  -58.7560 C   0  0  0  0  0  0  0  0  0  0  0  0
    8.3420    2.5860  -58.6270 C   0  0  0  0  0  0  0  0  0  0  0  0
   10.8060    2.8380  -58.2560 C   0  0  0  0  0  0  0  0  0  0  0  0
   10.0120   -0.5130  -54.9970 N   0  0  0  0  0  0  0  0  0  0  0  0
    9.9660   -1.5250  -54.1040 N   0  0  0  0  0  0  0  0  0  0  0  0
   11.1860   -2.2880  -53.8840 C   0  0  0  0  0  0  0  0  0  0  0  0
   11.1510   -3.6940  -54.4910 C   0  0  0  0  0  0  0  0  0  0  0  0
   10.3560   -3.8120  -55.7900 C   0  0  0  0  0  0  0  0  0  0  0  0
   11.1680   -3.7630  -57.0850 C   0  0  0  0  0  0  0  0  0  0  0  0
   11.8260   -2.7070  -57.2910 O   0  0  0  0  0  0  0  0  0  0  0  0
   11.0900   -4.8100  -57.7880 O   0  0  0  0  0  0  0  0  0  0  0  0
    8.7380   -1.6550  -53.4910 C   0  0  0  0  0  0  0  0  0  0  0  0
    8.4390   -2.7040  -52.4450 C   0  0  0  0  0  0  0  0  0  0  0  0
    8.2210   -2.0630  -51.0600 C   0  0  0  0  0  0  0  0  0  0  0  0
    7.3380   -2.9030  -50.1340 C   0  0  0  0  0  0  0  0  0  0  0  0
    7.4860   -4.3940  -50.4060 C   0  0  0  0  0  0  0  0  0  0  0  0
    7.0750   -4.7560  -51.8350 C   0  0  0  0  0  0  0  0  0  0  0  0
    7.2670   -3.6140  -52.8370 C   0  0  0  0  0  0  0  0  0  0  0  0
    6.4011   -0.2879  -52.6283 H   0  0  0  0  0  0  0  0  0  0  0  0
    6.2824    0.6634  -54.1474 H   0  0  0  0  0  0  0  0  0  0  0  0
    5.8674   -1.0843  -54.1474 H   0  0  0  0  0  0  0  0  0  0  0  0
   10.3800    1.2940  -56.2770 H   0  0  0  0  0  0  0  0  0  0  0  0
    8.2219    3.9875  -56.2452 H   0  0  0  0  0  0  0  0  0  0  0  0
   10.0028    4.1551  -56.0062 H   0  0  0  0  0  0  0  0  0  0  0  0
    9.0415    6.1719  -57.1224 H   0  0  0  0  0  0  0  0  0  0  0  0
   10.6018    6.1972  -59.0672 H   0  0  0  0  0  0  0  0  0  0  0  0
   11.3733    5.4345  -57.6311 H   0  0  0  0  0  0  0  0  0  0  0  0
   11.8157    4.1124  -59.6992 H   0  0  0  0  0  0  0  0  0  0  0  0
    9.7457    4.7565  -60.9362 H   0  0  0  0  0  0  0  0  0  0  0  0
    9.9104    2.9678  -60.8341 H   0  0  0  0  0  0  0  0  0  0  0  0
    7.5742    3.6892  -60.3337 H   0  0  0  0  0  0  0  0  0  0  0  0
    8.1269    5.9497  -59.4308 H   0  0  0  0  0  0  0  0  0  0  0  0
    7.1426    5.0067  -58.2529 H   0  0  0  0  0  0  0  0  0  0  0  0
    7.3557    2.5190  -58.1446 H   0  0  0  0  0  0  0  0  0  0  0  0
    8.5417    1.6768  -59.2130 H   0  0  0  0  0  0  0  0  0  0  0  0
   10.9815    1.9216  -58.8386 H   0  0  0  0  0  0  0  0  0  0  0  0
   11.5906    2.9683  -57.4961 H   0  0  0  0  0  0  0  0  0  0  0  0
   12.0258   -1.7370  -54.3324 H   0  0  0  0  0  0  0  0  0  0  0  0
   11.2970   -2.4101  -52.7964 H   0  0  0  0  0  0  0  0  0  0  0  0
   12.1864   -4.0047  -54.6942 H   0  0  0  0  0  0  0  0  0  0  0  0
   10.6412   -4.3353  -53.7569 H   0  0  0  0  0  0  0  0  0  0  0  0
    9.8171   -4.7707  -55.7678 H   0  0  0  0  0  0  0  0  0  0  0  0
    9.7038   -2.9266  -55.8176 H   0  0  0  0  0  0  0  0  0  0  0  0
    9.3256   -3.3521  -52.3834 H   0  0  0  0  0  0  0  0  0  0  0  0
    9.2014   -1.9286  -50.5797 H   0  0  0  0  0  0  0  0  0  0  0  0
    7.7033   -1.1062  -51.2227 H   0  0  0  0  0  0  0  0  0  0  0  0
    7.6240   -2.7018  -49.0911 H   0  0  0  0  0  0  0  0  0  0  0  0
    6.2897   -2.6254  -50.3186 H   0  0  0  0  0  0  0  0  0  0  0  0
    8.5372   -4.6807  -50.2547 H   0  0  0  0  0  0  0  0  0  0  0  0
    6.8244   -4.9346  -49.7132 H   0  0  0  0  0  0  0  0  0  0  0  0
    7.6809   -5.6130  -52.1644 H   0  0  0  0  0  0  0  0  0  0  0  0
    5.9998   -4.9873  -51.8122 H   0  0  0  0  0  0  0  0  0  0  0  0
    7.4651   -4.0417  -53.8309 H   0  0  0  0  0  0  0  0  0  0  0  0
    6.3497   -3.0069  -52.8440 H   0  0  0  0  0  0  0  0  0  0  0  0
  1  2  1  0
  2  3  1  0
  3  4  1  0
  4  5  2  0
  4  6  1  0
  7  6  1  1
  7  8  1  0
  8  9  1  0
  9 10  1  0
 10 11  1  0
 11 12  1  0
 12 13  1  0
 13 14  1  0
 13 15  1  0
 11 16  1  0
  3 17  2  0
 17 18  1  0
 18 19  1  0
 19 20  1  0
 20 21  1  0
 21 22  1  0
 22 23  2  0
 22 24  1  0
 18 25  1  0
 25 26  1  0
 26 27  1  0
 27 28  1  0
 28 29  1  0
 29 30  1  0
 30 31  1  0
 25  2  2  0
 31 26  1  0
 15  7  1  0
 16  7  1  0
 14  9  1  0
  1 32  1  0
  1 33  1  0
  1 34  1  0
  6 35  1  0
  8 36  1  0
  8 37  1  0
  9 38  1  1
 10 39  1  0
 10 40  1  0
 11 41  1  6
 12 42  1  0
 12 43  1  0
 13 44  1  6
 14 45  1  0
 14 46  1  0
 15 47  1  0
 15 48  1  0
 16 49  1  0
 16 50  1  0
 19 51  1  0
 19 52  1  0
 20 53  1  0
 20 54  1  0
 21 55  1  0
 21 56  1  0
 26 57  1  0
 27 58  1  0
 27 59  1  0
 28 60  1  0
 28 61  1  0
 29 62  1  0
 29 63  1  0
 30 64  1  0
 30 65  1  0
 31 66  1  0
 31 67  1  0
M  CHG  1  24  -1
M  END
>  <meeko>  (79) 
{"is_sidechain": false}

$$$$

     RDKit          3D

 69 74  0  0  0  0  0  0  0  0999 V2000
    8.4200    0.7400  -54.0590 C   0  0  0  0  0  0  0  0  0  0  0  0
    9.3650   -0.2570  -54.6270 C   0  0  0  0  0  0  0  0  0  0  0  0
   10.2610   -0.0840  -55.7330 C   0  0  0  0  0  0  0  0  0  0  0  0
   10.4290    1.1010  -56.6010 C   0  0  0  0  0  0  0  0  0  0  0  0
   11.5270    1.5680  -56.8850 O   0  0  0  0  0  0  0  0  0  0  0  0
    9.2330    1.6100  -57.0810 N   0  0  0  0  0  0  0  0  0  0  0  0
    9.1240    2.7080  -58.0450 C   0  0  2  0  0  0  0  0  0  0  0  0
    7.6220    3.0810  -58.1830 C   0  0  0  0  0  0  0  0  0  0  0  0
    7.4280    4.2260  -59.1900 C   0  0  1  0  0  0  0  0  0  0  0  0
    8.2040    5.4590  -58.7040 C   0  0  0  0  0  0  0  0  0  0  0  0
    9.6980    5.1230  -58.5810 C   0  0  2  0  0  0  0  0  0  0  0  0
   10.2330    4.6790  -59.9540 C   0  0  0  0  0  0  0  0  0  0  0  0
    9.4610    3.4440  -60.4490 C   0  0  2  0  0  0  0  0  0  0  0  0
    7.9680    3.7910  -60.5600 C   0  0  0  0  0  0  0  0  0  0  0  0
    9.6440    2.2940  -59.4430 C   0  0  0  0  0  0  0  0  0  0  0  0
    9.8800    3.9750  -57.5720 C   0  0  0  0  0  0  0  0  0  0  0  0
   10.9890   -1.1950  -55.9320 N   0  0  0  0  0  0  0  0  0  0  0  0
   10.5810   -2.0520  -54.9840 N   0  0  0  0  0  0  0  0  0  0  0  0
   11.1980   -3.3660  -54.9260 C   0  0  0  0  0  0  0  0  0  0  0  0
   10.3930   -4.4150  -55.6930 C   0  0  0  0  0  0  0  0  0  0  0  0
   11.2860   -5.2070  -56.6500 C   0  0  0  0  0  0  0  0  0  0  0  0
   11.7610   -4.3330  -57.8150 C   0  0  0  0  0  0  0  0  0  0  0  0
   13.2700   -4.1250  -57.8180 C   0  0  0  0  0  0  0  0  0  0  0  0
   13.8890   -4.8550  -56.7680 O   0  0  0  0  0  0  0  0  0  0  0  0
    9.5880   -1.5500  -54.1780 C   0  0  0  0  0  0  0  0  0  0  0  0
    8.9620   -2.2850  -53.0880 C   0  0  0  0  0  0  0  0  0  0  0  0
    9.6820   -2.5260  -51.8990 C   0  0  0  0  0  0  0  0  0  0  0  0
    9.1010   -3.2290  -50.8400 C   0  0  0  0  0  0  0  0  0  0  0  0
    7.8090   -3.6790  -51.0040 C   0  0  0  0  0  0  0  0  0  0  0  0
    7.1050   -3.4520  -52.1630 C   0  0  0  0  0  0  0  0  0  0  0  0
    7.6510   -2.7630  -53.2240 C   0  0  0  0  0  0  0  0  0  0  0  0
    5.8520   -3.9800  -52.1190 O   0  0  0  0  0  0  0  0  0  0  0  0
    5.8520   -4.5710  -50.8030 C   0  0  0  0  0  0  0  0  0  0  0  0
    7.0880   -4.3760  -50.0860 O   0  0  0  0  0  0  0  0  0  0  0  0
    8.4595    0.6983  -52.9605 H   0  0  0  0  0  0  0  0  0  0  0  0
    8.7024    1.7476  -54.3981 H   0  0  0  0  0  0  0  0  0  0  0  0
    7.3987    0.5119  -54.3981 H   0  0  0  0  0  0  0  0  0  0  0  0
    8.4380    0.9920  -56.9930 H   0  0  0  0  0  0  0  0  0  0  0  0
    7.0629    2.1992  -58.5291 H   0  0  0  0  0  0  0  0  0  0  0  0
    7.2518    3.4117  -57.2014 H   0  0  0  0  0  0  0  0  0  0  0  0
    6.3591    4.4710  -59.2763 H   0  0  0  0  0  0  0  0  0  0  0  0
    8.0731    6.2796  -59.4248 H   0  0  0  0  0  0  0  0  0  0  0  0
    7.8195    5.7633  -57.7193 H   0  0  0  0  0  0  0  0  0  0  0  0
   10.2492    6.0104  -58.2365 H   0  0  0  0  0  0  0  0  0  0  0  0
   10.1077    5.4996  -60.6758 H   0  0  0  0  0  0  0  0  0  0  0  0
   11.2985    4.4228  -59.8591 H   0  0  0  0  0  0  0  0  0  0  0  0
    9.8433    3.1373  -61.4338 H   0  0  0  0  0  0  0  0  0  0  0  0
    7.8371    4.6117  -61.2807 H   0  0  0  0  0  0  0  0  0  0  0  0
    7.4149    2.9036  -60.9015 H   0  0  0  0  0  0  0  0  0  0  0  0
    9.0825    1.4149  -59.7922 H   0  0  0  0  0  0  0  0  0  0  0  0
   10.7150    2.0548  -59.3674 H   0  0  0  0  0  0  0  0  0  0  0  0
   10.9511    3.7428  -57.4780 H   0  0  0  0  0  0  0  0  0  0  0  0
    9.4719    4.2892  -56.6000 H   0  0  0  0  0  0  0  0  0  0  0  0
   12.2059   -3.3039  -55.3623 H   0  0  0  0  0  0  0  0  0  0  0  0
   11.2374   -3.6748  -53.8710 H   0  0  0  0  0  0  0  0  0  0  0  0
    9.9322   -5.1092  -54.9749 H   0  0  0  0  0  0  0  0  0  0  0  0
    9.6215   -3.8989  -56.2833 H   0  0  0  0  0  0  0  0  0  0  0  0
   12.1627   -5.5778  -56.0988 H   0  0  0  0  0  0  0  0  0  0  0  0
   10.7021   -6.0450  -57.0585 H   0  0  0  0  0  0  0  0  0  0  0  0
   11.4708   -4.8172  -58.7591 H   0  0  0  0  0  0  0  0  0  0  0  0
   11.2901   -3.3453  -57.7023 H   0  0  0  0  0  0  0  0  0  0  0  0
   13.6777   -4.4656  -58.7812 H   0  0  0  0  0  0  0  0  0  0  0  0
   13.4755   -3.0548  -57.6679 H   0  0  0  0  0  0  0  0  0  0  0  0
   14.8510   -4.7980  -56.8900 H   0  0  0  0  0  0  0  0  0  0  0  0
   10.7136   -2.1560  -51.8042 H   0  0  0  0  0  0  0  0  0  0  0  0
    9.6554   -3.4164  -49.9086 H   0  0  0  0  0  0  0  0  0  0  0  0
    7.0773   -2.5936  -54.1471 H   0  0  0  0  0  0  0  0  0  0  0  0
    5.0357   -4.1209  -50.2190 H   0  0  0  0  0  0  0  0  0  0  0  0
    5.7214   -5.6552  -50.9347 H   0  0  0  0  0  0  0  0  0  0  0  0
  1  2  1  0
  2  3  1  0
  3  4  1  0
  4  5  2  0
  4  6  1  0
  7  6  1  1
  7  8  1  0
  8  9  1  0
  9 10  1  0
 10 11  1  0
 11 12  1  0
 12 13  1  0
 13 14  1  0
 13 15  1  0
 11 16  1  0
  3 17  2  0
 17 18  1  0
 18 19  1  0
 19 20  1  0
 20 21  1  0
 21 22  1  0
 22 23  1  0
 23 24  1  0
 18 25  1  0
 25 26  1  0
 26 27  1  0
 27 28  2  0
 28 29  1  0
 29 30  2  0
 30 31  1  0
 30 32  1  0
 32 33  1  0
 33 34  1  0
 25  2  2  0
 31 26  2  0
 15  7  1  0
 34 29  1  0
 16  7  1  0
 14  9  1  0
  1 35  1  0
  1 36  1  0
  1 37  1  0
  6 38  1  0
  8 39  1  0
  8 40  1  0
  9 41  1  6
 10 42  1  0
 10 43  1  0
 11 44  1  1
 12 45  1  0
 12 46  1  0
 13 47  1  6
 14 48  1  0
 14 49  1  0
 15 50  1  0
 15 51  1  0
 16 52  1  0
 16 53  1  0
 19 54  1  0
 19 55  1  0
 20 56  1  0
 20 57  1  0
 21 58  1  0
 21 59  1  0
 22 60  1  0
 22 61  1  0
 23 62  1  0
 23 63  1  0
 24 64  1  0
 27 65  1  0
 28 66  1  0
 31 67  1  0
 33 68  1  0
 33 69  1  0
M  END
>  <meeko>  (80) 
{"is_sidechain": false}

$$$$

     RDKit          3D

 65 70  0  0  0  0  0  0  0  0999 V2000
    5.8100    0.0740  -53.6960 C   0  0  0  0  0  0  0  0  0  0  0  0
    7.1820   -0.4030  -54.0260 C   0  0  0  0  0  0  0  0  0  0  0  0
    8.0510    0.1290  -55.0250 C   0  0  0  0  0  0  0  0  0  0  0  0
    7.7840    1.2740  -55.9220 C   0  0  0  0  0  0  0  0  0  0  0  0
    6.6510    1.6800  -56.1450 O   0  0  0  0  0  0  0  0  0  0  0  0
    8.9320    1.8130  -56.4700 N   0  0  0  0  0  0  0  0  0  0  0  0
    8.9520    2.8510  -57.5060 C   0  0  2  0  0  0  0  0  0  0  0  0
   10.3840    2.9120  -58.1030 C   0  0  0  0  0  0  0  0  0  0  0  0
   10.4770    3.9770  -59.2070 C   0  0  1  0  0  0  0  0  0  0  0  0
    9.4760    3.6360  -60.3230 C   0  0  0  0  0  0  0  0  0  0  0  0
    8.0480    3.6000  -59.7550 C   0  0  2  0  0  0  0  0  0  0  0  0
    7.7070    4.9740  -59.1520 C   0  0  0  0  0  0  0  0  0  0  0  0
    8.7040    5.3230  -58.0330 C   0  0  2  0  0  0  0  0  0  0  0  0
   10.1280    5.3500  -58.6120 C   0  0  0  0  0  0  0  0  0  0  0  0
    8.6220    4.2520  -56.9310 C   0  0  0  0  0  0  0  0  0  0  0  0
    7.9650    2.5280  -58.6540 C   0  0  0  0  0  0  0  0  0  0  0  0
    9.2230   -0.5440  -55.0660 N   0  0  0  0  0  0  0  0  0  0  0  0
    9.0910   -1.4950  -54.1100 N   0  0  0  0  0  0  0  0  0  0  0  0
   10.1800   -2.3660  -53.7570 N   0  0  0  0  0  0  0  0  0  0  0  0
   10.1050   -3.6660  -54.4470 C   0  0  0  0  0  0  0  0  0  0  0  0
   10.7740   -3.7250  -55.8420 C   0  0  0  0  0  0  0  0  0  0  0  0
   11.0140   -2.3440  -56.3650 N   0  0  0  0  0  0  0  0  0  0  0  0
   11.8740   -1.5060  -55.4650 C   0  0  0  0  0  0  0  0  0  0  0  0
   11.4780   -1.7060  -53.9830 C   0  0  0  0  0  0  0  0  0  0  0  0
    7.8830   -1.4520  -53.4520 C   0  0  0  0  0  0  0  0  0  0  0  0
    7.5160   -2.3420  -52.3500 C   0  0  0  0  0  0  0  0  0  0  0  0
    6.7680   -3.5000  -52.6030 C   0  0  0  0  0  0  0  0  0  0  0  0
    6.4110   -4.3540  -51.5570 C   0  0  0  0  0  0  0  0  0  0  0  0
    6.8010   -4.0590  -50.2530 C   0  0  0  0  0  0  0  0  0  0  0  0
    7.5520   -2.9140  -49.9910 C   0  0  0  0  0  0  0  0  0  0  0  0
    7.9090   -2.0590  -51.0370 C   0  0  0  0  0  0  0  0  0  0  0  0
    5.6893    0.1160  -52.6034 H   0  0  0  0  0  0  0  0  0  0  0  0
    5.6587    1.0775  -54.1204 H   0  0  0  0  0  0  0  0  0  0  0  0
    5.0688   -0.6192  -54.1204 H   0  0  0  0  0  0  0  0  0  0  0  0
    9.7460    1.2190  -56.3850 H   0  0  0  0  0  0  0  0  0  0  0  0
   11.0968    3.1605  -57.3029 H   0  0  0  0  0  0  0  0  0  0  0  0
   10.6223    1.9317  -58.5415 H   0  0  0  0  0  0  0  0  0  0  0  0
   11.4965    4.0001  -59.6194 H   0  0  0  0  0  0  0  0  0  0  0  0
    9.5352    4.4005  -61.1117 H   0  0  0  0  0  0  0  0  0  0  0  0
    9.7235    2.6491  -60.7410 H   0  0  0  0  0  0  0  0  0  0  0  0
    7.3362    3.3606  -60.5588 H   0  0  0  0  0  0  0  0  0  0  0  0
    7.7610    5.7403  -59.9393 H   0  0  0  0  0  0  0  0  0  0  0  0
    6.6912    4.9403  -58.7313 H   0  0  0  0  0  0  0  0  0  0  0  0
    8.4589    6.3088  -57.6108 H   0  0  0  0  0  0  0  0  0  0  0  0
   10.1866    6.1147  -59.4005 H   0  0  0  0  0  0  0  0  0  0  0  0
   10.8409    5.5884  -57.8089 H   0  0  0  0  0  0  0  0  0  0  0  0
    9.3424    4.4953  -56.1361 H   0  0  0  0  0  0  0  0  0  0  0  0
    7.5993    4.2373  -56.5263 H   0  0  0  0  0  0  0  0  0  0  0  0
    6.9409    2.4993  -58.2534 H   0  0  0  0  0  0  0  0  0  0  0  0
    8.2307    1.5524  -59.0871 H   0  0  0  0  0  0  0  0  0  0  0  0
   10.5912   -4.4169  -53.8069 H   0  0  0  0  0  0  0  0  0  0  0  0
    9.0348   -3.8527  -54.6195 H   0  0  0  0  0  0  0  0  0  0  0  0
   11.7351   -4.2538  -55.7608 H   0  0  0  0  0  0  0  0  0  0  0  0
   10.1064   -4.2577  -56.5352 H   0  0  0  0  0  0  0  0  0  0  0  0
   10.0820   -1.8760  -56.3840 H   0  0  0  0  0  0  0  0  0  0  0  0
   11.3630   -2.3440  -57.3280 H   0  0  0  0  0  0  0  0  0  0  0  0
   12.9264   -1.7964  -55.5992 H   0  0  0  0  0  0  0  0  0  0  0  0
   11.7320   -0.4473  -55.7277 H   0  0  0  0  0  0  0  0  0  0  0  0
   12.2570   -2.3170  -53.5035 H   0  0  0  0  0  0  0  0  0  0  0  0
   11.3818   -0.6964  -53.5571 H   0  0  0  0  0  0  0  0  0  0  0  0
    6.4601   -3.7378  -53.6319 H   0  0  0  0  0  0  0  0  0  0  0  0
    5.8217   -5.2597  -51.7632 H   0  0  0  0  0  0  0  0  0  0  0  0
    6.5163   -4.7299  -49.4291 H   0  0  0  0  0  0  0  0  0  0  0  0
    7.8633   -2.6838  -48.9614 H   0  0  0  0  0  0  0  0  0  0  0  0
    8.5030   -1.1573  -50.8269 H   0  0  0  0  0  0  0  0  0  0  0  0
  1  2  1  0
  2  3  1  0
  3  4  1  0
  4  5  2  0
  4  6  1  0
  7  6  1  1
  7  8  1  0
  8  9  1  0
  9 10  1  0
 10 11  1  0
 11 12  1  0
 12 13  1  0
 13 14  1  0
 13 15  1  0
 11 16  1  0
  3 17  2  0
 17 18  1  0
 18 19  1  0
 19 20  1  0
 20 21  1  0
 21 22  1  0
 22 23  1  0
 23 24  1  0
 18 25  1  0
 25 26  1  0
 26 27  2  0
 27 28  1  0
 28 29  2  0
 29 30  1  0
 30 31  2  0
 25  2  2  0
 31 26  1  0
 15  7  1  0
 24 19  1  0
 16  7  1  0
 14  9  1  0
  1 32  1  0
  1 33  1  0
  1 34  1  0
  6 35  1  0
  8 36  1  0
  8 37  1  0
  9 38  1  6
 10 39  1  0
 10 40  1  0
 11 41  1  6
 12 42  1  0
 12 43  1  0
 13 44  1  1
 14 45  1  0
 14 46  1  0
 15 47  1  0
 15 48  1  0
 16 49  1  0
 16 50  1  0
 20 51  1  0
 20 52  1  0
 21 53  1  0
 21 54  1  0
 22 55  1  0
 22 56  1  0
 23 57  1  0
 23 58  1  0
 24 59  1  0
 24 60  1  0
 27 61  1  0
 28 62  1  0
 29 63  1  0
 30 64  1  0
 31 65  1  0
M  CHG  1  22   1
M  END
>  <meeko>  (81) 
{"is_sidechain": false}

$$$$

     RDKit          3D

 47 49  0  0  0  0  0  0  0  0999 V2000
   11.8790   -4.2660  -58.3320 C   0  0  0  0  0  0  0  0  0  0  0  0
   11.5200   -3.3900  -57.1410 C   0  0  0  0  0  0  0  0  0  0  0  0
   11.4970   -4.1980  -55.8420 C   0  0  0  0  0  0  0  0  0  0  0  0
   10.2860   -3.8900  -54.9590 C   0  0  0  0  0  0  0  0  0  0  0  0
   10.5090   -2.7030  -54.0230 C   0  0  0  0  0  0  0  0  0  0  0  0
    9.4500   -1.7130  -54.1440 N   0  0  0  0  0  0  0  0  0  0  0  0
    9.5860   -0.7380  -55.0590 N   0  0  0  0  0  0  0  0  0  0  0  0
    8.4900    0.0220  -54.9150 C   0  0  0  0  0  0  0  0  0  0  0  0
    8.3050    1.2150  -55.7420 C   0  0  0  0  0  0  0  0  0  0  0  0
    9.3510    2.1250  -55.9460 C   0  0  0  0  0  0  0  0  0  0  0  0
    9.1570    3.2630  -56.7340 C   0  0  0  0  0  0  0  0  0  0  0  0
    7.9210    3.4970  -57.3320 C   0  0  0  0  0  0  0  0  0  0  0  0
    6.8770    2.5920  -57.1490 C   0  0  0  0  0  0  0  0  0  0  0  0
    7.0690    1.4550  -56.3610 C   0  0  0  0  0  0  0  0  0  0  0  0
    7.6220   -0.5190  -53.9140 C   0  0  0  0  0  0  0  0  0  0  0  0
    6.2930   -0.0120  -53.4860 C   0  0  0  0  0  0  0  0  0  0  0  0
    8.2840   -1.6370  -53.4260 C   0  0  0  0  0  0  0  0  0  0  0  0
    7.8980   -2.5750  -52.3810 C   0  0  0  0  0  0  0  0  0  0  0  0
    7.1930   -3.7390  -52.7060 C   0  0  0  0  0  0  0  0  0  0  0  0
    6.8280   -4.6410  -51.7030 C   0  0  0  0  0  0  0  0  0  0  0  0
    7.1630   -4.3800  -50.3760 C   0  0  0  0  0  0  0  0  0  0  0  0
    7.8590   -3.2180  -50.0460 C   0  0  0  0  0  0  0  0  0  0  0  0
    8.2250   -2.3150  -51.0460 C   0  0  0  0  0  0  0  0  0  0  0  0
   12.2734   -5.2283  -57.9737 H   0  0  0  0  0  0  0  0  0  0  0  0
   10.9805   -4.4421  -58.9417 H   0  0  0  0  0  0  0  0  0  0  0  0
   12.6427   -3.7609  -58.9417 H   0  0  0  0  0  0  0  0  0  0  0  0
   12.2657   -2.5865  -57.0498 H   0  0  0  0  0  0  0  0  0  0  0  0
   10.5159   -2.9728  -57.3076 H   0  0  0  0  0  0  0  0  0  0  0  0
   11.4803   -5.2680  -56.0966 H   0  0  0  0  0  0  0  0  0  0  0  0
   12.3955   -3.9219  -55.2706 H   0  0  0  0  0  0  0  0  0  0  0  0
    9.4274   -3.6659  -55.6091 H   0  0  0  0  0  0  0  0  0  0  0  0
   10.1080   -4.7739  -54.3288 H   0  0  0  0  0  0  0  0  0  0  0  0
   10.5382   -3.0681  -52.9858 H   0  0  0  0  0  0  0  0  0  0  0  0
   11.4591   -2.2229  -54.3002 H   0  0  0  0  0  0  0  0  0  0  0  0
   10.3318    1.9424  -55.4826 H   0  0  0  0  0  0  0  0  0  0  0  0
    9.9821    3.9752  -56.8822 H   0  0  0  0  0  0  0  0  0  0  0  0
    7.7690    4.3954  -57.9482 H   0  0  0  0  0  0  0  0  0  0  0  0
    5.9021    2.7732  -57.6251 H   0  0  0  0  0  0  0  0  0  0  0  0
    6.2435    0.7410  -56.2244 H   0  0  0  0  0  0  0  0  0  0  0  0
    6.2441    0.0066  -52.3872 H   0  0  0  0  0  0  0  0  0  0  0  0
    6.1455    1.0056  -53.8769 H   0  0  0  0  0  0  0  0  0  0  0  0
    5.5052   -0.6727  -53.8769 H   0  0  0  0  0  0  0  0  0  0  0  0
    6.9255   -3.9445  -53.7530 H   0  0  0  0  0  0  0  0  0  0  0  0
    6.2763   -5.5570  -51.9611 H   0  0  0  0  0  0  0  0  0  0  0  0
    6.8779   -5.0919  -49.5874 H   0  0  0  0  0  0  0  0  0  0  0  0
    8.1199   -3.0125  -48.9973 H   0  0  0  0  0  0  0  0  0  0  0  0
    8.7716   -1.3972  -50.7835 H   0  0  0  0  0  0  0  0  0  0  0  0
  1  2  1  0
  2  3  1  0
  3  4  1  0
  4  5  1  0
  5  6  1  0
  6  7  1  0
  7  8  2  0
  8  9  1  0
  9 10  2  0
 10 11  1  0
 11 12  2  0
 12 13  1  0
 13 14  2  0
  8 15  1  0
 15 16  1  0
 15 17  2  0
 17 18  1  0
 18 19  2  0
 19 20  1  0
 20 21  2  0
 21 22  1  0
 22 23  2  0
 17  6  1  0
 23 18  1  0
 14  9  1  0
  1 24  1  0
  1 25  1  0
  1 26  1  0
  2 27  1  0
  2 28  1  0
  3 29  1  0
  3 30  1  0
  4 31  1  0
  4 32  1  0
  5 33  1  0
  5 34  1  0
 10 35  1  0
 11 36  1  0
 12 37  1  0
 13 38  1  0
 14 39  1  0
 16 40  1  0
 16 41  1  0
 16 42  1  0
 19 43  1  0
 20 44  1  0
 21 45  1  0
 22 46  1  0
 23 47  1  0
M  END
>  <meeko>  (82) 
{"is_sidechain": false}

$$$$

     RDKit          3D

 62 66  0  0  0  0  0  0  0  0999 V2000
    9.6660    2.3480  -55.8920 C   0  0  0  0  0  0  0  0  0  0  0  0
    8.3720    1.8950  -56.4680 C   0  0  0  0  0  0  0  0  0  0  0  0
    7.3350    1.1920  -55.8010 C   0  0  0  0  0  0  0  0  0  0  0  0
    7.2850    0.7630  -54.5160 N   0  0  0  0  0  0  0  0  0  0  0  0
    7.7140   -0.5960  -54.1150 C   0  0  2  0  0  0  0  0  0  0  0  0
    6.8220   -1.7400  -54.6570 C   0  0  0  0  0  0  0  0  0  0  0  0
    7.3310   -3.1070  -54.1630 C   0  0  1  0  0  0  0  0  0  0  0  0
    8.7810   -3.3070  -54.6360 C   0  0  0  0  0  0  0  0  0  0  0  0
    9.6820   -2.1990  -54.0650 C   0  0  2  0  0  0  0  0  0  0  0  0
    9.6250   -2.2400  -52.5300 C   0  0  0  0  0  0  0  0  0  0  0  0
    8.1790   -2.0300  -52.0550 C   0  0  2  0  0  0  0  0  0  0  0  0
    7.2880   -3.1410  -52.6280 C   0  0  0  0  0  0  0  0  0  0  0  0
    7.6760   -0.6690  -52.5590 C   0  0  0  0  0  0  0  0  0  0  0  0
    9.1760   -0.8300  -54.5580 C   0  0  0  0  0  0  0  0  0  0  0  0
    6.2820    1.0560  -56.6690 C   0  0  0  0  0  0  0  0  0  0  0  0
    6.6570    1.5940  -57.8740 N   0  0  0  0  0  0  0  0  0  0  0  0
    5.8060    1.5940  -59.0540 C   0  0  0  0  0  0  0  0  0  0  0  0
    4.5100    2.3920  -58.8950 C   0  0  0  0  0  0  0  0  0  0  0  0
    3.5530    2.2290  -60.0810 C   0  0  0  0  0  0  0  0  0  0  0  0
    4.1480    1.3570  -61.1800 C   0  0  0  0  0  0  0  0  0  0  0  0
    4.4750    2.1590  -62.3060 O   0  0  0  0  0  0  0  0  0  0  0  0
    7.9410    2.0950  -57.7810 C   0  0  0  0  0  0  0  0  0  0  0  0
    8.6470    2.7340  -58.8910 C   0  0  0  0  0  0  0  0  0  0  0  0
    9.2570    1.9530  -59.8790 C   0  0  0  0  0  0  0  0  0  0  0  0
    9.9340    2.5610  -60.9370 C   0  0  0  0  0  0  0  0  0  0  0  0
   10.0090    3.9530  -61.0090 C   0  0  0  0  0  0  0  0  0  0  0  0
    9.4120    4.7360  -60.0220 C   0  0  0  0  0  0  0  0  0  0  0  0
    8.7350    4.1280  -58.9640 C   0  0  0  0  0  0  0  0  0  0  0  0
    9.6059    2.3270  -54.7938 H   0  0  0  0  0  0  0  0  0  0  0  0
   10.4714    1.6784  -56.2280 H   0  0  0  0  0  0  0  0  0  0  0  0
    9.8779    3.3738  -56.2280 H   0  0  0  0  0  0  0  0  0  0  0  0
    6.4040    0.9870  -54.0540 H   0  0  0  0  0  0  0  0  0  0  0  0
    5.7902   -1.5905  -54.3063 H   0  0  0  0  0  0  0  0  0  0  0  0
    6.8570   -1.7255  -55.7563 H   0  0  0  0  0  0  0  0  0  0  0  0
    6.6947   -3.9081  -54.5672 H   0  0  0  0  0  0  0  0  0  0  0  0
    9.1446   -4.2858  -54.2899 H   0  0  0  0  0  0  0  0  0  0  0  0
    8.8100   -3.2634  -55.7348 H   0  0  0  0  0  0  0  0  0  0  0  0
   10.7183   -2.3532  -54.4001 H   0  0  0  0  0  0  0  0  0  0  0  0
    9.9865   -3.2173  -52.1775 H   0  0  0  0  0  0  0  0  0  0  0  0
   10.2601   -1.4397  -52.1223 H   0  0  0  0  0  0  0  0  0  0  0  0
    8.1428   -2.0579  -50.9559 H   0  0  0  0  0  0  0  0  0  0  0  0
    7.6503   -4.1176  -52.2746 H   0  0  0  0  0  0  0  0  0  0  0  0
    6.2526   -2.9842  -52.2914 H   0  0  0  0  0  0  0  0  0  0  0  0
    6.6409   -0.5202  -52.2179 H   0  0  0  0  0  0  0  0  0  0  0  0
    8.3332    0.1162  -52.1570 H   0  0  0  0  0  0  0  0  0  0  0  0
    9.8120   -0.0372  -54.1374 H   0  0  0  0  0  0  0  0  0  0  0  0
    9.2197   -0.8117  -55.6570 H   0  0  0  0  0  0  0  0  0  0  0  0
    5.3091    0.5969  -56.4397 H   0  0  0  0  0  0  0  0  0  0  0  0
    6.3760    2.0255  -59.8900 H   0  0  0  0  0  0  0  0  0  0  0  0
    5.5129    0.5487  -59.2313 H   0  0  0  0  0  0  0  0  0  0  0  0
    3.9984    2.0504  -57.9831 H   0  0  0  0  0  0  0  0  0  0  0  0
    4.7850    3.4556  -58.8398 H   0  0  0  0  0  0  0  0  0  0  0  0
    2.6217    1.7646  -59.7245 H   0  0  0  0  0  0  0  0  0  0  0  0
    3.3640    3.2266  -60.5042 H   0  0  0  0  0  0  0  0  0  0  0  0
    5.0580    0.8663  -60.8044 H   0  0  0  0  0  0  0  0  0  0  0  0
    3.4124    0.5953  -61.4777 H   0  0  0  0  0  0  0  0  0  0  0  0
    5.4450    2.1790  -62.3690 H   0  0  0  0  0  0  0  0  0  0  0  0
    9.2027    0.8559  -59.8215 H   0  0  0  0  0  0  0  0  0  0  0  0
   10.4084    1.9435  -61.7140 H   0  0  0  0  0  0  0  0  0  0  0  0
   10.5394    4.4324  -61.8449 H   0  0  0  0  0  0  0  0  0  0  0  0
    9.4746    5.8328  -60.0772 H   0  0  0  0  0  0  0  0  0  0  0  0
    8.2685    4.7477  -58.1840 H   0  0  0  0  0  0  0  0  0  0  0  0
  1  2  1  0
  2  3  1  0
  3  4  1  0
  5  4  1  1
  5  6  1  0
  6  7  1  0
  7  8  1  0
  8  9  1  0
  9 10  1  0
 10 11  1  0
 11 12  1  0
 11 13  1  0
  9 14  1  0
  3 15  2  0
 15 16  1  0
 16 17  1  0
 17 18  1  0
 18 19  1  0
 19 20  1  0
 20 21  1  0
 16 22  1  0
 22 23  1  0
 23 24  2  0
 24 25  1  0
 25 26  2  0
 26 27  1  0
 27 28  2  0
 22  2  2  0
 28 23  1  0
 13  5  1  0
 14  5  1  0
 12  7  1  0
  1 29  1  0
  1 30  1  0
  1 31  1  0
  4 32  1  0
  6 33  1  0
  6 34  1  0
  7 35  1  6
  8 36  1  0
  8 37  1  0
  9 38  1  1
 10 39  1  0
 10 40  1  0
 11 41  1  1
 12 42  1  0
 12 43  1  0
 13 44  1  0
 13 45  1  0
 14 46  1  0
 14 47  1  0
 15 48  1  0
 17 49  1  0
 17 50  1  0
 18 51  1  0
 18 52  1  0
 19 53  1  0
 19 54  1  0
 20 55  1  0
 20 56  1  0
 21 57  1  0
 24 58  1  0
 25 59  1  0
 26 60  1  0
 27 61  1  0
 28 62  1  0
M  END
>  <meeko>  (83) 
{"is_sidechain": false}

$$$$

     RDKit          3D

 28 29  0  0  0  0  0  0  0  0999 V2000
    7.7940   -2.3450  -49.7230 O   0  0  0  0  0  0  0  0  0  0  0  0
    8.5400   -3.2200  -50.5600 C   0  0  0  0  0  0  0  0  0  0  0  0
    8.7480   -2.5930  -51.9330 C   0  0  0  0  0  0  0  0  0  0  0  0
   10.2220   -2.6190  -52.3550 C   0  0  0  0  0  0  0  0  0  0  0  0
   10.4930   -1.8180  -53.6290 C   0  0  0  0  0  0  0  0  0  0  0  0
   10.9530   -2.6270  -54.7430 N   0  0  0  0  0  0  0  0  0  0  0  0
   11.1740   -2.1920  -56.0200 C   0  0  0  0  0  0  0  0  0  0  0  0
   11.5910   -3.3050  -56.6940 C   0  0  0  0  0  0  0  0  0  0  0  0
   11.9410   -3.3540  -58.0380 C   0  0  0  0  0  0  0  0  0  0  0  0
   12.3230   -4.6600  -58.4110 C   0  0  0  0  0  0  0  0  0  0  0  0
   12.3430   -5.7740  -57.5130 C   0  0  0  0  0  0  0  0  0  0  0  0
   11.9790   -5.6860  -56.1500 C   0  0  0  0  0  0  0  0  0  0  0  0
   11.5930   -4.3950  -55.7520 C   0  0  0  0  0  0  0  0  0  0  0  0
   11.1900   -3.9430  -54.5530 N   0  0  0  0  0  0  0  0  0  0  0  0
    7.0560   -1.9970  -50.2500 H   0  0  0  0  0  0  0  0  0  0  0  0
    9.5193   -3.4154  -50.0987 H   0  0  0  0  0  0  0  0  0  0  0  0
    7.9832   -4.1613  -50.6783 H   0  0  0  0  0  0  0  0  0  0  0  0
    8.1562   -3.1520  -52.6728 H   0  0  0  0  0  0  0  0  0  0  0  0
    8.4264   -1.5424  -51.8807 H   0  0  0  0  0  0  0  0  0  0  0  0
   10.8275   -2.1963  -51.5397 H   0  0  0  0  0  0  0  0  0  0  0  0
   10.4864   -3.6664  -52.5624 H   0  0  0  0  0  0  0  0  0  0  0  0
    9.5613   -1.3150  -53.9271 H   0  0  0  0  0  0  0  0  0  0  0  0
   11.2991   -1.1070  -53.3950 H   0  0  0  0  0  0  0  0  0  0  0  0
   11.0450   -1.1740  -56.4162 H   0  0  0  0  0  0  0  0  0  0  0  0
   11.9227   -2.4907  -58.7194 H   0  0  0  0  0  0  0  0  0  0  0  0
   12.6236   -4.8323  -59.4550 H   0  0  0  0  0  0  0  0  0  0  0  0
   12.6589   -6.7521  -57.9048 H   0  0  0  0  0  0  0  0  0  0  0  0
   11.9963   -6.5469  -55.4655 H   0  0  0  0  0  0  0  0  0  0  0  0
  1  2  1  0
  2  3  1  0
  3  4  1  0
  4  5  1  0
  5  6  1  0
  6  7  1  0
  7  8  2  0
  8  9  1  0
  9 10  2  0
 10 11  1  0
 11 12  2  0
 12 13  1  0
 13 14  2  0
 14  6  1  0
 13  8  1  0
  1 15  1  0
  2 16  1  0
  2 17  1  0
  3 18  1  0
  3 19  1  0
  4 20  1  0
  4 21  1  0
  5 22  1  0
  5 23  1  0
  7 24  1  0
  9 25  1  0
 10 26  1  0
 11 27  1  0
 12 28  1  0
M  END
>  <meeko>  (84) 
{"is_sidechain": false}

$$$$

     RDKit          3D

 50 52  0  0  0  0  0  0  0  0999 V2000
    6.4070    0.2160  -53.6090 C   0  0  0  0  0  0  0  0  0  0  0  0
    7.7230   -0.3690  -53.9820 C   0  0  0  0  0  0  0  0  0  0  0  0
    8.6560    0.1210  -54.9600 C   0  0  0  0  0  0  0  0  0  0  0  0
    8.5590    1.3130  -55.8280 C   0  0  0  0  0  0  0  0  0  0  0  0
    7.6250    1.5380  -56.5920 O   0  0  0  0  0  0  0  0  0  0  0  0
    9.6310    2.1540  -55.6870 O   0  0  0  0  0  0  0  0  0  0  0  0
    9.9850    2.9550  -56.8450 C   0  0  0  0  0  0  0  0  0  0  0  0
    9.7420    4.4310  -56.5070 C   0  0  0  0  0  0  0  0  0  0  0  0
    8.9780    5.2160  -57.5810 C   0  0  0  0  0  0  0  0  0  0  0  0
    9.5720    5.1400  -58.9850 C   0  0  0  0  0  0  0  0  0  0  0  0
   11.0760    5.4020  -59.0870 C   0  0  0  0  0  0  0  0  0  0  0  0
   12.0280    4.1880  -59.0600 C   0  0  0  0  0  0  0  0  0  0  0  0
   12.3680    3.7000  -57.6550 C   0  0  0  0  0  0  0  0  0  0  0  0
   11.4520    2.5980  -57.1290 C   0  0  0  0  0  0  0  0  0  0  0  0
    9.7320   -0.6860  -55.0230 N   0  0  0  0  0  0  0  0  0  0  0  0
    9.5040   -1.6450  -54.1140 N   0  0  0  0  0  0  0  0  0  0  0  0
   10.5030   -2.6710  -53.9160 C   0  0  0  0  0  0  0  0  0  0  0  0
    8.3050   -1.5160  -53.4620 C   0  0  0  0  0  0  0  0  0  0  0  0
    7.8320   -2.4390  -52.4380 C   0  0  0  0  0  0  0  0  0  0  0  0
    7.0310   -3.5330  -52.7870 C   0  0  0  0  0  0  0  0  0  0  0  0
    6.5830   -4.4170  -51.8040 C   0  0  0  0  0  0  0  0  0  0  0  0
    6.9300   -4.2120  -50.4690 C   0  0  0  0  0  0  0  0  0  0  0  0
    7.7240   -3.1220  -50.1140 C   0  0  0  0  0  0  0  0  0  0  0  0
    8.1730   -2.2360  -51.0960 C   0  0  0  0  0  0  0  0  0  0  0  0
    6.3203    0.2546  -52.5131 H   0  0  0  0  0  0  0  0  0  0  0  0
    6.3287    1.2337  -54.0191 H   0  0  0  0  0  0  0  0  0  0  0  0
    5.5990   -0.4077  -54.0191 H   0  0  0  0  0  0  0  0  0  0  0  0
    9.3864    2.7618  -57.7474 H   0  0  0  0  0  0  0  0  0  0  0  0
    9.1644    4.4780  -55.5720 H   0  0  0  0  0  0  0  0  0  0  0  0
   10.7341    4.8991  -56.4261 H   0  0  0  0  0  0  0  0  0  0  0  0
    7.9512    4.8237  -57.6239 H   0  0  0  0  0  0  0  0  0  0  0  0
    9.0313    6.2735  -57.2830 H   0  0  0  0  0  0  0  0  0  0  0  0
    9.3776    4.1318  -59.3796 H   0  0  0  0  0  0  0  0  0  0  0  0
    9.0890    5.9455  -59.5576 H   0  0  0  0  0  0  0  0  0  0  0  0
   11.2515    5.9339  -60.0337 H   0  0  0  0  0  0  0  0  0  0  0  0
   11.3193    5.9613  -58.1716 H   0  0  0  0  0  0  0  0  0  0  0  0
   11.5512    3.3617  -59.6077 H   0  0  0  0  0  0  0  0  0  0  0  0
   12.9719    4.5122  -59.5225 H   0  0  0  0  0  0  0  0  0  0  0  0
   13.3983    3.3148  -57.6650 H   0  0  0  0  0  0  0  0  0  0  0  0
   12.2377    4.5620  -56.9842 H   0  0  0  0  0  0  0  0  0  0  0  0
   11.4535    1.7881  -57.8734 H   0  0  0  0  0  0  0  0  0  0  0  0
   11.8683    2.3412  -56.1438 H   0  0  0  0  0  0  0  0  0  0  0  0
   10.6573   -2.8295  -52.8385 H   0  0  0  0  0  0  0  0  0  0  0  0
   10.1624   -3.6087  -54.3794 H   0  0  0  0  0  0  0  0  0  0  0  0
   11.4494   -2.3556  -54.3794 H   0  0  0  0  0  0  0  0  0  0  0  0
    6.7539   -3.6964  -53.8389 H   0  0  0  0  0  0  0  0  0  0  0  0
    5.9555   -5.2764  -52.0828 H   0  0  0  0  0  0  0  0  0  0  0  0
    6.5773   -4.9103  -49.6957 H   0  0  0  0  0  0  0  0  0  0  0  0
    7.9967   -2.9600  -49.0607 H   0  0  0  0  0  0  0  0  0  0  0  0
    8.7971   -1.3754  -50.8134 H   0  0  0  0  0  0  0  0  0  0  0  0
  1  2  1  0
  2  3  1  0
  3  4  1  0
  4  5  2  0
  4  6  1  0
  6  7  1  0
  7  8  1  0
  8  9  1  0
  9 10  1  0
 10 11  1  0
 11 12  1  0
 12 13  1  0
 13 14  1  0
  3 15  2  0
 15 16  1  0
 16 17  1  0
 16 18  1  0
 18 19  1  0
 19 20  2  0
 20 21  1  0
 21 22  2  0
 22 23  1  0
 23 24  2  0
 18  2  2  0
 24 19  1  0
 14  7  1  0
  1 25  1  0
  1 26  1  0
  1 27  1  0
  7 28  1  0
  8 29  1  0
  8 30  1  0
  9 31  1  0
  9 32  1  0
 10 33  1  0
 10 34  1  0
 11 35  1  0
 11 36  1  0
 12 37  1  0
 12 38  1  0
 13 39  1  0
 13 40  1  0
 14 41  1  0
 14 42  1  0
 17 43  1  0
 17 44  1  0
 17 45  1  0
 20 46  1  0
 21 47  1  0
 22 48  1  0
 23 49  1  0
 24 50  1  0
M  END
>  <meeko>  (85) 
{"is_sidechain": false}

$$$$

     RDKit          3D

 53 57  0  0  0  0  0  0  0  0999 V2000
   11.5380   -2.6080  -56.7450 C   0  0  0  0  0  0  0  0  0  0  0  0
   11.4370   -1.3480  -56.0980 O   0  0  0  0  0  0  0  0  0  0  0  0
   10.3660   -1.1170  -55.2840 C   0  0  0  0  0  0  0  0  0  0  0  0
    9.9120   -2.0150  -54.3110 C   0  0  0  0  0  0  0  0  0  0  0  0
    8.8030   -1.7160  -53.5030 C   0  0  0  0  0  0  0  0  0  0  0  0
    8.3200   -2.6540  -52.4790 C   0  0  0  0  0  0  0  0  0  0  0  0
    7.3100   -3.5860  -52.7720 C   0  0  0  0  0  0  0  0  0  0  0  0
    6.8480   -4.4760  -51.7990 C   0  0  0  0  0  0  0  0  0  0  0  0
    7.3900   -4.4500  -50.5170 C   0  0  0  0  0  0  0  0  0  0  0  0
    8.3920   -3.5350  -50.2060 C   0  0  0  0  0  0  0  0  0  0  0  0
    8.8520   -2.6440  -51.1790 C   0  0  0  0  0  0  0  0  0  0  0  0
    8.1820   -0.4890  -53.7210 C   0  0  0  0  0  0  0  0  0  0  0  0
    8.5750    0.4170  -54.6440 N   0  0  0  0  0  0  0  0  0  0  0  0
    9.6630    0.0870  -55.4120 C   0  0  0  0  0  0  0  0  0  0  0  0
   10.0390    1.1540  -56.4210 C   0  0  0  0  0  0  0  0  0  0  0  0
   11.1890    1.3900  -56.7640 O   0  0  0  0  0  0  0  0  0  0  0  0
    8.9410    1.8350  -56.9180 N   0  0  0  0  0  0  0  0  0  0  0  0
    8.9690    2.9150  -57.9010 C   0  0  2  0  0  0  0  0  0  0  0  0
    9.6360    2.4640  -59.2250 C   0  0  0  0  0  0  0  0  0  0  0  0
    9.6080    3.6030  -60.2600 C   0  0  1  0  0  0  0  0  0  0  0  0
    8.1500    3.9920  -60.5490 C   0  0  0  0  0  0  0  0  0  0  0  0
    7.4670    4.4640  -59.2550 C   0  0  2  0  0  0  0  0  0  0  0  0
    8.2210    5.6800  -58.6950 C   0  0  0  0  0  0  0  0  0  0  0  0
    9.6800    5.3010  -58.3960 C   0  0  2  0  0  0  0  0  0  0  0  0
   10.3550    4.8220  -59.6930 C   0  0  0  0  0  0  0  0  0  0  0  0
    9.7080    4.1630  -57.3600 C   0  0  0  0  0  0  0  0  0  0  0  0
    7.5070    3.3270  -58.2200 C   0  0  0  0  0  0  0  0  0  0  0  0
   11.6018   -3.4044  -55.9889 H   0  0  0  0  0  0  0  0  0  0  0  0
   10.6499   -2.7696  -57.3737 H   0  0  0  0  0  0  0  0  0  0  0  0
   12.4405   -2.6261  -57.3737 H   0  0  0  0  0  0  0  0  0  0  0  0
   10.4342   -2.9738  -54.1766 H   0  0  0  0  0  0  0  0  0  0  0  0
    6.8766   -3.6154  -53.7826 H   0  0  0  0  0  0  0  0  0  0  0  0
    6.0555   -5.1977  -52.0461 H   0  0  0  0  0  0  0  0  0  0  0  0
    7.0272   -5.1512  -49.7511 H   0  0  0  0  0  0  0  0  0  0  0  0
    8.8218   -3.5134  -49.1937 H   0  0  0  0  0  0  0  0  0  0  0  0
    9.6429   -1.9236  -50.9231 H   0  0  0  0  0  0  0  0  0  0  0  0
    7.3103   -0.2394  -53.0983 H   0  0  0  0  0  0  0  0  0  0  0  0
    8.0490    1.5250  -56.5390 H   0  0  0  0  0  0  0  0  0  0  0  0
   10.6804    2.1817  -59.0260 H   0  0  0  0  0  0  0  0  0  0  0  0
    9.0801    1.6045  -59.6278 H   0  0  0  0  0  0  0  0  0  0  0  0
   10.0930    3.2698  -61.1894 H   0  0  0  0  0  0  0  0  0  0  0  0
    8.1296    4.8051  -61.2895 H   0  0  0  0  0  0  0  0  0  0  0  0
    7.6132    3.1163  -60.9427 H   0  0  0  0  0  0  0  0  0  0  0  0
    6.4238    4.7406  -59.4675 H   0  0  0  0  0  0  0  0  0  0  0  0
    8.2002    6.4939  -59.4346 H   0  0  0  0  0  0  0  0  0  0  0  0
    7.7353    6.0093  -57.7646 H   0  0  0  0  0  0  0  0  0  0  0  0
   10.2159    6.1759  -57.9994 H   0  0  0  0  0  0  0  0  0  0  0  0
   10.3383    5.6354  -60.4334 H   0  0  0  0  0  0  0  0  0  0  0  0
   11.3943    4.5365  -59.4731 H   0  0  0  0  0  0  0  0  0  0  0  0
   10.7532    3.8981  -57.1423 H   0  0  0  0  0  0  0  0  0  0  0  0
    9.2032    4.5047  -56.4443 H   0  0  0  0  0  0  0  0  0  0  0  0
    7.0189    3.6661  -57.2944 H   0  0  0  0  0  0  0  0  0  0  0  0
    6.9808    2.4556  -58.6368 H   0  0  0  0  0  0  0  0  0  0  0  0
  1  2  1  0
  2  3  1  0
  3  4  1  0
  4  5  2  0
  5  6  1  0
  6  7  2  0
  7  8  1  0
  8  9  2  0
  9 10  1  0
 10 11  2  0
  5 12  1  0
 12 13  2  0
 13 14  1  0
 14 15  1  0
 15 16  2  0
 15 17  1  0
 18 17  1  1
 18 19  1  0
 19 20  1  0
 20 21  1  0
 21 22  1  0
 22 23  1  0
 23 24  1  0
 24 25  1  0
 24 26  1  0
 22 27  1  0
 14  3  2  0
 26 18  1  0
 11  6  1  0
 27 18  1  0
 25 20  1  0
  1 28  1  0
  1 29  1  0
  1 30  1  0
  4 31  1  0
  7 32  1  0
  8 33  1  0
  9 34  1  0
 10 35  1  0
 11 36  1  0
 12 37  1  0
 17 38  1  0
 19 39  1  0
 19 40  1  0
 20 41  1  6
 21 42  1  0
 21 43  1  0
 22 44  1  6
 23 45  1  0
 23 46  1  0
 24 47  1  1
 25 48  1  0
 25 49  1  0
 26 50  1  0
 26 51  1  0
 27 52  1  0
 27 53  1  0
M  END
>  <meeko>  (86) 
{"is_sidechain": false}

$$$$

     RDKit          3D

 54 58  0  0  0  0  0  0  0  0999 V2000
    6.2870   -0.0270  -53.4670 C   0  0  0  0  0  0  0  0  0  0  0  0
    7.6340   -0.5220  -53.8590 C   0  0  0  0  0  0  0  0  0  0  0  0
    8.4700    0.0280  -54.8850 C   0  0  0  0  0  0  0  0  0  0  0  0
    8.1880    1.1430  -55.8190 C   0  0  0  0  0  0  0  0  0  0  0  0
    7.0580    1.5400  -56.0750 O   0  0  0  0  0  0  0  0  0  0  0  0
    9.3370    1.6680  -56.3730 N   0  0  0  0  0  0  0  0  0  0  0  0
    9.4090    2.7300  -57.3710 C   0  0  2  0  0  0  0  0  0  0  0  0
   10.8820    2.8640  -57.8420 C   0  0  0  0  0  0  0  0  0  0  0  0
   11.0230    3.9700  -58.9000 C   0  0  1  0  0  0  0  0  0  0  0  0
   10.1380    3.6260  -60.1090 C   0  0  0  0  0  0  0  0  0  0  0  0
    8.6690    3.5140  -59.6690 C   0  0  2  0  0  0  0  0  0  0  0  0
    8.2190    4.8530  -59.0590 C   0  0  0  0  0  0  0  0  0  0  0  0
    9.0990    5.2050  -57.8470 C   0  0  2  0  0  0  0  0  0  0  0  0
   10.5650    5.3070  -58.2980 C   0  0  0  0  0  0  0  0  0  0  0  0
    8.9700    4.0960  -56.7870 C   0  0  0  0  0  0  0  0  0  0  0  0
    8.5380    2.4060  -58.6100 C   0  0  0  0  0  0  0  0  0  0  0  0
    9.6560   -0.6070  -54.9340 N   0  0  0  0  0  0  0  0  0  0  0  0
    9.5600   -1.5960  -54.0200 N   0  0  0  0  0  0  0  0  0  0  0  0
   10.6870   -2.5180  -53.9490 C   0  0  0  0  0  0  0  0  0  0  0  0
   10.6440   -3.5320  -55.0850 C   0  0  0  0  0  0  0  0  0  0  0  0
   11.1390   -2.9660  -56.3020 O   0  0  0  0  0  0  0  0  0  0  0  0
    8.3800   -1.5680  -53.3190 C   0  0  0  0  0  0  0  0  0  0  0  0
    8.0480   -2.4340  -52.2780 N   0  0  0  0  0  0  0  0  0  0  0  0
    8.1390   -2.2670  -50.9140 C   0  0  0  0  0  0  0  0  0  0  0  0
    7.7320   -3.4420  -50.3290 C   0  0  0  0  0  0  0  0  0  0  0  0
    7.4030   -4.2700  -51.4090 C   0  0  0  0  0  0  0  0  0  0  0  0
    7.5830   -3.6670  -52.5840 N   0  0  0  0  0  0  0  0  0  0  0  0
    6.2115    0.0007  -52.3699 H   0  0  0  0  0  0  0  0  0  0  0  0
    6.1365    0.9852  -53.8706 H   0  0  0  0  0  0  0  0  0  0  0  0
    5.5169   -0.7009  -53.8706 H   0  0  0  0  0  0  0  0  0  0  0  0
   10.1840    1.1770  -56.0950 H   0  0  0  0  0  0  0  0  0  0  0  0
   11.5153    3.1106  -56.9771 H   0  0  0  0  0  0  0  0  0  0  0  0
   11.1955    1.9091  -58.2890 H   0  0  0  0  0  0  0  0  0  0  0  0
   12.0726    4.0493  -59.2194 H   0  0  0  0  0  0  0  0  0  0  0  0
   10.2322    4.4179  -60.8667 H   0  0  0  0  0  0  0  0  0  0  0  0
   10.4628    2.6643  -60.5329 H   0  0  0  0  0  0  0  0  0  0  0  0
    8.0401    3.2715  -60.5383 H   0  0  0  0  0  0  0  0  0  0  0  0
    8.3087    5.6460  -59.8161 H   0  0  0  0  0  0  0  0  0  0  0  0
    7.1729    4.7652  -58.7306 H   0  0  0  0  0  0  0  0  0  0  0  0
    8.7748    6.1655  -57.4199 H   0  0  0  0  0  0  0  0  0  0  0  0
   10.6589    6.0990  -59.0556 H   0  0  0  0  0  0  0  0  0  0  0  0
   11.1948    5.5464  -57.4285 H   0  0  0  0  0  0  0  0  0  0  0  0
    9.6083    4.3430  -55.9259 H   0  0  0  0  0  0  0  0  0  0  0  0
    7.9180    4.0260  -56.4732 H   0  0  0  0  0  0  0  0  0  0  0  0
    7.4856    2.3243  -58.3006 H   0  0  0  0  0  0  0  0  0  0  0  0
    8.8814    1.4563  -59.0462 H   0  0  0  0  0  0  0  0  0  0  0  0
   11.6236   -1.9450  -54.0152 H   0  0  0  0  0  0  0  0  0  0  0  0
   10.6310   -3.0625  -52.9949 H   0  0  0  0  0  0  0  0  0  0  0  0
   11.2633   -4.4000  -54.8149 H   0  0  0  0  0  0  0  0  0  0  0  0
    9.5984   -3.8356  -55.2418 H   0  0  0  0  0  0  0  0  0  0  0  0
   12.0480   -3.3040  -56.4240 H   0  0  0  0  0  0  0  0  0  0  0  0
    8.4754   -1.3604  -50.3896 H   0  0  0  0  0  0  0  0  0  0  0  0
    7.6772   -3.6783  -49.2561 H   0  0  0  0  0  0  0  0  0  0  0  0
    7.0373   -5.3017  -51.3001 H   0  0  0  0  0  0  0  0  0  0  0  0
  1  2  1  0
  2  3  1  0
  3  4  1  0
  4  5  2  0
  4  6  1  0
  7  6  1  1
  7  8  1  0
  8  9  1  0
  9 10  1  0
 10 11  1  0
 11 12  1  0
 12 13  1  0
 13 14  1  0
 13 15  1  0
 11 16  1  0
  3 17  2  0
 17 18  1  0
 18 19  1  0
 19 20  1  0
 20 21  1  0
 18 22  1  0
 22 23  1  0
 23 24  1  0
 24 25  2  0
 25 26  1  0
 26 27  2  0
 22  2  2  0
 27 23  1  0
 15  7  1  0
 16  7  1  0
 14  9  1  0
  1 28  1  0
  1 29  1  0
  1 30  1  0
  6 31  1  0
  8 32  1  0
  8 33  1  0
  9 34  1  6
 10 35  1  0
 10 36  1  0
 11 37  1  6
 12 38  1  0
 12 39  1  0
 13 40  1  1
 14 41  1  0
 14 42  1  0
 15 43  1  0
 15 44  1  0
 16 45  1  0
 16 46  1  0
 19 47  1  0
 19 48  1  0
 20 49  1  0
 20 50  1  0
 21 51  1  0
 24 52  1  0
 25 53  1  0
 26 54  1  0
M  END
>  <meeko>  (87) 
{"is_sidechain": false}

$$$$

     RDKit          3D

 54 56  0  0  0  0  0  0  0  0999 V2000
   11.7640   -4.4180  -58.3310 C   0  0  0  0  0  0  0  0  0  0  0  0
   11.0990   -4.6420  -56.9800 C   0  0  0  0  0  0  0  0  0  0  0  0
   11.0930   -3.3630  -56.1430 C   0  0  0  0  0  0  0  0  0  0  0  0
   10.5490   -3.5660  -54.7280 C   0  0  0  0  0  0  0  0  0  0  0  0
   10.6000   -2.3000  -53.8760 C   0  0  0  0  0  0  0  0  0  0  0  0
    9.4300   -1.4570  -54.0840 N   0  0  0  0  0  0  0  0  0  0  0  0
    9.4990   -0.4770  -55.0070 N   0  0  0  0  0  0  0  0  0  0  0  0
    8.2850    0.1080  -54.9590 C   0  0  0  0  0  0  0  0  0  0  0  0
    7.9630    1.2550  -55.8310 C   0  0  0  0  0  0  0  0  0  0  0  0
    6.8360    1.4880  -56.2570 O   0  0  0  0  0  0  0  0  0  0  0  0
    9.0580    2.0440  -56.1020 N   0  0  0  0  0  0  0  0  0  0  0  0
    8.9640    3.3070  -56.7790 C   0  0  0  0  0  0  0  0  0  0  0  0
   10.2510    3.6280  -57.4950 C   0  0  0  0  0  0  0  0  0  0  0  0
   11.4330    2.9400  -57.1870 C   0  0  0  0  0  0  0  0  0  0  0  0
   12.6270    3.2620  -57.8360 C   0  0  0  0  0  0  0  0  0  0  0  0
   12.6590    4.2800  -58.7920 C   0  0  0  0  0  0  0  0  0  0  0  0
   14.1730    4.6240  -59.5510 Cl  0  0  0  0  0  0  0  0  0  0  0  0
   11.4880    4.9810  -59.0990 C   0  0  0  0  0  0  0  0  0  0  0  0
   11.4520    6.2580  -60.2640 Cl  0  0  0  0  0  0  0  0  0  0  0  0
   10.2920    4.6560  -58.4500 C   0  0  0  0  0  0  0  0  0  0  0  0
    7.4460   -0.5200  -53.9910 C   0  0  0  0  0  0  0  0  0  0  0  0
    6.0460   -0.1500  -53.6540 C   0  0  0  0  0  0  0  0  0  0  0  0
    8.2190   -1.5310  -53.4430 C   0  0  0  0  0  0  0  0  0  0  0  0
    7.8980   -2.5010  -52.4040 C   0  0  0  0  0  0  0  0  0  0  0  0
    8.1590   -2.2050  -51.0620 C   0  0  0  0  0  0  0  0  0  0  0  0
    7.8460   -3.1320  -50.0650 C   0  0  0  0  0  0  0  0  0  0  0  0
    7.2750   -4.3570  -50.4070 C   0  0  0  0  0  0  0  0  0  0  0  0
    7.0200   -4.6600  -51.7440 C   0  0  0  0  0  0  0  0  0  0  0  0
    7.3330   -3.7350  -52.7410 C   0  0  0  0  0  0  0  0  0  0  0  0
   12.7964   -4.0703  -58.1784 H   0  0  0  0  0  0  0  0  0  0  0  0
   11.7748   -5.3621  -58.8954 H   0  0  0  0  0  0  0  0  0  0  0  0
   11.2014   -3.6598  -58.8954 H   0  0  0  0  0  0  0  0  0  0  0  0
   10.0612   -4.9689  -57.1416 H   0  0  0  0  0  0  0  0  0  0  0  0
   11.6695   -5.4093  -56.4361 H   0  0  0  0  0  0  0  0  0  0  0  0
   12.1250   -2.9894  -56.0696 H   0  0  0  0  0  0  0  0  0  0  0  0
   10.4269   -2.6476  -56.6476 H   0  0  0  0  0  0  0  0  0  0  0  0
    9.5024   -3.8969  -54.8001 H   0  0  0  0  0  0  0  0  0  0  0  0
   11.1869   -4.3159  -54.2373 H   0  0  0  0  0  0  0  0  0  0  0  0
   10.6473   -2.5871  -52.8152 H   0  0  0  0  0  0  0  0  0  0  0  0
   11.4905   -1.7259  -54.1719 H   0  0  0  0  0  0  0  0  0  0  0  0
    9.9020    1.7860  -55.5960 H   0  0  0  0  0  0  0  0  0  0  0  0
    8.1449    3.2632  -57.5119 H   0  0  0  0  0  0  0  0  0  0  0  0
    8.7698    4.0926  -56.0340 H   0  0  0  0  0  0  0  0  0  0  0  0
   11.4200    2.1421  -56.4299 H   0  0  0  0  0  0  0  0  0  0  0  0
   13.5474    2.7109  -57.5930 H   0  0  0  0  0  0  0  0  0  0  0  0
    9.3739    5.2120  -58.6907 H   0  0  0  0  0  0  0  0  0  0  0  0
    5.9280   -0.1188  -52.5608 H   0  0  0  0  0  0  0  0  0  0  0  0
    5.8166    0.8396  -54.0759 H   0  0  0  0  0  0  0  0  0  0  0  0
    5.3576   -0.8970  -54.0759 H   0  0  0  0  0  0  0  0  0  0  0  0
    8.6119   -1.2398  -50.7911 H   0  0  0  0  0  0  0  0  0  0  0  0
    8.0500   -2.8955  -49.0103 H   0  0  0  0  0  0  0  0  0  0  0  0
    7.0254   -5.0853  -49.6213 H   0  0  0  0  0  0  0  0  0  0  0  0
    6.5722   -5.6281  -52.0128 H   0  0  0  0  0  0  0  0  0  0  0  0
    7.1346   -3.9774  -53.7955 H   0  0  0  0  0  0  0  0  0  0  0  0
  1  2  1  0
  2  3  1  0
  3  4  1  0
  4  5  1  0
  5  6  1  0
  6  7  1  0
  7  8  2  0
  8  9  1  0
  9 10  2  0
  9 11  1  0
 11 12  1  0
 12 13  1  0
 13 14  1  0
 14 15  2  0
 15 16  1  0
 16 17  1  0
 16 18  2  0
 18 19  1  0
 18 20  1  0
  8 21  1  0
 21 22  1  0
 21 23  2  0
 23 24  1  0
 24 25  2  0
 25 26  1  0
 26 27  2  0
 27 28  1  0
 28 29  2  0
 23  6  1  0
 29 24  1  0
 20 13  2  0
  1 30  1  0
  1 31  1  0
  1 32  1  0
  2 33  1  0
  2 34  1  0
  3 35  1  0
  3 36  1  0
  4 37  1  0
  4 38  1  0
  5 39  1  0
  5 40  1  0
 11 41  1  0
 12 42  1  0
 12 43  1  0
 14 44  1  0
 15 45  1  0
 20 46  1  0
 22 47  1  0
 22 48  1  0
 22 49  1  0
 25 50  1  0
 26 51  1  0
 27 52  1  0
 28 53  1  0
 29 54  1  0
M  END
>  <meeko>  (88) 
{"is_sidechain": false}

$$$$

     RDKit          3D

 53 58  0  0  0  0  0  0  0  0999 V2000
    9.6350   -0.4830  -53.4810 O   0  0  0  0  0  0  0  0  0  0  0  0
    8.5470   -0.4390  -54.0460 C   0  0  0  0  0  0  0  0  0  0  0  0
    7.4800   -1.2480  -53.6730 N   0  0  0  0  0  0  0  0  0  0  0  0
    7.5120   -2.1820  -52.5390 C   0  0  2  0  0  0  0  0  0  0  0  0
    8.7640   -3.0970  -52.5700 C   0  0  0  0  0  0  0  0  0  0  0  0
    8.7330   -4.0980  -51.4010 C   0  0  1  0  0  0  0  0  0  0  0  0
    8.6860   -3.3230  -50.0730 C   0  0  0  0  0  0  0  0  0  0  0  0
    7.4260   -2.4430  -50.0160 C   0  0  2  0  0  0  0  0  0  0  0  0
    6.1810   -3.3330  -50.1430 C   0  0  0  0  0  0  0  0  0  0  0  0
    6.2190   -4.1020  -51.4730 C   0  0  2  0  0  0  0  0  0  0  0  0
    7.4790   -4.9780  -51.5190 C   0  0  0  0  0  0  0  0  0  0  0  0
    6.2610   -3.0980  -52.6360 C   0  0  0  0  0  0  0  0  0  0  0  0
    7.4560   -1.4390  -51.1820 C   0  0  0  0  0  0  0  0  0  0  0  0
    8.2460    0.4650  -55.1490 C   0  0  0  0  0  0  0  0  0  0  0  0
    7.1540    0.4060  -55.8900 N   0  0  0  0  0  0  0  0  0  0  0  0
    7.2440    1.4390  -56.7980 C   0  0  0  0  0  0  0  0  0  0  0  0
    6.1880    1.6930  -57.7550 C   0  0  0  0  0  0  0  0  0  0  0  0
    5.0180    2.3360  -57.3370 C   0  0  0  0  0  0  0  0  0  0  0  0
    3.9930    2.5980  -58.2500 C   0  0  0  0  0  0  0  0  0  0  0  0
    4.1400    2.2290  -59.5870 C   0  0  0  0  0  0  0  0  0  0  0  0
    5.3130    1.6070  -60.0150 C   0  0  0  0  0  0  0  0  0  0  0  0
    6.3390    1.3450  -59.1030 C   0  0  0  0  0  0  0  0  0  0  0  0
    8.4360    2.1230  -56.6450 C   0  0  0  0  0  0  0  0  0  0  0  0
    9.1070    3.1980  -57.3040 C   0  0  0  0  0  0  0  0  0  0  0  0
    9.8410    2.9550  -58.3740 N   0  0  0  0  0  0  0  0  0  0  0  0
   10.3710    4.1380  -58.8550 C   0  0  0  0  0  0  0  0  0  0  0  0
   10.0130    5.2730  -58.1620 C   0  0  0  0  0  0  0  0  0  0  0  0
    8.9780    4.8500  -56.8660 S   0  0  0  0  0  0  0  0  0  0  0  0
    9.0220    1.5180  -55.5580 N   0  0  0  0  0  0  0  0  0  0  0  0
    6.5630   -0.9160  -53.9390 H   0  0  0  0  0  0  0  0  0  0  0  0
    8.7832   -3.6512  -53.5200 H   0  0  0  0  0  0  0  0  0  0  0  0
    9.6633   -2.4705  -52.4765 H   0  0  0  0  0  0  0  0  0  0  0  0
    9.6324   -4.7306  -51.4304 H   0  0  0  0  0  0  0  0  0  0  0  0
    8.6689   -4.0367  -49.2362 H   0  0  0  0  0  0  0  0  0  0  0  0
    9.5760   -2.6807  -50.0006 H   0  0  0  0  0  0  0  0  0  0  0  0
    7.3955   -1.8991  -49.0604 H   0  0  0  0  0  0  0  0  0  0  0  0
    6.1584   -4.0493  -49.3085 H   0  0  0  0  0  0  0  0  0  0  0  0
    5.2809   -2.7012  -50.1164 H   0  0  0  0  0  0  0  0  0  0  0  0
    5.3240   -4.7358  -51.5587 H   0  0  0  0  0  0  0  0  0  0  0  0
    7.4561   -5.6939  -50.6842 H   0  0  0  0  0  0  0  0  0  0  0  0
    7.5071   -5.5217  -52.4748 H   0  0  0  0  0  0  0  0  0  0  0  0
    6.2931   -3.6505  -53.5866 H   0  0  0  0  0  0  0  0  0  0  0  0
    5.3613   -2.4672  -52.5857 H   0  0  0  0  0  0  0  0  0  0  0  0
    6.5492   -0.8174  -51.1473 H   0  0  0  0  0  0  0  0  0  0  0  0
    8.3527   -0.8093  -51.0850 H   0  0  0  0  0  0  0  0  0  0  0  0
    4.9044    2.6367  -56.2850 H   0  0  0  0  0  0  0  0  0  0  0  0
    3.0708    3.0949  -57.9144 H   0  0  0  0  0  0  0  0  0  0  0  0
    3.3304    2.4286  -60.3045 H   0  0  0  0  0  0  0  0  0  0  0  0
    5.4305    1.3226  -61.0711 H   0  0  0  0  0  0  0  0  0  0  0  0
    7.2674    0.8642  -59.4449 H   0  0  0  0  0  0  0  0  0  0  0  0
   11.0340    4.1704  -59.7322 H   0  0  0  0  0  0  0  0  0  0  0  0
   10.3417    6.2944  -58.4041 H   0  0  0  0  0  0  0  0  0  0  0  0
    9.8880    1.8230  -55.1350 H   0  0  0  0  0  0  0  0  0  0  0  0
  1  2  2  0
  2  3  1  0
  4  3  1  6
  4  5  1  0
  5  6  1  0
  6  7  1  0
  7  8  1  0
  8  9  1  0
  9 10  1  0
 10 11  1  0
 10 12  1  0
  8 13  1  0
  2 14  1  0
 14 15  2  0
 15 16  1  0
 16 17  1  0
 17 18  2  0
 18 19  1  0
 19 20  2  0
 20 21  1  0
 21 22  2  0
 16 23  2  0
 23 24  1  0
 24 25  2  0
 25 26  1  0
 26 27  2  0
 27 28  1  0
 23 29  1  0
 12  4  1  0
 29 14  1  0
 13  4  1  0
 22 17  1  0
 28 24  1  0
 11  6  1  0
  3 30  1  0
  5 31  1  0
  5 32  1  0
  6 33  1  1
  7 34  1  0
  7 35  1  0
  8 36  1  1
  9 37  1  0
  9 38  1  0
 10 39  1  6
 11 40  1  0
 11 41  1  0
 12 42  1  0
 12 43  1  0
 13 44  1  0
 13 45  1  0
 18 46  1  0
 19 47  1  0
 20 48  1  0
 21 49  1  0
 22 50  1  0
 26 51  1  0
 27 52  1  0
 29 53  1  0
M  END
>  <meeko>  (89) 
{"is_sidechain": false}

$$$$

     RDKit          3D

 53 58  0  0  0  0  0  0  0  0999 V2000
    9.3210    2.4270  -55.4100 O   0  0  0  0  0  0  0  0  0  0  0  0
    9.5520    1.4720  -56.1420 C   0  0  0  0  0  0  0  0  0  0  0  0
    9.6420    1.5430  -57.5130 N   0  0  0  0  0  0  0  0  0  0  0  0
    9.4820    2.7440  -58.3270 C   0  0  2  0  0  0  0  0  0  0  0  0
    9.7210    2.3690  -59.8130 C   0  0  0  0  0  0  0  0  0  0  0  0
    9.5660    3.5960  -60.7250 C   0  0  1  0  0  0  0  0  0  0  0  0
    8.1450    4.1610  -60.5710 C   0  0  0  0  0  0  0  0  0  0  0  0
    7.8960    4.5650  -59.1100 C   0  0  2  0  0  0  0  0  0  0  0  0
    8.9260    5.6300  -58.6940 C   0  0  0  0  0  0  0  0  0  0  0  0
   10.3520    5.0730  -58.8430 C   0  0  2  0  0  0  0  0  0  0  0  0
   10.5880    4.6660  -60.3070 C   0  0  0  0  0  0  0  0  0  0  0  0
   10.5110    3.8370  -57.9400 C   0  0  0  0  0  0  0  0  0  0  0  0
    8.0530    3.3290  -58.2070 C   0  0  0  0  0  0  0  0  0  0  0  0
    9.7630    0.1300  -55.6330 C   0  0  0  0  0  0  0  0  0  0  0  0
   10.5840   -0.7580  -56.1630 N   0  0  0  0  0  0  0  0  0  0  0  0
   10.4690   -1.8860  -55.3690 C   0  0  0  0  0  0  0  0  0  0  0  0
   11.3110   -3.1960  -55.6400 C   0  0  0  0  0  0  0  0  0  0  0  0
   11.5590   -4.1040  -54.7170 N   0  0  0  0  0  0  0  0  0  0  0  0
   12.3210   -5.1220  -55.2530 C   0  0  0  0  0  0  0  0  0  0  0  0
   12.6470   -4.9860  -56.5840 C   0  0  0  0  0  0  0  0  0  0  0  0
   11.9790   -3.5300  -57.1930 S   0  0  0  0  0  0  0  0  0  0  0  0
    9.5580   -1.6810  -54.3420 C   0  0  0  0  0  0  0  0  0  0  0  0
    9.0410   -2.5070  -53.2590 C   0  0  0  0  0  0  0  0  0  0  0  0
    7.9070   -3.3070  -53.4470 C   0  0  0  0  0  0  0  0  0  0  0  0
    7.3950   -4.0720  -52.3960 C   0  0  0  0  0  0  0  0  0  0  0  0
    8.0100   -4.0410  -51.1460 C   0  0  0  0  0  0  0  0  0  0  0  0
    9.1390   -3.2490  -50.9460 C   0  0  0  0  0  0  0  0  0  0  0  0
    9.6520   -2.4840  -51.9970 C   0  0  0  0  0  0  0  0  0  0  0  0
    9.1310   -0.3870  -54.5350 N   0  0  0  0  0  0  0  0  0  0  0  0
    9.8420    0.6550  -57.9680 H   0  0  0  0  0  0  0  0  0  0  0  0
   10.7387    1.9661  -59.9227 H   0  0  0  0  0  0  0  0  0  0  0  0
    8.9738    1.6176  -60.1082 H   0  0  0  0  0  0  0  0  0  0  0  0
    9.7385    3.3084  -61.7726 H   0  0  0  0  0  0  0  0  0  0  0  0
    8.0319    5.0438  -61.2174 H   0  0  0  0  0  0  0  0  0  0  0  0
    7.4163    3.3900  -60.8618 H   0  0  0  0  0  0  0  0  0  0  0  0
    6.8794    4.9725  -59.0077 H   0  0  0  0  0  0  0  0  0  0  0  0
    8.8126    6.5161  -59.3359 H   0  0  0  0  0  0  0  0  0  0  0  0
    8.7549    5.9050  -57.6427 H   0  0  0  0  0  0  0  0  0  0  0  0
   11.0823    5.8419  -58.5506 H   0  0  0  0  0  0  0  0  0  0  0  0
   10.4764    5.5490  -60.9534 H   0  0  0  0  0  0  0  0  0  0  0  0
   11.6035    4.2558  -60.4092 H   0  0  0  0  0  0  0  0  0  0  0  0
   11.5278    3.4335  -58.0549 H   0  0  0  0  0  0  0  0  0  0  0  0
   10.3364    4.1353  -56.8957 H   0  0  0  0  0  0  0  0  0  0  0  0
    7.8676    3.6188  -57.1622 H   0  0  0  0  0  0  0  0  0  0  0  0
    7.3289    2.5640  -58.5240 H   0  0  0  0  0  0  0  0  0  0  0  0
   12.6469   -5.9863  -54.6557 H   0  0  0  0  0  0  0  0  0  0  0  0
   13.2446   -5.7022  -57.1670 H   0  0  0  0  0  0  0  0  0  0  0  0
    7.4152   -3.3333  -54.4306 H   0  0  0  0  0  0  0  0  0  0  0  0
    6.5056   -4.6993  -52.5554 H   0  0  0  0  0  0  0  0  0  0  0  0
    7.6047   -4.6411  -50.3180 H   0  0  0  0  0  0  0  0  0  0  0  0
    9.6267   -3.2260  -49.9603 H   0  0  0  0  0  0  0  0  0  0  0  0
   10.5421   -1.8589  -51.8330 H   0  0  0  0  0  0  0  0  0  0  0  0
    8.4430    0.1100  -53.9830 H   0  0  0  0  0  0  0  0  0  0  0  0
  1  2  2  0
  2  3  1  0
  4  3  1  1
  4  5  1  0
  5  6  1  0
  6  7  1  0
  7  8  1  0
  8  9  1  0
  9 10  1  0
 10 11  1  0
 10 12  1  0
  8 13  1  0
  2 14  1  0
 14 15  2  0
 15 16  1  0
 16 17  1  0
 17 18  2  0
 18 19  1  0
 19 20  2  0
 20 21  1  0
 16 22  2  0
 22 23  1  0
 23 24  2  0
 24 25  1  0
 25 26  2  0
 26 27  1  0
 27 28  2  0
 22 29  1  0
 12  4  1  0
 29 14  1  0
 13  4  1  0
 21 17  1  0
 28 23  1  0
 11  6  1  0
  3 30  1  0
  5 31  1  0
  5 32  1  0
  6 33  1  6
  7 34  1  0
  7 35  1  0
  8 36  1  6
  9 37  1  0
  9 38  1  0
 10 39  1  1
 11 40  1  0
 11 41  1  0
 12 42  1  0
 12 43  1  0
 13 44  1  0
 13 45  1  0
 19 46  1  0
 20 47  1  0
 24 48  1  0
 25 49  1  0
 26 50  1  0
 27 51  1  0
 28 52  1  0
 29 53  1  0
M  END
>  <meeko>  (90) 
{"is_sidechain": false}

$$$$

     RDKit          3D

 54 59  0  0  0  0  0  0  0  0999 V2000
    9.4660   -0.3490  -53.4660 O   0  0  0  0  0  0  0  0  0  0  0  0
    8.3830   -0.4390  -54.0300 C   0  0  0  0  0  0  0  0  0  0  0  0
    7.3630   -1.3060  -53.6750 N   0  0  0  0  0  0  0  0  0  0  0  0
    7.4440   -2.2370  -52.5340 C   0  0  2  0  0  0  0  0  0  0  0  0
    8.6990   -3.1420  -52.6120 C   0  0  0  0  0  0  0  0  0  0  0  0
    8.7260   -4.1340  -51.4350 C   0  0  1  0  0  0  0  0  0  0  0  0
    8.7320   -3.3500  -50.1120 C   0  0  0  0  0  0  0  0  0  0  0  0
    7.4700   -2.4770  -50.0080 C   0  0  2  0  0  0  0  0  0  0  0  0
    6.2260   -3.3760  -50.0740 C   0  0  0  0  0  0  0  0  0  0  0  0
    6.2100   -4.1560  -51.3980 C   0  0  2  0  0  0  0  0  0  0  0  0
    7.4740   -5.0230  -51.4920 C   0  0  0  0  0  0  0  0  0  0  0  0
    6.1940   -3.1600  -52.5680 C   0  0  0  0  0  0  0  0  0  0  0  0
    7.4420   -1.4820  -51.1820 C   0  0  0  0  0  0  0  0  0  0  0  0
    8.1210    0.4190  -55.1300 C   0  0  0  0  0  0  0  0  0  0  0  0
    8.9020    1.4330  -55.5270 N   0  0  0  0  0  0  0  0  0  0  0  0
    8.4100    2.0830  -56.6540 C   0  0  0  0  0  0  0  0  0  0  0  0
    9.2080    3.2130  -57.4190 C   0  0  0  0  0  0  0  0  0  0  0  0
    9.9310    2.9970  -58.4920 N   0  0  0  0  0  0  0  0  0  0  0  0
   10.5330    4.1740  -58.9000 C   0  0  0  0  0  0  0  0  0  0  0  0
   10.2630    5.2790  -58.1230 C   0  0  0  0  0  0  0  0  0  0  0  0
    9.2270    4.8330  -56.8330 S   0  0  0  0  0  0  0  0  0  0  0  0
    7.1900    1.4720  -56.9250 C   0  0  0  0  0  0  0  0  0  0  0  0
    6.0550    1.7730  -57.9770 C   0  0  0  0  0  0  0  0  0  0  0  0
    6.2390    1.3410  -59.2980 C   0  0  0  0  0  0  0  0  0  0  0  0
    5.2500    1.5640  -60.2590 C   0  0  0  0  0  0  0  0  0  0  0  0
    4.0670    2.2050  -59.9060 C   0  0  0  0  0  0  0  0  0  0  0  0
    3.8700    2.6180  -58.5900 C   0  0  0  0  0  0  0  0  0  0  0  0
    4.8590    2.3980  -57.6260 C   0  0  0  0  0  0  0  0  0  0  0  0
    7.1000    0.4190  -56.0030 N   0  0  0  0  0  0  0  0  0  0  0  0
    6.4320   -1.1490  -54.0330 H   0  0  0  0  0  0  0  0  0  0  0  0
    8.6815   -3.7036  -53.5577 H   0  0  0  0  0  0  0  0  0  0  0  0
    9.5967   -2.5083  -52.5622 H   0  0  0  0  0  0  0  0  0  0  0  0
    9.6278   -4.7606  -51.4989 H   0  0  0  0  0  0  0  0  0  0  0  0
    8.7551   -4.0576  -49.2701 H   0  0  0  0  0  0  0  0  0  0  0  0
    9.6207   -2.7024  -50.0818 H   0  0  0  0  0  0  0  0  0  0  0  0
    7.4781   -1.9253  -49.0564 H   0  0  0  0  0  0  0  0  0  0  0  0
    6.2444   -4.0855  -49.2336 H   0  0  0  0  0  0  0  0  0  0  0  0
    5.3242   -2.7490  -50.0137 H   0  0  0  0  0  0  0  0  0  0  0  0
    5.3172   -4.7972  -51.4402 H   0  0  0  0  0  0  0  0  0  0  0  0
    7.4924   -5.7326  -50.6517 H   0  0  0  0  0  0  0  0  0  0  0  0
    7.4647   -5.5732  -52.4445 H   0  0  0  0  0  0  0  0  0  0  0  0
    6.1857   -3.7188  -53.5155 H   0  0  0  0  0  0  0  0  0  0  0  0
    5.2943   -2.5332  -52.4810 H   0  0  0  0  0  0  0  0  0  0  0  0
    6.5332   -0.8662  -51.1128 H   0  0  0  0  0  0  0  0  0  0  0  0
    8.3372   -0.8449  -51.1294 H   0  0  0  0  0  0  0  0  0  0  0  0
    9.7870    1.6380  -55.0640 H   0  0  0  0  0  0  0  0  0  0  0  0
   11.1836    4.2241  -59.7855 H   0  0  0  0  0  0  0  0  0  0  0  0
   10.6525    6.2919  -58.3030 H   0  0  0  0  0  0  0  0  0  0  0  0
    7.1678    0.8233  -59.5795 H   0  0  0  0  0  0  0  0  0  0  0  0
    5.4069    1.2324  -61.2960 H   0  0  0  0  0  0  0  0  0  0  0  0
    3.2897    2.3852  -60.6632 H   0  0  0  0  0  0  0  0  0  0  0  0
    2.9324    3.1193  -58.3080 H   0  0  0  0  0  0  0  0  0  0  0  0
    4.6928    2.7192  -56.5871 H   0  0  0  0  0  0  0  0  0  0  0  0
    6.3390   -0.2480  -55.9840 H   0  0  0  0  0  0  0  0  0  0  0  0
  1  2  2  0
  2  3  1  0
  4  3  1  6
  4  5  1  0
  5  6  1  0
  6  7  1  0
  7  8  1  0
  8  9  1  0
  9 10  1  0
 10 11  1  0
 10 12  1  0
  8 13  1  0
  2 14  1  0
 14 15  1  0
 15 16  1  0
 16 17  1  0
 17 18  2  0
 18 19  1  0
 19 20  2  0
 20 21  1  0
 16 22  2  0
 22 23  1  0
 23 24  2  0
 24 25  1  0
 25 26  2  0
 26 27  1  0
 27 28  2  0
 22 29  1  0
 12  4  1  0
 29 14  2  0
 13  4  1  0
 21 17  1  0
 28 23  1  0
 11  6  1  0
  3 30  1  0
  5 31  1  0
  5 32  1  0
  6 33  1  6
  7 34  1  0
  7 35  1  0
  8 36  1  1
  9 37  1  0
  9 38  1  0
 10 39  1  1
 11 40  1  0
 11 41  1  0
 12 42  1  0
 12 43  1  0
 13 44  1  0
 13 45  1  0
 15 46  1  0
 19 47  1  0
 20 48  1  0
 24 49  1  0
 25 50  1  0
 26 51  1  0
 27 52  1  0
 28 53  1  0
 29 54  1  0
M  CHG  1  29   1
M  END
>  <meeko>  (91) 
{"is_sidechain": false}

$$$$

     RDKit          3D

 59 63  0  0  0  0  0  0  0  0999 V2000
    5.9390   -0.1520  -53.9450 C   0  0  0  0  0  0  0  0  0  0  0  0
    7.3770   -0.3400  -54.2760 C   0  0  0  0  0  0  0  0  0  0  0  0
    8.1720    0.3910  -55.1970 C   0  0  0  0  0  0  0  0  0  0  0  0
    7.8010    1.5620  -56.0780 C   0  0  2  0  0  0  0  0  0  0  0  0
    6.4060    1.4110  -56.7280 C   0  0  0  0  0  0  0  0  0  0  0  0
    5.6340    2.6000  -56.4770 O   0  0  0  0  0  0  0  0  0  0  0  0
    8.8100    1.6260  -57.2140 N   0  0  0  0  0  0  0  0  0  0  0  0
    9.0490    2.8780  -57.9630 C   0  0  2  0  0  0  0  0  0  0  0  0
   10.5190    2.8570  -58.4450 C   0  0  0  0  0  0  0  0  0  0  0  0
   10.8340    4.1410  -59.2320 C   0  0  1  0  0  0  0  0  0  0  0  0
    9.8930    4.2320  -60.4450 C   0  0  0  0  0  0  0  0  0  0  0  0
    8.4280    4.2580  -59.9770 C   0  0  2  0  0  0  0  0  0  0  0  0
    8.2120    5.4730  -59.0570 C   0  0  0  0  0  0  0  0  0  0  0  0
    9.1480    5.3920  -57.8380 C   0  0  2  0  0  0  0  0  0  0  0  0
   10.6070    5.3590  -58.3220 C   0  0  0  0  0  0  0  0  0  0  0  0
    8.8440    4.1040  -57.0510 C   0  0  0  0  0  0  0  0  0  0  0  0
    8.1230    2.9680  -59.1910 C   0  0  0  0  0  0  0  0  0  0  0  0
    9.4510   -0.0260  -55.2050 N   0  0  0  0  0  0  0  0  0  0  0  0
    9.4600   -1.0620  -54.3350 N   0  0  0  0  0  0  0  0  0  0  0  0
   10.6840   -1.8080  -54.1300 C   0  0  0  0  0  0  0  0  0  0  0  0
    8.2440   -1.2780  -53.7320 C   0  0  0  0  0  0  0  0  0  0  0  0
    7.9970   -2.3130  -52.7350 C   0  0  0  0  0  0  0  0  0  0  0  0
    8.2050   -2.0520  -51.3740 C   0  0  0  0  0  0  0  0  0  0  0  0
    7.9630   -3.0450  -50.4230 C   0  0  0  0  0  0  0  0  0  0  0  0
    7.5120   -4.2940  -50.8360 C   0  0  0  0  0  0  0  0  0  0  0  0
    7.2800   -5.2450  -49.9230 F   0  0  0  0  0  0  0  0  0  0  0  0
    7.2950   -4.5680  -52.1810 C   0  0  0  0  0  0  0  0  0  0  0  0
    7.5360   -3.5760  -53.1330 C   0  0  0  0  0  0  0  0  0  0  0  0
    5.8134   -0.1356  -52.8523 H   0  0  0  0  0  0  0  0  0  0  0  0
    5.5866    0.7999  -54.3690 H   0  0  0  0  0  0  0  0  0  0  0  0
    5.3537   -0.9813  -54.3690 H   0  0  0  0  0  0  0  0  0  0  0  0
    7.7936    2.4614  -55.4448 H   0  0  0  0  0  0  0  0  0  0  0  0
    6.5194    1.2685  -57.8128 H   0  0  0  0  0  0  0  0  0  0  0  0
    5.8911    0.5392  -56.2981 H   0  0  0  0  0  0  0  0  0  0  0  0
    5.1120    2.7780  -57.2870 H   0  0  0  0  0  0  0  0  0  0  0  0
    8.5370    0.8400  -57.8340 H   0  0  0  0  0  0  0  0  0  0  0  0
    9.6850    1.2810  -56.7700 H   0  0  0  0  0  0  0  0  0  0  0  0
   11.1870    2.7909  -57.5736 H   0  0  0  0  0  0  0  0  0  0  0  0
   10.6716    1.9862  -59.0995 H   0  0  0  0  0  0  0  0  0  0  0  0
   11.8796    4.1226  -59.5733 H   0  0  0  0  0  0  0  0  0  0  0  0
   10.1118    5.1520  -61.0069 H   0  0  0  0  0  0  0  0  0  0  0  0
   10.0497    3.3539  -61.0887 H   0  0  0  0  0  0  0  0  0  0  0  0
    7.7613    4.3282  -60.8491 H   0  0  0  0  0  0  0  0  0  0  0  0
    8.4249    6.3952  -59.6175 H   0  0  0  0  0  0  0  0  0  0  0  0
    7.1689    5.4770  -58.7080 H   0  0  0  0  0  0  0  0  0  0  0  0
    8.9922    6.2674  -57.1904 H   0  0  0  0  0  0  0  0  0  0  0  0
   10.8247    6.2790  -58.8844 H   0  0  0  0  0  0  0  0  0  0  0  0
   11.2740    5.2866  -57.4503 H   0  0  0  0  0  0  0  0  0  0  0  0
    9.5215    4.0347  -56.1872 H   0  0  0  0  0  0  0  0  0  0  0  0
    7.8013    4.1280  -56.7013 H   0  0  0  0  0  0  0  0  0  0  0  0
    7.0746    2.9816  -58.8584 H   0  0  0  0  0  0  0  0  0  0  0  0
    8.2928    2.0965  -59.8404 H   0  0  0  0  0  0  0  0  0  0  0  0
   10.8686   -1.9205  -53.0514 H   0  0  0  0  0  0  0  0  0  0  0  0
   10.5892   -2.8020  -54.5914 H   0  0  0  0  0  0  0  0  0  0  0  0
   11.5241   -1.2682  -54.5914 H   0  0  0  0  0  0  0  0  0  0  0  0
    8.5602   -1.0613  -51.0539 H   0  0  0  0  0  0  0  0  0  0  0  0
    8.1279   -2.8409  -49.3547 H   0  0  0  0  0  0  0  0  0  0  0  0
    6.9358   -5.5597  -52.4932 H   0  0  0  0  0  0  0  0  0  0  0  0
    7.3637   -3.7858  -54.1990 H   0  0  0  0  0  0  0  0  0  0  0  0
  1  2  1  0
  2  3  1  0
  3  4  1  0
  4  5  1  0
  5  6  1  0
  4  7  1  0
  8  7  1  1
  8  9  1  0
  9 10  1  0
 10 11  1  0
 11 12  1  0
 12 13  1  0
 13 14  1  0
 14 15  1  0
 14 16  1  0
 12 17  1  0
  3 18  2  0
 18 19  1  0
 19 20  1  0
 19 21  1  0
 21 22  1  0
 22 23  1  0
 23 24  2  0
 24 25  1  0
 25 26  1  0
 25 27  2  0
 27 28  1  0
 21  2  2  0
 28 22  2  0
 16  8  1  0
 17  8  1  0
 15 10  1  0
  1 29  1  0
  1 30  1  0
  1 31  1  0
  4 32  1  1
  5 33  1  0
  5 34  1  0
  6 35  1  0
  7 36  1  0
  7 37  1  0
  9 38  1  0
  9 39  1  0
 10 40  1  6
 11 41  1  0
 11 42  1  0
 12 43  1  6
 13 44  1  0
 13 45  1  0
 14 46  1  1
 15 47  1  0
 15 48  1  0
 16 49  1  0
 16 50  1  0
 17 51  1  0
 17 52  1  0
 20 53  1  0
 20 54  1  0
 20 55  1  0
 23 56  1  0
 24 57  1  0
 27 58  1  0
 28 59  1  0
M  CHG  1   7   1
M  END
>  <meeko>  (92) 
{"is_sidechain": false}

$$$$

     RDKit          3D

 23 24  0  0  0  0  0  0  0  0999 V2000
    5.8540    2.3620  -59.9740 N   0  0  0  0  0  0  0  0  0  0  0  0
    7.0300    3.0210  -59.9910 C   0  0  0  0  0  0  0  0  0  0  0  0
    7.3300    3.9690  -59.0850 N   0  0  0  0  0  0  0  0  0  0  0  0
    8.5690    4.3810  -59.4300 C   0  0  0  0  0  0  0  0  0  0  0  0
    9.4640    5.2960  -58.9660 C   0  0  0  0  0  0  0  0  0  0  0  0
   10.5520    5.1640  -59.8330 N   0  0  0  0  0  0  0  0  0  0  0  0
   11.7910    5.9180  -59.7820 C   0  0  0  0  0  0  0  0  0  0  0  0
   12.9830    5.0270  -59.4610 C   0  0  0  0  0  0  0  0  0  0  0  0
   13.0360    4.6960  -57.9790 C   0  0  0  0  0  0  0  0  0  0  0  0
   12.5180    3.3920  -57.7590 O   0  0  0  0  0  0  0  0  0  0  0  0
   10.3760    4.2050  -60.8110 N   0  0  0  0  0  0  0  0  0  0  0  0
    9.1830    3.7890  -60.5110 C   0  0  0  0  0  0  0  0  0  0  0  0
    8.2440    2.5620  -61.2960 S   0  0  0  0  0  0  0  0  0  0  0  0
    5.5800    1.9190  -59.1050 H   0  0  0  0  0  0  0  0  0  0  0  0
    5.0930    2.8330  -60.4520 H   0  0  0  0  0  0  0  0  0  0  0  0
    9.3561    5.9785  -58.1101 H   0  0  0  0  0  0  0  0  0  0  0  0
   11.9570    6.3964  -60.7585 H   0  0  0  0  0  0  0  0  0  0  0  0
   11.7011    6.6692  -58.9835 H   0  0  0  0  0  0  0  0  0  0  0  0
   12.8977    4.0925  -60.0349 H   0  0  0  0  0  0  0  0  0  0  0  0
   13.9037    5.5647  -59.7317 H   0  0  0  0  0  0  0  0  0  0  0  0
   14.0791    4.7379  -57.6324 H   0  0  0  0  0  0  0  0  0  0  0  0
   12.4309    5.4262  -57.4217 H   0  0  0  0  0  0  0  0  0  0  0  0
   11.5560    3.4250  -57.9010 H   0  0  0  0  0  0  0  0  0  0  0  0
  1  2  1  0
  2  3  2  0
  3  4  1  0
  4  5  2  0
  5  6  1  0
  6  7  1  0
  7  8  1  0
  8  9  1  0
  9 10  1  0
  6 11  1  0
 11 12  2  0
 12 13  1  0
 13  2  1  0
 12  4  1  0
  1 14  1  0
  1 15  1  0
  5 16  1  0
  7 17  1  0
  7 18  1  0
  8 19  1  0
  8 20  1  0
  9 21  1  0
  9 22  1  0
 10 23  1  0
M  END
>  <meeko>  (93) 
{"is_sidechain": false}

$$$$

     RDKit          3D

 23 24  0  0  0  0  0  0  0  0999 V2000
    5.8330    1.8650  -60.4560 N   0  0  0  0  0  0  0  0  0  0  0  0
    6.8880    2.5760  -60.2760 C   0  0  0  0  0  0  0  0  0  0  0  0
    7.9320    2.7760  -61.1590 N   0  0  0  0  0  0  0  0  0  0  0  0
    8.8590    3.5800  -60.6170 C   0  0  0  0  0  0  0  0  0  0  0  0
   10.0570    4.1110  -60.9870 C   0  0  0  0  0  0  0  0  0  0  0  0
   10.4460    4.8600  -59.8930 N   0  0  0  0  0  0  0  0  0  0  0  0
   11.6670    5.6360  -59.7690 C   0  0  0  0  0  0  0  0  0  0  0  0
   12.8740    4.7560  -59.4730 C   0  0  0  0  0  0  0  0  0  0  0  0
   13.0260    4.5190  -57.9790 C   0  0  0  0  0  0  0  0  0  0  0  0
   12.2770    3.3780  -57.5860 O   0  0  0  0  0  0  0  0  0  0  0  0
    9.5650    4.8290  -58.8530 N   0  0  0  0  0  0  0  0  0  0  0  0
    8.6130    4.0420  -59.3310 C   0  0  0  0  0  0  0  0  0  0  0  0
    7.1120    3.4480  -58.7120 S   0  0  0  0  0  0  0  0  0  0  0  0
    5.8580    1.4410  -61.3840 H   0  0  0  0  0  0  0  0  0  0  0  0
    7.9540    2.3530  -62.0740 H   0  0  0  0  0  0  0  0  0  0  0  0
   10.5922    3.9749  -61.9383 H   0  0  0  0  0  0  0  0  0  0  0  0
   11.8428    6.1747  -60.7118 H   0  0  0  0  0  0  0  0  0  0  0  0
   11.5417    6.3351  -58.9290 H   0  0  0  0  0  0  0  0  0  0  0  0
   12.7453    3.7878  -59.9790 H   0  0  0  0  0  0  0  0  0  0  0  0
   13.7768    5.2669  -59.8391 H   0  0  0  0  0  0  0  0  0  0  0  0
   14.0879    4.3559  -57.7429 H   0  0  0  0  0  0  0  0  0  0  0  0
   12.6521    5.3992  -57.4355 H   0  0  0  0  0  0  0  0  0  0  0  0
   11.3320    3.6070  -57.6230 H   0  0  0  0  0  0  0  0  0  0  0  0
  1  2  2  3
  2  3  1  0
  3  4  1  0
  4  5  2  0
  5  6  1  0
  6  7  1  0
  7  8  1  0
  8  9  1  0
  9 10  1  0
  6 11  1  0
 11 12  2  0
 12 13  1  0
 13  2  1  0
 12  4  1  0
  1 14  1  0
  3 15  1  0
  5 16  1  0
  7 17  1  0
  7 18  1  0
  8 19  1  0
  8 20  1  0
  9 21  1  0
  9 22  1  0
 10 23  1  0
M  END
>  <meeko>  (94) 
{"is_sidechain": false}

$$$$

     RDKit          3D

 57 61  0  0  0  0  0  0  0  0999 V2000
    6.3070    0.1220  -53.3250 C   0  0  0  0  0  0  0  0  0  0  0  0
    7.5850   -0.3930  -53.8830 C   0  0  0  0  0  0  0  0  0  0  0  0
    8.2780    0.1080  -55.0260 C   0  0  0  0  0  0  0  0  0  0  0  0
    7.8850    1.2270  -55.9040 C   0  0  0  0  0  0  0  0  0  0  0  0
    6.7190    1.5300  -56.1340 O   0  0  0  0  0  0  0  0  0  0  0  0
    8.9690    1.8850  -56.4480 N   0  0  0  0  0  0  0  0  0  0  0  0
    8.8400    2.8760  -57.5000 C   0  0  2  0  0  0  0  0  0  0  0  0
    9.8810    2.6720  -58.6270 C   0  0  1  0  0  0  0  0  0  0  0  0
    9.5650    3.6600  -59.7660 C   0  0  0  0  0  0  0  0  0  0  0  0
    9.6440    5.1080  -59.2500 C   0  0  2  0  0  0  0  0  0  0  0  0
   11.0650    5.3760  -58.7260 C   0  0  0  0  0  0  0  0  0  0  0  0
   11.3970    4.4040  -57.5820 C   0  0  2  0  0  0  0  0  0  0  0  0
   11.3030    2.9590  -58.1020 C   0  0  0  0  0  0  0  0  0  0  0  0
   10.3820    4.6030  -56.4450 C   0  0  0  0  0  0  0  0  0  0  0  0
    8.9520    4.3180  -56.9510 C   0  0  1  0  0  0  0  0  0  0  0  0
    8.6380    5.2990  -58.0990 C   0  0  0  0  0  0  0  0  0  0  0  0
    9.4070   -0.5940  -55.2560 N   0  0  0  0  0  0  0  0  0  0  0  0
    9.4280   -1.5220  -54.2790 N   0  0  0  0  0  0  0  0  0  0  0  0
   10.5270   -2.4670  -54.2520 C   0  0  0  0  0  0  0  0  0  0  0  0
   10.7570   -3.1080  -55.6120 C   0  0  0  0  0  0  0  0  0  0  0  0
   11.5210   -2.2450  -56.4500 O   0  0  0  0  0  0  0  0  0  0  0  0
    8.3600   -1.4460  -53.4210 C   0  0  0  0  0  0  0  0  0  0  0  0
    8.1490   -2.3370  -52.2860 C   0  0  0  0  0  0  0  0  0  0  0  0
    9.1980   -2.6140  -51.4010 C   0  0  0  0  0  0  0  0  0  0  0  0
    8.9960   -3.4700  -50.3160 C   0  0  0  0  0  0  0  0  0  0  0  0
    7.7430   -4.0480  -50.1090 C   0  0  0  0  0  0  0  0  0  0  0  0
    6.6960   -3.7640  -50.9850 C   0  0  0  0  0  0  0  0  0  0  0  0
    5.1500   -4.4740  -50.7250 Cl  0  0  0  0  0  0  0  0  0  0  0  0
    6.8920   -2.9110  -52.0700 C   0  0  0  0  0  0  0  0  0  0  0  0
    6.3528    0.1035  -52.2261 H   0  0  0  0  0  0  0  0  0  0  0  0
    6.1469    1.1548  -53.6680 H   0  0  0  0  0  0  0  0  0  0  0  0
    5.4755   -0.5113  -53.6680 H   0  0  0  0  0  0  0  0  0  0  0  0
    9.8590    1.4300  -56.2620 H   0  0  0  0  0  0  0  0  0  0  0  0
    7.8349    2.7346  -57.9239 H   0  0  0  0  0  0  0  0  0  0  0  0
    9.8333    1.6325  -58.9837 H   0  0  0  0  0  0  0  0  0  0  0  0
   10.2940    3.5234  -60.5784 H   0  0  0  0  0  0  0  0  0  0  0  0
    8.5481    3.4662  -60.1378 H   0  0  0  0  0  0  0  0  0  0  0  0
    9.4057    5.8053  -60.0667 H   0  0  0  0  0  0  0  0  0  0  0  0
   11.7871    5.2358  -59.5439 H   0  0  0  0  0  0  0  0  0  0  0  0
   11.1219    6.4082  -58.3501 H   0  0  0  0  0  0  0  0  0  0  0  0
   12.4143    4.5966  -57.2105 H   0  0  0  0  0  0  0  0  0  0  0  0
   12.0267    2.8191  -58.9185 H   0  0  0  0  0  0  0  0  0  0  0  0
   11.5274    2.2661  -57.2777 H   0  0  0  0  0  0  0  0  0  0  0  0
   10.6198    3.9142  -55.6210 H   0  0  0  0  0  0  0  0  0  0  0  0
   10.4373    5.6436  -56.0926 H   0  0  0  0  0  0  0  0  0  0  0  0
    8.2471    4.4387  -56.1152 H   0  0  0  0  0  0  0  0  0  0  0  0
    7.6201    5.1100  -58.4706 H   0  0  0  0  0  0  0  0  0  0  0  0
    8.7141    6.3297  -57.7222 H   0  0  0  0  0  0  0  0  0  0  0  0
   11.4429   -1.9388  -53.9483 H   0  0  0  0  0  0  0  0  0  0  0  0
   10.2738   -3.2643  -53.5377 H   0  0  0  0  0  0  0  0  0  0  0  0
   11.2996   -4.0554  -55.4781 H   0  0  0  0  0  0  0  0  0  0  0  0
    9.7820   -3.2920  -56.0870 H   0  0  0  0  0  0  0  0  0  0  0  0
   12.1680   -1.7830  -55.8850 H   0  0  0  0  0  0  0  0  0  0  0  0
   10.1851   -2.1557  -51.5609 H   0  0  0  0  0  0  0  0  0  0  0  0
    9.8239   -3.6883  -49.6254 H   0  0  0  0  0  0  0  0  0  0  0  0
    7.5817   -4.7255  -49.2575 H   0  0  0  0  0  0  0  0  0  0  0  0
    6.0600   -2.6899  -52.7547 H   0  0  0  0  0  0  0  0  0  0  0  0
  1  2  1  0
  2  3  1  0
  3  4  1  0
  4  5  2  0
  4  6  1  0
  6  7  1  0
  7  8  1  0
  8  9  1  0
  9 10  1  0
 10 11  1  0
 11 12  1  0
 12 13  1  0
 12 14  1  0
 14 15  1  0
 15 16  1  0
  3 17  2  0
 17 18  1  0
 18 19  1  0
 19 20  1  0
 20 21  1  0
 18 22  1  0
 22 23  1  0
 23 24  2  0
 24 25  1  0
 25 26  2  0
 26 27  1  0
 27 28  1  0
 27 29  2  0
 22  2  2  0
 29 23  1  0
 15  7  1  0
 13  8  1  0
 16 10  1  0
  1 30  1  0
  1 31  1  0
  1 32  1  0
  6 33  1  0
  7 34  1  1
  8 35  1  1
  9 36  1  0
  9 37  1  0
 10 38  1  1
 11 39  1  0
 11 40  1  0
 12 41  1  6
 13 42  1  0
 13 43  1  0
 14 44  1  0
 14 45  1  0
 15 46  1  6
 16 47  1  0
 16 48  1  0
 19 49  1  0
 19 50  1  0
 20 51  1  0
 20 52  1  0
 21 53  1  0
 24 54  1  0
 25 55  1  0
 26 56  1  0
 29 57  1  0
M  END
>  <meeko>  (95) 
{"is_sidechain": false}

$$$$

     RDKit          3D

 45 48  0  0  0  0  0  0  0  0999 V2000
    8.5550   -3.3220  -50.0980 C   0  0  0  0  0  0  0  0  0  0  0  0
    8.7820   -2.8400  -51.5230 C   0  0  0  0  0  0  0  0  0  0  0  0
    7.6460   -1.9300  -51.9920 C   0  0  0  0  0  0  0  0  0  0  0  0
    8.0490   -1.1180  -53.1830 C   0  0  0  0  0  0  0  0  0  0  0  0
    9.2320   -1.1430  -53.8920 C   0  0  0  0  0  0  0  0  0  0  0  0
    9.3110   -0.2660  -54.9540 N   0  0  0  0  0  0  0  0  0  0  0  0
    8.1920    0.4280  -55.0540 C   0  0  0  0  0  0  0  0  0  0  0  0
    7.9720    1.4460  -56.0910 C   0  0  0  0  0  0  0  0  0  0  0  0
    6.8540    1.8530  -56.4090 O   0  0  0  0  0  0  0  0  0  0  0  0
    9.1180    1.9370  -56.7070 N   0  0  0  0  0  0  0  0  0  0  0  0
    9.1490    2.9520  -57.7630 C   0  0  2  0  0  0  0  0  0  0  0  0
    8.8430    4.3660  -57.2120 C   0  0  0  0  0  0  0  0  0  0  0  0
    8.9370    5.4170  -58.3340 C   0  0  1  0  0  0  0  0  0  0  0  0
   10.3600    5.4130  -58.9150 C   0  0  0  0  0  0  0  0  0  0  0  0
   10.6880    4.0250  -59.4890 C   0  0  2  0  0  0  0  0  0  0  0  0
    9.6810    3.6820  -60.5970 C   0  0  0  0  0  0  0  0  0  0  0  0
    8.2540    3.6760  -60.0260 C   0  0  2  0  0  0  0  0  0  0  0  0
    7.9340    5.0640  -59.4450 C   0  0  0  0  0  0  0  0  0  0  0  0
    8.1580    2.6230  -58.9080 C   0  0  0  0  0  0  0  0  0  0  0  0
   10.5800    2.9780  -58.3690 C   0  0  0  0  0  0  0  0  0  0  0  0
    7.0000    0.0510  -53.8680 S   0  0  0  0  0  0  0  0  0  0  0  0
    8.9142   -2.5593  -49.3914 H   0  0  0  0  0  0  0  0  0  0  0  0
    7.4808   -3.4949  -49.9361 H   0  0  0  0  0  0  0  0  0  0  0  0
    9.1059   -4.2603  -49.9361 H   0  0  0  0  0  0  0  0  0  0  0  0
    9.7287   -2.2814  -51.5653 H   0  0  0  0  0  0  0  0  0  0  0  0
    8.8172   -3.7185  -52.1841 H   0  0  0  0  0  0  0  0  0  0  0  0
    6.7783   -2.5508  -52.2598 H   0  0  0  0  0  0  0  0  0  0  0  0
    7.3962   -1.2399  -51.1726 H   0  0  0  0  0  0  0  0  0  0  0  0
   10.0589   -1.8185  -53.6277 H   0  0  0  0  0  0  0  0  0  0  0  0
    9.9990    1.5540  -56.3910 H   0  0  0  0  0  0  0  0  0  0  0  0
    7.8272    4.3775  -56.7900 H   0  0  0  0  0  0  0  0  0  0  0  0
    9.5811    4.6108  -56.4340 H   0  0  0  0  0  0  0  0  0  0  0  0
    8.7055    6.4131  -57.9288 H   0  0  0  0  0  0  0  0  0  0  0  0
   10.4290    6.1642  -59.7156 H   0  0  0  0  0  0  0  0  0  0  0  0
   11.0774    5.6530  -58.1164 H   0  0  0  0  0  0  0  0  0  0  0  0
   11.7074    4.0268  -59.9022 H   0  0  0  0  0  0  0  0  0  0  0  0
    9.7500    4.4333  -61.3975 H   0  0  0  0  0  0  0  0  0  0  0  0
    9.9130    2.6853  -61.0003 H   0  0  0  0  0  0  0  0  0  0  0  0
    7.5370    3.4342  -60.8244 H   0  0  0  0  0  0  0  0  0  0  0  0
    7.9976    5.8165  -60.2448 H   0  0  0  0  0  0  0  0  0  0  0  0
    6.9186    5.0514  -59.0221 H   0  0  0  0  0  0  0  0  0  0  0  0
    7.1335    2.6129  -58.5077 H   0  0  0  0  0  0  0  0  0  0  0  0
    8.4128    1.6378  -59.3257 H   0  0  0  0  0  0  0  0  0  0  0  0
   10.8135    1.9854  -58.7815 H   0  0  0  0  0  0  0  0  0  0  0  0
   11.2915    3.2433  -57.5732 H   0  0  0  0  0  0  0  0  0  0  0  0
  1  2  1  0
  2  3  1  0
  3  4  1  0
  4  5  2  0
  5  6  1  0
  6  7  2  0
  7  8  1  0
  8  9  2  0
  8 10  1  0
 11 10  1  1
 11 12  1  0
 12 13  1  0
 13 14  1  0
 14 15  1  0
 15 16  1  0
 16 17  1  0
 17 18  1  0
 17 19  1  0
 15 20  1  0
  7 21  1  0
 21  4  1  0
 19 11  1  0
 20 11  1  0
 18 13  1  0
  1 22  1  0
  1 23  1  0
  1 24  1  0
  2 25  1  0
  2 26  1  0
  3 27  1  0
  3 28  1  0
  5 29  1  0
 10 30  1  0
 12 31  1  0
 12 32  1  0
 13 33  1  1
 14 34  1  0
 14 35  1  0
 15 36  1  6
 16 37  1  0
 16 38  1  0
 17 39  1  6
 18 40  1  0
 18 41  1  0
 19 42  1  0
 19 43  1  0
 20 44  1  0
 20 45  1  0
M  END
>  <meeko>  (96) 
{"is_sidechain": false}

$$$$

     RDKit          3D

 30 31  0  0  0  0  0  0  0  0999 V2000
    8.9080    2.8630  -61.3250 C   0  0  0  0  0  0  0  0  0  0  0  0
    8.8180    2.7570  -59.8750 N   0  0  0  0  0  0  0  0  0  0  0  0
    9.7460    3.3350  -59.0240 C   0  0  0  0  0  0  0  0  0  0  0  0
   10.9800    4.0280  -59.6240 C   0  0  0  0  0  0  0  0  0  0  0  0
   10.8460    5.5600  -59.6160 C   0  0  0  0  0  0  0  0  0  0  0  0
   12.0980    6.2310  -60.1770 C   0  0  0  0  0  0  0  0  0  0  0  0
   13.3500    5.7960  -59.4230 C   0  0  0  0  0  0  0  0  0  0  0  0
   13.4910    4.2770  -59.3900 C   0  0  0  0  0  0  0  0  0  0  0  0
   12.2340    3.6040  -58.8420 C   0  0  0  0  0  0  0  0  0  0  0  0
    9.6560    3.2740  -57.7300 N   0  0  0  0  0  0  0  0  0  0  0  0
    8.5820    2.6290  -57.1930 C   0  0  0  0  0  0  0  0  0  0  0  0
    7.6120    2.0540  -57.9000 C   0  0  0  0  0  0  0  0  0  0  0  0
    7.6990    2.1210  -59.3650 C   0  0  0  0  0  0  0  0  0  0  0  0
    6.7920    1.6280  -60.0330 O   0  0  0  0  0  0  0  0  0  0  0  0
    9.5988    3.6766  -61.5910 H   0  0  0  0  0  0  0  0  0  0  0  0
    9.2812    1.9149  -61.7395 H   0  0  0  0  0  0  0  0  0  0  0  0
    7.9119    3.0775  -61.7395 H   0  0  0  0  0  0  0  0  0  0  0  0
   11.0663    3.7147  -60.6749 H   0  0  0  0  0  0  0  0  0  0  0  0
    9.9801    5.8469  -60.2307 H   0  0  0  0  0  0  0  0  0  0  0  0
   10.7123    5.8907  -58.5755 H   0  0  0  0  0  0  0  0  0  0  0  0
   12.2058    5.9574  -61.2370 H   0  0  0  0  0  0  0  0  0  0  0  0
   11.9870    7.3194  -60.0631 H   0  0  0  0  0  0  0  0  0  0  0  0
   14.2324    6.2250  -59.9202 H   0  0  0  0  0  0  0  0  0  0  0  0
   13.2675    6.1549  -58.3865 H   0  0  0  0  0  0  0  0  0  0  0  0
   13.6729    3.9137  -60.4122 H   0  0  0  0  0  0  0  0  0  0  0  0
   14.3314    4.0253  -58.7264 H   0  0  0  0  0  0  0  0  0  0  0  0
   12.3507    2.5129  -58.9185 H   0  0  0  0  0  0  0  0  0  0  0  0
   12.1071    3.9123  -57.7937 H   0  0  0  0  0  0  0  0  0  0  0  0
    8.5119    2.5802  -56.0963 H   0  0  0  0  0  0  0  0  0  0  0  0
    6.7725    1.5452  -57.4036 H   0  0  0  0  0  0  0  0  0  0  0  0
  1  2  1  0
  2  3  1  0
  3  4  1  0
  4  5  1  0
  5  6  1  0
  6  7  1  0
  7  8  1  0
  8  9  1  0
  3 10  2  0
 10 11  1  0
 11 12  2  0
 12 13  1  0
 13 14  2  0
 13  2  1  0
  9  4  1  0
  1 15  1  0
  1 16  1  0
  1 17  1  0
  4 18  1  0
  5 19  1  0
  5 20  1  0
  6 21  1  0
  6 22  1  0
  7 23  1  0
  7 24  1  0
  8 25  1  0
  8 26  1  0
  9 27  1  0
  9 28  1  0
 11 29  1  0
 12 30  1  0
M  END
>  <meeko>  (97) 
{"is_sidechain": false}

$$$$

     RDKit          3D

 72 76  0  0  0  0  0  0  0  0999 V2000
    6.2280   -0.2350  -53.8040 C   0  0  0  0  0  0  0  0  0  0  0  0
    7.6530   -0.5570  -54.1070 C   0  0  0  0  0  0  0  0  0  0  0  0
    8.4510    0.0790  -55.1200 C   0  0  0  0  0  0  0  0  0  0  0  0
    8.1330    1.1910  -56.0060 C   0  0  0  0  0  0  0  0  0  0  0  0
    6.9890    1.6240  -56.0600 O   0  0  0  0  0  0  0  0  0  0  0  0
    9.2100    1.6650  -56.7100 N   0  0  0  0  0  0  0  0  0  0  0  0
    9.1830    2.8270  -57.6040 C   0  0  2  0  0  0  0  0  0  0  0  0
    8.1050    2.6810  -58.7060 C   0  0  0  0  0  0  0  0  0  0  0  0
    8.1340    3.8910  -59.6560 C   0  0  1  0  0  0  0  0  0  0  0  0
    7.8770    5.1740  -58.8460 C   0  0  0  0  0  0  0  0  0  0  0  0
    8.9630    5.3490  -57.7720 C   0  0  2  0  0  0  0  0  0  0  0  0
   10.3400    5.4300  -58.4510 C   0  0  0  0  0  0  0  0  0  0  0  0
   10.6040    4.1460  -59.2530 C   0  0  2  0  0  0  0  0  0  0  0  0
    9.5150    3.9820  -60.3240 C   0  0  0  0  0  0  0  0  0  0  0  0
   10.5650    2.9390  -58.3030 C   0  0  0  0  0  0  0  0  0  0  0  0
    8.9340    4.1390  -56.8210 C   0  0  0  0  0  0  0  0  0  0  0  0
    9.6970   -0.5090  -55.0780 C   0  0  0  0  0  0  0  0  0  0  0  0
    9.7210   -1.4060  -54.0460 N   0  0  0  0  0  0  0  0  0  0  0  0
   10.9630   -1.9560  -53.5270 C   0  0  0  0  0  0  0  0  0  0  0  0
   11.2690   -3.3710  -54.0390 C   0  0  0  0  0  0  0  0  0  0  0  0
   10.4260   -3.8000  -55.2460 C   0  0  0  0  0  0  0  0  0  0  0  0
   11.2690   -4.2300  -56.4260 N   0  0  0  0  0  0  0  0  0  0  0  0
   12.3480   -5.2070  -56.0290 C   0  0  0  0  0  0  0  0  0  0  0  0
   11.8280   -3.0870  -57.2180 C   0  0  0  0  0  0  0  0  0  0  0  0
    8.4680   -1.4900  -53.4660 C   0  0  0  0  0  0  0  0  0  0  0  0
    8.2580   -2.3310  -52.4100 N   0  0  0  0  0  0  0  0  0  0  0  0
    7.6580   -3.6690  -52.7040 C   0  0  0  0  0  0  0  0  0  0  0  0
    6.4530   -3.9660  -51.7960 C   0  0  0  0  0  0  0  0  0  0  0  0
    6.7860   -3.9400  -50.4010 O   0  0  0  0  0  0  0  0  0  0  0  0
    7.7680   -2.9470  -50.0700 C   0  0  0  0  0  0  0  0  0  0  0  0
    7.8430   -1.8010  -51.0910 C   0  0  0  0  0  0  0  0  0  0  0  0
    6.0832   -0.2023  -52.7141 H   0  0  0  0  0  0  0  0  0  0  0  0
    5.9730    0.7434  -54.2373 H   0  0  0  0  0  0  0  0  0  0  0  0
    5.5771   -1.0087  -54.2373 H   0  0  0  0  0  0  0  0  0  0  0  0
   10.1190    1.3160  -56.4300 H   0  0  0  0  0  0  0  0  0  0  0  0
    8.2990    1.7643  -59.2822 H   0  0  0  0  0  0  0  0  0  0  0  0
    7.1152    2.6284  -58.2290 H   0  0  0  0  0  0  0  0  0  0  0  0
    7.3585    3.7751  -60.4275 H   0  0  0  0  0  0  0  0  0  0  0  0
    7.8924    6.0407  -59.5232 H   0  0  0  0  0  0  0  0  0  0  0  0
    6.8953    5.0988  -58.3555 H   0  0  0  0  0  0  0  0  0  0  0  0
    8.7774    6.2719  -57.2029 H   0  0  0  0  0  0  0  0  0  0  0  0
   10.3615    6.2951  -59.1301 H   0  0  0  0  0  0  0  0  0  0  0  0
   11.1175    5.5423  -57.6810 H   0  0  0  0  0  0  0  0  0  0  0  0
   11.5907    4.2078  -59.7354 H   0  0  0  0  0  0  0  0  0  0  0  0
    9.5362    4.8485  -61.0014 H   0  0  0  0  0  0  0  0  0  0  0  0
    9.7032    3.0600  -60.8937 H   0  0  0  0  0  0  0  0  0  0  0  0
   10.7522    2.0210  -58.8795 H   0  0  0  0  0  0  0  0  0  0  0  0
   11.3382    3.0738  -57.5323 H   0  0  0  0  0  0  0  0  0  0  0  0
    9.7174    4.2594  -56.0582 H   0  0  0  0  0  0  0  0  0  0  0  0
    7.9444    4.0857  -56.3437 H   0  0  0  0  0  0  0  0  0  0  0  0
   10.5323   -0.2929  -55.7604 H   0  0  0  0  0  0  0  0  0  0  0  0
   11.7884   -1.2924  -53.8242 H   0  0  0  0  0  0  0  0  0  0  0  0
   10.8544   -2.0243  -52.4345 H   0  0  0  0  0  0  0  0  0  0  0  0
   12.3297   -3.4113  -54.3275 H   0  0  0  0  0  0  0  0  0  0  0  0
   11.0228   -4.0630  -53.2202 H   0  0  0  0  0  0  0  0  0  0  0  0
    9.7856   -4.6425  -54.9459 H   0  0  0  0  0  0  0  0  0  0  0  0
    9.8328   -2.9293  -55.5622 H   0  0  0  0  0  0  0  0  0  0  0  0
   10.6690   -4.7560  -57.0760 H   0  0  0  0  0  0  0  0  0  0  0  0
   12.4079   -5.2613  -54.9320 H   0  0  0  0  0  0  0  0  0  0  0  0
   12.1085   -6.2018  -56.4328 H   0  0  0  0  0  0  0  0  0  0  0  0
   13.3142   -4.8702  -56.4328 H   0  0  0  0  0  0  0  0  0  0  0  0
   12.2055   -2.3150  -56.5313 H   0  0  0  0  0  0  0  0  0  0  0  0
   12.6512   -3.4481  -57.8520 H   0  0  0  0  0  0  0  0  0  0  0  0
   11.0375   -2.6589  -57.8520 H   0  0  0  0  0  0  0  0  0  0  0  0
    7.3269   -3.6881  -53.7528 H   0  0  0  0  0  0  0  0  0  0  0  0
    8.4242   -4.4359  -52.5174 H   0  0  0  0  0  0  0  0  0  0  0  0
    5.6760   -3.2108  -51.9856 H   0  0  0  0  0  0  0  0  0  0  0  0
    6.1031   -4.9815  -52.0332 H   0  0  0  0  0  0  0  0  0  0  0  0
    7.5173   -2.5225  -49.0867 H   0  0  0  0  0  0  0  0  0  0  0  0
    8.7481   -3.4464  -50.0687 H   0  0  0  0  0  0  0  0  0  0  0  0
    6.8542   -1.3278  -51.1822 H   0  0  0  0  0  0  0  0  0  0  0  0
    8.5792   -1.0582  -50.7500 H   0  0  0  0  0  0  0  0  0  0  0  0
  1  2  1  0
  2  3  1  0
  3  4  1  0
  4  5  2  0
  4  6  1  0
  7  6  1  1
  7  8  1  0
  8  9  1  0
  9 10  1  0
 10 11  1  0
 11 12  1  0
 12 13  1  0
 13 14  1  0
 13 15  1  0
 11 16  1  0
  3 17  2  0
 17 18  1  0
 18 19  1  0
 19 20  1  0
 20 21  1  0
 21 22  1  0
 22 23  1  0
 22 24  1  0
 18 25  1  0
 25 26  1  0
 26 27  1  0
 27 28  1  0
 28 29  1  0
 29 30  1  0
 30 31  1  0
 25  2  2  0
 31 26  1  0
 15  7  1  0
 16  7  1  0
 14  9  1  0
  1 32  1  0
  1 33  1  0
  1 34  1  0
  6 35  1  0
  8 36  1  0
  8 37  1  0
  9 38  1  6
 10 39  1  0
 10 40  1  0
 11 41  1  1
 12 42  1  0
 12 43  1  0
 13 44  1  6
 14 45  1  0
 14 46  1  0
 15 47  1  0
 15 48  1  0
 16 49  1  0
 16 50  1  0
 17 51  1  0
 19 52  1  0
 19 53  1  0
 20 54  1  0
 20 55  1  0
 21 56  1  0
 21 57  1  0
 22 58  1  0
 23 59  1  0
 23 60  1  0
 23 61  1  0
 24 62  1  0
 24 63  1  0
 24 64  1  0
 27 65  1  0
 27 66  1  0
 28 67  1  0
 28 68  1  0
 30 69  1  0
 30 70  1  0
 31 71  1  0
 31 72  1  0
M  CHG  1  22   1
M  END
>  <meeko>  (98) 
{"is_sidechain": false}

$$$$

     RDKit          3D

 54 59  0  0  0  0  0  0  0  0999 V2000
    5.8840   -0.7770  -54.0550 O   0  0  0  0  0  0  0  0  0  0  0  0
    7.0780   -0.5270  -54.1620 C   0  0  0  0  0  0  0  0  0  0  0  0
    8.0720   -1.1120  -53.4030 N   0  0  0  0  0  0  0  0  0  0  0  0
    7.8420   -2.1500  -52.3920 C   0  0  2  0  0  0  0  0  0  0  0  0
    9.1290   -2.9610  -52.1060 C   0  0  0  0  0  0  0  0  0  0  0  0
    8.8770   -4.0030  -51.0020 C   0  0  1  0  0  0  0  0  0  0  0  0
    8.4470   -3.2850  -49.7130 C   0  0  0  0  0  0  0  0  0  0  0  0
    7.1560   -2.4870  -49.9610 C   0  0  2  0  0  0  0  0  0  0  0  0
    6.0430   -3.4460  -50.4080 C   0  0  0  0  0  0  0  0  0  0  0  0
    6.4580   -4.1640  -51.7020 C   0  0  2  0  0  0  0  0  0  0  0  0
    7.7540   -4.9550  -51.4490 C   0  0  0  0  0  0  0  0  0  0  0  0
    6.7080   -3.1210  -52.8060 C   0  0  0  0  0  0  0  0  0  0  0  0
    7.4090   -1.4540  -51.0720 C   0  0  0  0  0  0  0  0  0  0  0  0
    7.5380    0.4390  -55.1990 C   0  0  0  0  0  0  0  0  0  0  0  0
    6.5900    0.9560  -56.0900 C   0  0  0  0  0  0  0  0  0  0  0  0
    6.9540    1.8630  -57.0900 C   0  0  0  0  0  0  0  0  0  0  0  0
    8.3000    2.2420  -57.1560 C   0  0  0  0  0  0  0  0  0  0  0  0
    8.9370    3.1060  -58.0170 N   0  0  0  0  0  0  0  0  0  0  0  0
   10.2780    3.2050  -57.7180 C   0  0  0  0  0  0  0  0  0  0  0  0
   11.2030    4.0490  -58.4760 C   0  0  0  0  0  0  0  0  0  0  0  0
   12.5730    3.7550  -58.4950 C   0  0  0  0  0  0  0  0  0  0  0  0
   13.4650    4.5510  -59.2180 C   0  0  0  0  0  0  0  0  0  0  0  0
   12.9970    5.6550  -59.9280 C   0  0  0  0  0  0  0  0  0  0  0  0
   11.6390    5.9630  -59.9130 C   0  0  0  0  0  0  0  0  0  0  0  0
   10.7460    5.1660  -59.1910 C   0  0  0  0  0  0  0  0  0  0  0  0
   10.4980    2.3660  -56.6400 C   0  0  0  0  0  0  0  0  0  0  0  0
    9.2650    1.7590  -56.2780 C   0  0  0  0  0  0  0  0  0  0  0  0
    8.8810    0.8460  -55.2750 C   0  0  0  0  0  0  0  0  0  0  0  0
    9.0200   -1.0150  -53.7440 H   0  0  0  0  0  0  0  0  0  0  0  0
    9.4433   -3.4768  -53.0253 H   0  0  0  0  0  0  0  0  0  0  0  0
    9.9165   -2.2705  -51.7696 H   0  0  0  0  0  0  0  0  0  0  0  0
    9.7982   -4.5753  -50.8177 H   0  0  0  0  0  0  0  0  0  0  0  0
    8.2689   -4.0297  -48.9233 H   0  0  0  0  0  0  0  0  0  0  0  0
    9.2443   -2.5942  -49.4014 H   0  0  0  0  0  0  0  0  0  0  0  0
    6.8529   -1.9749  -49.0359 H   0  0  0  0  0  0  0  0  0  0  0  0
    5.8651   -4.1912  -49.6186 H   0  0  0  0  0  0  0  0  0  0  0  0
    5.1231   -2.8717  -50.5921 H   0  0  0  0  0  0  0  0  0  0  0  0
    5.6585   -4.8509  -52.0167 H   0  0  0  0  0  0  0  0  0  0  0  0
    7.5760   -5.7024  -50.6618 H   0  0  0  0  0  0  0  0  0  0  0  0
    8.0569   -5.4563  -52.3801 H   0  0  0  0  0  0  0  0  0  0  0  0
    6.9954   -3.6380  -53.7334 H   0  0  0  0  0  0  0  0  0  0  0  0
    5.7856   -2.5427  -52.9630 H   0  0  0  0  0  0  0  0  0  0  0  0
    6.4847   -0.8854  -51.2517 H   0  0  0  0  0  0  0  0  0  0  0  0
    8.2180   -0.7826  -50.7484 H   0  0  0  0  0  0  0  0  0  0  0  0
    5.5392    0.6429  -56.0018 H   0  0  0  0  0  0  0  0  0  0  0  0
    6.2121    2.2629  -57.7968 H   0  0  0  0  0  0  0  0  0  0  0  0
    8.4810    3.5880  -58.7780 H   0  0  0  0  0  0  0  0  0  0  0  0
   12.9506    2.8873  -57.9341 H   0  0  0  0  0  0  0  0  0  0  0  0
   14.5374    4.3061  -59.2268 H   0  0  0  0  0  0  0  0  0  0  0  0
   13.6983    6.2814  -60.4987 H   0  0  0  0  0  0  0  0  0  0  0  0
   11.2681    6.8356  -60.4707 H   0  0  0  0  0  0  0  0  0  0  0  0
    9.6751    5.4170  -59.1834 H   0  0  0  0  0  0  0  0  0  0  0  0
   11.4660    2.1970  -56.1455 H   0  0  0  0  0  0  0  0  0  0  0  0
    9.6225    0.4574  -54.5615 H   0  0  0  0  0  0  0  0  0  0  0  0
  1  2  2  0
  2  3  1  0
  4  3  1  6
  4  5  1  0
  5  6  1  0
  6  7  1  0
  7  8  1  0
  8  9  1  0
  9 10  1  0
 10 11  1  0
 10 12  1  0
  8 13  1  0
  2 14  1  0
 14 15  2  0
 15 16  1  0
 16 17  2  0
 17 18  1  0
 18 19  1  0
 19 20  1  0
 20 21  2  0
 21 22  1  0
 22 23  2  0
 23 24  1  0
 24 25  2  0
 19 26  2  0
 26 27  1  0
 27 28  2  0
 12  4  1  0
 28 14  1  0
 13  4  1  0
 27 17  1  0
 11  6  1  0
 25 20  1  0
  3 29  1  0
  5 30  1  0
  5 31  1  0
  6 32  1  1
  7 33  1  0
  7 34  1  0
  8 35  1  1
  9 36  1  0
  9 37  1  0
 10 38  1  6
 11 39  1  0
 11 40  1  0
 12 41  1  0
 12 42  1  0
 13 43  1  0
 13 44  1  0
 15 45  1  0
 16 46  1  0
 18 47  1  0
 21 48  1  0
 22 49  1  0
 23 50  1  0
 24 51  1  0
 25 52  1  0
 26 53  1  0
 28 54  1  0
M  END
>  <meeko>  (99) 
{"is_sidechain": false}

$$$$

     RDKit          3D

 45 46  0  0  0  0  0  0  0  0999 V2000
    9.6480    2.8680  -61.9600 C   0  0  0  0  0  0  0  0  0  0  0  0
    9.0550    3.5620  -60.7870 C   0  0  0  0  0  0  0  0  0  0  0  0
    7.6870    3.5370  -60.3850 C   0  0  0  0  0  0  0  0  0  0  0  0
    6.5630    2.8350  -61.0330 C   0  0  0  0  0  0  0  0  0  0  0  0
    6.2920    2.9380  -62.2250 O   0  0  0  0  0  0  0  0  0  0  0  0
    5.8400    2.0520  -60.1600 N   0  0  0  0  0  0  0  0  0  0  0  0
    4.7520    1.1990  -60.5810 C   0  0  0  0  0  0  0  0  0  0  0  0
    3.3950    1.8860  -60.5660 C   0  0  0  0  0  0  0  0  0  0  0  0
    3.2990    2.6460  -59.4410 F   0  0  0  0  0  0  0  0  0  0  0  0
    7.4930    4.2730  -59.2710 N   0  0  0  0  0  0  0  0  0  0  0  0
    8.7150    4.7580  -58.9740 N   0  0  0  0  0  0  0  0  0  0  0  0
    8.8540    5.6280  -57.8190 C   0  0  0  0  0  0  0  0  0  0  0  0
    8.7880    4.8860  -56.4850 C   0  0  0  0  0  0  0  0  0  0  0  0
    9.9620    3.9320  -56.2760 C   0  0  0  0  0  0  0  0  0  0  0  0
    9.4990    2.5120  -56.4770 C   0  0  0  0  0  0  0  0  0  0  0  0
   10.2510    1.4850  -56.7360 N   0  0  0  0  0  0  0  0  0  0  0  0
   11.5980    1.8470  -56.8270 O   0  0  0  0  0  0  0  0  0  0  0  0
    9.6960    4.3570  -59.8490 C   0  0  0  0  0  0  0  0  0  0  0  0
   11.0970    4.7480  -59.7530 C   0  0  0  0  0  0  0  0  0  0  0  0
   11.4810    6.0640  -60.0370 C   0  0  0  0  0  0  0  0  0  0  0  0
   12.8220    6.4400  -59.9430 C   0  0  0  0  0  0  0  0  0  0  0  0
   13.7850    5.5040  -59.5710 C   0  0  0  0  0  0  0  0  0  0  0  0
   13.4110    4.1890  -59.2980 C   0  0  0  0  0  0  0  0  0  0  0  0
   12.0700    3.8100  -59.3910 C   0  0  0  0  0  0  0  0  0  0  0  0
   10.3260    2.0746  -61.6124 H   0  0  0  0  0  0  0  0  0  0  0  0
    8.8456    2.4245  -62.5678 H   0  0  0  0  0  0  0  0  0  0  0  0
   10.2113    3.5914  -62.5678 H   0  0  0  0  0  0  0  0  0  0  0  0
    6.2010    2.0190  -59.2090 H   0  0  0  0  0  0  0  0  0  0  0  0
    4.9563    0.8561  -61.6060 H   0  0  0  0  0  0  0  0  0  0  0  0
    4.6992    0.3675  -59.8628 H   0  0  0  0  0  0  0  0  0  0  0  0
    3.2956    2.5270  -61.4544 H   0  0  0  0  0  0  0  0  0  0  0  0
    2.5947    1.1314  -60.5759 H   0  0  0  0  0  0  0  0  0  0  0  0
    9.8249    6.1409  -57.8844 H   0  0  0  0  0  0  0  0  0  0  0  0
    8.0083    6.3311  -57.8401 H   0  0  0  0  0  0  0  0  0  0  0  0
    8.7884    5.6263  -55.6714 H   0  0  0  0  0  0  0  0  0  0  0  0
    7.8688    4.2818  -56.4889 H   0  0  0  0  0  0  0  0  0  0  0  0
   10.7565    4.1644  -57.0004 H   0  0  0  0  0  0  0  0  0  0  0  0
   10.3513    4.0489  -55.2539 H   0  0  0  0  0  0  0  0  0  0  0  0
    8.4177    2.3270  -56.3964 H   0  0  0  0  0  0  0  0  0  0  0  0
   11.6210    2.6850  -56.3260 H   0  0  0  0  0  0  0  0  0  0  0  0
   10.7237    6.8040  -60.3351 H   0  0  0  0  0  0  0  0  0  0  0  0
   13.1189    7.4761  -60.1628 H   0  0  0  0  0  0  0  0  0  0  0  0
   14.8407    5.8028  -59.4927 H   0  0  0  0  0  0  0  0  0  0  0  0
   14.1725    3.4496  -59.0092 H   0  0  0  0  0  0  0  0  0  0  0  0
   11.7779    2.7709  -59.1790 H   0  0  0  0  0  0  0  0  0  0  0  0
  1  2  1  0
  2  3  1  0
  3  4  1  0
  4  5  2  0
  4  6  1  0
  6  7  1  0
  7  8  1  0
  8  9  1  0
  3 10  2  0
 10 11  1  0
 11 12  1  0
 12 13  1  0
 13 14  1  0
 14 15  1  0
 15 16  2  0
 16 17  1  0
 11 18  1  0
 18 19  1  0
 19 20  2  0
 20 21  1  0
 21 22  2  0
 22 23  1  0
 23 24  2  0
 18  2  2  0
 24 19  1  0
  1 25  1  0
  1 26  1  0
  1 27  1  0
  6 28  1  0
  7 29  1  0
  7 30  1  0
  8 31  1  0
  8 32  1  0
 12 33  1  0
 12 34  1  0
 13 35  1  0
 13 36  1  0
 14 37  1  0
 14 38  1  0
 15 39  1  0
 17 40  1  0
 20 41  1  0
 21 42  1  0
 22 43  1  0
 23 44  1  0
 24 45  1  0
M  END
>  <meeko>  (100) 
{"is_sidechain": false}

$$$$

     RDKit          3D

 45 46  0  0  0  0  0  0  0  0999 V2000
    9.6850    2.9080  -61.9840 C   0  0  0  0  0  0  0  0  0  0  0  0
    9.0550    3.5530  -60.8020 C   0  0  0  0  0  0  0  0  0  0  0  0
    7.6760    3.5260  -60.4140 C   0  0  0  0  0  0  0  0  0  0  0  0
    6.5550    2.8160  -61.0580 C   0  0  0  0  0  0  0  0  0  0  0  0
    6.3250    2.8560  -62.2640 O   0  0  0  0  0  0  0  0  0  0  0  0
    5.7610    2.0910  -60.1880 N   0  0  0  0  0  0  0  0  0  0  0  0
    4.6930    1.2370  -60.6720 C   0  0  0  0  0  0  0  0  0  0  0  0
    3.3440    1.9420  -60.6630 C   0  0  0  0  0  0  0  0  0  0  0  0
    3.2620    2.7170  -59.5440 F   0  0  0  0  0  0  0  0  0  0  0  0
    7.4750    4.2750  -59.3180 N   0  0  0  0  0  0  0  0  0  0  0  0
    8.6890    4.7550  -58.9970 N   0  0  0  0  0  0  0  0  0  0  0  0
    8.8130    5.6190  -57.8330 C   0  0  0  0  0  0  0  0  0  0  0  0
    8.8090    4.8510  -56.5080 C   0  0  0  0  0  0  0  0  0  0  0  0
   10.1060    4.0860  -56.1990 C   0  0  0  0  0  0  0  0  0  0  0  0
   10.0340    2.5880  -56.4850 C   0  0  0  0  0  0  0  0  0  0  0  0
    8.6350    2.1220  -56.6810 N   0  0  0  0  0  0  0  0  0  0  0  0
    8.2860    1.3170  -55.8100 O   0  0  0  0  0  0  0  0  0  0  0  0
    9.6830    4.3430  -59.8500 C   0  0  0  0  0  0  0  0  0  0  0  0
   11.0860    4.7180  -59.7260 C   0  0  0  0  0  0  0  0  0  0  0  0
   11.5000    6.0190  -60.0360 C   0  0  0  0  0  0  0  0  0  0  0  0
   12.8440    6.3750  -59.9170 C   0  0  0  0  0  0  0  0  0  0  0  0
   13.7800    5.4340  -59.4930 C   0  0  0  0  0  0  0  0  0  0  0  0
   13.3750    4.1340  -59.1910 C   0  0  0  0  0  0  0  0  0  0  0  0
   12.0320    3.7760  -59.3090 C   0  0  0  0  0  0  0  0  0  0  0  0
   10.4166    2.1590  -61.6465 H   0  0  0  0  0  0  0  0  0  0  0  0
    8.9098    2.4163  -62.5900 H   0  0  0  0  0  0  0  0  0  0  0  0
   10.1948    3.6714  -62.5900 H   0  0  0  0  0  0  0  0  0  0  0  0
    5.9930    2.0720  -59.2050 H   0  0  0  0  0  0  0  0  0  0  0  0
    4.9249    0.9292  -61.7023 H   0  0  0  0  0  0  0  0  0  0  0  0
    4.6245    0.3685  -60.0004 H   0  0  0  0  0  0  0  0  0  0  0  0
    3.2509    2.5741  -61.5584 H   0  0  0  0  0  0  0  0  0  0  0  0
    2.5332    1.1987  -60.6637 H   0  0  0  0  0  0  0  0  0  0  0  0
    9.7579    6.1768  -57.9108 H   0  0  0  0  0  0  0  0  0  0  0  0
    7.9384    6.2861  -57.8266 H   0  0  0  0  0  0  0  0  0  0  0  0
    8.6359    5.5722  -55.6956 H   0  0  0  0  0  0  0  0  0  0  0  0
    8.0167    4.0927  -56.5935 H   0  0  0  0  0  0  0  0  0  0  0  0
   10.9134    4.5152  -56.8105 H   0  0  0  0  0  0  0  0  0  0  0  0
   10.2855    4.1927  -55.1190 H   0  0  0  0  0  0  0  0  0  0  0  0
   10.6105    2.3730  -57.3968 H   0  0  0  0  0  0  0  0  0  0  0  0
   10.4491    2.0570  -55.6157 H   0  0  0  0  0  0  0  0  0  0  0  0
   10.7636    6.7628  -60.3744 H   0  0  0  0  0  0  0  0  0  0  0  0
   13.1647    7.3992  -60.1581 H   0  0  0  0  0  0  0  0  0  0  0  0
   14.8387    5.7165  -59.3964 H   0  0  0  0  0  0  0  0  0  0  0  0
   14.1150    3.3907  -58.8596 H   0  0  0  0  0  0  0  0  0  0  0  0
   11.7158    2.7491  -59.0732 H   0  0  0  0  0  0  0  0  0  0  0  0
  1  2  1  0
  2  3  1  0
  3  4  1  0
  4  5  2  0
  4  6  1  0
  6  7  1  0
  7  8  1  0
  8  9  1  0
  3 10  2  0
 10 11  1  0
 11 12  1  0
 12 13  1  0
 13 14  1  0
 14 15  1  0
 15 16  1  0
 16 17  2  0
 11 18  1  0
 18 19  1  0
 19 20  2  0
 20 21  1  0
 21 22  2  0
 22 23  1  0
 23 24  2  0
 18  2  2  0
 24 19  1  0
  1 25  1  0
  1 26  1  0
  1 27  1  0
  6 28  1  0
  7 29  1  0
  7 30  1  0
  8 31  1  0
  8 32  1  0
 12 33  1  0
 12 34  1  0
 13 35  1  0
 13 36  1  0
 14 37  1  0
 14 38  1  0
 15 39  1  0
 15 40  1  0
 20 41  1  0
 21 42  1  0
 22 43  1  0
 23 44  1  0
 24 45  1  0
M  END
>  <meeko>  (101) 
{"is_sidechain": false}

$$$$

     RDKit          3D

 45 46  0  0  0  0  0  0  0  0999 V2000
    9.6810    2.9050  -61.9670 C   0  0  0  0  0  0  0  0  0  0  0  0
    9.0590    3.5570  -60.7850 C   0  0  0  0  0  0  0  0  0  0  0  0
    7.6830    3.5270  -60.3870 C   0  0  0  0  0  0  0  0  0  0  0  0
    6.5610    2.8160  -61.0260 C   0  0  0  0  0  0  0  0  0  0  0  0
    6.3160    2.8720  -62.2290 O   0  0  0  0  0  0  0  0  0  0  0  0
    5.7880    2.0670  -60.1570 N   0  0  0  0  0  0  0  0  0  0  0  0
    4.7160    1.2180  -60.6370 C   0  0  0  0  0  0  0  0  0  0  0  0
    3.3700    1.9280  -60.6270 C   0  0  0  0  0  0  0  0  0  0  0  0
    3.2770    2.6760  -59.4890 F   0  0  0  0  0  0  0  0  0  0  0  0
    7.4870    4.2720  -59.2870 N   0  0  0  0  0  0  0  0  0  0  0  0
    8.6990    4.7680  -58.9840 N   0  0  0  0  0  0  0  0  0  0  0  0
    8.8250    5.6480  -57.8330 C   0  0  0  0  0  0  0  0  0  0  0  0
    8.7290    4.9090  -56.4950 C   0  0  0  0  0  0  0  0  0  0  0  0
    9.6390    3.7130  -56.4140 C   0  0  0  0  0  0  0  0  0  0  0  0
    9.2190    2.4460  -56.5010 C   0  0  0  0  0  0  0  0  0  0  0  0
   10.0050    1.3260  -56.4160 N   0  0  0  0  0  0  0  0  0  0  0  0
   11.3270    1.4290  -56.8370 O   0  0  0  0  0  0  0  0  0  0  0  0
    9.6910    4.3490  -59.8370 C   0  0  0  0  0  0  0  0  0  0  0  0
   11.0910    4.7380  -59.7230 C   0  0  0  0  0  0  0  0  0  0  0  0
   12.0480    3.8090  -59.3030 C   0  0  0  0  0  0  0  0  0  0  0  0
   13.3890    4.1830  -59.1910 C   0  0  0  0  0  0  0  0  0  0  0  0
   13.7780    5.4850  -59.5030 C   0  0  0  0  0  0  0  0  0  0  0  0
   12.8290    6.4140  -59.9300 C   0  0  0  0  0  0  0  0  0  0  0  0
   11.4890    6.0410  -60.0420 C   0  0  0  0  0  0  0  0  0  0  0  0
   10.4037    2.1474  -61.6298 H   0  0  0  0  0  0  0  0  0  0  0  0
    8.8999    2.4226  -62.5730 H   0  0  0  0  0  0  0  0  0  0  0  0
   10.1997    3.6625  -62.5730 H   0  0  0  0  0  0  0  0  0  0  0  0
    6.0300    2.0450  -59.1760 H   0  0  0  0  0  0  0  0  0  0  0  0
    4.9447    0.9074  -61.6672 H   0  0  0  0  0  0  0  0  0  0  0  0
    4.6450    0.3514  -59.9632 H   0  0  0  0  0  0  0  0  0  0  0  0
    3.2905    2.5826  -61.5075 H   0  0  0  0  0  0  0  0  0  0  0  0
    2.5564    1.1883  -60.6562 H   0  0  0  0  0  0  0  0  0  0  0  0
    9.8009    6.1530  -57.8842 H   0  0  0  0  0  0  0  0  0  0  0  0
    7.9882    6.3608  -57.8734 H   0  0  0  0  0  0  0  0  0  0  0  0
    8.9971    5.6080  -55.6891 H   0  0  0  0  0  0  0  0  0  0  0  0
    7.6965    4.5426  -56.3962 H   0  0  0  0  0  0  0  0  0  0  0  0
   10.7154    3.8917  -56.2747 H   0  0  0  0  0  0  0  0  0  0  0  0
    8.1414    2.2879  -56.6553 H   0  0  0  0  0  0  0  0  0  0  0  0
    9.5370    0.4730  -56.7320 H   0  0  0  0  0  0  0  0  0  0  0  0
   11.7640    1.8560  -56.0770 H   0  0  0  0  0  0  0  0  0  0  0  0
   11.7437    2.7802  -59.0600 H   0  0  0  0  0  0  0  0  0  0  0  0
   14.1382    3.4503  -58.8566 H   0  0  0  0  0  0  0  0  0  0  0  0
   14.8339    5.7799  -59.4124 H   0  0  0  0  0  0  0  0  0  0  0  0
   13.1369    7.4404  -60.1784 H   0  0  0  0  0  0  0  0  0  0  0  0
   10.7428    6.7740  -60.3823 H   0  0  0  0  0  0  0  0  0  0  0  0
  1  2  1  0
  2  3  1  0
  3  4  1  0
  4  5  2  0
  4  6  1  0
  6  7  1  0
  7  8  1  0
  8  9  1  0
  3 10  2  0
 10 11  1  0
 11 12  1  0
 12 13  1  0
 13 14  1  0
 14 15  2  0
 15 16  1  0
 16 17  1  0
 11 18  1  0
 18 19  1  0
 19 20  2  0
 20 21  1  0
 21 22  2  0
 22 23  1  0
 23 24  2  0
 18  2  2  0
 24 19  1  0
  1 25  1  0
  1 26  1  0
  1 27  1  0
  6 28  1  0
  7 29  1  0
  7 30  1  0
  8 31  1  0
  8 32  1  0
 12 33  1  0
 12 34  1  0
 13 35  1  0
 13 36  1  0
 14 37  1  0
 15 38  1  0
 16 39  1  0
 17 40  1  0
 20 41  1  0
 21 42  1  0
 22 43  1  0
 23 44  1  0
 24 45  1  0
M  END
>  <meeko>  (102) 
{"is_sidechain": false}

$$$$

     RDKit          3D

 45 46  0  0  0  0  0  0  0  0999 V2000
    9.6640    2.8610  -61.9280 C   0  0  0  0  0  0  0  0  0  0  0  0
    9.0640    3.5660  -60.7650 C   0  0  0  0  0  0  0  0  0  0  0  0
    7.6930    3.5510  -60.3740 C   0  0  0  0  0  0  0  0  0  0  0  0
    6.5740    2.8400  -61.0190 C   0  0  0  0  0  0  0  0  0  0  0  0
    6.2690    2.9750  -62.2000 O   0  0  0  0  0  0  0  0  0  0  0  0
    5.8940    2.0070  -60.1560 N   0  0  0  0  0  0  0  0  0  0  0  0
    4.7890    1.1740  -60.5690 C   0  0  0  0  0  0  0  0  0  0  0  0
    3.4390    1.8730  -60.4940 C   0  0  0  0  0  0  0  0  0  0  0  0
    3.4000    2.6360  -59.3670 F   0  0  0  0  0  0  0  0  0  0  0  0
    7.4910    4.3040  -59.2740 N   0  0  0  0  0  0  0  0  0  0  0  0
    8.7140    4.7780  -58.9630 N   0  0  0  0  0  0  0  0  0  0  0  0
    8.8580    5.6330  -57.7950 C   0  0  0  0  0  0  0  0  0  0  0  0
    8.8660    4.8620  -56.4720 C   0  0  0  0  0  0  0  0  0  0  0  0
    9.7960    3.6790  -56.4820 C   0  0  0  0  0  0  0  0  0  0  0  0
    9.4500    2.3860  -56.4490 C   0  0  0  0  0  0  0  0  0  0  0  0
    8.1980    1.8310  -56.3850 N   0  0  0  0  0  0  0  0  0  0  0  0
    7.4160    1.8620  -57.5340 O   0  0  0  0  0  0  0  0  0  0  0  0
    9.6980    4.3780  -59.8370 C   0  0  0  0  0  0  0  0  0  0  0  0
   11.1010    4.7590  -59.7270 C   0  0  0  0  0  0  0  0  0  0  0  0
   11.5090    6.0560  -60.0550 C   0  0  0  0  0  0  0  0  0  0  0  0
   12.8530    6.4190  -59.9460 C   0  0  0  0  0  0  0  0  0  0  0  0
   13.7940    5.4840  -59.5160 C   0  0  0  0  0  0  0  0  0  0  0  0
   13.3950    4.1870  -59.1980 C   0  0  0  0  0  0  0  0  0  0  0  0
   12.0510    3.8240  -59.3060 C   0  0  0  0  0  0  0  0  0  0  0  0
   10.3379    2.0692  -61.5690 H   0  0  0  0  0  0  0  0  0  0  0  0
    8.8651    2.4140  -62.5378 H   0  0  0  0  0  0  0  0  0  0  0  0
   10.2330    3.5782  -62.5378 H   0  0  0  0  0  0  0  0  0  0  0  0
    6.2570    1.9780  -59.2060 H   0  0  0  0  0  0  0  0  0  0  0  0
    4.9604    0.8590  -61.6089 H   0  0  0  0  0  0  0  0  0  0  0  0
    4.7503    0.3213  -59.8751 H   0  0  0  0  0  0  0  0  0  0  0  0
    3.3050    2.5133  -61.3783 H   0  0  0  0  0  0  0  0  0  0  0  0
    2.6328    1.1251  -60.4661 H   0  0  0  0  0  0  0  0  0  0  0  0
    9.8054    6.1851  -57.8821 H   0  0  0  0  0  0  0  0  0  0  0  0
    7.9857    6.3028  -57.7743 H   0  0  0  0  0  0  0  0  0  0  0  0
    9.1795    5.5466  -55.6701 H   0  0  0  0  0  0  0  0  0  0  0  0
    7.8482    4.4769  -56.3115 H   0  0  0  0  0  0  0  0  0  0  0  0
   10.8730    3.8997  -56.5204 H   0  0  0  0  0  0  0  0  0  0  0  0
   10.2851    1.6706  -56.4771 H   0  0  0  0  0  0  0  0  0  0  0  0
    8.1630    0.9320  -55.9020 H   0  0  0  0  0  0  0  0  0  0  0  0
    7.0490    2.7670  -57.5280 H   0  0  0  0  0  0  0  0  0  0  0  0
   10.7686    6.7927  -60.4000 H   0  0  0  0  0  0  0  0  0  0  0  0
   13.1692    7.4417  -60.1991 H   0  0  0  0  0  0  0  0  0  0  0  0
   14.8524    5.7704  -59.4277 H   0  0  0  0  0  0  0  0  0  0  0  0
   14.1387    3.4495  -58.8620 H   0  0  0  0  0  0  0  0  0  0  0  0
   11.7387    2.7986  -59.0589 H   0  0  0  0  0  0  0  0  0  0  0  0
  1  2  1  0
  2  3  1  0
  3  4  1  0
  4  5  2  0
  4  6  1  0
  6  7  1  0
  7  8  1  0
  8  9  1  0
  3 10  2  0
 10 11  1  0
 11 12  1  0
 12 13  1  0
 13 14  1  0
 14 15  2  0
 15 16  1  0
 16 17  1  0
 11 18  1  0
 18 19  1  0
 19 20  2  0
 20 21  1  0
 21 22  2  0
 22 23  1  0
 23 24  2  0
 18  2  2  0
 24 19  1  0
  1 25  1  0
  1 26  1  0
  1 27  1  0
  6 28  1  0
  7 29  1  0
  7 30  1  0
  8 31  1  0
  8 32  1  0
 12 33  1  0
 12 34  1  0
 13 35  1  0
 13 36  1  0
 14 37  1  0
 15 38  1  0
 16 39  1  0
 17 40  1  0
 20 41  1  0
 21 42  1  0
 22 43  1  0
 23 44  1  0
 24 45  1  0
M  END
>  <meeko>  (103) 
{"is_sidechain": false}

$$$$

     RDKit          3D

 45 46  0  0  0  0  0  0  0  0999 V2000
    9.6830    2.8420  -62.0240 C   0  0  0  0  0  0  0  0  0  0  0  0
    9.0470    3.5070  -60.8560 C   0  0  0  0  0  0  0  0  0  0  0  0
    7.6660    3.4680  -60.4680 C   0  0  0  0  0  0  0  0  0  0  0  0
    6.5480    2.7330  -61.0920 C   0  0  0  0  0  0  0  0  0  0  0  0
    6.2310    2.8470  -62.2740 O   0  0  0  0  0  0  0  0  0  0  0  0
    5.8330    1.9220  -60.2230 N   0  0  0  0  0  0  0  0  0  0  0  0
    4.5970    1.2970  -60.6530 C   0  0  0  0  0  0  0  0  0  0  0  0
    3.3740    2.1460  -60.3330 C   0  0  0  0  0  0  0  0  0  0  0  0
    3.5740    2.7560  -59.1290 F   0  0  0  0  0  0  0  0  0  0  0  0
    7.4600    4.2250  -59.3780 N   0  0  0  0  0  0  0  0  0  0  0  0
    8.6640    4.7360  -59.0740 N   0  0  0  0  0  0  0  0  0  0  0  0
    8.7590    5.6300  -57.9330 C   0  0  0  0  0  0  0  0  0  0  0  0
    8.7610    4.9080  -56.5850 C   0  0  0  0  0  0  0  0  0  0  0  0
   10.1160    4.2960  -56.2430 C   0  0  0  0  0  0  0  0  0  0  0  0
   10.0380    2.7970  -56.3210 C   0  0  0  0  0  0  0  0  0  0  0  0
   11.0220    2.1070  -56.7960 N   0  0  0  0  0  0  0  0  0  0  0  0
   10.6830    0.7500  -56.7540 O   0  0  0  0  0  0  0  0  0  0  0  0
    9.6670    4.3120  -59.9100 C   0  0  0  0  0  0  0  0  0  0  0  0
   11.0670    4.7000  -59.7850 C   0  0  0  0  0  0  0  0  0  0  0  0
   11.4560    6.0230  -60.0230 C   0  0  0  0  0  0  0  0  0  0  0  0
   12.7980    6.3930  -59.9070 C   0  0  0  0  0  0  0  0  0  0  0  0
   13.7540    5.4440  -59.5490 C   0  0  0  0  0  0  0  0  0  0  0  0
   13.3720    4.1260  -59.3010 C   0  0  0  0  0  0  0  0  0  0  0  0
   12.0310    3.7550  -59.4160 C   0  0  0  0  0  0  0  0  0  0  0  0
   10.4029    2.0893  -61.6702 H   0  0  0  0  0  0  0  0  0  0  0  0
    8.9092    2.3516  -62.6329 H   0  0  0  0  0  0  0  0  0  0  0  0
   10.2074    3.5932  -62.6329 H   0  0  0  0  0  0  0  0  0  0  0  0
    5.9350    2.1140  -59.2350 H   0  0  0  0  0  0  0  0  0  0  0  0
    4.6416    1.1378  -61.7405 H   0  0  0  0  0  0  0  0  0  0  0  0
    4.4959    0.3459  -60.1097 H   0  0  0  0  0  0  0  0  0  0  0  0
    3.2349    2.9063  -61.1157 H   0  0  0  0  0  0  0  0  0  0  0  0
    2.4758    1.5124  -60.2902 H   0  0  0  0  0  0  0  0  0  0  0  0
    9.6921    6.2060  -58.0198 H   0  0  0  0  0  0  0  0  0  0  0  0
    7.8661    6.2721  -57.9525 H   0  0  0  0  0  0  0  0  0  0  0  0
    8.4933    5.6300  -55.7994 H   0  0  0  0  0  0  0  0  0  0  0  0
    8.0334    4.0856  -56.6492 H   0  0  0  0  0  0  0  0  0  0  0  0
   10.8702    4.6591  -56.9567 H   0  0  0  0  0  0  0  0  0  0  0  0
   10.3972    4.5900  -55.2210 H   0  0  0  0  0  0  0  0  0  0  0  0
    9.1323    2.2810  -55.9695 H   0  0  0  0  0  0  0  0  0  0  0  0
   10.4480    0.5660  -57.6830 H   0  0  0  0  0  0  0  0  0  0  0  0
   10.7025    6.7741  -60.3024 H   0  0  0  0  0  0  0  0  0  0  0  0
   13.1003    7.4332  -60.0982 H   0  0  0  0  0  0  0  0  0  0  0  0
   14.8112    5.7351  -59.4620 H   0  0  0  0  0  0  0  0  0  0  0  0
   14.1270    3.3789  -59.0149 H   0  0  0  0  0  0  0  0  0  0  0  0
   11.7310    2.7158  -59.2158 H   0  0  0  0  0  0  0  0  0  0  0  0
  1  2  1  0
  2  3  1  0
  3  4  1  0
  4  5  2  0
  4  6  1  0
  6  7  1  0
  7  8  1  0
  8  9  1  0
  3 10  2  0
 10 11  1  0
 11 12  1  0
 12 13  1  0
 13 14  1  0
 14 15  1  0
 15 16  2  0
 16 17  1  0
 11 18  1  0
 18 19  1  0
 19 20  2  0
 20 21  1  0
 21 22  2  0
 22 23  1  0
 23 24  2  0
 18  2  2  0
 24 19  1  0
  1 25  1  0
  1 26  1  0
  1 27  1  0
  6 28  1  0
  7 29  1  0
  7 30  1  0
  8 31  1  0
  8 32  1  0
 12 33  1  0
 12 34  1  0
 13 35  1  0
 13 36  1  0
 14 37  1  0
 14 38  1  0
 15 39  1  0
 17 40  1  0
 20 41  1  0
 21 42  1  0
 22 43  1  0
 23 44  1  0
 24 45  1  0
M  END
>  <meeko>  (104) 
{"is_sidechain": false}

$$$$

     RDKit          3D

 61 65  0  0  0  0  0  0  0  0999 V2000
   12.2940    7.0630  -60.2900 C   0  0  0  0  0  0  0  0  0  0  0  0
   13.2340    5.9170  -59.9510 C   0  0  0  0  0  0  0  0  0  0  0  0
   12.5400    4.8360  -59.1650 C   0  0  0  0  0  0  0  0  0  0  0  0
   11.3380    4.2840  -59.6180 C   0  0  0  0  0  0  0  0  0  0  0  0
   10.6840    3.2920  -58.8750 C   0  0  0  0  0  0  0  0  0  0  0  0
   11.2090    2.8210  -57.6590 C   0  0  0  0  0  0  0  0  0  0  0  0
   10.5410    1.7680  -56.8620 C   0  0  0  0  0  0  0  0  0  0  0  0
   11.1650    0.5790  -56.5000 C   0  0  0  0  0  0  0  0  0  0  0  0
   10.4640   -0.3660  -55.7460 C   0  0  0  0  0  0  0  0  0  0  0  0
   11.0150   -1.5630  -55.3530 O   0  0  0  0  0  0  0  0  0  0  0  0
   11.5040   -2.4290  -56.3740 C   0  0  0  0  0  0  0  0  0  0  0  0
    9.1310   -0.1020  -55.3810 C   0  0  0  0  0  0  0  0  0  0  0  0
    8.2990   -1.0460  -54.5700 C   0  0  0  0  0  0  0  0  0  0  0  0
    7.1520   -1.3050  -54.9240 O   0  0  0  0  0  0  0  0  0  0  0  0
    8.8860   -1.6000  -53.4520 N   0  0  0  0  0  0  0  0  0  0  0  0
    8.2130   -2.4710  -52.4830 C   0  0  2  0  0  0  0  0  0  0  0  0
    9.1610   -2.6730  -51.2700 C   0  0  0  0  0  0  0  0  0  0  0  0
    8.5130   -3.5740  -50.2070 C   0  0  1  0  0  0  0  0  0  0  0  0
    7.2070   -2.9240  -49.7240 C   0  0  0  0  0  0  0  0  0  0  0  0
    6.2440   -2.7400  -50.9070 C   0  0  2  0  0  0  0  0  0  0  0  0
    5.9410   -4.1120  -51.5330 C   0  0  0  0  0  0  0  0  0  0  0  0
    7.2430   -4.7710  -52.0200 C   0  0  2  0  0  0  0  0  0  0  0  0
    8.2000   -4.9430  -50.8310 C   0  0  0  0  0  0  0  0  0  0  0  0
    7.9020   -3.8680  -53.0770 C   0  0  0  0  0  0  0  0  0  0  0  0
    6.9010   -1.8340  -51.9630 C   0  0  0  0  0  0  0  0  0  0  0  0
    8.5810    1.1330  -55.7590 C   0  0  0  0  0  0  0  0  0  0  0  0
    7.2470    1.4890  -55.4950 N   0  0  0  0  0  0  0  0  0  0  0  0
    9.2700    2.0350  -56.4900 N   0  0  0  0  0  0  0  0  0  0  0  0
   12.4090    3.4010  -57.2110 C   0  0  0  0  0  0  0  0  0  0  0  0
   13.0670    4.3910  -57.9480 C   0  0  0  0  0  0  0  0  0  0  0  0
   11.9207    7.5181  -59.3608 H   0  0  0  0  0  0  0  0  0  0  0  0
   12.8351    7.8196  -60.8772 H   0  0  0  0  0  0  0  0  0  0  0  0
   11.4462    6.6804  -60.8772 H   0  0  0  0  0  0  0  0  0  0  0  0
   13.6199    5.4849  -60.8861 H   0  0  0  0  0  0  0  0  0  0  0  0
   14.0510    6.3174  -59.3327 H   0  0  0  0  0  0  0  0  0  0  0  0
   10.9017    4.6315  -60.5661 H   0  0  0  0  0  0  0  0  0  0  0  0
    9.7393    2.8728  -59.2515 H   0  0  0  0  0  0  0  0  0  0  0  0
   12.2036    0.3837  -56.8052 H   0  0  0  0  0  0  0  0  0  0  0  0
   11.9951   -3.2987  -55.9130 H   0  0  0  0  0  0  0  0  0  0  0  0
   10.6651   -2.7699  -56.9985 H   0  0  0  0  0  0  0  0  0  0  0  0
   12.2292   -1.8867  -56.9985 H   0  0  0  0  0  0  0  0  0  0  0  0
    9.7720   -1.1920  -53.1690 H   0  0  0  0  0  0  0  0  0  0  0  0
   10.0943   -3.1405  -51.6171 H   0  0  0  0  0  0  0  0  0  0  0  0
    9.3658   -1.6910  -50.8186 H   0  0  0  0  0  0  0  0  0  0  0  0
    9.1988   -3.7025  -49.3567 H   0  0  0  0  0  0  0  0  0  0  0  0
    6.7364   -3.5697  -48.9680 H   0  0  0  0  0  0  0  0  0  0  0  0
    7.4331   -1.9408  -49.2856 H   0  0  0  0  0  0  0  0  0  0  0  0
    5.3097   -2.2788  -50.5544 H   0  0  0  0  0  0  0  0  0  0  0  0
    5.4658   -4.7582  -50.7803 H   0  0  0  0  0  0  0  0  0  0  0  0
    5.2649   -3.9750  -52.3898 H   0  0  0  0  0  0  0  0  0  0  0  0
    7.0198   -5.7544  -52.4594 H   0  0  0  0  0  0  0  0  0  0  0  0
    7.7296   -5.5891  -50.0751 H   0  0  0  0  0  0  0  0  0  0  0  0
    9.1355   -5.4019  -51.1835 H   0  0  0  0  0  0  0  0  0  0  0  0
    8.8391   -4.3333  -53.4165 H   0  0  0  0  0  0  0  0  0  0  0  0
    7.2089   -3.7476  -53.9227 H   0  0  0  0  0  0  0  0  0  0  0  0
    6.2066   -1.6969  -52.8050 H   0  0  0  0  0  0  0  0  0  0  0  0
    7.1350   -0.8627  -51.5027 H   0  0  0  0  0  0  0  0  0  0  0  0
    6.7280    0.6520  -55.2400 H   0  0  0  0  0  0  0  0  0  0  0  0
    7.2400    2.0560  -54.6400 H   0  0  0  0  0  0  0  0  0  0  0  0
   12.8415    3.0675  -56.2562 H   0  0  0  0  0  0  0  0  0  0  0  0
   14.0049    4.8224  -57.5682 H   0  0  0  0  0  0  0  0  0  0  0  0
  1  2  1  0
  2  3  1  0
  3  4  1  0
  4  5  2  0
  5  6  1  0
  6  7  1  0
  7  8  1  0
  8  9  2  0
  9 10  1  0
 10 11  1  0
  9 12  1  0
 12 13  1  0
 13 14  2  0
 13 15  1  0
 16 15  1  6
 16 17  1  0
 17 18  1  0
 18 19  1  0
 19 20  1  0
 20 21  1  0
 21 22  1  0
 22 23  1  0
 22 24  1  0
 20 25  1  0
 12 26  2  0
 26 27  1  0
 26 28  1  0
  6 29  2  0
 29 30  1  0
 30  3  2  0
 28  7  2  0
 24 16  1  0
 25 16  1  0
 23 18  1  0
  1 31  1  0
  1 32  1  0
  1 33  1  0
  2 34  1  0
  2 35  1  0
  4 36  1  0
  5 37  1  0
  8 38  1  0
 11 39  1  0
 11 40  1  0
 11 41  1  0
 15 42  1  0
 17 43  1  0
 17 44  1  0
 18 45  1  1
 19 46  1  0
 19 47  1  0
 20 48  1  1
 21 49  1  0
 21 50  1  0
 22 51  1  6
 23 52  1  0
 23 53  1  0
 24 54  1  0
 24 55  1  0
 25 56  1  0
 25 57  1  0
 27 58  1  0
 27 59  1  0
 29 60  1  0
 30 61  1  0
M  END
>  <meeko>  (105) 
{"is_sidechain": false}

$$$$

     RDKit          3D

 61 65  0  0  0  0  0  0  0  0999 V2000
   13.4250    6.8690  -59.9100 C   0  0  0  0  0  0  0  0  0  0  0  0
   11.9940    6.4710  -60.2370 C   0  0  0  0  0  0  0  0  0  0  0  0
   11.5400    5.2880  -59.4200 C   0  0  0  0  0  0  0  0  0  0  0  0
   10.1770    4.9940  -59.2910 C   0  0  0  0  0  0  0  0  0  0  0  0
    9.7560    3.9070  -58.5210 C   0  0  0  0  0  0  0  0  0  0  0  0
   10.6880    3.0960  -57.8610 C   0  0  0  0  0  0  0  0  0  0  0  0
   10.2560    1.9440  -57.0560 C   0  0  0  0  0  0  0  0  0  0  0  0
    9.0390    1.8930  -56.4840 C   0  0  0  0  0  0  0  0  0  0  0  0
    8.6560    0.7330  -55.6830 C   0  0  0  0  0  0  0  0  0  0  0  0
    7.3820    0.8210  -55.1490 O   0  0  0  0  0  0  0  0  0  0  0  0
    6.4290    1.1670  -56.1600 C   0  0  0  0  0  0  0  0  0  0  0  0
    9.5050   -0.2890  -55.4140 C   0  0  0  0  0  0  0  0  0  0  0  0
    9.1800   -1.4580  -54.5410 C   0  0  0  0  0  0  0  0  0  0  0  0
    9.5650   -2.5830  -54.8490 O   0  0  0  0  0  0  0  0  0  0  0  0
    8.4800   -1.1840  -53.3910 N   0  0  0  0  0  0  0  0  0  0  0  0
    8.0690   -2.1680  -52.3880 C   0  0  2  0  0  0  0  0  0  0  0  0
    7.4330   -1.4100  -51.1910 C   0  0  0  0  0  0  0  0  0  0  0  0
    6.9760   -2.3880  -50.0970 C   0  0  1  0  0  0  0  0  0  0  0  0
    5.9380   -3.3550  -50.6880 C   0  0  0  0  0  0  0  0  0  0  0  0
    6.5550   -4.1360  -51.8580 C   0  0  2  0  0  0  0  0  0  0  0  0
    7.7740   -4.9270  -51.3550 C   0  0  0  0  0  0  0  0  0  0  0  0
    8.8210   -3.9670  -50.7620 C   0  0  2  0  0  0  0  0  0  0  0  0
    8.1900   -3.1870  -49.5970 C   0  0  0  0  0  0  0  0  0  0  0  0
    9.2750   -2.9780  -51.8510 C   0  0  0  0  0  0  0  0  0  0  0  0
    7.0070   -3.1470  -52.9470 C   0  0  0  0  0  0  0  0  0  0  0  0
   10.8450   -0.2040  -56.1200 C   0  0  0  0  0  0  0  0  0  0  0  0
   11.7530   -1.1320  -56.0680 N   0  0  0  0  0  0  0  0  0  0  0  0
   11.1380    0.9090  -56.8690 N   0  0  0  0  0  0  0  0  0  0  0  0
   12.0510    3.3930  -57.9910 C   0  0  0  0  0  0  0  0  0  0  0  0
   12.4730    4.4810  -58.7590 C   0  0  0  0  0  0  0  0  0  0  0  0
   13.5552    6.9052  -58.8183 H   0  0  0  0  0  0  0  0  0  0  0  0
   14.1181    6.1295  -60.3376 H   0  0  0  0  0  0  0  0  0  0  0  0
   13.6367    7.8601  -60.3376 H   0  0  0  0  0  0  0  0  0  0  0  0
   11.3309    7.3234  -60.0278 H   0  0  0  0  0  0  0  0  0  0  0  0
   11.9525    6.1884  -61.2993 H   0  0  0  0  0  0  0  0  0  0  0  0
    9.4322    5.6236  -59.7998 H   0  0  0  0  0  0  0  0  0  0  0  0
    8.6821    3.6859  -58.4322 H   0  0  0  0  0  0  0  0  0  0  0  0
    8.3324    2.7251  -56.6196 H   0  0  0  0  0  0  0  0  0  0  0  0
    5.4966    1.5055  -55.6845 H   0  0  0  0  0  0  0  0  0  0  0  0
    6.8356    1.9749  -56.7861 H   0  0  0  0  0  0  0  0  0  0  0  0
    6.2226    0.2864  -56.7861 H   0  0  0  0  0  0  0  0  0  0  0  0
    8.2350   -0.2120  -53.2250 H   0  0  0  0  0  0  0  0  0  0  0  0
    8.1766   -0.7189  -50.7674 H   0  0  0  0  0  0  0  0  0  0  0  0
    6.5544   -0.8569  -51.5546 H   0  0  0  0  0  0  0  0  0  0  0  0
    6.5290   -1.8314  -49.2601 H   0  0  0  0  0  0  0  0  0  0  0  0
    5.6131   -4.0611  -49.9096 H   0  0  0  0  0  0  0  0  0  0  0  0
    5.0746   -2.7794  -51.0531 H   0  0  0  0  0  0  0  0  0  0  0  0
    5.8090   -4.8296  -52.2732 H   0  0  0  0  0  0  0  0  0  0  0  0
    7.4517   -5.6375  -50.5796 H   0  0  0  0  0  0  0  0  0  0  0  0
    8.2226   -5.4714  -52.1991 H   0  0  0  0  0  0  0  0  0  0  0  0
    9.6868   -4.5394  -50.3977 H   0  0  0  0  0  0  0  0  0  0  0  0
    7.8659   -3.8934  -48.8186 H   0  0  0  0  0  0  0  0  0  0  0  0
    8.9346   -2.4915  -49.1823 H   0  0  0  0  0  0  0  0  0  0  0  0
   10.0149   -2.2849  -51.4243 H   0  0  0  0  0  0  0  0  0  0  0  0
    9.7200   -3.5449  -52.6820 H   0  0  0  0  0  0  0  0  0  0  0  0
    7.4401   -3.7085  -53.7879 H   0  0  0  0  0  0  0  0  0  0  0  0
    6.1345   -2.5685  -53.2847 H   0  0  0  0  0  0  0  0  0  0  0  0
   11.4030   -1.9230  -55.4960 H   0  0  0  0  0  0  0  0  0  0  0  0
   12.0240    0.9160  -57.3570 H   0  0  0  0  0  0  0  0  0  0  0  0
   12.7963    2.7632  -57.4833 H   0  0  0  0  0  0  0  0  0  0  0  0
   13.5465    4.7050  -58.8448 H   0  0  0  0  0  0  0  0  0  0  0  0
  1  2  1  0
  2  3  1  0
  3  4  1  0
  4  5  2  0
  5  6  1  0
  6  7  1  0
  7  8  2  0
  8  9  1  0
  9 10  1  0
 10 11  1  0
  9 12  2  0
 12 13  1  0
 13 14  2  0
 13 15  1  0
 16 15  1  6
 16 17  1  0
 17 18  1  0
 18 19  1  0
 19 20  1  0
 20 21  1  0
 21 22  1  0
 22 23  1  0
 22 24  1  0
 20 25  1  0
 12 26  1  0
 26 27  2  3
 26 28  1  0
  6 29  2  0
 29 30  1  0
 30  3  2  0
 28  7  1  0
 24 16  1  0
 25 16  1  0
 23 18  1  0
  1 31  1  0
  1 32  1  0
  1 33  1  0
  2 34  1  0
  2 35  1  0
  4 36  1  0
  5 37  1  0
  8 38  1  0
 11 39  1  0
 11 40  1  0
 11 41  1  0
 15 42  1  0
 17 43  1  0
 17 44  1  0
 18 45  1  1
 19 46  1  0
 19 47  1  0
 20 48  1  6
 21 49  1  0
 21 50  1  0
 22 51  1  1
 23 52  1  0
 23 53  1  0
 24 54  1  0
 24 55  1  0
 25 56  1  0
 25 57  1  0
 27 58  1  0
 28 59  1  0
 29 60  1  0
 30 61  1  0
M  END
>  <meeko>  (106) 
{"is_sidechain": false}

$$$$

     RDKit          3D

 72 76  0  0  0  0  0  0  0  0999 V2000
    6.7130    0.4310  -56.1130 C   0  0  0  0  0  0  0  0  0  0  0  0
    7.8030    1.2490  -56.7640 C   0  0  0  0  0  0  0  0  0  0  0  0
    7.6020    2.0460  -57.8460 C   0  0  0  0  0  0  0  0  0  0  0  0
    6.2700    2.0980  -58.5000 C   0  0  0  0  0  0  0  0  0  0  0  0
    6.0500    1.4510  -59.7240 C   0  0  0  0  0  0  0  0  0  0  0  0
    4.8000    1.5220  -60.3410 C   0  0  0  0  0  0  0  0  0  0  0  0
    3.7670    2.2420  -59.7430 C   0  0  0  0  0  0  0  0  0  0  0  0
    3.9800    2.8930  -58.5280 C   0  0  0  0  0  0  0  0  0  0  0  0
    5.2280    2.8240  -57.9080 C   0  0  0  0  0  0  0  0  0  0  0  0
    8.6860    2.9030  -58.3320 C   0  0  0  0  0  0  0  0  0  0  0  0
    8.9760    3.0180  -59.6440 C   0  0  0  0  0  0  0  0  0  0  0  0
   10.0420    3.8580  -60.2920 C   0  0  0  0  0  0  0  0  0  0  0  0
   11.4400    3.3970  -59.8750 C   0  0  0  0  0  0  0  0  0  0  0  0
   12.2790    4.5700  -59.3580 C   0  0  0  0  0  0  0  0  0  0  0  0
   12.8450    4.3020  -57.9680 C   0  0  0  0  0  0  0  0  0  0  0  0
   12.5730    2.9690  -57.5620 O   0  0  0  0  0  0  0  0  0  0  0  0
    9.3980    3.7950  -57.3430 C   0  0  0  0  0  0  0  0  0  0  0  0
    9.7380    3.6040  -56.1070 N   0  0  0  0  0  0  0  0  0  0  0  0
    9.4770    2.4250  -55.4490 N   0  0  0  0  0  0  0  0  0  0  0  0
    9.1910    1.1600  -56.1400 C   0  0  1  0  0  0  0  0  0  0  0  0
    9.3810   -0.0430  -55.1700 C   0  0  0  0  0  0  0  0  0  0  0  0
    8.8850   -0.0840  -54.0420 O   0  0  0  0  0  0  0  0  0  0  0  0
   10.2540   -1.0230  -55.6390 N   0  0  0  0  0  0  0  0  0  0  0  0
   10.3640   -2.2520  -54.9540 N   0  0  0  0  0  0  0  0  0  0  0  0
   11.0000   -3.3200  -55.7490 C   0  0  2  0  0  0  0  0  0  0  0  0
    9.9600   -4.1960  -56.4910 C   0  0  0  0  0  0  0  0  0  0  0  0
   10.6680   -5.2460  -57.3660 C   0  0  1  0  0  0  0  0  0  0  0  0
   11.5440   -4.5310  -58.4070 C   0  0  0  0  0  0  0  0  0  0  0  0
   12.5980   -3.6640  -57.6980 C   0  0  2  0  0  0  0  0  0  0  0  0
   13.4810   -4.5600  -56.8140 C   0  0  0  0  0  0  0  0  0  0  0  0
   12.6160   -5.2760  -55.7640 C   0  0  2  0  0  0  0  0  0  0  0  0
   11.5560   -6.1320  -56.4770 C   0  0  0  0  0  0  0  0  0  0  0  0
   11.9130   -4.2270  -54.8850 C   0  0  0  0  0  0  0  0  0  0  0  0
   11.8880   -2.6230  -56.8160 C   0  0  0  0  0  0  0  0  0  0  0  0
    6.8059    0.5007  -55.0192 H   0  0  0  0  0  0  0  0  0  0  0  0
    5.7305    0.8166  -56.4229 H   0  0  0  0  0  0  0  0  0  0  0  0
    6.8087   -0.6201  -56.4229 H   0  0  0  0  0  0  0  0  0  0  0  0
    6.8649    0.8856  -60.1996 H   0  0  0  0  0  0  0  0  0  0  0  0
    4.6300    1.0096  -61.2994 H   0  0  0  0  0  0  0  0  0  0  0  0
    2.7823    2.2968  -60.2301 H   0  0  0  0  0  0  0  0  0  0  0  0
    3.1636    3.4612  -58.0583 H   0  0  0  0  0  0  0  0  0  0  0  0
    5.3944    3.3411  -56.9515 H   0  0  0  0  0  0  0  0  0  0  0  0
    8.3536    2.4215  -60.3272 H   0  0  0  0  0  0  0  0  0  0  0  0
    9.9484    3.7760  -61.3849 H   0  0  0  0  0  0  0  0  0  0  0  0
    9.9083    4.9007  -59.9682 H   0  0  0  0  0  0  0  0  0  0  0  0
   11.3468    2.6440  -59.0785 H   0  0  0  0  0  0  0  0  0  0  0  0
   11.9430    2.9703  -60.7553 H   0  0  0  0  0  0  0  0  0  0  0  0
   13.1135    4.7428  -60.0535 H   0  0  0  0  0  0  0  0  0  0  0  0
   11.6245    5.4517  -59.2928 H   0  0  0  0  0  0  0  0  0  0  0  0
   13.9336    4.4588  -57.9854 H   0  0  0  0  0  0  0  0  0  0  0  0
   12.3705    4.9919  -57.2547 H   0  0  0  0  0  0  0  0  0  0  0  0
   11.7930    2.6640  -58.0570 H   0  0  0  0  0  0  0  0  0  0  0  0
    9.6774    4.7812  -57.7422 H   0  0  0  0  0  0  0  0  0  0  0  0
   10.1260    2.3420  -54.6670 H   0  0  0  0  0  0  0  0  0  0  0  0
    9.9030    0.9843  -56.9599 H   0  0  0  0  0  0  0  0  0  0  0  0
   10.6580   -0.9270  -56.5690 H   0  0  0  0  0  0  0  0  0  0  0  0
   10.9440   -2.0820  -54.1190 H   0  0  0  0  0  0  0  0  0  0  0  0
    9.3251   -4.7081  -55.7529 H   0  0  0  0  0  0  0  0  0  0  0  0
    9.3455   -3.5505  -57.1358 H   0  0  0  0  0  0  0  0  0  0  0  0
    9.9188   -5.8682  -57.8774 H   0  0  0  0  0  0  0  0  0  0  0  0
   12.0498   -5.2799  -59.0341 H   0  0  0  0  0  0  0  0  0  0  0  0
   10.9090   -3.8881  -59.0343 H   0  0  0  0  0  0  0  0  0  0  0  0
   13.2214   -3.1527  -58.4463 H   0  0  0  0  0  0  0  0  0  0  0  0
   13.9855   -5.3086  -57.4426 H   0  0  0  0  0  0  0  0  0  0  0  0
   14.2300   -3.9378  -56.3023 H   0  0  0  0  0  0  0  0  0  0  0  0
   13.2514   -5.9193  -55.1376 H   0  0  0  0  0  0  0  0  0  0  0  0
   12.0577   -6.8860  -57.1013 H   0  0  0  0  0  0  0  0  0  0  0  0
   10.9275   -6.6272  -55.7221 H   0  0  0  0  0  0  0  0  0  0  0  0
   11.3018   -4.7399  -54.1278 H   0  0  0  0  0  0  0  0  0  0  0  0
   12.6757   -3.6027  -54.3966 H   0  0  0  0  0  0  0  0  0  0  0  0
   12.6431   -2.0044  -56.3089 H   0  0  0  0  0  0  0  0  0  0  0  0
   11.2473   -1.9970  -57.4545 H   0  0  0  0  0  0  0  0  0  0  0  0
  1  2  1  0
  2  3  2  0
  3  4  1  0
  4  5  2  0
  5  6  1  0
  6  7  2  0
  7  8  1  0
  8  9  2  0
  3 10  1  0
 10 11  2  0
 11 12  1  0
 12 13  1  0
 13 14  1  0
 14 15  1  0
 15 16  1  0
 10 17  1  0
 17 18  2  0
 18 19  1  0
 19 20  1  0
 20 21  1  0
 21 22  2  0
 21 23  1  0
 23 24  1  0
 25 24  1  1
 25 26  1  0
 26 27  1  0
 27 28  1  0
 28 29  1  0
 29 30  1  0
 30 31  1  0
 31 32  1  0
 31 33  1  0
 29 34  1  0
 20  2  1  0
 33 25  1  0
  9  4  1  0
 34 25  1  0
 32 27  1  0
  1 35  1  0
  1 36  1  0
  1 37  1  0
  5 38  1  0
  6 39  1  0
  7 40  1  0
  8 41  1  0
  9 42  1  0
 11 43  1  0
 12 44  1  0
 12 45  1  0
 13 46  1  0
 13 47  1  0
 14 48  1  0
 14 49  1  0
 15 50  1  0
 15 51  1  0
 16 52  1  0
 17 53  1  0
 19 54  1  0
 20 55  1  6
 23 56  1  0
 24 57  1  0
 26 58  1  0
 26 59  1  0
 27 60  1  6
 28 61  1  0
 28 62  1  0
 29 63  1  6
 30 64  1  0
 30 65  1  0
 31 66  1  1
 32 67  1  0
 32 68  1  0
 33 69  1  0
 33 70  1  0
 34 71  1  0
 34 72  1  0
M  END
>  <meeko>  (107) 
{"is_sidechain": false}

$$$$

     RDKit          3D

 72 76  0  0  0  0  0  0  0  0999 V2000
   10.2580    0.9820  -55.1720 C   0  0  0  0  0  0  0  0  0  0  0  0
    8.8000    0.8970  -55.5630 C   0  0  0  0  0  0  0  0  0  0  0  0
    8.1580    1.7640  -56.3880 C   0  0  0  0  0  0  0  0  0  0  0  0
    8.8990    2.9040  -56.9870 C   0  0  0  0  0  0  0  0  0  0  0  0
    8.3770    4.2070  -56.9730 C   0  0  0  0  0  0  0  0  0  0  0  0
    9.0880    5.2620  -57.5470 C   0  0  0  0  0  0  0  0  0  0  0  0
   10.3270    5.0250  -58.1400 C   0  0  0  0  0  0  0  0  0  0  0  0
   10.8560    3.7360  -58.1610 C   0  0  0  0  0  0  0  0  0  0  0  0
   10.1460    2.6790  -57.5870 C   0  0  0  0  0  0  0  0  0  0  0  0
    6.7750    1.4890  -56.7750 C   0  0  0  0  0  0  0  0  0  0  0  0
    6.2970    1.2990  -58.0220 C   0  0  0  0  0  0  0  0  0  0  0  0
    7.0120    1.4010  -59.3410 C   0  0  0  0  0  0  0  0  0  0  0  0
    6.7740    2.7260  -60.0750 C   0  0  0  0  0  0  0  0  0  0  0  0
    7.6090    2.9930  -61.3350 C   0  0  0  0  0  0  0  0  0  0  0  0
    9.0880    2.6530  -61.1920 C   0  0  0  0  0  0  0  0  0  0  0  0
    9.8810    3.8240  -61.3230 O   0  0  0  0  0  0  0  0  0  0  0  0
    5.7490    1.2890  -55.6970 C   0  0  0  0  0  0  0  0  0  0  0  0
    5.8430    0.7010  -54.5470 N   0  0  0  0  0  0  0  0  0  0  0  0
    7.0130    0.1320  -54.1150 N   0  0  0  0  0  0  0  0  0  0  0  0
    8.1020   -0.3190  -54.9760 C   0  0  2  0  0  0  0  0  0  0  0  0
    8.9770   -1.4620  -54.3720 C   0  0  0  0  0  0  0  0  0  0  0  0
    9.0700   -1.6710  -53.1590 O   0  0  0  0  0  0  0  0  0  0  0  0
    9.5390   -2.3300  -55.3080 N   0  0  0  0  0  0  0  0  0  0  0  0
   10.3940   -3.3610  -54.8420 N   0  0  0  0  0  0  0  0  0  0  0  0
   11.1800   -3.9860  -55.9210 C   0  0  2  0  0  0  0  0  0  0  0  0
   11.8890   -2.9210  -56.7970 C   0  0  0  0  0  0  0  0  0  0  0  0
   12.7620   -3.6030  -57.8670 C   0  0  1  0  0  0  0  0  0  0  0  0
   13.8270   -4.4690  -57.1760 C   0  0  0  0  0  0  0  0  0  0  0  0
   13.1490   -5.5450  -56.3120 C   0  0  2  0  0  0  0  0  0  0  0  0
   12.2670   -6.4310  -57.2050 C   0  0  0  0  0  0  0  0  0  0  0  0
   11.1920   -5.5770  -57.8970 C   0  0  2  0  0  0  0  0  0  0  0  0
   11.8750   -4.4960  -58.7510 C   0  0  0  0  0  0  0  0  0  0  0  0
   10.3160   -4.9000  -56.8270 C   0  0  0  0  0  0  0  0  0  0  0  0
   12.2700   -4.8610  -55.2500 C   0  0  0  0  0  0  0  0  0  0  0  0
   10.3438    0.9870  -54.0754 H   0  0  0  0  0  0  0  0  0  0  0  0
   10.7977    0.1138  -55.5781 H   0  0  0  0  0  0  0  0  0  0  0  0
   10.6932    1.9070  -55.5781 H   0  0  0  0  0  0  0  0  0  0  0  0
    7.3996    4.3981  -56.5058 H   0  0  0  0  0  0  0  0  0  0  0  0
    8.6709    6.2797  -57.5314 H   0  0  0  0  0  0  0  0  0  0  0  0
   10.8878    5.8564  -58.5919 H   0  0  0  0  0  0  0  0  0  0  0  0
   11.8336    3.5508  -58.6300 H   0  0  0  0  0  0  0  0  0  0  0  0
   10.5680    1.6633  -57.6058 H   0  0  0  0  0  0  0  0  0  0  0  0
    5.2318    1.0311  -58.0827 H   0  0  0  0  0  0  0  0  0  0  0  0
    8.0916    1.2948  -59.1590 H   0  0  0  0  0  0  0  0  0  0  0  0
    6.6120    0.6031  -59.9839 H   0  0  0  0  0  0  0  0  0  0  0  0
    5.7143    2.7553  -60.3686 H   0  0  0  0  0  0  0  0  0  0  0  0
    7.0836    3.5036  -59.3612 H   0  0  0  0  0  0  0  0  0  0  0  0
    7.1949    2.3901  -62.1566 H   0  0  0  0  0  0  0  0  0  0  0  0
    7.5519    4.0746  -61.5270 H   0  0  0  0  0  0  0  0  0  0  0  0
    9.2629    2.2059  -60.2023 H   0  0  0  0  0  0  0  0  0  0  0  0
    9.3685    1.9422  -61.9833 H   0  0  0  0  0  0  0  0  0  0  0  0
   10.0910    3.9200  -62.2680 H   0  0  0  0  0  0  0  0  0  0  0  0
    4.7575    1.7099  -55.9201 H   0  0  0  0  0  0  0  0  0  0  0  0
    7.3200    0.5780  -53.2520 H   0  0  0  0  0  0  0  0  0  0  0  0
    7.7017   -0.8701  -55.8398 H   0  0  0  0  0  0  0  0  0  0  0  0
    9.7070   -1.9790  -56.2480 H   0  0  0  0  0  0  0  0  0  0  0  0
    9.7870   -4.0780  -54.4170 H   0  0  0  0  0  0  0  0  0  0  0  0
   11.1314   -2.2954  -57.2917 H   0  0  0  0  0  0  0  0  0  0  0  0
   12.5306   -2.2996  -56.1550 H   0  0  0  0  0  0  0  0  0  0  0  0
   13.2528   -2.8389  -58.4876 H   0  0  0  0  0  0  0  0  0  0  0  0
   14.4526   -4.9552  -57.9390 H   0  0  0  0  0  0  0  0  0  0  0  0
   14.4513   -3.8303  -56.5339 H   0  0  0  0  0  0  0  0  0  0  0  0
   13.9148   -6.1622  -55.8193 H   0  0  0  0  0  0  0  0  0  0  0  0
   12.8931   -6.9166  -57.9680 H   0  0  0  0  0  0  0  0  0  0  0  0
   11.7762   -7.1943  -56.5834 H   0  0  0  0  0  0  0  0  0  0  0  0
   10.5671   -6.2158  -58.5384 H   0  0  0  0  0  0  0  0  0  0  0  0
   12.4967   -4.9789  -59.5193 H   0  0  0  0  0  0  0  0  0  0  0  0
   11.1030   -3.8748  -59.2286 H   0  0  0  0  0  0  0  0  0  0  0  0
    9.5430   -4.2936  -57.3218 H   0  0  0  0  0  0  0  0  0  0  0  0
    9.8465   -5.6771  -56.2060 H   0  0  0  0  0  0  0  0  0  0  0  0
   11.7850   -5.6312  -54.6322 H   0  0  0  0  0  0  0  0  0  0  0  0
   12.9065   -4.2162  -54.6263 H   0  0  0  0  0  0  0  0  0  0  0  0
  1  2  1  0
  2  3  2  0
  3  4  1  0
  4  5  2  0
  5  6  1  0
  6  7  2  0
  7  8  1  0
  8  9  2  0
  3 10  1  0
 10 11  2  0
 11 12  1  0
 12 13  1  0
 13 14  1  0
 14 15  1  0
 15 16  1  0
 10 17  1  0
 17 18  2  0
 18 19  1  0
 19 20  1  0
 20 21  1  0
 21 22  2  0
 21 23  1  0
 23 24  1  0
 25 24  1  1
 25 26  1  0
 26 27  1  0
 27 28  1  0
 28 29  1  0
 29 30  1  0
 30 31  1  0
 31 32  1  0
 31 33  1  0
 29 34  1  0
 20  2  1  0
 33 25  1  0
  9  4  1  0
 34 25  1  0
 32 27  1  0
  1 35  1  0
  1 36  1  0
  1 37  1  0
  5 38  1  0
  6 39  1  0
  7 40  1  0
  8 41  1  0
  9 42  1  0
 11 43  1  0
 12 44  1  0
 12 45  1  0
 13 46  1  0
 13 47  1  0
 14 48  1  0
 14 49  1  0
 15 50  1  0
 15 51  1  0
 16 52  1  0
 17 53  1  0
 19 54  1  0
 20 55  1  6
 23 56  1  0
 24 57  1  0
 26 58  1  0
 26 59  1  0
 27 60  1  6
 28 61  1  0
 28 62  1  0
 29 63  1  1
 30 64  1  0
 30 65  1  0
 31 66  1  6
 32 67  1  0
 32 68  1  0
 33 69  1  0
 33 70  1  0
 34 71  1  0
 34 72  1  0
M  END
>  <meeko>  (108) 
{"is_sidechain": false}

$$$$

     RDKit          3D

 72 76  0  0  0  0  0  0  0  0999 V2000
    6.9430    0.1640  -55.9910 C   0  0  0  0  0  0  0  0  0  0  0  0
    7.9610    1.1180  -56.5710 C   0  0  0  0  0  0  0  0  0  0  0  0
    7.7300    1.9890  -57.5860 C   0  0  0  0  0  0  0  0  0  0  0  0
    6.3910    2.0580  -58.2180 C   0  0  0  0  0  0  0  0  0  0  0  0
    5.4370    2.9550  -57.7200 C   0  0  0  0  0  0  0  0  0  0  0  0
    4.1660    3.0290  -58.2940 C   0  0  0  0  0  0  0  0  0  0  0  0
    3.8390    2.2070  -59.3720 C   0  0  0  0  0  0  0  0  0  0  0  0
    4.7800    1.3110  -59.8770 C   0  0  0  0  0  0  0  0  0  0  0  0
    6.0510    1.2370  -59.3040 C   0  0  0  0  0  0  0  0  0  0  0  0
    8.8450    2.7750  -58.1130 C   0  0  0  0  0  0  0  0  0  0  0  0
    9.3100    2.7720  -59.3770 C   0  0  0  0  0  0  0  0  0  0  0  0
    8.7430    2.0710  -60.5800 C   0  0  0  0  0  0  0  0  0  0  0  0
    7.8800    2.9700  -61.4700 C   0  0  0  0  0  0  0  0  0  0  0  0
    7.2100    2.3040  -62.6800 C   0  0  0  0  0  0  0  0  0  0  0  0
    5.7480    2.6860  -62.8790 C   0  0  0  0  0  0  0  0  0  0  0  0
    4.9540    1.5220  -63.0570 O   0  0  0  0  0  0  0  0  0  0  0  0
    9.6390    3.6360  -57.1770 C   0  0  0  0  0  0  0  0  0  0  0  0
   10.0130    3.4100  -55.9580 N   0  0  0  0  0  0  0  0  0  0  0  0
    9.6830    2.2550  -55.2960 N   0  0  0  0  0  0  0  0  0  0  0  0
    9.3340    0.9860  -55.9300 C   0  0  1  0  0  0  0  0  0  0  0  0
    9.6220   -0.2770  -55.0570 C   0  0  0  0  0  0  0  0  0  0  0  0
    9.1570   -0.4340  -53.9250 O   0  0  0  0  0  0  0  0  0  0  0  0
   10.5570   -1.1640  -55.5940 N   0  0  0  0  0  0  0  0  0  0  0  0
   10.8070   -2.3800  -54.9080 N   0  0  0  0  0  0  0  0  0  0  0  0
   11.3430   -3.4340  -55.7890 C   0  0  2  0  0  0  0  0  0  0  0  0
   10.2450   -4.0830  -56.6700 C   0  0  0  0  0  0  0  0  0  0  0  0
   10.8660   -5.1300  -57.6140 C   0  0  1  0  0  0  0  0  0  0  0  0
   11.8940   -4.4430  -58.5260 C   0  0  0  0  0  0  0  0  0  0  0  0
   13.0040   -3.8030  -57.6780 C   0  0  2  0  0  0  0  0  0  0  0  0
   13.7020   -4.8930  -56.8480 C   0  0  0  0  0  0  0  0  0  0  0  0
   12.6840   -5.5830  -55.9260 C   0  0  2  0  0  0  0  0  0  0  0  0
   11.5710   -6.2130  -56.7790 C   0  0  0  0  0  0  0  0  0  0  0  0
   12.0690   -4.5370  -54.9770 C   0  0  0  0  0  0  0  0  0  0  0  0
   12.3810   -2.7650  -56.7280 C   0  0  0  0  0  0  0  0  0  0  0  0
    6.9864    0.2047  -54.8926 H   0  0  0  0  0  0  0  0  0  0  0  0
    5.9366    0.4517  -56.3291 H   0  0  0  0  0  0  0  0  0  0  0  0
    7.1649   -0.8590  -56.3291 H   0  0  0  0  0  0  0  0  0  0  0  0
    5.6910    3.6059  -56.8704 H   0  0  0  0  0  0  0  0  0  0  0  0
    3.4229    3.7356  -57.8958 H   0  0  0  0  0  0  0  0  0  0  0  0
    2.8379    2.2657  -59.8241 H   0  0  0  0  0  0  0  0  0  0  0  0
    4.5212    0.6624  -60.7269 H   0  0  0  0  0  0  0  0  0  0  0  0
    6.7912    0.5300  -59.7068 H   0  0  0  0  0  0  0  0  0  0  0  0
   10.2237    3.3590  -59.5519 H   0  0  0  0  0  0  0  0  0  0  0  0
    9.5787    1.6859  -61.1828 H   0  0  0  0  0  0  0  0  0  0  0  0
    8.0896    1.2695  -60.2051 H   0  0  0  0  0  0  0  0  0  0  0  0
    7.0844    3.3963  -60.8413 H   0  0  0  0  0  0  0  0  0  0  0  0
    8.5754    3.7087  -61.8951 H   0  0  0  0  0  0  0  0  0  0  0  0
    7.7670    2.5922  -63.5837 H   0  0  0  0  0  0  0  0  0  0  0  0
    7.2287    1.2203  -62.4924 H   0  0  0  0  0  0  0  0  0  0  0  0
    5.3930    3.2356  -61.9948 H   0  0  0  0  0  0  0  0  0  0  0  0
    5.6622    3.3180  -63.7752 H   0  0  0  0  0  0  0  0  0  0  0  0
    4.5830    1.5620  -63.9550 H   0  0  0  0  0  0  0  0  0  0  0  0
    9.9513    4.6073  -57.5882 H   0  0  0  0  0  0  0  0  0  0  0  0
    9.1330    2.4730  -54.4670 H   0  0  0  0  0  0  0  0  0  0  0  0
   10.0277    0.7734  -56.7568 H   0  0  0  0  0  0  0  0  0  0  0  0
   10.6870   -1.1710  -56.6030 H   0  0  0  0  0  0  0  0  0  0  0  0
   11.5070   -2.1700  -54.1820 H   0  0  0  0  0  0  0  0  0  0  0  0
    9.5030   -4.5731  -56.0225 H   0  0  0  0  0  0  0  0  0  0  0  0
    9.7611   -3.3004  -57.2727 H   0  0  0  0  0  0  0  0  0  0  0  0
   10.0769   -5.5908  -58.2263 H   0  0  0  0  0  0  0  0  0  0  0  0
   12.3367   -5.1889  -59.2025 H   0  0  0  0  0  0  0  0  0  0  0  0
   11.3905   -3.6601  -59.1121 H   0  0  0  0  0  0  0  0  0  0  0  0
   13.7363   -3.3126  -58.3362 H   0  0  0  0  0  0  0  0  0  0  0  0
   14.1449   -5.6387  -57.5246 H   0  0  0  0  0  0  0  0  0  0  0  0
   14.4902   -4.4314  -56.2350 H   0  0  0  0  0  0  0  0  0  0  0  0
   13.1864   -6.3658  -55.3388 H   0  0  0  0  0  0  0  0  0  0  0  0
   12.0100   -6.9634  -57.4529 H   0  0  0  0  0  0  0  0  0  0  0  0
   10.8355   -6.6904  -56.1147 H   0  0  0  0  0  0  0  0  0  0  0  0
   11.3469   -5.0317  -54.3108 H   0  0  0  0  0  0  0  0  0  0  0  0
   12.8728   -4.0748  -54.3852 H   0  0  0  0  0  0  0  0  0  0  0  0
   13.1762   -2.3087  -56.1203 H   0  0  0  0  0  0  0  0  0  0  0  0
   11.8712   -1.9972  -57.3285 H   0  0  0  0  0  0  0  0  0  0  0  0
  1  2  1  0
  2  3  2  0
  3  4  1  0
  4  5  2  0
  5  6  1  0
  6  7  2  0
  7  8  1  0
  8  9  2  0
  3 10  1  0
 10 11  2  0
 11 12  1  0
 12 13  1  0
 13 14  1  0
 14 15  1  0
 15 16  1  0
 10 17  1  0
 17 18  2  0
 18 19  1  0
 19 20  1  0
 20 21  1  0
 21 22  2  0
 21 23  1  0
 23 24  1  0
 25 24  1  1
 25 26  1  0
 26 27  1  0
 27 28  1  0
 28 29  1  0
 29 30  1  0
 30 31  1  0
 31 32  1  0
 31 33  1  0
 29 34  1  0
 20  2  1  0
 33 25  1  0
  9  4  1  0
 34 25  1  0
 32 27  1  0
  1 35  1  0
  1 36  1  0
  1 37  1  0
  5 38  1  0
  6 39  1  0
  7 40  1  0
  8 41  1  0
  9 42  1  0
 11 43  1  0
 12 44  1  0
 12 45  1  0
 13 46  1  0
 13 47  1  0
 14 48  1  0
 14 49  1  0
 15 50  1  0
 15 51  1  0
 16 52  1  0
 17 53  1  0
 19 54  1  0
 20 55  1  6
 23 56  1  0
 24 57  1  0
 26 58  1  0
 26 59  1  0
 27 60  1  6
 28 61  1  0
 28 62  1  0
 29 63  1  6
 30 64  1  0
 30 65  1  0
 31 66  1  1
 32 67  1  0
 32 68  1  0
 33 69  1  0
 33 70  1  0
 34 71  1  0
 34 72  1  0
M  END
>  <meeko>  (109) 
{"is_sidechain": false}

$$$$

     RDKit          3D

 72 76  0  0  0  0  0  0  0  0999 V2000
    6.5220    0.8190  -55.9270 C   0  0  0  0  0  0  0  0  0  0  0  0
    7.7720    1.4610  -56.5260 C   0  0  0  0  0  0  0  0  0  0  0  0
    7.7680    2.0370  -57.7640 C   0  0  0  0  0  0  0  0  0  0  0  0
    6.4900    1.9680  -58.5330 C   0  0  0  0  0  0  0  0  0  0  0  0
    5.4300    2.8370  -58.2370 C   0  0  0  0  0  0  0  0  0  0  0  0
    4.2470    2.7800  -58.9750 C   0  0  0  0  0  0  0  0  0  0  0  0
    4.1170    1.8580  -60.0130 C   0  0  0  0  0  0  0  0  0  0  0  0
    5.1680    0.9930  -60.3160 C   0  0  0  0  0  0  0  0  0  0  0  0
    6.3530    1.0470  -59.5810 C   0  0  0  0  0  0  0  0  0  0  0  0
    8.9420    2.6580  -58.4050 C   0  0  0  0  0  0  0  0  0  0  0  0
    8.8520    3.5460  -59.4210 C   0  0  0  0  0  0  0  0  0  0  0  0
    9.9620    4.2540  -60.1530 C   0  0  0  0  0  0  0  0  0  0  0  0
   10.5080    5.4220  -59.3270 C   0  0  0  0  0  0  0  0  0  0  0  0
   11.9790    5.7270  -59.6120 C   0  0  0  0  0  0  0  0  0  0  0  0
   12.9340    4.6500  -59.1110 C   0  0  0  0  0  0  0  0  0  0  0  0
   12.7900    4.5020  -57.7040 O   0  0  0  0  0  0  0  0  0  0  0  0
   10.3220    2.2290  -58.0500 C   0  0  0  0  0  0  0  0  0  0  0  0
   10.8530    2.1270  -56.8730 N   0  0  0  0  0  0  0  0  0  0  0  0
   10.0020    2.3610  -55.8250 N   0  0  0  0  0  0  0  0  0  0  0  0
    8.9380    1.3770  -55.5450 C   0  0  2  0  0  0  0  0  0  0  0  0
    9.4500   -0.0880  -55.3460 C   0  0  0  0  0  0  0  0  0  0  0  0
   10.4420   -0.5480  -55.9150 O   0  0  0  0  0  0  0  0  0  0  0  0
    8.6710   -0.8490  -54.4820 N   0  0  0  0  0  0  0  0  0  0  0  0
    9.1390   -2.1150  -54.0600 N   0  0  0  0  0  0  0  0  0  0  0  0
    8.5020   -2.5680  -52.8100 C   0  0  2  0  0  0  0  0  0  0  0  0
    7.7900   -3.9130  -53.1170 C   0  0  0  0  0  0  0  0  0  0  0  0
    7.1040   -4.4660  -51.8560 C   0  0  1  0  0  0  0  0  0  0  0  0
    8.1600   -4.6920  -50.7620 C   0  0  0  0  0  0  0  0  0  0  0  0
    8.8620   -3.3670  -50.4290 C   0  0  2  0  0  0  0  0  0  0  0  0
    7.8190   -2.3480  -49.9400 C   0  0  0  0  0  0  0  0  0  0  0  0
    6.7550   -2.1140  -51.0260 C   0  0  2  0  0  0  0  0  0  0  0  0
    6.0660   -3.4480  -51.3570 C   0  0  0  0  0  0  0  0  0  0  0  0
    7.4370   -1.5670  -52.2940 C   0  0  0  0  0  0  0  0  0  0  0  0
    9.5480   -2.8230  -51.6950 C   0  0  0  0  0  0  0  0  0  0  0  0
    6.5837    0.8507  -54.8292 H   0  0  0  0  0  0  0  0  0  0  0  0
    5.6308    1.3709  -56.2602 H   0  0  0  0  0  0  0  0  0  0  0  0
    6.4514   -0.2269  -56.2602 H   0  0  0  0  0  0  0  0  0  0  0  0
    5.5314    3.5664  -57.4199 H   0  0  0  0  0  0  0  0  0  0  0  0
    3.4173    3.4622  -58.7380 H   0  0  0  0  0  0  0  0  0  0  0  0
    3.1839    1.8129  -60.5938 H   0  0  0  0  0  0  0  0  0  0  0  0
    5.0628    0.2670  -61.1357 H   0  0  0  0  0  0  0  0  0  0  0  0
    7.1814    0.3654  -59.8245 H   0  0  0  0  0  0  0  0  0  0  0  0
    7.8320    3.7829  -59.7579 H   0  0  0  0  0  0  0  0  0  0  0  0
   10.7760    3.5405  -60.3486 H   0  0  0  0  0  0  0  0  0  0  0  0
    9.5611    4.6506  -61.0975 H   0  0  0  0  0  0  0  0  0  0  0  0
    9.9144    6.3194  -59.5558 H   0  0  0  0  0  0  0  0  0  0  0  0
   10.4334    5.1356  -58.2676 H   0  0  0  0  0  0  0  0  0  0  0  0
   12.1087    5.8281  -60.6996 H   0  0  0  0  0  0  0  0  0  0  0  0
   12.2265    6.6534  -59.0730 H   0  0  0  0  0  0  0  0  0  0  0  0
   12.7010    3.6953  -59.6053 H   0  0  0  0  0  0  0  0  0  0  0  0
   13.9687    4.9421  -59.3437 H   0  0  0  0  0  0  0  0  0  0  0  0
   13.0650    5.3370  -57.2890 H   0  0  0  0  0  0  0  0  0  0  0  0
   10.9745    1.9647  -58.8952 H   0  0  0  0  0  0  0  0  0  0  0  0
   10.5370    2.5730  -54.9830 H   0  0  0  0  0  0  0  0  0  0  0  0
    8.5425    1.6759  -54.5630 H   0  0  0  0  0  0  0  0  0  0  0  0
    8.0640   -0.3010  -53.8580 H   0  0  0  0  0  0  0  0  0  0  0  0
    8.9070   -2.7830  -54.8090 H   0  0  0  0  0  0  0  0  0  0  0  0
    7.0327   -3.7505  -53.8981 H   0  0  0  0  0  0  0  0  0  0  0  0
    8.5410   -4.6405  -53.4586 H   0  0  0  0  0  0  0  0  0  0  0  0
    6.6060   -5.4180  -52.0917 H   0  0  0  0  0  0  0  0  0  0  0  0
    7.6701   -5.0822  -49.8577 H   0  0  0  0  0  0  0  0  0  0  0  0
    8.9058   -5.4153  -51.1234 H   0  0  0  0  0  0  0  0  0  0  0  0
    9.6133   -3.5341  -49.6431 H   0  0  0  0  0  0  0  0  0  0  0  0
    7.3325   -2.7334  -49.0318 H   0  0  0  0  0  0  0  0  0  0  0  0
    8.3234   -1.3954  -49.7205 H   0  0  0  0  0  0  0  0  0  0  0  0
    6.0087   -1.3913  -50.6644 H   0  0  0  0  0  0  0  0  0  0  0  0
    5.5770   -3.8397  -50.4528 H   0  0  0  0  0  0  0  0  0  0  0  0
    5.3160   -3.2815  -52.1442 H   0  0  0  0  0  0  0  0  0  0  0  0
    6.6782   -1.4108  -53.0749 H   0  0  0  0  0  0  0  0  0  0  0  0
    7.9310   -0.6148  -52.0506 H   0  0  0  0  0  0  0  0  0  0  0  0
   10.0577   -1.8786  -51.4535 H   0  0  0  0  0  0  0  0  0  0  0  0
   10.2766   -3.5654  -52.0527 H   0  0  0  0  0  0  0  0  0  0  0  0
  1  2  1  0
  2  3  2  0
  3  4  1  0
  4  5  2  0
  5  6  1  0
  6  7  2  0
  7  8  1  0
  8  9  2  0
  3 10  1  0
 10 11  2  0
 11 12  1  0
 12 13  1  0
 13 14  1  0
 14 15  1  0
 15 16  1  0
 10 17  1  0
 17 18  2  0
 18 19  1  0
 19 20  1  0
 20 21  1  0
 21 22  2  0
 21 23  1  0
 23 24  1  0
 25 24  1  6
 25 26  1  0
 26 27  1  0
 27 28  1  0
 28 29  1  0
 29 30  1  0
 30 31  1  0
 31 32  1  0
 31 33  1  0
 29 34  1  0
 20  2  1  0
 33 25  1  0
  9  4  1  0
 34 25  1  0
 32 27  1  0
  1 35  1  0
  1 36  1  0
  1 37  1  0
  5 38  1  0
  6 39  1  0
  7 40  1  0
  8 41  1  0
  9 42  1  0
 11 43  1  0
 12 44  1  0
 12 45  1  0
 13 46  1  0
 13 47  1  0
 14 48  1  0
 14 49  1  0
 15 50  1  0
 15 51  1  0
 16 52  1  0
 17 53  1  0
 19 54  1  0
 20 55  1  1
 23 56  1  0
 24 57  1  0
 26 58  1  0
 26 59  1  0
 27 60  1  6
 28 61  1  0
 28 62  1  0
 29 63  1  1
 30 64  1  0
 30 65  1  0
 31 66  1  1
 32 67  1  0
 32 68  1  0
 33 69  1  0
 33 70  1  0
 34 71  1  0
 34 72  1  0
M  END
>  <meeko>  (110) 
{"is_sidechain": false}

$$$$

     RDKit          3D

 72 76  0  0  0  0  0  0  0  0999 V2000
    8.0980    0.0390  -53.4700 C   0  0  0  0  0  0  0  0  0  0  0  0
    8.9010   -0.8680  -54.3720 C   0  0  0  0  0  0  0  0  0  0  0  0
    9.2040   -2.1630  -54.0940 C   0  0  0  0  0  0  0  0  0  0  0  0
    8.6750   -2.7920  -52.8590 C   0  0  0  0  0  0  0  0  0  0  0  0
    9.4180   -2.7800  -51.6710 C   0  0  0  0  0  0  0  0  0  0  0  0
    8.8980   -3.3570  -50.5100 C   0  0  0  0  0  0  0  0  0  0  0  0
    7.6350   -3.9460  -50.5290 C   0  0  0  0  0  0  0  0  0  0  0  0
    6.8880   -3.9590  -51.7070 C   0  0  0  0  0  0  0  0  0  0  0  0
    7.4050   -3.3820  -52.8690 C   0  0  0  0  0  0  0  0  0  0  0  0
   10.0890   -2.9310  -55.0190 C   0  0  0  0  0  0  0  0  0  0  0  0
    9.7540   -4.3930  -55.2620 C   0  0  0  0  0  0  0  0  0  0  0  0
   10.8970   -5.1330  -55.9690 C   0  0  0  0  0  0  0  0  0  0  0  0
   10.9560   -4.8560  -57.4760 C   0  0  0  0  0  0  0  0  0  0  0  0
   12.2670   -4.2590  -57.9880 C   0  0  0  0  0  0  0  0  0  0  0  0
   13.5090   -4.8660  -57.3470 C   0  0  0  0  0  0  0  0  0  0  0  0
   14.5990   -3.9730  -57.5360 O   0  0  0  0  0  0  0  0  0  0  0  0
   11.1800   -2.3920  -55.6020 C   0  0  0  0  0  0  0  0  0  0  0  0
   11.6650   -1.1120  -55.4990 N   0  0  0  0  0  0  0  0  0  0  0  0
   10.9300   -0.0970  -55.5020 N   0  0  0  0  0  0  0  0  0  0  0  0
    9.4620   -0.2410  -55.6430 C   0  0  2  0  0  0  0  0  0  0  0  0
    8.8740    1.1410  -56.0100 C   0  0  0  0  0  0  0  0  0  0  0  0
    7.6890    1.2990  -56.3180 O   0  0  0  0  0  0  0  0  0  0  0  0
    9.7690    2.2040  -55.9350 N   0  0  0  0  0  0  0  0  0  0  0  0
    9.3890    3.4620  -56.4590 N   0  0  0  0  0  0  0  0  0  0  0  0
   10.1410    3.8360  -57.6710 C   0  0  2  0  0  0  0  0  0  0  0  0
   10.1520    2.7040  -58.7290 C   0  0  0  0  0  0  0  0  0  0  0  0
   11.0060    3.1110  -59.9430 C   0  0  1  0  0  0  0  0  0  0  0  0
   10.4280    4.3950  -60.5620 C   0  0  0  0  0  0  0  0  0  0  0  0
   10.4460    5.5350  -59.5300 C   0  0  2  0  0  0  0  0  0  0  0  0
   11.8910    5.7840  -59.0720 C   0  0  0  0  0  0  0  0  0  0  0  0
   12.4700    4.5060  -58.4440 C   0  0  2  0  0  0  0  0  0  0  0  0
   12.4480    3.3750  -59.4820 C   0  0  0  0  0  0  0  0  0  0  0  0
   11.6070    4.1010  -57.2360 C   0  0  0  0  0  0  0  0  0  0  0  0
    9.5900    5.1340  -58.3150 C   0  0  0  0  0  0  0  0  0  0  0  0
    8.3136   -0.2046  -52.4192 H   0  0  0  0  0  0  0  0  0  0  0  0
    8.3702    1.0864  -53.6669 H   0  0  0  0  0  0  0  0  0  0  0  0
    7.0253   -0.1043  -53.6669 H   0  0  0  0  0  0  0  0  0  0  0  0
   10.4145   -2.3145  -51.6526 H   0  0  0  0  0  0  0  0  0  0  0  0
    9.4857   -3.3465  -49.5802 H   0  0  0  0  0  0  0  0  0  0  0  0
    7.2269   -4.4010  -49.6144 H   0  0  0  0  0  0  0  0  0  0  0  0
    5.8912   -4.4240  -51.7207 H   0  0  0  0  0  0  0  0  0  0  0  0
    6.8123   -3.3910  -53.7957 H   0  0  0  0  0  0  0  0  0  0  0  0
    9.5608   -4.8790  -54.2943 H   0  0  0  0  0  0  0  0  0  0  0  0
    8.8674   -4.4357  -55.9117 H   0  0  0  0  0  0  0  0  0  0  0  0
   11.8494   -4.8173  -55.5181 H   0  0  0  0  0  0  0  0  0  0  0  0
   10.7163   -6.2106  -55.8419 H   0  0  0  0  0  0  0  0  0  0  0  0
   10.7897   -5.8079  -58.0016 H   0  0  0  0  0  0  0  0  0  0  0  0
   10.1836   -4.0979  -57.6727 H   0  0  0  0  0  0  0  0  0  0  0  0
   12.3219   -4.4224  -59.0744 H   0  0  0  0  0  0  0  0  0  0  0  0
   12.2585   -3.1913  -57.7237 H   0  0  0  0  0  0  0  0  0  0  0  0
   13.3351   -5.0162  -56.2713 H   0  0  0  0  0  0  0  0  0  0  0  0
   13.7345   -5.8378  -57.8104 H   0  0  0  0  0  0  0  0  0  0  0  0
   14.2300   -3.1370  -57.8680 H   0  0  0  0  0  0  0  0  0  0  0  0
   11.7588   -3.0697  -56.2468 H   0  0  0  0  0  0  0  0  0  0  0  0
    9.1767   -0.9234  -56.4572 H   0  0  0  0  0  0  0  0  0  0  0  0
   10.7620    1.9740  -55.8920 H   0  0  0  0  0  0  0  0  0  0  0  0
    9.5820    4.1620  -55.7270 H   0  0  0  0  0  0  0  0  0  0  0  0
   10.5725    1.7923  -58.2796 H   0  0  0  0  0  0  0  0  0  0  0  0
    9.1207    2.5198  -59.0645 H   0  0  0  0  0  0  0  0  0  0  0  0
   10.9976    2.3034  -60.6899 H   0  0  0  0  0  0  0  0  0  0  0  0
   11.0344    4.6836  -61.4332 H   0  0  0  0  0  0  0  0  0  0  0  0
    9.3897    4.2082  -60.8734 H   0  0  0  0  0  0  0  0  0  0  0  0
   10.0394    6.4507  -59.9840 H   0  0  0  0  0  0  0  0  0  0  0  0
   12.5032    6.0738  -59.9387 H   0  0  0  0  0  0  0  0  0  0  0  0
   11.8992    6.5902  -58.3237 H   0  0  0  0  0  0  0  0  0  0  0  0
   13.5046    4.6891  -58.1183 H   0  0  0  0  0  0  0  0  0  0  0  0
   13.0601    3.6645  -60.3489 H   0  0  0  0  0  0  0  0  0  0  0  0
   12.8542    2.4598  -59.0267 H   0  0  0  0  0  0  0  0  0  0  0  0
   12.0212    3.1860  -56.7873 H   0  0  0  0  0  0  0  0  0  0  0  0
   11.6151    4.9230  -56.5051 H   0  0  0  0  0  0  0  0  0  0  0  0
    9.6125    5.9450  -57.5722 H   0  0  0  0  0  0  0  0  0  0  0  0
    8.5572    4.9561  -58.6491 H   0  0  0  0  0  0  0  0  0  0  0  0
  1  2  1  0
  2  3  2  0
  3  4  1  0
  4  5  2  0
  5  6  1  0
  6  7  2  0
  7  8  1  0
  8  9  2  0
  3 10  1  0
 10 11  1  0
 11 12  1  0
 12 13  1  0
 13 14  1  0
 14 15  1  0
 15 16  1  0
 10 17  2  0
 17 18  1  0
 18 19  2  0
 19 20  1  0
 20 21  1  0
 21 22  2  0
 21 23  1  0
 23 24  1  0
 25 24  1  1
 25 26  1  0
 26 27  1  0
 27 28  1  0
 28 29  1  0
 29 30  1  0
 30 31  1  0
 31 32  1  0
 31 33  1  0
 29 34  1  0
 20  2  1  0
 33 25  1  0
  9  4  1  0
 34 25  1  0
 32 27  1  0
  1 35  1  0
  1 36  1  0
  1 37  1  0
  5 38  1  0
  6 39  1  0
  7 40  1  0
  8 41  1  0
  9 42  1  0
 11 43  1  0
 11 44  1  0
 12 45  1  0
 12 46  1  0
 13 47  1  0
 13 48  1  0
 14 49  1  0
 14 50  1  0
 15 51  1  0
 15 52  1  0
 16 53  1  0
 17 54  1  0
 20 55  1  6
 23 56  1  0
 24 57  1  0
 26 58  1  0
 26 59  1  0
 27 60  1  6
 28 61  1  0
 28 62  1  0
 29 63  1  6
 30 64  1  0
 30 65  1  0
 31 66  1  1
 32 67  1  0
 32 68  1  0
 33 69  1  0
 33 70  1  0
 34 71  1  0
 34 72  1  0
M  END
>  <meeko>  (111) 
{"is_sidechain": false}

$$$$

     RDKit          3D

 72 76  0  0  0  0  0  0  0  0999 V2000
    6.3240   -0.3330  -51.9750 C   0  0  0  0  0  0  0  0  0  0  0  0
    7.3820   -0.6080  -53.0190 C   0  0  0  0  0  0  0  0  0  0  0  0
    8.0630   -1.7730  -53.1580 C   0  0  0  0  0  0  0  0  0  0  0  0
    7.7590   -2.8920  -52.2330 C   0  0  0  0  0  0  0  0  0  0  0  0
    6.6520   -3.7150  -52.4770 C   0  0  0  0  0  0  0  0  0  0  0  0
    6.3430   -4.7560  -51.6000 C   0  0  0  0  0  0  0  0  0  0  0  0
    7.1340   -4.9770  -50.4730 C   0  0  0  0  0  0  0  0  0  0  0  0
    8.2340   -4.1570  -50.2180 C   0  0  0  0  0  0  0  0  0  0  0  0
    8.5450   -3.1150  -51.0930 C   0  0  0  0  0  0  0  0  0  0  0  0
    9.0740   -1.9400  -54.2200 C   0  0  0  0  0  0  0  0  0  0  0  0
    9.0710   -3.2900  -54.9350 C   0  0  0  0  0  0  0  0  0  0  0  0
   10.3700   -4.1150  -54.9810 C   0  0  0  0  0  0  0  0  0  0  0  0
   11.0050   -4.2670  -56.3690 C   0  0  0  0  0  0  0  0  0  0  0  0
   11.8410   -5.5420  -56.5210 C   0  0  0  0  0  0  0  0  0  0  0  0
   12.0480   -5.9260  -57.9820 C   0  0  0  0  0  0  0  0  0  0  0  0
   11.8850   -4.7830  -58.8100 O   0  0  0  0  0  0  0  0  0  0  0  0
    9.9210   -0.9480  -54.5620 C   0  0  0  0  0  0  0  0  0  0  0  0
   10.0320    0.3140  -54.0440 N   0  0  0  0  0  0  0  0  0  0  0  0
    9.0560    1.0550  -53.7960 N   0  0  0  0  0  0  0  0  0  0  0  0
    7.6510    0.5890  -53.9110 C   0  0  1  0  0  0  0  0  0  0  0  0
    7.1950    0.4520  -55.3820 C   0  0  0  0  0  0  0  0  0  0  0  0
    6.3180   -0.3400  -55.7290 O   0  0  0  0  0  0  0  0  0  0  0  0
    7.8050    1.3700  -56.2370 N   0  0  0  0  0  0  0  0  0  0  0  0
    7.4000    1.4900  -57.5770 N   0  0  0  0  0  0  0  0  0  0  0  0
    7.9810    2.6400  -58.2870 C   0  0  2  0  0  0  0  0  0  0  0  0
    7.2410    2.9480  -59.6130 C   0  0  0  0  0  0  0  0  0  0  0  0
    7.9220    4.1130  -60.3510 C   0  0  1  0  0  0  0  0  0  0  0  0
    7.9120    5.3590  -59.4500 C   0  0  0  0  0  0  0  0  0  0  0  0
    8.6760    5.0750  -58.1450 C   0  0  2  0  0  0  0  0  0  0  0  0
   10.1240    4.6890  -58.4790 C   0  0  0  0  0  0  0  0  0  0  0  0
   10.1410    3.4370  -59.3710 C   0  0  2  0  0  0  0  0  0  0  0  0
    9.3760    3.7300  -60.6720 C   0  0  0  0  0  0  0  0  0  0  0  0
    9.4510    2.2770  -58.6300 C   0  0  0  0  0  0  0  0  0  0  0  0
    8.0000    3.9090  -57.4020 C   0  0  0  0  0  0  0  0  0  0  0  0
    6.7606   -0.4465  -50.9718 H   0  0  0  0  0  0  0  0  0  0  0  0
    5.9467    0.6931  -52.0968 H   0  0  0  0  0  0  0  0  0  0  0  0
    5.4948   -1.0455  -52.0968 H   0  0  0  0  0  0  0  0  0  0  0  0
    6.0239   -3.5402  -53.3630 H   0  0  0  0  0  0  0  0  0  0  0  0
    5.4752   -5.4023  -51.7979 H   0  0  0  0  0  0  0  0  0  0  0  0
    6.8905   -5.7991  -49.7839 H   0  0  0  0  0  0  0  0  0  0  0  0
    8.8558   -4.3318  -49.3276 H   0  0  0  0  0  0  0  0  0  0  0  0
    9.4095   -2.4665  -50.8878 H   0  0  0  0  0  0  0  0  0  0  0  0
    8.3107   -3.9137  -54.4421 H   0  0  0  0  0  0  0  0  0  0  0  0
    8.8874   -3.0296  -55.9878 H   0  0  0  0  0  0  0  0  0  0  0  0
   11.1048   -3.6277  -54.3233 H   0  0  0  0  0  0  0  0  0  0  0  0
   10.0949   -5.1309  -54.6610 H   0  0  0  0  0  0  0  0  0  0  0  0
   10.2012   -4.2859  -57.1197 H   0  0  0  0  0  0  0  0  0  0  0  0
   11.6858   -3.4144  -56.5090 H   0  0  0  0  0  0  0  0  0  0  0  0
   12.8240   -5.3783  -56.0553 H   0  0  0  0  0  0  0  0  0  0  0  0
   11.2965   -6.3625  -56.0307 H   0  0  0  0  0  0  0  0  0  0  0  0
   13.0629   -6.3295  -58.1128 H   0  0  0  0  0  0  0  0  0  0  0  0
   11.3060   -6.6871  -58.2651 H   0  0  0  0  0  0  0  0  0  0  0  0
   11.4600   -4.0970  -58.2690 H   0  0  0  0  0  0  0  0  0  0  0  0
   10.6236   -1.1874  -55.3738 H   0  0  0  0  0  0  0  0  0  0  0  0
    6.9911    1.3740  -53.5130 H   0  0  0  0  0  0  0  0  0  0  0  0
    8.5530    1.9500  -55.8600 H   0  0  0  0  0  0  0  0  0  0  0  0
    6.3800    1.5140  -57.6210 H   0  0  0  0  0  0  0  0  0  0  0  0
    7.2585    2.0539  -60.2536 H   0  0  0  0  0  0  0  0  0  0  0  0
    6.2026    3.2299  -59.3841 H   0  0  0  0  0  0  0  0  0  0  0  0
    7.3811    4.3268  -61.2847 H   0  0  0  0  0  0  0  0  0  0  0  0
    8.3939    6.1943  -59.9791 H   0  0  0  0  0  0  0  0  0  0  0  0
    6.8711    5.6195  -59.2080 H   0  0  0  0  0  0  0  0  0  0  0  0
    8.6680    5.9731  -57.5100 H   0  0  0  0  0  0  0  0  0  0  0  0
   10.6099    5.5211  -59.0096 H   0  0  0  0  0  0  0  0  0  0  0  0
   10.6656    4.4753  -57.5457 H   0  0  0  0  0  0  0  0  0  0  0  0
   11.1805    3.1637  -59.6049 H   0  0  0  0  0  0  0  0  0  0  0  0
    9.8634    4.5616  -61.2020 H   0  0  0  0  0  0  0  0  0  0  0  0
    9.3815    2.8304  -61.3050 H   0  0  0  0  0  0  0  0  0  0  0  0
    9.4618    1.3826  -59.2703 H   0  0  0  0  0  0  0  0  0  0  0  0
    9.9945    2.0834  -57.6935 H   0  0  0  0  0  0  0  0  0  0  0  0
    8.5574    3.6972  -56.4776 H   0  0  0  0  0  0  0  0  0  0  0  0
    6.9640    4.1920  -57.1641 H   0  0  0  0  0  0  0  0  0  0  0  0
  1  2  1  0
  2  3  2  0
  3  4  1  0
  4  5  2  0
  5  6  1  0
  6  7  2  0
  7  8  1  0
  8  9  2  0
  3 10  1  0
 10 11  1  0
 11 12  1  0
 12 13  1  0
 13 14  1  0
 14 15  1  0
 15 16  1  0
 10 17  2  0
 17 18  1  0
 18 19  2  0
 19 20  1  0
 20 21  1  0
 21 22  2  0
 21 23  1  0
 23 24  1  0
 25 24  1  1
 25 26  1  0
 26 27  1  0
 27 28  1  0
 28 29  1  0
 29 30  1  0
 30 31  1  0
 31 32  1  0
 31 33  1  0
 29 34  1  0
 20  2  1  0
 33 25  1  0
  9  4  1  0
 34 25  1  0
 32 27  1  0
  1 35  1  0
  1 36  1  0
  1 37  1  0
  5 38  1  0
  6 39  1  0
  7 40  1  0
  8 41  1  0
  9 42  1  0
 11 43  1  0
 11 44  1  0
 12 45  1  0
 12 46  1  0
 13 47  1  0
 13 48  1  0
 14 49  1  0
 14 50  1  0
 15 51  1  0
 15 52  1  0
 16 53  1  0
 17 54  1  0
 20 55  1  1
 23 56  1  0
 24 57  1  0
 26 58  1  0
 26 59  1  0
 27 60  1  6
 28 61  1  0
 28 62  1  0
 29 63  1  1
 30 64  1  0
 30 65  1  0
 31 66  1  6
 32 67  1  0
 32 68  1  0
 33 69  1  0
 33 70  1  0
 34 71  1  0
 34 72  1  0
M  END
>  <meeko>  (112) 
{"is_sidechain": false}

$$$$

     RDKit          3D

 38 40  0  0  0  0  0  0  0  0999 V2000
    9.1950    5.3710  -56.7580 C   0  0  0  0  0  0  0  0  0  0  0  0
    9.5070    3.8990  -56.7930 C   0  0  0  0  0  0  0  0  0  0  0  0
   10.3330    3.4040  -56.0290 O   0  0  0  0  0  0  0  0  0  0  0  0
    8.8440    3.1540  -57.7400 N   0  0  0  0  0  0  0  0  0  0  0  0
    9.2430    2.9700  -59.1260 C   0  0  0  0  0  0  0  0  0  0  0  0
    8.2420    1.9690  -59.6810 C   0  0  0  0  0  0  0  0  0  0  0  0
    6.9810    2.2890  -58.8870 C   0  0  0  0  0  0  0  0  0  0  0  0
    7.5210    2.6170  -57.4890 C   0  0  1  0  0  0  0  0  0  0  0  0
    7.6420    1.4550  -56.6500 N   0  0  0  0  0  0  0  0  0  0  0  0
    6.5730    1.0310  -55.8950 C   0  0  0  0  0  0  0  0  0  0  0  0
    5.4220    1.4220  -56.0180 O   0  0  0  0  0  0  0  0  0  0  0  0
    6.9020    0.0280  -54.8670 C   0  0  0  0  0  0  0  0  0  0  0  0
    6.1710   -0.5570  -53.9610 N   0  0  0  0  0  0  0  0  0  0  0  0
    7.2760   -1.2550  -53.5420 N   0  0  0  0  0  0  0  0  0  0  0  0
    7.3630   -2.1870  -52.5250 C   0  0  0  0  0  0  0  0  0  0  0  0
    6.9370   -3.5030  -52.7360 C   0  0  0  0  0  0  0  0  0  0  0  0
    7.0260   -4.4440  -51.7070 C   0  0  0  0  0  0  0  0  0  0  0  0
    7.5400   -4.0750  -50.4650 C   0  0  0  0  0  0  0  0  0  0  0  0
    7.9670   -2.7660  -50.2480 C   0  0  0  0  0  0  0  0  0  0  0  0
    7.8790   -1.8250  -51.2760 C   0  0  0  0  0  0  0  0  0  0  0  0
    8.0870   -0.7040  -54.4420 C   0  0  0  0  0  0  0  0  0  0  0  0
    9.2120   -0.6930  -54.8470 O   0  0  0  0  0  0  0  0  0  0  0  0
    9.1240    5.7060  -55.7127 H   0  0  0  0  0  0  0  0  0  0  0  0
    9.9951    5.9276  -57.2679 H   0  0  0  0  0  0  0  0  0  0  0  0
    8.2379    5.5552  -57.2679 H   0  0  0  0  0  0  0  0  0  0  0  0
    9.1875    3.9210  -59.6760 H   0  0  0  0  0  0  0  0  0  0  0  0
   10.2812    2.6186  -59.2191 H   0  0  0  0  0  0  0  0  0  0  0  0
    8.0828    2.1218  -60.7586 H   0  0  0  0  0  0  0  0  0  0  0  0
    8.5679    0.9229  -59.5837 H   0  0  0  0  0  0  0  0  0  0  0  0
    6.4518    3.1517  -59.3179 H   0  0  0  0  0  0  0  0  0  0  0  0
    6.2515    1.4657  -58.8855 H   0  0  0  0  0  0  0  0  0  0  0  0
    6.8420    3.3029  -56.9613 H   0  0  0  0  0  0  0  0  0  0  0  0
    8.5810    1.2600  -56.3220 H   0  0  0  0  0  0  0  0  0  0  0  0
    6.5308   -3.7976  -53.7149 H   0  0  0  0  0  0  0  0  0  0  0  0
    6.6900   -5.4775  -51.8773 H   0  0  0  0  0  0  0  0  0  0  0  0
    7.6087   -4.8170  -49.6559 H   0  0  0  0  0  0  0  0  0  0  0  0
    8.3729   -2.4745  -49.2680 H   0  0  0  0  0  0  0  0  0  0  0  0
    8.2175   -0.7928  -51.1027 H   0  0  0  0  0  0  0  0  0  0  0  0
  1  2  1  0
  2  3  2  0
  2  4  1  0
  4  5  1  0
  5  6  1  0
  6  7  1  0
  7  8  1  0
  8  9  1  0
  9 10  1  0
 10 11  2  0
 10 12  1  0
 12 13  2  0
 13 14  1  0
 14 15  1  0
 15 16  2  0
 16 17  1  0
 17 18  2  0
 18 19  1  0
 19 20  2  0
 14 21  1  0
 21 22  2  0
  8  4  1  0
 21 12  1  0
 20 15  1  0
  1 23  1  0
  1 24  1  0
  1 25  1  0
  5 26  1  0
  5 27  1  0
  6 28  1  0
  6 29  1  0
  7 30  1  0
  7 31  1  0
  8 32  1  1
  9 33  1  0
 16 34  1  0
 17 35  1  0
 18 36  1  0
 19 37  1  0
 20 38  1  0
M  END
>  <meeko>  (113) 
{"is_sidechain": false}

$$$$

     RDKit          3D

 54 56  0  0  0  0  0  0  0  0999 V2000
    7.6060    1.8970  -58.9840 C   0  0  0  0  0  0  0  0  0  0  0  0
    8.6590    2.6530  -58.2480 C   0  0  0  0  0  0  0  0  0  0  0  0
    9.1510    2.3400  -56.9430 C   0  0  0  0  0  0  0  0  0  0  0  0
    8.6940    1.2560  -56.0370 C   0  0  0  0  0  0  0  0  0  0  0  0
    7.5240    1.1870  -55.6900 O   0  0  0  0  0  0  0  0  0  0  0  0
    9.7320    0.4220  -55.6690 N   0  0  0  0  0  0  0  0  0  0  0  0
    9.7000   -0.7130  -54.8330 C   0  0  0  0  0  0  0  0  0  0  0  0
    8.8860   -0.7630  -53.6920 C   0  0  0  0  0  0  0  0  0  0  0  0
    8.8820   -1.8800  -52.8520 C   0  0  0  0  0  0  0  0  0  0  0  0
    9.6950   -2.9690  -53.1340 C   0  0  0  0  0  0  0  0  0  0  0  0
   10.5020   -2.9540  -54.2730 C   0  0  0  0  0  0  0  0  0  0  0  0
   10.5040   -1.8330  -55.1390 C   0  0  0  0  0  0  0  0  0  0  0  0
   11.4570   -1.9180  -56.3100 C   0  0  0  0  0  0  0  0  0  0  0  0
   11.3980   -3.2860  -56.9970 C   0  0  0  0  0  0  0  0  0  0  0  0
   11.3810   -4.4840  -56.0430 C   0  0  0  0  0  0  0  0  0  0  0  0
   11.4290   -4.1070  -54.5660 C   0  0  0  0  0  0  0  0  0  0  0  0
   10.1290    3.1980  -56.5910 N   0  0  0  0  0  0  0  0  0  0  0  0
   10.3180    3.9730  -57.6700 N   0  0  0  0  0  0  0  0  0  0  0  0
   11.4730    4.8710  -57.6680 C   0  0  0  0  0  0  0  0  0  0  0  0
   12.8000    4.1640  -58.0090 C   0  0  0  0  0  0  0  0  0  0  0  0
   13.3970    4.6470  -59.3230 C   0  0  0  0  0  0  0  0  0  0  0  0
   12.8310    5.9750  -59.6690 N   0  0  0  0  0  0  0  0  0  0  0  0
    9.3500    3.7980  -58.6350 C   0  0  0  0  0  0  0  0  0  0  0  0
    9.1760    4.6580  -59.8310 C   0  0  0  0  0  0  0  0  0  0  0  0
    9.9880    4.1590  -60.9620 N   0  0  0  0  0  0  0  0  0  0  0  0
    6.9310    1.4124  -58.2632 H   0  0  0  0  0  0  0  0  0  0  0  0
    7.0312    2.5899  -59.6160 H   0  0  0  0  0  0  0  0  0  0  0  0
    8.0788    1.1308  -59.6160 H   0  0  0  0  0  0  0  0  0  0  0  0
   10.6230    0.7180  -56.0400 H   0  0  0  0  0  0  0  0  0  0  0  0
    8.2382    0.0935  -53.4536 H   0  0  0  0  0  0  0  0  0  0  0  0
    8.2324   -1.8961  -51.9645 H   0  0  0  0  0  0  0  0  0  0  0  0
    9.7034   -3.8404  -52.4627 H   0  0  0  0  0  0  0  0  0  0  0  0
   11.1913   -1.1409  -57.0418 H   0  0  0  0  0  0  0  0  0  0  0  0
   12.4786   -1.7718  -55.9292 H   0  0  0  0  0  0  0  0  0  0  0  0
   10.4844   -3.3226  -57.6085 H   0  0  0  0  0  0  0  0  0  0  0  0
   12.3207   -3.3750  -57.5892 H   0  0  0  0  0  0  0  0  0  0  0  0
   10.4587   -5.0557  -56.2234 H   0  0  0  0  0  0  0  0  0  0  0  0
   12.2907   -5.0666  -56.2505 H   0  0  0  0  0  0  0  0  0  0  0  0
   11.1252   -4.9753  -53.9629 H   0  0  0  0  0  0  0  0  0  0  0  0
   12.4561   -3.8040  -54.3144 H   0  0  0  0  0  0  0  0  0  0  0  0
   11.2995    5.6636  -58.4108 H   0  0  0  0  0  0  0  0  0  0  0  0
   11.5713    5.2707  -56.6479 H   0  0  0  0  0  0  0  0  0  0  0  0
   13.5210    4.3585  -57.2014 H   0  0  0  0  0  0  0  0  0  0  0  0
   12.5891    3.0894  -58.1128 H   0  0  0  0  0  0  0  0  0  0  0  0
   14.4890    4.7300  -59.2203 H   0  0  0  0  0  0  0  0  0  0  0  0
   13.1556    3.9282  -60.1199 H   0  0  0  0  0  0  0  0  0  0  0  0
   12.5470    6.4970  -58.8260 H   0  0  0  0  0  0  0  0  0  0  0  0
   13.5070    6.5740  -60.1660 H   0  0  0  0  0  0  0  0  0  0  0  0
   11.9940    5.9080  -60.2660 H   0  0  0  0  0  0  0  0  0  0  0  0
    8.1153    4.6597  -60.1222 H   0  0  0  0  0  0  0  0  0  0  0  0
    9.5076    5.6770  -59.5826 H   0  0  0  0  0  0  0  0  0  0  0  0
   10.9780    4.4250  -60.8760 H   0  0  0  0  0  0  0  0  0  0  0  0
    9.6410    4.5100  -61.8630 H   0  0  0  0  0  0  0  0  0  0  0  0
    9.9580    3.1340  -61.0170 H   0  0  0  0  0  0  0  0  0  0  0  0
  1  2  1  0
  2  3  1  0
  3  4  1  0
  4  5  2  0
  4  6  1  0
  6  7  1  0
  7  8  1  0
  8  9  2  0
  9 10  1  0
 10 11  2  0
 11 12  1  0
 12 13  1  0
 13 14  1  0
 14 15  1  0
 15 16  1  0
  3 17  2  0
 17 18  1  0
 18 19  1  0
 19 20  1  0
 20 21  1  0
 21 22  1  0
 18 23  1  0
 23 24  1  0
 24 25  1  0
 23  2  2  0
 12  7  2  0
 16 11  1  0
  1 26  1  0
  1 27  1  0
  1 28  1  0
  6 29  1  0
  8 30  1  0
  9 31  1  0
 10 32  1  0
 13 33  1  0
 13 34  1  0
 14 35  1  0
 14 36  1  0
 15 37  1  0
 15 38  1  0
 16 39  1  0
 16 40  1  0
 19 41  1  0
 19 42  1  0
 20 43  1  0
 20 44  1  0
 21 45  1  0
 21 46  1  0
 22 47  1  0
 22 48  1  0
 22 49  1  0
 24 50  1  0
 24 51  1  0
 25 52  1  0
 25 53  1  0
 25 54  1  0
M  CHG  2  22   1  25   1
M  END
>  <meeko>  (114) 
{"is_sidechain": false}

$$$$

     RDKit          3D

 52 55  0  0  0  0  0  0  0  0999 V2000
    8.5810    4.7590  -59.0740 O   0  0  0  0  0  0  0  0  0  0  0  0
    9.5550    4.3140  -58.4630 C   0  0  0  0  0  0  0  0  0  0  0  0
    9.3760    3.2700  -57.4310 C   0  0  0  0  0  0  0  0  0  0  0  0
   10.2860    3.0570  -56.4540 N   0  0  0  0  0  0  0  0  0  0  0  0
    9.7360    2.0950  -55.6960 N   0  0  0  0  0  0  0  0  0  0  0  0
    8.5280    1.6540  -56.1440 C   0  0  0  0  0  0  0  0  0  0  0  0
    7.7640    0.6460  -55.5010 C   0  0  0  0  0  0  0  0  0  0  0  0
    7.0950   -0.1990  -54.9700 C   0  0  0  0  0  0  0  0  0  0  0  0
    6.3050   -1.2540  -54.3040 C   0  0  0  0  0  0  0  0  0  0  0  0
    6.9010   -2.6480  -54.5770 C   0  0  0  0  0  0  0  0  0  0  0  0
    7.7550   -3.2030  -53.4300 C   0  0  0  0  0  0  0  0  0  0  0  0
    8.4900   -2.1050  -52.6770 C   0  0  0  0  0  0  0  0  0  0  0  0
    7.5250   -1.0940  -52.0570 C   0  0  0  0  0  0  0  0  0  0  0  0
    6.1900   -0.9770  -52.8020 C   0  0  0  0  0  0  0  0  0  0  0  0
    8.2490    2.4010  -57.2710 C   0  0  0  0  0  0  0  0  0  0  0  0
    7.0480    2.2530  -58.0700 C   0  0  0  0  0  0  0  0  0  0  0  0
    5.8220    2.7420  -57.6050 C   0  0  0  0  0  0  0  0  0  0  0  0
    4.6660    2.5900  -58.3730 C   0  0  0  0  0  0  0  0  0  0  0  0
    4.7270    1.9460  -59.6080 C   0  0  0  0  0  0  0  0  0  0  0  0
    5.9440    1.4580  -60.0800 C   0  0  0  0  0  0  0  0  0  0  0  0
    7.1010    1.6100  -59.3140 C   0  0  0  0  0  0  0  0  0  0  0  0
   10.8480    4.7860  -58.7380 N   0  0  0  0  0  0  0  0  0  0  0  0
   10.9650    6.0560  -59.4550 C   0  0  0  0  0  0  0  0  0  0  0  0
   12.2800    6.1620  -60.2270 C   0  0  0  0  0  0  0  0  0  0  0  0
   13.4030    5.9090  -59.3710 O   0  0  0  0  0  0  0  0  0  0  0  0
   13.3230    4.5820  -58.8370 C   0  0  0  0  0  0  0  0  0  0  0  0
   12.0520    4.3820  -58.0050 C   0  0  0  0  0  0  0  0  0  0  0  0
   10.2390    1.7780  -54.8750 H   0  0  0  0  0  0  0  0  0  0  0  0
    5.2895   -1.2424  -54.7266 H   0  0  0  0  0  0  0  0  0  0  0  0
    6.0721   -3.3477  -54.7596 H   0  0  0  0  0  0  0  0  0  0  0  0
    7.5685   -2.5417  -55.4449 H   0  0  0  0  0  0  0  0  0  0  0  0
    7.0993   -3.7370  -52.7265 H   0  0  0  0  0  0  0  0  0  0  0  0
    8.5083   -3.8762  -53.8653 H   0  0  0  0  0  0  0  0  0  0  0  0
    9.0886   -2.5628  -51.8757 H   0  0  0  0  0  0  0  0  0  0  0  0
    9.1300   -1.5698  -53.3939 H   0  0  0  0  0  0  0  0  0  0  0  0
    7.3186   -1.4015  -51.0212 H   0  0  0  0  0  0  0  0  0  0  0  0
    8.0117   -0.1092  -52.1142 H   0  0  0  0  0  0  0  0  0  0  0  0
    5.4837   -1.6996  -52.3673 H   0  0  0  0  0  0  0  0  0  0  0  0
    5.8450    0.0614  -52.6889 H   0  0  0  0  0  0  0  0  0  0  0  0
    5.7689    3.2484  -56.6300 H   0  0  0  0  0  0  0  0  0  0  0  0
    3.7058    2.9789  -58.0032 H   0  0  0  0  0  0  0  0  0  0  0  0
    3.8145    1.8231  -60.2099 H   0  0  0  0  0  0  0  0  0  0  0  0
    5.9929    0.9531  -61.0561 H   0  0  0  0  0  0  0  0  0  0  0  0
    8.0599    1.2228  -59.6890 H   0  0  0  0  0  0  0  0  0  0  0  0
   10.1291    6.1406  -60.1651 H   0  0  0  0  0  0  0  0  0  0  0  0
   10.9420    6.8673  -58.7125 H   0  0  0  0  0  0  0  0  0  0  0  0
   12.2776    5.4251  -61.0437 H   0  0  0  0  0  0  0  0  0  0  0  0
   12.3688    7.1826  -60.6275 H   0  0  0  0  0  0  0  0  0  0  0  0
   13.3215    3.8624  -59.6689 H   0  0  0  0  0  0  0  0  0  0  0  0
   14.1913    4.4235  -58.1805 H   0  0  0  0  0  0  0  0  0  0  0  0
   11.9655    3.3183  -57.7383 H   0  0  0  0  0  0  0  0  0  0  0  0
   12.1308    5.0117  -57.1065 H   0  0  0  0  0  0  0  0  0  0  0  0
  1  2  2  0
  2  3  1  0
  3  4  2  0
  4  5  1  0
  5  6  1  0
  6  7  1  0
  7  8  3  0
  8  9  1  0
  9 10  1  0
 10 11  1  0
 11 12  1  0
 12 13  1  0
 13 14  1  0
  6 15  2  0
 15 16  1  0
 16 17  2  0
 17 18  1  0
 18 19  2  0
 19 20  1  0
 20 21  2  0
  2 22  1  0
 22 23  1  0
 23 24  1  0
 24 25  1  0
 25 26  1  0
 26 27  1  0
 15  3  1  0
 21 16  1  0
 27 22  1  0
 14  9  1  0
  5 28  1  0
  9 29  1  0
 10 30  1  0
 10 31  1  0
 11 32  1  0
 11 33  1  0
 12 34  1  0
 12 35  1  0
 13 36  1  0
 13 37  1  0
 14 38  1  0
 14 39  1  0
 17 40  1  0
 18 41  1  0
 19 42  1  0
 20 43  1  0
 21 44  1  0
 23 45  1  0
 23 46  1  0
 24 47  1  0
 24 48  1  0
 26 49  1  0
 26 50  1  0
 27 51  1  0
 27 52  1  0
M  END
>  <meeko>  (115) 
{"is_sidechain": false}

$$$$

     RDKit          3D

 52 55  0  0  0  0  0  0  0  0999 V2000
    8.7170    5.2350  -58.7120 O   0  0  0  0  0  0  0  0  0  0  0  0
    9.6830    4.6000  -58.2940 C   0  0  0  0  0  0  0  0  0  0  0  0
    9.4900    3.5440  -57.3370 C   0  0  0  0  0  0  0  0  0  0  0  0
   10.2970    3.4260  -56.2360 N   0  0  0  0  0  0  0  0  0  0  0  0
   10.0190    2.3690  -55.4570 N   0  0  0  0  0  0  0  0  0  0  0  0
    8.9170    1.8630  -56.0140 C   0  0  0  0  0  0  0  0  0  0  0  0
    8.2930    0.7500  -55.3800 C   0  0  0  0  0  0  0  0  0  0  0  0
    7.7410   -0.1910  -54.8760 C   0  0  0  0  0  0  0  0  0  0  0  0
    7.0870   -1.3590  -54.2550 C   0  0  0  0  0  0  0  0  0  0  0  0
    7.8360   -2.6560  -54.6200 C   0  0  0  0  0  0  0  0  0  0  0  0
    8.8800   -3.0270  -53.5710 C   0  0  0  0  0  0  0  0  0  0  0  0
    8.2470   -3.2620  -52.1980 C   0  0  0  0  0  0  0  0  0  0  0  0
    6.9570   -2.4700  -51.9770 C   0  0  0  0  0  0  0  0  0  0  0  0
    6.9710   -1.1480  -52.7340 C   0  0  0  0  0  0  0  0  0  0  0  0
    8.5160    2.5630  -57.1800 C   0  0  0  0  0  0  0  0  0  0  0  0
    7.3560    2.3760  -58.0370 C   0  0  0  0  0  0  0  0  0  0  0  0
    7.5000    1.8980  -59.3460 C   0  0  0  0  0  0  0  0  0  0  0  0
    6.3790    1.7100  -60.1580 C   0  0  0  0  0  0  0  0  0  0  0  0
    5.1070    2.0040  -59.6720 C   0  0  0  0  0  0  0  0  0  0  0  0
    4.9530    2.4900  -58.3750 C   0  0  0  0  0  0  0  0  0  0  0  0
    6.0720    2.6760  -57.5610 C   0  0  0  0  0  0  0  0  0  0  0  0
   10.9740    4.8990  -58.7110 N   0  0  0  0  0  0  0  0  0  0  0  0
   12.2190    4.4580  -58.0710 C   0  0  0  0  0  0  0  0  0  0  0  0
   13.3230    4.2960  -59.1200 C   0  0  0  0  0  0  0  0  0  0  0  0
   13.6100    5.5000  -59.8480 O   0  0  0  0  0  0  0  0  0  0  0  0
   12.5480    6.4640  -59.8300 C   0  0  0  0  0  0  0  0  0  0  0  0
   11.1520    5.8320  -59.8260 C   0  0  0  0  0  0  0  0  0  0  0  0
   11.0690    4.0320  -55.9780 H   0  0  0  0  0  0  0  0  0  0  0  0
    6.0656   -1.4633  -54.6499 H   0  0  0  0  0  0  0  0  0  0  0  0
    7.1074   -3.4760  -54.7016 H   0  0  0  0  0  0  0  0  0  0  0  0
    8.3570   -2.4906  -55.5746 H   0  0  0  0  0  0  0  0  0  0  0  0
    9.3929   -3.9468  -53.8888 H   0  0  0  0  0  0  0  0  0  0  0  0
    9.5882   -2.1900  -53.4824 H   0  0  0  0  0  0  0  0  0  0  0  0
    8.0190   -4.3335  -52.0985 H   0  0  0  0  0  0  0  0  0  0  0  0
    8.9710   -2.9177  -51.4448 H   0  0  0  0  0  0  0  0  0  0  0  0
    6.1050   -3.0718  -52.3261 H   0  0  0  0  0  0  0  0  0  0  0  0
    6.8698   -2.2493  -50.9029 H   0  0  0  0  0  0  0  0  0  0  0  0
    6.0381   -0.6058  -52.5202 H   0  0  0  0  0  0  0  0  0  0  0  0
    7.8483   -0.5737  -52.4014 H   0  0  0  0  0  0  0  0  0  0  0  0
    8.5024    1.6692  -59.7370 H   0  0  0  0  0  0  0  0  0  0  0  0
    6.5009    1.3292  -61.1828 H   0  0  0  0  0  0  0  0  0  0  0  0
    4.2249    1.8527  -60.3115 H   0  0  0  0  0  0  0  0  0  0  0  0
    3.9493    2.7272  -57.9924 H   0  0  0  0  0  0  0  0  0  0  0  0
    5.9451    3.0609  -56.5384 H   0  0  0  0  0  0  0  0  0  0  0  0
   12.5307    5.2066  -57.3278 H   0  0  0  0  0  0  0  0  0  0  0  0
   12.0465    3.4897  -57.5783 H   0  0  0  0  0  0  0  0  0  0  0  0
   14.2418    3.9716  -58.6096 H   0  0  0  0  0  0  0  0  0  0  0  0
   12.9650    3.5563  -59.8512 H   0  0  0  0  0  0  0  0  0  0  0  0
   12.6535    7.0821  -58.9262 H   0  0  0  0  0  0  0  0  0  0  0  0
   12.6329    7.0577  -60.7521 H   0  0  0  0  0  0  0  0  0  0  0  0
   10.4008    6.6313  -59.7433 H   0  0  0  0  0  0  0  0  0  0  0  0
   11.0323    5.2679  -60.7627 H   0  0  0  0  0  0  0  0  0  0  0  0
  1  2  2  0
  2  3  1  0
  3  4  1  0
  4  5  1  0
  5  6  2  0
  6  7  1  0
  7  8  3  0
  8  9  1  0
  9 10  1  0
 10 11  1  0
 11 12  1  0
 12 13  1  0
 13 14  1  0
  6 15  1  0
 15 16  1  0
 16 17  2  0
 17 18  1  0
 18 19  2  0
 19 20  1  0
 20 21  2  0
  2 22  1  0
 22 23  1  0
 23 24  1  0
 24 25  1  0
 25 26  1  0
 26 27  1  0
 15  3  2  0
 21 16  1  0
 27 22  1  0
 14  9  1  0
  4 28  1  0
  9 29  1  0
 10 30  1  0
 10 31  1  0
 11 32  1  0
 11 33  1  0
 12 34  1  0
 12 35  1  0
 13 36  1  0
 13 37  1  0
 14 38  1  0
 14 39  1  0
 17 40  1  0
 18 41  1  0
 19 42  1  0
 20 43  1  0
 21 44  1  0
 23 45  1  0
 23 46  1  0
 24 47  1  0
 24 48  1  0
 26 49  1  0
 26 50  1  0
 27 51  1  0
 27 52  1  0
M  END
>  <meeko>  (116) 
{"is_sidechain": false}

$$$$

     RDKit          3D

 56 60  0  0  0  0  0  0  0  0999 V2000
    9.0520   -2.6200  -51.9570 C   0  0  0  0  0  0  0  0  0  0  0  0
    8.5410   -1.6250  -52.9570 C   0  0  0  0  0  0  0  0  0  0  0  0
    7.3950   -0.8760  -52.6520 C   0  0  0  0  0  0  0  0  0  0  0  0
    6.9020    0.0550  -53.5600 C   0  0  0  0  0  0  0  0  0  0  0  0
    7.5700    0.2160  -54.7650 C   0  0  0  0  0  0  0  0  0  0  0  0
    7.0580    1.2040  -55.7710 C   0  0  0  0  0  0  0  0  0  0  0  0
    5.8560    1.4370  -55.8500 O   0  0  0  0  0  0  0  0  0  0  0  0
    8.0640    1.7530  -56.5540 N   0  0  0  0  0  0  0  0  0  0  0  0
    7.9110    2.5600  -57.6480 N   0  0  0  0  0  0  0  0  0  0  0  0
    8.8470    2.5910  -58.5340 C   0  0  0  0  0  0  0  0  0  0  0  0
    8.6560    3.5140  -59.6730 C   0  0  0  0  0  0  0  0  0  0  0  0
    9.7640    4.4600  -60.0690 C   0  0  0  0  0  0  0  0  0  0  0  0
    9.4250    3.2970  -60.9550 C   0  0  0  0  0  0  0  0  0  0  0  0
    8.6850   -0.4840  -55.1110 N   0  0  0  0  0  0  0  0  0  0  0  0
    9.1500   -1.3920  -54.1970 C   0  0  0  0  0  0  0  0  0  0  0  0
   10.3960   -2.1290  -54.6460 C   0  0  0  0  0  0  0  0  0  0  0  0
   11.4990   -1.9110  -54.1650 O   0  0  0  0  0  0  0  0  0  0  0  0
   10.1630   -3.0570  -55.6430 N   0  0  0  0  0  0  0  0  0  0  0  0
   11.1690   -3.9040  -56.2820 C   0  0  2  0  0  0  0  0  0  0  0  0
   12.0240   -4.6630  -55.2370 C   0  0  0  0  0  0  0  0  0  0  0  0
   13.0410   -5.5830  -55.9360 C   0  0  1  0  0  0  0  0  0  0  0  0
   12.2890   -6.6080  -56.7990 C   0  0  0  0  0  0  0  0  0  0  0  0
   11.4470   -5.8830  -57.8600 C   0  0  2  0  0  0  0  0  0  0  0  0
   12.3690   -5.0380  -58.7540 C   0  0  0  0  0  0  0  0  0  0  0  0
   13.1210   -4.0040  -57.9010 C   0  0  2  0  0  0  0  0  0  0  0  0
   13.9560   -4.7350  -56.8360 C   0  0  0  0  0  0  0  0  0  0  0  0
   12.1060   -3.0830  -57.2030 C   0  0  0  0  0  0  0  0  0  0  0  0
   10.4400   -4.9580  -57.1580 C   0  0  0  0  0  0  0  0  0  0  0  0
    8.8611   -2.2483  -50.9395 H   0  0  0  0  0  0  0  0  0  0  0  0
    8.5358   -3.5809  -52.0992 H   0  0  0  0  0  0  0  0  0  0  0  0
   10.1337   -2.7603  -52.0992 H   0  0  0  0  0  0  0  0  0  0  0  0
    6.8836   -1.0257  -51.6897 H   0  0  0  0  0  0  0  0  0  0  0  0
    6.0053    0.6485  -53.3285 H   0  0  0  0  0  0  0  0  0  0  0  0
    8.9790    1.3140  -56.4770 H   0  0  0  0  0  0  0  0  0  0  0  0
    9.7445    1.9610  -58.4467 H   0  0  0  0  0  0  0  0  0  0  0  0
    7.5937    3.6235  -59.4094 H   0  0  0  0  0  0  0  0  0  0  0  0
    9.5233    5.4840  -60.3905 H   0  0  0  0  0  0  0  0  0  0  0  0
   10.6818    4.8264  -59.5859 H   0  0  0  0  0  0  0  0  0  0  0  0
    8.9359    3.4695  -61.9251 H   0  0  0  0  0  0  0  0  0  0  0  0
    9.9916    2.4598  -61.3887 H   0  0  0  0  0  0  0  0  0  0  0  0
    9.2010   -3.1120  -55.9620 H   0  0  0  0  0  0  0  0  0  0  0  0
   12.5637   -3.9349  -54.6136 H   0  0  0  0  0  0  0  0  0  0  0  0
   11.3588   -5.2781  -54.6132 H   0  0  0  0  0  0  0  0  0  0  0  0
   13.6457   -6.1078  -55.1817 H   0  0  0  0  0  0  0  0  0  0  0  0
   13.0149   -7.2671  -57.2977 H   0  0  0  0  0  0  0  0  0  0  0  0
   11.6249   -7.2042  -56.1559 H   0  0  0  0  0  0  0  0  0  0  0  0
   10.9116   -6.6215  -58.4749 H   0  0  0  0  0  0  0  0  0  0  0  0
   13.0952   -5.6958  -59.2539 H   0  0  0  0  0  0  0  0  0  0  0  0
   11.7622   -4.5137  -59.5069 H   0  0  0  0  0  0  0  0  0  0  0  0
   13.7818   -3.4055  -58.5453 H   0  0  0  0  0  0  0  0  0  0  0  0
   14.6860   -5.3907  -57.3332 H   0  0  0  0  0  0  0  0  0  0  0  0
   14.4803   -3.9917  -56.2174 H   0  0  0  0  0  0  0  0  0  0  0  0
   12.6475   -2.3405  -56.5985 H   0  0  0  0  0  0  0  0  0  0  0  0
   11.4983   -2.5793  -57.9692 H   0  0  0  0  0  0  0  0  0  0  0  0
    9.8377   -4.4392  -57.9183 H   0  0  0  0  0  0  0  0  0  0  0  0
    9.7970   -5.5694  -56.5079 H   0  0  0  0  0  0  0  0  0  0  0  0
  1  2  1  0
  2  3  1  0
  3  4  2  0
  4  5  1  0
  5  6  1  0
  6  7  2  0
  6  8  1  0
  8  9  1  0
  9 10  2  0
 10 11  1  0
 11 12  1  0
 12 13  1  0
  5 14  2  0
 14 15  1  0
 15 16  1  0
 16 17  2  0
 16 18  1  0
 19 18  1  1
 19 20  1  0
 20 21  1  0
 21 22  1  0
 22 23  1  0
 23 24  1  0
 24 25  1  0
 25 26  1  0
 25 27  1  0
 23 28  1  0
 15  2  2  0
 27 19  1  0
 13 11  1  0
 28 19  1  0
 26 21  1  0
  1 29  1  0
  1 30  1  0
  1 31  1  0
  3 32  1  0
  4 33  1  0
  8 34  1  0
 10 35  1  0
 11 36  1  0
 12 37  1  0
 12 38  1  0
 13 39  1  0
 13 40  1  0
 18 41  1  0
 20 42  1  0
 20 43  1  0
 21 44  1  1
 22 45  1  0
 22 46  1  0
 23 47  1  6
 24 48  1  0
 24 49  1  0
 25 50  1  6
 26 51  1  0
 26 52  1  0
 27 53  1  0
 27 54  1  0
 28 55  1  0
 28 56  1  0
M  END
>  <meeko>  (117) 
{"is_sidechain": false}

$$$$

     RDKit          3D

 56 60  0  0  0  0  0  0  0  0999 V2000
    5.9290    1.0080  -55.5430 C   0  0  0  0  0  0  0  0  0  0  0  0
    6.9870    0.0210  -55.1470 C   0  0  0  0  0  0  0  0  0  0  0  0
    6.6050   -1.1950  -54.5630 C   0  0  0  0  0  0  0  0  0  0  0  0
    7.5670   -2.1270  -54.1880 C   0  0  0  0  0  0  0  0  0  0  0  0
    8.9010   -1.8180  -54.4100 C   0  0  0  0  0  0  0  0  0  0  0  0
    9.9610   -2.7860  -53.9900 C   0  0  0  0  0  0  0  0  0  0  0  0
   10.4540   -2.7650  -52.8650 O   0  0  0  0  0  0  0  0  0  0  0  0
   10.3370   -3.6760  -54.9800 N   0  0  0  0  0  0  0  0  0  0  0  0
   11.5110   -4.4080  -54.7910 N   0  0  0  0  0  0  0  0  0  0  0  0
   12.0720   -5.1280  -55.8200 C   0  0  0  0  0  0  0  0  0  0  0  0
   12.1620   -4.8310  -57.1000 C   0  0  0  0  0  0  0  0  0  0  0  0
   12.6170   -5.2570  -58.3640 C   0  0  0  0  0  0  0  0  0  0  0  0
   11.8790   -3.8990  -58.1180 C   0  0  0  0  0  0  0  0  0  0  0  0
    9.3260   -0.6570  -54.9750 N   0  0  0  0  0  0  0  0  0  0  0  0
    8.3570    0.2440  -55.3300 C   0  0  0  0  0  0  0  0  0  0  0  0
    8.9050    1.5140  -55.9460 C   0  0  0  0  0  0  0  0  0  0  0  0
    9.6830    2.2500  -55.3560 O   0  0  0  0  0  0  0  0  0  0  0  0
    8.4430    1.7500  -57.2270 N   0  0  0  0  0  0  0  0  0  0  0  0
    8.8110    2.8800  -58.0790 C   0  0  2  0  0  0  0  0  0  0  0  0
    7.8530    2.9090  -59.2990 C   0  0  0  0  0  0  0  0  0  0  0  0
    8.1920    4.0750  -60.2400 C   0  0  1  0  0  0  0  0  0  0  0  0
    8.0620    5.3980  -59.4700 C   0  0  0  0  0  0  0  0  0  0  0  0
    9.0220    5.4020  -58.2700 C   0  0  2  0  0  0  0  0  0  0  0  0
   10.4650    5.2350  -58.7740 C   0  0  0  0  0  0  0  0  0  0  0  0
   10.6060    3.9120  -59.5460 C   0  0  2  0  0  0  0  0  0  0  0  0
    9.6370    3.9160  -60.7390 C   0  0  0  0  0  0  0  0  0  0  0  0
   10.2590    2.7400  -58.6120 C   0  0  0  0  0  0  0  0  0  0  0  0
    8.6720    4.2310  -57.3340 C   0  0  0  0  0  0  0  0  0  0  0  0
    5.4702    1.4360  -54.6395 H   0  0  0  0  0  0  0  0  0  0  0  0
    6.3832    1.8126  -56.1399 H   0  0  0  0  0  0  0  0  0  0  0  0
    5.1578    0.4991  -56.1399 H   0  0  0  0  0  0  0  0  0  0  0  0
    5.5391   -1.4131  -54.4005 H   0  0  0  0  0  0  0  0  0  0  0  0
    7.2778   -3.0833  -53.7278 H   0  0  0  0  0  0  0  0  0  0  0  0
   10.0240   -3.5300  -55.9360 H   0  0  0  0  0  0  0  0  0  0  0  0
   12.2010   -3.8820  -54.2390 H   0  0  0  0  0  0  0  0  0  0  0  0
   12.5102   -6.0947  -55.5312 H   0  0  0  0  0  0  0  0  0  0  0  0
   13.6923   -5.2763  -58.5949 H   0  0  0  0  0  0  0  0  0  0  0  0
   12.4771   -6.1372  -59.0087 H   0  0  0  0  0  0  0  0  0  0  0  0
   12.4261   -2.9463  -58.1730 H   0  0  0  0  0  0  0  0  0  0  0  0
   10.9854   -3.3925  -58.5117 H   0  0  0  0  0  0  0  0  0  0  0  0
    7.8060    1.0480  -57.5880 H   0  0  0  0  0  0  0  0  0  0  0  0
    7.9461    1.9625  -59.8516 H   0  0  0  0  0  0  0  0  0  0  0  0
    6.8244    3.0429  -58.9328 H   0  0  0  0  0  0  0  0  0  0  0  0
    7.5025    4.0764  -61.0971 H   0  0  0  0  0  0  0  0  0  0  0  0
    8.3109    6.2351  -60.1388 H   0  0  0  0  0  0  0  0  0  0  0  0
    7.0291    5.5057  -59.1075 H   0  0  0  0  0  0  0  0  0  0  0  0
    8.9278    6.3524  -57.7243 H   0  0  0  0  0  0  0  0  0  0  0  0
   10.7170    6.0734  -59.4400 H   0  0  0  0  0  0  0  0  0  0  0  0
   11.1481    5.2231  -57.9119 H   0  0  0  0  0  0  0  0  0  0  0  0
   11.6387    3.8022  -59.9087 H   0  0  0  0  0  0  0  0  0  0  0  0
    9.8858    4.7530  -61.4080 H   0  0  0  0  0  0  0  0  0  0  0  0
    9.7292    2.9644  -61.2831 H   0  0  0  0  0  0  0  0  0  0  0  0
   10.3502    1.7951  -59.1678 H   0  0  0  0  0  0  0  0  0  0  0  0
   10.9538    2.7474  -57.7593 H   0  0  0  0  0  0  0  0  0  0  0  0
    9.3547    4.2406  -56.4715 H   0  0  0  0  0  0  0  0  0  0  0  0
    7.6315    4.3450  -56.9957 H   0  0  0  0  0  0  0  0  0  0  0  0
  1  2  1  0
  2  3  1  0
  3  4  2  0
  4  5  1  0
  5  6  1  0
  6  7  2  0
  6  8  1  0
  8  9  1  0
  9 10  1  0
 10 11  2  3
 11 12  1  0
 12 13  1  0
  5 14  2  0
 14 15  1  0
 15 16  1  0
 16 17  2  0
 16 18  1  0
 19 18  1  1
 19 20  1  0
 20 21  1  0
 21 22  1  0
 22 23  1  0
 23 24  1  0
 24 25  1  0
 25 26  1  0
 25 27  1  0
 23 28  1  0
 15  2  2  0
 27 19  1  0
 13 11  1  0
 28 19  1  0
 26 21  1  0
  1 29  1  0
  1 30  1  0
  1 31  1  0
  3 32  1  0
  4 33  1  0
  8 34  1  0
  9 35  1  0
 10 36  1  0
 12 37  1  0
 12 38  1  0
 13 39  1  0
 13 40  1  0
 18 41  1  0
 20 42  1  0
 20 43  1  0
 21 44  1  6
 22 45  1  0
 22 46  1  0
 23 47  1  1
 24 48  1  0
 24 49  1  0
 25 50  1  6
 26 51  1  0
 26 52  1  0
 27 53  1  0
 27 54  1  0
 28 55  1  0
 28 56  1  0
M  END
>  <meeko>  (118) 
{"is_sidechain": false}

$$$$

     RDKit          3D

 56 60  0  0  0  0  0  0  0  0999 V2000
    5.9030    1.1270  -55.6130 C   0  0  0  0  0  0  0  0  0  0  0  0
    6.9260    0.1210  -55.1780 C   0  0  0  0  0  0  0  0  0  0  0  0
    6.5040   -1.0840  -54.5970 C   0  0  0  0  0  0  0  0  0  0  0  0
    7.4360   -2.0330  -54.1890 C   0  0  0  0  0  0  0  0  0  0  0  0
    8.7810   -1.7510  -54.3690 C   0  0  0  0  0  0  0  0  0  0  0  0
    9.8170   -2.7310  -53.9090 C   0  0  0  0  0  0  0  0  0  0  0  0
    9.9940   -2.9410  -52.7150 O   0  0  0  0  0  0  0  0  0  0  0  0
   10.5060   -3.3100  -54.9590 N   0  0  0  0  0  0  0  0  0  0  0  0
   11.5230   -4.1870  -54.7380 N   0  0  0  0  0  0  0  0  0  0  0  0
   11.9340   -4.9120  -55.7300 C   0  0  0  0  0  0  0  0  0  0  0  0
   11.3610   -4.8460  -57.0960 C   0  0  0  0  0  0  0  0  0  0  0  0
   11.9240   -3.8780  -58.1080 C   0  0  0  0  0  0  0  0  0  0  0  0
   12.1690   -5.3480  -58.2680 C   0  0  0  0  0  0  0  0  0  0  0  0
    9.2460   -0.6020  -54.9330 N   0  0  0  0  0  0  0  0  0  0  0  0
    8.3060    0.3130  -55.3230 C   0  0  0  0  0  0  0  0  0  0  0  0
    8.8960    1.5600  -55.9460 C   0  0  0  0  0  0  0  0  0  0  0  0
    9.7180    2.2580  -55.3680 O   0  0  0  0  0  0  0  0  0  0  0  0
    8.4170    1.8210  -57.2160 N   0  0  0  0  0  0  0  0  0  0  0  0
    8.8130    2.9420  -58.0690 C   0  0  2  0  0  0  0  0  0  0  0  0
    8.7080    4.2960  -57.3250 C   0  0  0  0  0  0  0  0  0  0  0  0
    9.0850    5.4580  -58.2620 C   0  0  1  0  0  0  0  0  0  0  0  0
   10.5230    5.2540  -58.7680 C   0  0  0  0  0  0  0  0  0  0  0  0
   10.6310    3.9270  -59.5390 C   0  0  2  0  0  0  0  0  0  0  0  0
    9.6600    3.9540  -60.7310 C   0  0  0  0  0  0  0  0  0  0  0  0
    8.2200    4.1500  -60.2310 C   0  0  2  0  0  0  0  0  0  0  0  0
    8.1240    5.4770  -59.4610 C   0  0  0  0  0  0  0  0  0  0  0  0
    7.8530    2.9940  -59.2870 C   0  0  0  0  0  0  0  0  0  0  0  0
   10.2550    2.7660  -58.6030 C   0  0  0  0  0  0  0  0  0  0  0  0
    5.4383    1.5840  -54.7269 H   0  0  0  0  0  0  0  0  0  0  0  0
    6.3898    1.9079  -56.2156 H   0  0  0  0  0  0  0  0  0  0  0  0
    5.1303    0.6272  -56.2156 H   0  0  0  0  0  0  0  0  0  0  0  0
    5.4299   -1.2798  -54.4632 H   0  0  0  0  0  0  0  0  0  0  0  0
    7.1139   -2.9820  -53.7356 H   0  0  0  0  0  0  0  0  0  0  0  0
   10.2860   -2.9960  -55.8990 H   0  0  0  0  0  0  0  0  0  0  0  0
   12.7571   -5.6186  -55.5480 H   0  0  0  0  0  0  0  0  0  0  0  0
   10.3596   -5.0504  -56.6894 H   0  0  0  0  0  0  0  0  0  0  0  0
   11.2497   -3.3547  -58.8019 H   0  0  0  0  0  0  0  0  0  0  0  0
   12.5645   -2.9853  -58.0557 H   0  0  0  0  0  0  0  0  0  0  0  0
   11.6743   -5.9023  -59.0792 H   0  0  0  0  0  0  0  0  0  0  0  0
   13.0633   -5.9783  -58.3815 H   0  0  0  0  0  0  0  0  0  0  0  0
    7.7390    1.1520  -57.5630 H   0  0  0  0  0  0  0  0  0  0  0  0
    7.6755    4.4360  -56.9724 H   0  0  0  0  0  0  0  0  0  0  0  0
    9.4027    4.2876  -56.4721 H   0  0  0  0  0  0  0  0  0  0  0  0
    9.0145    6.4108  -57.7169 H   0  0  0  0  0  0  0  0  0  0  0  0
   10.7949    6.0852  -59.4352 H   0  0  0  0  0  0  0  0  0  0  0  0
   11.2063    5.2255  -57.9064 H   0  0  0  0  0  0  0  0  0  0  0  0
   11.6601    3.7908  -59.9029 H   0  0  0  0  0  0  0  0  0  0  0  0
    9.9290    4.7836  -61.4014 H   0  0  0  0  0  0  0  0  0  0  0  0
    9.7273    2.9994  -61.2735 H   0  0  0  0  0  0  0  0  0  0  0  0
    7.5304    4.1678  -61.0878 H   0  0  0  0  0  0  0  0  0  0  0  0
    8.3929    6.3073  -60.1306 H   0  0  0  0  0  0  0  0  0  0  0  0
    7.0945    5.6104  -59.0973 H   0  0  0  0  0  0  0  0  0  0  0  0
    6.8234    3.1369  -58.9272 H   0  0  0  0  0  0  0  0  0  0  0  0
    7.9406    2.0482  -59.8418 H   0  0  0  0  0  0  0  0  0  0  0  0
   10.3220    1.8183  -59.1575 H   0  0  0  0  0  0  0  0  0  0  0  0
   10.9503    2.7581  -57.7507 H   0  0  0  0  0  0  0  0  0  0  0  0
  1  2  1  0
  2  3  1  0
  3  4  2  0
  4  5  1  0
  5  6  1  0
  6  7  2  0
  6  8  1  0
  8  9  1  0
  9 10  2  0
 10 11  1  0
 11 12  1  0
 12 13  1  0
  5 14  2  0
 14 15  1  0
 15 16  1  0
 16 17  2  0
 16 18  1  0
 19 18  1  1
 19 20  1  0
 20 21  1  0
 21 22  1  0
 22 23  1  0
 23 24  1  0
 24 25  1  0
 25 26  1  0
 25 27  1  0
 23 28  1  0
 15  2  2  0
 27 19  1  0
 13 11  1  0
 28 19  1  0
 26 21  1  0
  1 29  1  0
  1 30  1  0
  1 31  1  0
  3 32  1  0
  4 33  1  0
  8 34  1  0
 10 35  1  0
 11 36  1  0
 12 37  1  0
 12 38  1  0
 13 39  1  0
 13 40  1  0
 18 41  1  0
 20 42  1  0
 20 43  1  0
 21 44  1  1
 22 45  1  0
 22 46  1  0
 23 47  1  6
 24 48  1  0
 24 49  1  0
 25 50  1  6
 26 51  1  0
 26 52  1  0
 27 53  1  0
 27 54  1  0
 28 55  1  0
 28 56  1  0
M  END
>  <meeko>  (119) 
{"is_sidechain": false}

$$$$

     RDKit          3D

 54 58  0  0  0  0  0  0  0  0999 V2000
    6.8820    2.6530  -61.7260 C   0  0  0  0  0  0  0  0  0  0  0  0
    8.0600    2.6180  -60.9340 O   0  0  0  0  0  0  0  0  0  0  0  0
    8.4260    3.8790  -60.4030 C   0  0  2  0  0  0  0  0  0  0  0  0
    9.9260    4.0670  -60.3830 C   0  0  0  0  0  0  0  0  0  0  0  0
   10.0780    5.2770  -59.4830 C   0  0  0  0  0  0  0  0  0  0  0  0
    8.9150    5.3500  -58.6350 O   0  0  0  0  0  0  0  0  0  0  0  0
    8.0540    4.2280  -58.9530 C   0  0  2  0  0  0  0  0  0  0  0  0
    8.2400    3.2440  -57.8960 N   0  0  0  0  0  0  0  0  0  0  0  0
    9.3770    3.1870  -57.1870 N   0  0  0  0  0  0  0  0  0  0  0  0
    9.2160    2.2980  -56.2230 N   0  0  0  0  0  0  0  0  0  0  0  0
    7.9660    1.7360  -56.3410 C   0  0  0  0  0  0  0  0  0  0  0  0
    7.5060    0.7490  -55.3570 C   0  0  0  0  0  0  0  0  0  0  0  0
    6.3580    0.7720  -54.9240 O   0  0  0  0  0  0  0  0  0  0  0  0
    8.4330   -0.1860  -54.9420 N   0  0  0  0  0  0  0  0  0  0  0  0
    8.1800   -1.2260  -53.9360 C   0  0  2  0  0  0  0  0  0  0  0  0
    7.8080   -0.6160  -52.5630 C   0  0  0  0  0  0  0  0  0  0  0  0
    7.6070   -1.7250  -51.5150 C   0  0  1  0  0  0  0  0  0  0  0  0
    6.4860   -2.6690  -51.9830 C   0  0  0  0  0  0  0  0  0  0  0  0
    6.8630   -3.3120  -53.3290 C   0  0  2  0  0  0  0  0  0  0  0  0
    8.1720   -4.1010  -53.1660 C   0  0  0  0  0  0  0  0  0  0  0  0
    9.2970   -3.1610  -52.7080 C   0  0  2  0  0  0  0  0  0  0  0  0
    8.9120   -2.5240  -51.3630 C   0  0  0  0  0  0  0  0  0  0  0  0
    9.4840   -2.0520  -53.7550 C   0  0  0  0  0  0  0  0  0  0  0  0
    7.0640   -2.2050  -54.3800 C   0  0  0  0  0  0  0  0  0  0  0  0
    7.3400    2.3050  -57.4410 C   0  0  0  0  0  0  0  0  0  0  0  0
    6.0180    2.1230  -58.0410 C   0  0  0  0  0  0  0  0  0  0  0  0
    5.9890    1.1060  -58.9300 F   0  0  0  0  0  0  0  0  0  0  0  0
    5.0450    1.9000  -57.1240 F   0  0  0  0  0  0  0  0  0  0  0  0
    5.6260    3.2400  -58.7120 F   0  0  0  0  0  0  0  0  0  0  0  0
    5.9996    2.6792  -61.0697 H   0  0  0  0  0  0  0  0  0  0  0  0
    6.8936    3.5512  -62.3609 H   0  0  0  0  0  0  0  0  0  0  0  0
    6.8402    1.7557  -62.3609 H   0  0  0  0  0  0  0  0  0  0  0  0
    7.8463    4.5144  -61.0887 H   0  0  0  0  0  0  0  0  0  0  0  0
   10.4337    3.1876  -59.9601 H   0  0  0  0  0  0  0  0  0  0  0  0
   10.3708    4.1967  -61.3807 H   0  0  0  0  0  0  0  0  0  0  0  0
   10.9833    5.1727  -58.8669 H   0  0  0  0  0  0  0  0  0  0  0  0
   10.1696    6.1926  -60.0858 H   0  0  0  0  0  0  0  0  0  0  0  0
    6.9637    4.3738  -58.9552 H   0  0  0  0  0  0  0  0  0  0  0  0
    9.4060   -0.0250  -55.1700 H   0  0  0  0  0  0  0  0  0  0  0  0
    8.6175    0.0515  -52.2325 H   0  0  0  0  0  0  0  0  0  0  0  0
    6.8693   -0.0522  -52.6677 H   0  0  0  0  0  0  0  0  0  0  0  0
    7.3339   -1.2753  -50.5490 H   0  0  0  0  0  0  0  0  0  0  0  0
    6.3380   -3.4585  -51.2315 H   0  0  0  0  0  0  0  0  0  0  0  0
    5.5580   -2.0916  -52.1075 H   0  0  0  0  0  0  0  0  0  0  0  0
    6.0606   -3.9908  -53.6536 H   0  0  0  0  0  0  0  0  0  0  0  0
    8.0297   -4.8921  -52.4150 H   0  0  0  0  0  0  0  0  0  0  0  0
    8.4465   -4.5496  -54.1321 H   0  0  0  0  0  0  0  0  0  0  0  0
   10.2317   -3.7298  -52.5945 H   0  0  0  0  0  0  0  0  0  0  0  0
    8.7695   -3.3154  -50.6124 H   0  0  0  0  0  0  0  0  0  0  0  0
    9.7158   -1.8456  -51.0411 H   0  0  0  0  0  0  0  0  0  0  0  0
   10.2914   -1.3809  -53.4269 H   0  0  0  0  0  0  0  0  0  0  0  0
    9.7368   -2.5202  -54.7177 H   0  0  0  0  0  0  0  0  0  0  0  0
    7.3466   -2.6641  -55.3388 H   0  0  0  0  0  0  0  0  0  0  0  0
    6.1237   -1.6445  -54.4883 H   0  0  0  0  0  0  0  0  0  0  0  0
  1  2  1  0
  2  3  1  0
  3  4  1  0
  4  5  1  0
  5  6  1  0
  6  7  1  0
  7  8  1  0
  8  9  1  0
  9 10  2  0
 10 11  1  0
 11 12  1  0
 12 13  2  0
 12 14  1  0
 15 14  1  6
 15 16  1  0
 16 17  1  0
 17 18  1  0
 18 19  1  0
 19 20  1  0
 20 21  1  0
 21 22  1  0
 21 23  1  0
 19 24  1  0
 11 25  2  0
 25 26  1  0
 26 27  1  0
 26 28  1  0
 26 29  1  0
  7  3  1  0
 25  8  1  0
 23 15  1  0
 24 15  1  0
 22 17  1  0
  1 30  1  0
  1 31  1  0
  1 32  1  0
  3 33  1  6
  4 34  1  0
  4 35  1  0
  5 36  1  0
  5 37  1  0
  7 38  1  6
 14 39  1  0
 16 40  1  0
 16 41  1  0
 17 42  1  1
 18 43  1  0
 18 44  1  0
 19 45  1  6
 20 46  1  0
 20 47  1  0
 21 48  1  1
 22 49  1  0
 22 50  1  0
 23 51  1  0
 23 52  1  0
 24 53  1  0
 24 54  1  0
M  END
>  <meeko>  (120) 
{"is_sidechain": false}

$$$$

     RDKit          3D

 54 58  0  0  0  0  0  0  0  0999 V2000
   11.7370    6.0130  -59.5820 C   0  0  0  0  0  0  0  0  0  0  0  0
   10.6450    5.3920  -58.9160 O   0  0  0  0  0  0  0  0  0  0  0  0
   10.3040    4.1210  -59.4690 C   0  0  2  0  0  0  0  0  0  0  0  0
   10.1980    4.1490  -60.9800 C   0  0  0  0  0  0  0  0  0  0  0  0
    9.2590    2.9970  -61.2500 C   0  0  0  0  0  0  0  0  0  0  0  0
    8.2910    3.0160  -60.1960 O   0  0  0  0  0  0  0  0  0  0  0  0
    8.8800    3.7120  -59.0700 C   0  0  1  0  0  0  0  0  0  0  0  0
    8.8540    2.8360  -57.9050 N   0  0  0  0  0  0  0  0  0  0  0  0
   10.0260    2.3960  -57.3880 N   0  0  0  0  0  0  0  0  0  0  0  0
    9.7500    1.5560  -56.4030 N   0  0  0  0  0  0  0  0  0  0  0  0
    8.3850    1.4780  -56.2780 C   0  0  0  0  0  0  0  0  0  0  0  0
    7.7300    0.5990  -55.3170 C   0  0  0  0  0  0  0  0  0  0  0  0
    6.5240    0.6330  -55.1140 O   0  0  0  0  0  0  0  0  0  0  0  0
    8.6030   -0.2670  -54.6950 N   0  0  0  0  0  0  0  0  0  0  0  0
    8.2330   -1.2960  -53.7250 C   0  0  2  0  0  0  0  0  0  0  0  0
    7.1300   -2.2310  -54.2770 C   0  0  0  0  0  0  0  0  0  0  0  0
    6.7950   -3.3350  -53.2590 C   0  0  1  0  0  0  0  0  0  0  0  0
    8.0560   -4.1670  -52.9780 C   0  0  0  0  0  0  0  0  0  0  0  0
    9.1620   -3.2670  -52.4060 C   0  0  2  0  0  0  0  0  0  0  0  0
    8.6710   -2.6230  -51.1000 C   0  0  0  0  0  0  0  0  0  0  0  0
    7.4140   -1.7820  -51.3700 C   0  0  2  0  0  0  0  0  0  0  0  0
    6.3130   -2.6860  -51.9500 C   0  0  0  0  0  0  0  0  0  0  0  0
    7.7500   -0.6770  -52.3880 C   0  0  0  0  0  0  0  0  0  0  0  0
    9.4870   -2.1610  -53.4220 C   0  0  0  0  0  0  0  0  0  0  0  0
    7.7970    2.3380  -57.1870 C   0  0  0  0  0  0  0  0  0  0  0  0
    6.3850    2.6620  -57.4120 C   0  0  0  0  0  0  0  0  0  0  0  0
    5.7480    3.0240  -56.2730 F   0  0  0  0  0  0  0  0  0  0  0  0
    5.7120    1.6210  -57.9530 F   0  0  0  0  0  0  0  0  0  0  0  0
    6.2260    3.7080  -58.2620 F   0  0  0  0  0  0  0  0  0  0  0  0
   12.4409    6.4133  -58.8375 H   0  0  0  0  0  0  0  0  0  0  0  0
   12.2515    5.2723  -60.2119 H   0  0  0  0  0  0  0  0  0  0  0  0
   11.3635    6.8338  -60.2119 H   0  0  0  0  0  0  0  0  0  0  0  0
   11.0961    3.4508  -59.1039 H   0  0  0  0  0  0  0  0  0  0  0  0
    9.7749    5.1009  -61.3335 H   0  0  0  0  0  0  0  0  0  0  0  0
   11.1664    4.0619  -61.4944 H   0  0  0  0  0  0  0  0  0  0  0  0
    8.7649    3.1279  -62.2240 H   0  0  0  0  0  0  0  0  0  0  0  0
    9.7985    2.0389  -61.2818 H   0  0  0  0  0  0  0  0  0  0  0  0
    8.3186    4.6200  -58.8047 H   0  0  0  0  0  0  0  0  0  0  0  0
    9.5680   -0.2190  -55.0090 H   0  0  0  0  0  0  0  0  0  0  0  0
    6.2245   -1.6406  -54.4808 H   0  0  0  0  0  0  0  0  0  0  0  0
    7.4946   -2.7012  -55.2022 H   0  0  0  0  0  0  0  0  0  0  0  0
    6.0059   -3.9857  -53.6639 H   0  0  0  0  0  0  0  0  0  0  0  0
    7.8167   -4.9571  -52.2510 H   0  0  0  0  0  0  0  0  0  0  0  0
    8.4075   -4.6188  -53.9173 H   0  0  0  0  0  0  0  0  0  0  0  0
   10.0615   -3.8679  -52.2065 H   0  0  0  0  0  0  0  0  0  0  0  0
    8.4320   -3.4122  -50.3719 H   0  0  0  0  0  0  0  0  0  0  0  0
    9.4618   -1.9724  -50.6983 H   0  0  0  0  0  0  0  0  0  0  0  0
    7.0650   -1.3276  -50.4310 H   0  0  0  0  0  0  0  0  0  0  0  0
    6.0684   -3.4737  -51.2222 H   0  0  0  0  0  0  0  0  0  0  0  0
    5.4206   -2.0774  -52.1579 H   0  0  0  0  0  0  0  0  0  0  0  0
    6.8509   -0.0711  -52.5740 H   0  0  0  0  0  0  0  0  0  0  0  0
    8.5538   -0.0485  -51.9771 H   0  0  0  0  0  0  0  0  0  0  0  0
   10.2777   -1.5162  -53.0109 H   0  0  0  0  0  0  0  0  0  0  0  0
    9.8213   -2.6327  -54.3578 H   0  0  0  0  0  0  0  0  0  0  0  0
  1  2  1  0
  2  3  1  0
  3  4  1  0
  4  5  1  0
  5  6  1  0
  6  7  1  0
  7  8  1  0
  8  9  1  0
  9 10  2  0
 10 11  1  0
 11 12  1  0
 12 13  2  0
 12 14  1  0
 15 14  1  6
 15 16  1  0
 16 17  1  0
 17 18  1  0
 18 19  1  0
 19 20  1  0
 20 21  1  0
 21 22  1  0
 21 23  1  0
 19 24  1  0
 11 25  2  0
 25 26  1  0
 26 27  1  0
 26 28  1  0
 26 29  1  0
  7  3  1  0
 25  8  1  0
 23 15  1  0
 24 15  1  0
 22 17  1  0
  1 30  1  0
  1 31  1  0
  1 32  1  0
  3 33  1  6
  4 34  1  0
  4 35  1  0
  5 36  1  0
  5 37  1  0
  7 38  1  1
 14 39  1  0
 16 40  1  0
 16 41  1  0
 17 42  1  6
 18 43  1  0
 18 44  1  0
 19 45  1  1
 20 46  1  0
 20 47  1  0
 21 48  1  1
 22 49  1  0
 22 50  1  0
 23 51  1  0
 23 52  1  0
 24 53  1  0
 24 54  1  0
M  END
>  <meeko>  (121) 
{"is_sidechain": false}

$$$$

     RDKit          3D

 54 58  0  0  0  0  0  0  0  0999 V2000
    8.9580    2.6200  -61.1730 C   0  0  0  0  0  0  0  0  0  0  0  0
    9.3300    3.9770  -60.9680 O   0  0  0  0  0  0  0  0  0  0  0  0
   10.4170    4.1220  -60.0540 C   0  0  1  0  0  0  0  0  0  0  0  0
   11.2120    5.3830  -60.3210 C   0  0  0  0  0  0  0  0  0  0  0  0
   11.8390    5.6470  -58.9750 C   0  0  0  0  0  0  0  0  0  0  0  0
   10.8680    5.2670  -57.9940 O   0  0  0  0  0  0  0  0  0  0  0  0
    9.9130    4.3810  -58.6250 C   0  0  2  0  0  0  0  0  0  0  0  0
    9.7640    3.2120  -57.7700 N   0  0  0  0  0  0  0  0  0  0  0  0
   10.8440    2.5890  -57.2500 N   0  0  0  0  0  0  0  0  0  0  0  0
   10.4170    1.6330  -56.4400 N   0  0  0  0  0  0  0  0  0  0  0  0
    9.0430    1.6460  -56.4490 C   0  0  0  0  0  0  0  0  0  0  0  0
    8.2390    0.7510  -55.6270 C   0  0  0  0  0  0  0  0  0  0  0  0
    7.0150    0.7850  -55.6260 O   0  0  0  0  0  0  0  0  0  0  0  0
    8.9970   -0.1060  -54.8600 N   0  0  0  0  0  0  0  0  0  0  0  0
    8.4720   -1.0970  -53.9200 C   0  0  2  0  0  0  0  0  0  0  0  0
    9.6590   -1.9450  -53.3880 C   0  0  0  0  0  0  0  0  0  0  0  0
    9.1710   -3.0090  -52.3910 C   0  0  1  0  0  0  0  0  0  0  0  0
    8.4810   -2.3130  -51.2080 C   0  0  0  0  0  0  0  0  0  0  0  0
    7.2860   -1.4870  -51.7100 C   0  0  2  0  0  0  0  0  0  0  0  0
    6.2880   -2.4190  -52.4200 C   0  0  0  0  0  0  0  0  0  0  0  0
    6.9710   -3.1200  -53.6060 C   0  0  2  0  0  0  0  0  0  0  0  0
    8.1680   -3.9360  -53.0930 C   0  0  0  0  0  0  0  0  0  0  0  0
    7.4690   -2.0590  -54.6040 C   0  0  0  0  0  0  0  0  0  0  0  0
    7.7830   -0.4250  -52.7060 C   0  0  0  0  0  0  0  0  0  0  0  0
    8.6080    2.6210  -57.3240 C   0  0  0  0  0  0  0  0  0  0  0  0
    7.2550    3.0280  -57.7150 C   0  0  0  0  0  0  0  0  0  0  0  0
    6.6000    2.0420  -58.3760 F   0  0  0  0  0  0  0  0  0  0  0  0
    7.2530    4.0900  -58.5610 F   0  0  0  0  0  0  0  0  0  0  0  0
    6.5000    3.3760  -56.6460 F   0  0  0  0  0  0  0  0  0  0  0  0
    8.8225    2.1259  -60.1996 H   0  0  0  0  0  0  0  0  0  0  0  0
    8.0157    2.5796  -61.7390 H   0  0  0  0  0  0  0  0  0  0  0  0
    9.7480    2.1047  -61.7390 H   0  0  0  0  0  0  0  0  0  0  0  0
   10.9983    3.1954  -60.1704 H   0  0  0  0  0  0  0  0  0  0  0  0
   11.9776    5.2172  -61.0933 H   0  0  0  0  0  0  0  0  0  0  0  0
   10.6054    6.2187  -60.7001 H   0  0  0  0  0  0  0  0  0  0  0  0
   12.7534    5.0470  -58.8572 H   0  0  0  0  0  0  0  0  0  0  0  0
   12.1209    6.7048  -58.8675 H   0  0  0  0  0  0  0  0  0  0  0  0
    8.8986    4.7927  -58.7322 H   0  0  0  0  0  0  0  0  0  0  0  0
   10.0030    0.0010  -54.9420 H   0  0  0  0  0  0  0  0  0  0  0  0
   10.1525   -2.4445  -54.2347 H   0  0  0  0  0  0  0  0  0  0  0  0
   10.3640   -1.2770  -52.8715 H   0  0  0  0  0  0  0  0  0  0  0  0
   10.0252   -3.5981  -52.0259 H   0  0  0  0  0  0  0  0  0  0  0  0
    8.1259   -3.0719  -50.4953 H   0  0  0  0  0  0  0  0  0  0  0  0
    9.2001   -1.6443  -50.7124 H   0  0  0  0  0  0  0  0  0  0  0  0
    6.7938   -0.9942  -50.8586 H   0  0  0  0  0  0  0  0  0  0  0  0
    5.9278   -3.1763  -51.7081 H   0  0  0  0  0  0  0  0  0  0  0  0
    5.4418   -1.8232  -52.7928 H   0  0  0  0  0  0  0  0  0  0  0  0
    6.2538   -3.7892  -54.1037 H   0  0  0  0  0  0  0  0  0  0  0  0
    7.8131   -4.6954  -52.3807 H   0  0  0  0  0  0  0  0  0  0  0  0
    8.6630   -4.4265  -53.9441 H   0  0  0  0  0  0  0  0  0  0  0  0
    7.9665   -2.5607  -55.4470 H   0  0  0  0  0  0  0  0  0  0  0  0
    6.6073   -1.4771  -54.9630 H   0  0  0  0  0  0  0  0  0  0  0  0
    6.9268    0.1685  -53.0590 H   0  0  0  0  0  0  0  0  0  0  0  0
    8.5120    0.2239  -52.1985 H   0  0  0  0  0  0  0  0  0  0  0  0
  1  2  1  0
  2  3  1  0
  3  4  1  0
  4  5  1  0
  5  6  1  0
  6  7  1  0
  7  8  1  0
  8  9  1  0
  9 10  2  0
 10 11  1  0
 11 12  1  0
 12 13  2  0
 12 14  1  0
 15 14  1  6
 15 16  1  0
 16 17  1  0
 17 18  1  0
 18 19  1  0
 19 20  1  0
 20 21  1  0
 21 22  1  0
 21 23  1  0
 19 24  1  0
 11 25  2  0
 25 26  1  0
 26 27  1  0
 26 28  1  0
 26 29  1  0
  7  3  1  0
 25  8  1  0
 23 15  1  0
 24 15  1  0
 22 17  1  0
  1 30  1  0
  1 31  1  0
  1 32  1  0
  3 33  1  1
  4 34  1  0
  4 35  1  0
  5 36  1  0
  5 37  1  0
  7 38  1  6
 14 39  1  0
 16 40  1  0
 16 41  1  0
 17 42  1  1
 18 43  1  0
 18 44  1  0
 19 45  1  1
 20 46  1  0
 20 47  1  0
 21 48  1  6
 22 49  1  0
 22 50  1  0
 23 51  1  0
 23 52  1  0
 24 53  1  0
 24 54  1  0
M  END
>  <meeko>  (122) 
{"is_sidechain": false}

$$$$

     RDKit          3D

 54 58  0  0  0  0  0  0  0  0999 V2000
   11.7080    5.6290  -59.1260 C   0  0  0  0  0  0  0  0  0  0  0  0
   10.3170    5.6020  -58.8410 O   0  0  0  0  0  0  0  0  0  0  0  0
    9.5520    4.9040  -59.8080 C   0  0  1  0  0  0  0  0  0  0  0  0
   10.3840    3.8850  -60.5520 C   0  0  0  0  0  0  0  0  0  0  0  0
    9.3200    3.0550  -61.2410 C   0  0  0  0  0  0  0  0  0  0  0  0
    8.1040    3.1660  -60.4750 O   0  0  0  0  0  0  0  0  0  0  0  0
    8.3550    4.0530  -59.3550 C   0  0  1  0  0  0  0  0  0  0  0  0
    8.4680    3.2070  -58.1760 N   0  0  0  0  0  0  0  0  0  0  0  0
    9.6530    2.9680  -57.5870 N   0  0  0  0  0  0  0  0  0  0  0  0
    9.4580    2.1090  -56.5980 N   0  0  0  0  0  0  0  0  0  0  0  0
    8.1300    1.7720  -56.5730 C   0  0  0  0  0  0  0  0  0  0  0  0
    7.5820    0.8010  -55.6290 C   0  0  0  0  0  0  0  0  0  0  0  0
    6.3940    0.7810  -55.3360 O   0  0  0  0  0  0  0  0  0  0  0  0
    8.5220   -0.0590  -55.0860 N   0  0  0  0  0  0  0  0  0  0  0  0
    8.2240   -1.0880  -54.0850 C   0  0  2  0  0  0  0  0  0  0  0  0
    7.7900   -0.4660  -52.7350 C   0  0  0  0  0  0  0  0  0  0  0  0
    7.5410   -1.5640  -51.6870 C   0  0  1  0  0  0  0  0  0  0  0  0
    6.4430   -2.5130  -52.1980 C   0  0  0  0  0  0  0  0  0  0  0  0
    6.8800   -3.1670  -53.5190 C   0  0  2  0  0  0  0  0  0  0  0  0
    8.1780   -3.9560  -53.2900 C   0  0  0  0  0  0  0  0  0  0  0  0
    9.2820   -3.0120  -52.7900 C   0  0  2  0  0  0  0  0  0  0  0  0
    8.8370   -2.3620  -51.4690 C   0  0  0  0  0  0  0  0  0  0  0  0
    9.5180   -1.9130  -53.8380 C   0  0  0  0  0  0  0  0  0  0  0  0
    7.1280   -2.0700  -54.5700 C   0  0  0  0  0  0  0  0  0  0  0  0
    7.4700    2.5100  -57.5400 C   0  0  0  0  0  0  0  0  0  0  0  0
    6.0510    2.5840  -57.8830 C   0  0  0  0  0  0  0  0  0  0  0  0
    5.6510    1.4690  -58.5430 F   0  0  0  0  0  0  0  0  0  0  0  0
    5.7310    3.6520  -58.6510 F   0  0  0  0  0  0  0  0  0  0  0  0
    5.2770    2.6750  -56.7730 F   0  0  0  0  0  0  0  0  0  0  0  0
   12.2752    5.6400  -58.1836 H   0  0  0  0  0  0  0  0  0  0  0  0
   11.9805    4.7360  -59.7076 H   0  0  0  0  0  0  0  0  0  0  0  0
   11.9457    6.5319  -59.7076 H   0  0  0  0  0  0  0  0  0  0  0  0
    9.1851    5.7697  -60.3789 H   0  0  0  0  0  0  0  0  0  0  0  0
   11.0495    4.3684  -61.2824 H   0  0  0  0  0  0  0  0  0  0  0  0
   11.0536    3.3000  -59.9044 H   0  0  0  0  0  0  0  0  0  0  0  0
    9.1545    3.4322  -62.2610 H   0  0  0  0  0  0  0  0  0  0  0  0
    9.6370    2.0036  -61.3050 H   0  0  0  0  0  0  0  0  0  0  0  0
    7.5802    4.7775  -59.0638 H   0  0  0  0  0  0  0  0  0  0  0  0
    9.4970    0.1940  -55.1880 H   0  0  0  0  0  0  0  0  0  0  0  0
    8.5839    0.2045  -52.3742 H   0  0  0  0  0  0  0  0  0  0  0  0
    6.8568    0.0960  -52.8877 H   0  0  0  0  0  0  0  0  0  0  0  0
    7.2243   -1.1050  -50.7388 H   0  0  0  0  0  0  0  0  0  0  0  0
    6.2613   -3.2962  -51.4473 H   0  0  0  0  0  0  0  0  0  0  0  0
    5.5218   -1.9370  -52.3699 H   0  0  0  0  0  0  0  0  0  0  0  0
    6.0926   -3.8481  -53.8741 H   0  0  0  0  0  0  0  0  0  0  0  0
    8.0007   -4.7400  -52.5391 H   0  0  0  0  0  0  0  0  0  0  0  0
    8.4954   -4.4145  -54.2382 H   0  0  0  0  0  0  0  0  0  0  0  0
   10.2099   -3.5803  -52.6287 H   0  0  0  0  0  0  0  0  0  0  0  0
    8.6601   -3.1464  -50.7183 H   0  0  0  0  0  0  0  0  0  0  0  0
    9.6260   -1.6809  -51.1175 H   0  0  0  0  0  0  0  0  0  0  0  0
   10.3106   -1.2395  -53.4800 H   0  0  0  0  0  0  0  0  0  0  0  0
    9.8140   -2.3901  -54.7839 H   0  0  0  0  0  0  0  0  0  0  0  0
    7.4525   -2.5378  -55.5112 H   0  0  0  0  0  0  0  0  0  0  0  0
    6.1939   -1.5103  -54.7256 H   0  0  0  0  0  0  0  0  0  0  0  0
  1  2  1  0
  2  3  1  0
  3  4  1  0
  4  5  1  0
  5  6  1  0
  6  7  1  0
  7  8  1  0
  8  9  1  0
  9 10  2  0
 10 11  1  0
 11 12  1  0
 12 13  2  0
 12 14  1  0
 15 14  1  6
 15 16  1  0
 16 17  1  0
 17 18  1  0
 18 19  1  0
 19 20  1  0
 20 21  1  0
 21 22  1  0
 21 23  1  0
 19 24  1  0
 11 25  2  0
 25 26  1  0
 26 27  1  0
 26 28  1  0
 26 29  1  0
  7  3  1  0
 25  8  1  0
 23 15  1  0
 24 15  1  0
 22 17  1  0
  1 30  1  0
  1 31  1  0
  1 32  1  0
  3 33  1  6
  4 34  1  0
  4 35  1  0
  5 36  1  0
  5 37  1  0
  7 38  1  1
 14 39  1  0
 16 40  1  0
 16 41  1  0
 17 42  1  1
 18 43  1  0
 18 44  1  0
 19 45  1  6
 20 46  1  0
 20 47  1  0
 21 48  1  1
 22 49  1  0
 22 50  1  0
 23 51  1  0
 23 52  1  0
 24 53  1  0
 24 54  1  0
M  END
>  <meeko>  (123) 
{"is_sidechain": false}

$$$$

     RDKit          3D

 53 58  0  0  0  0  0  0  0  0999 V2000
    6.6590    0.3990  -55.0880 C   0  0  0  0  0  0  0  0  0  0  0  0
    7.5600    1.2470  -55.9520 C   0  0  0  0  0  0  0  0  0  0  0  0
    8.7620    1.3170  -55.6860 O   0  0  0  0  0  0  0  0  0  0  0  0
    7.0210    1.8310  -57.0750 N   0  0  0  0  0  0  0  0  0  0  0  0
    5.6010    1.8830  -57.3030 C   0  0  0  0  0  0  0  0  0  0  0  0
    5.3810    1.9550  -58.7650 C   0  0  0  0  0  0  0  0  0  0  0  0
    4.1460    1.5560  -59.1760 O   0  0  0  0  0  0  0  0  0  0  0  0
    4.1050    1.6890  -60.5250 C   0  0  0  0  0  0  0  0  0  0  0  0
    3.0100    1.3830  -61.3280 C   0  0  0  0  0  0  0  0  0  0  0  0
    3.1640    1.5920  -62.7020 C   0  0  0  0  0  0  0  0  0  0  0  0
    4.3630    2.0820  -63.2230 C   0  0  0  0  0  0  0  0  0  0  0  0
    5.4460    2.3800  -62.3830 C   0  0  0  0  0  0  0  0  0  0  0  0
    5.3170    2.1780  -60.9930 C   0  0  0  0  0  0  0  0  0  0  0  0
    6.1650    2.3530  -59.8390 C   0  0  0  0  0  0  0  0  0  0  0  0
    7.5480    2.8620  -59.8540 C   0  0  0  0  0  0  0  0  0  0  0  0
    7.9660    3.3260  -60.9140 O   0  0  0  0  0  0  0  0  0  0  0  0
    8.3370    2.8600  -58.6820 N   0  0  0  0  0  0  0  0  0  0  0  0
    9.7120    3.4720  -58.7560 C   0  0  2  0  0  0  0  0  0  0  0  0
   10.2360    3.5210  -60.2350 C   0  0  0  0  0  0  0  0  0  0  0  0
   11.6370    4.1470  -60.3330 C   0  0  1  0  0  0  0  0  0  0  0  0
   11.5810    5.5890  -59.8200 C   0  0  0  0  0  0  0  0  0  0  0  0
   11.1010    5.5970  -58.3650 C   0  0  2  0  0  0  0  0  0  0  0  0
   12.0750    4.7810  -57.4990 C   0  0  0  0  0  0  0  0  0  0  0  0
   12.1500    3.3340  -58.0090 C   0  0  2  0  0  0  0  0  0  0  0  0
   12.6150    3.3340  -59.4730 C   0  0  0  0  0  0  0  0  0  0  0  0
   10.7580    2.6830  -57.9150 C   0  0  0  0  0  0  0  0  0  0  0  0
    9.7010    4.9660  -58.2830 C   0  0  0  0  0  0  0  0  0  0  0  0
    7.6710    2.9850  -57.4690 C   0  0  0  0  0  0  0  0  0  0  0  0
    7.5580    4.0400  -56.8480 O   0  0  0  0  0  0  0  0  0  0  0  0
    6.8725    0.5999  -54.0278 H   0  0  0  0  0  0  0  0  0  0  0  0
    5.6083    0.6435  -55.3032 H   0  0  0  0  0  0  0  0  0  0  0  0
    6.8395   -0.6645  -55.3032 H   0  0  0  0  0  0  0  0  0  0  0  0
    5.1232    0.9794  -56.8965 H   0  0  0  0  0  0  0  0  0  0  0  0
    5.1632    2.7603  -56.8044 H   0  0  0  0  0  0  0  0  0  0  0  0
    2.0717    0.9966  -60.9035 H   0  0  0  0  0  0  0  0  0  0  0  0
    2.3289    1.3672  -63.3818 H   0  0  0  0  0  0  0  0  0  0  0  0
    4.4597    2.2366  -64.3078 H   0  0  0  0  0  0  0  0  0  0  0  0
    6.3858    2.7671  -62.8037 H   0  0  0  0  0  0  0  0  0  0  0  0
   10.2775    2.4954  -60.6305 H   0  0  0  0  0  0  0  0  0  0  0  0
    9.5444    4.1466  -60.8183 H   0  0  0  0  0  0  0  0  0  0  0  0
   11.9761    4.1417  -61.3794 H   0  0  0  0  0  0  0  0  0  0  0  0
   12.5838    6.0375  -59.8774 H   0  0  0  0  0  0  0  0  0  0  0  0
   10.8822    6.1708  -60.4391 H   0  0  0  0  0  0  0  0  0  0  0  0
   11.0612    6.6339  -57.9999 H   0  0  0  0  0  0  0  0  0  0  0  0
   13.0750    5.2365  -57.5486 H   0  0  0  0  0  0  0  0  0  0  0  0
   11.7161    4.7780  -56.4592 H   0  0  0  0  0  0  0  0  0  0  0  0
   12.8631    2.7646  -57.3948 H   0  0  0  0  0  0  0  0  0  0  0  0
   13.6171    3.7831  -59.5372 H   0  0  0  0  0  0  0  0  0  0  0  0
   12.6468    2.2984  -59.8424 H   0  0  0  0  0  0  0  0  0  0  0  0
   10.8177    1.6514  -58.2921 H   0  0  0  0  0  0  0  0  0  0  0  0
   10.4385    2.6922  -56.8625 H   0  0  0  0  0  0  0  0  0  0  0  0
    9.3513    5.0078  -57.2409 H   0  0  0  0  0  0  0  0  0  0  0  0
    9.0298    5.5315  -58.9461 H   0  0  0  0  0  0  0  0  0  0  0  0
  1  2  1  0
  2  3  2  0
  2  4  1  0
  4  5  1  0
  5  6  1  0
  6  7  1  0
  7  8  1  0
  8  9  2  0
  9 10  1  0
 10 11  2  0
 11 12  1  0
 12 13  2  0
 13 14  1  0
 14 15  1  0
 15 16  2  0
 15 17  1  0
 18 17  1  6
 18 19  1  0
 19 20  1  0
 20 21  1  0
 21 22  1  0
 22 23  1  0
 23 24  1  0
 24 25  1  0
 24 26  1  0
 22 27  1  0
 17 28  1  0
 28 29  2  0
 28  4  1  0
 14  6  2  0
 26 18  1  0
 13  8  1  0
 27 18  1  0
 25 20  1  0
  1 30  1  0
  1 31  1  0
  1 32  1  0
  5 33  1  0
  5 34  1  0
  9 35  1  0
 10 36  1  0
 11 37  1  0
 12 38  1  0
 19 39  1  0
 19 40  1  0
 20 41  1  6
 21 42  1  0
 21 43  1  0
 22 44  1  1
 23 45  1  0
 23 46  1  0
 24 47  1  1
 25 48  1  0
 25 49  1  0
 26 50  1  0
 26 51  1  0
 27 52  1  0
 27 53  1  0
M  END
>  <meeko>  (124) 
{"is_sidechain": false}

$$$$

     RDKit          3D

 60 63  0  0  0  0  0  0  0  0999 V2000
    8.2730    1.1350  -55.7890 O   0  0  0  0  0  0  0  0  0  0  0  0
    7.1000    0.8110  -55.6330 C   0  0  0  0  0  0  0  0  0  0  0  0
    5.9040    1.6130  -56.1010 C   0  0  0  0  0  0  0  0  0  0  0  0
    6.2360    2.4620  -57.3260 C   0  0  1  0  0  0  0  0  0  0  0  0
    7.2980    3.3570  -56.9790 O   0  0  0  0  0  0  0  0  0  0  0  0
    6.6840    1.5860  -58.5030 C   0  0  0  0  0  0  0  0  0  0  0  0
    8.0160    1.9030  -58.8830 O   0  0  0  0  0  0  0  0  0  0  0  0
    6.7580   -0.3480  -54.9540 N   0  0  0  0  0  0  0  0  0  0  0  0
    7.7940   -1.1460  -54.3100 C   0  0  1  0  0  0  0  0  0  0  0  0
    7.4730   -1.3360  -52.8240 C   0  0  0  0  0  0  0  0  0  0  0  0
    8.5290   -2.1920  -52.1280 C   0  0  0  0  0  0  0  0  0  0  0  0
    8.7160   -3.5400  -52.8110 C   0  0  0  0  0  0  0  0  0  0  0  0
    9.0310   -3.3610  -54.2740 N   0  0  2  0  0  0  0  0  0  0  0  0
   10.4560   -2.9130  -54.5660 C   0  0  0  0  0  0  0  0  0  0  0  0
   11.1520   -3.7850  -55.6350 C   0  0  2  0  0  0  0  0  0  0  0  0
   11.8230   -2.8350  -56.6680 C   0  0  0  0  0  0  0  0  0  0  0  0
   12.5400   -3.6320  -57.7690 C   0  0  1  0  0  0  0  0  0  0  0  0
   13.6210   -4.5170  -57.1290 C   0  0  0  0  0  0  0  0  0  0  0  0
   12.9780   -5.4880  -56.1260 C   0  0  2  0  0  0  0  0  0  0  0  0
   11.9510   -6.3680  -56.8580 C   0  0  0  0  0  0  0  0  0  0  0  0
   10.8650   -5.4900  -57.5000 C   0  0  2  0  0  0  0  0  0  0  0  0
   11.5190   -4.5200  -58.4960 C   0  0  0  0  0  0  0  0  0  0  0  0
   10.1480   -4.6850  -56.4010 C   0  0  0  0  0  0  0  0  0  0  0  0
   12.2620   -4.6830  -55.0260 C   0  0  0  0  0  0  0  0  0  0  0  0
    7.9830   -2.5260  -54.9880 C   0  0  0  0  0  0  0  0  0  0  0  0
    5.0890    0.9203  -56.3579 H   0  0  0  0  0  0  0  0  0  0  0  0
    5.6054    2.2893  -55.2865 H   0  0  0  0  0  0  0  0  0  0  0  0
    5.3358    3.0153  -57.6318 H   0  0  0  0  0  0  0  0  0  0  0  0
    6.8980    4.0970  -56.4870 H   0  0  0  0  0  0  0  0  0  0  0  0
    6.6348    0.5281  -58.2057 H   0  0  0  0  0  0  0  0  0  0  0  0
    6.0172    1.7721  -59.3579 H   0  0  0  0  0  0  0  0  0  0  0  0
    8.5690    1.1340  -58.6530 H   0  0  0  0  0  0  0  0  0  0  0  0
    5.8030   -0.4030  -54.6110 H   0  0  0  0  0  0  0  0  0  0  0  0
    8.7387   -0.5928  -54.4171 H   0  0  0  0  0  0  0  0  0  0  0  0
    7.4348   -0.3501  -52.3377 H   0  0  0  0  0  0  0  0  0  0  0  0
    6.5040   -1.8503  -52.7434 H   0  0  0  0  0  0  0  0  0  0  0  0
    9.4874   -1.6523  -52.1404 H   0  0  0  0  0  0  0  0  0  0  0  0
    8.1888   -2.3785  -51.0987 H   0  0  0  0  0  0  0  0  0  0  0  0
    9.5448   -4.0774  -52.3270 H   0  0  0  0  0  0  0  0  0  0  0  0
    7.7818   -4.1136  -52.7196 H   0  0  0  0  0  0  0  0  0  0  0  0
    8.9260   -4.2960  -54.6870 H   0  0  0  0  0  0  0  0  0  0  0  0
   10.4310   -1.8729  -54.9231 H   0  0  0  0  0  0  0  0  0  0  0  0
   11.0311   -3.0113  -53.6335 H   0  0  0  0  0  0  0  0  0  0  0  0
   11.0503   -2.2017  -57.1283 H   0  0  0  0  0  0  0  0  0  0  0  0
   12.5669   -2.2178  -56.1430 H   0  0  0  0  0  0  0  0  0  0  0  0
   13.0055   -2.9406  -58.4868 H   0  0  0  0  0  0  0  0  0  0  0  0
   14.1340   -5.0912  -57.9145 H   0  0  0  0  0  0  0  0  0  0  0  0
   14.3449   -3.8788  -56.6011 H   0  0  0  0  0  0  0  0  0  0  0  0
   13.7558   -6.1219  -55.6752 H   0  0  0  0  0  0  0  0  0  0  0  0
   12.4611   -6.9470  -57.6419 H   0  0  0  0  0  0  0  0  0  0  0  0
   11.4810   -7.0504  -56.1345 H   0  0  0  0  0  0  0  0  0  0  0  0
   10.1383   -6.1257  -58.0270 H   0  0  0  0  0  0  0  0  0  0  0  0
   12.0303   -5.0947  -59.2823 H   0  0  0  0  0  0  0  0  0  0  0  0
   10.7418   -3.8843  -58.9451 H   0  0  0  0  0  0  0  0  0  0  0  0
    9.3759   -4.0522  -56.8629 H   0  0  0  0  0  0  0  0  0  0  0  0
    9.6908   -5.3885  -55.6896 H   0  0  0  0  0  0  0  0  0  0  0  0
   11.8077   -5.3802  -54.3066 H   0  0  0  0  0  0  0  0  0  0  0  0
   12.9992   -4.0403  -54.5226 H   0  0  0  0  0  0  0  0  0  0  0  0
    8.2992   -2.3713  -56.0302 H   0  0  0  0  0  0  0  0  0  0  0  0
    7.0251   -3.0650  -54.9438 H   0  0  0  0  0  0  0  0  0  0  0  0
  1  2  2  0
  2  3  1  0
  3  4  1  0
  4  5  1  0
  4  6  1  0
  6  7  1  0
  2  8  1  0
  8  9  1  0
  9 10  1  0
 10 11  1  0
 11 12  1  0
 12 13  1  0
 13 14  1  0
 15 14  1  1
 15 16  1  0
 16 17  1  0
 17 18  1  0
 18 19  1  0
 19 20  1  0
 20 21  1  0
 21 22  1  0
 21 23  1  0
 19 24  1  0
 13 25  1  0
 25  9  1  0
 23 15  1  0
 24 15  1  0
 22 17  1  0
  3 26  1  0
  3 27  1  0
  4 28  1  6
  5 29  1  0
  6 30  1  0
  6 31  1  0
  7 32  1  0
  8 33  1  0
  9 34  1  1
 10 35  1  0
 10 36  1  0
 11 37  1  0
 11 38  1  0
 12 39  1  0
 12 40  1  0
 13 41  1  6
 14 42  1  0
 14 43  1  0
 16 44  1  0
 16 45  1  0
 17 46  1  6
 18 47  1  0
 18 48  1  0
 19 49  1  1
 20 50  1  0
 20 51  1  0
 21 52  1  6
 22 53  1  0
 22 54  1  0
 23 55  1  0
 23 56  1  0
 24 57  1  0
 24 58  1  0
 25 59  1  0
 25 60  1  0
M  CHG  1  13   1
M  END
>  <meeko>  (125) 
{"is_sidechain": false}

$$$$

     RDKit          3D

 60 63  0  0  0  0  0  0  0  0999 V2000
    5.8910   -0.4100  -53.3620 O   0  0  0  0  0  0  0  0  0  0  0  0
    6.6170   -1.0950  -54.0740 C   0  0  0  0  0  0  0  0  0  0  0  0
    6.7040   -2.6020  -53.9450 C   0  0  0  0  0  0  0  0  0  0  0  0
    7.9700   -3.0480  -53.2230 C   0  0  2  0  0  0  0  0  0  0  0  0
    8.5750   -1.9140  -52.5630 O   0  0  0  0  0  0  0  0  0  0  0  0
    8.9970   -3.6360  -54.1940 C   0  0  0  0  0  0  0  0  0  0  0  0
    9.6750   -2.5400  -54.8140 O   0  0  0  0  0  0  0  0  0  0  0  0
    7.3670   -0.5620  -55.0990 N   0  0  0  0  0  0  0  0  0  0  0  0
    7.2710    0.8340  -55.4790 C   0  0  2  0  0  0  0  0  0  0  0  0
    6.5960    0.9720  -56.8460 C   0  0  0  0  0  0  0  0  0  0  0  0
    6.4230    2.4380  -57.2490 C   0  0  0  0  0  0  0  0  0  0  0  0
    7.4760    3.3720  -56.6600 C   0  0  0  0  0  0  0  0  0  0  0  0
    8.7730    2.6170  -56.5060 N   0  0  1  0  0  0  0  0  0  0  0  0
    9.9670    3.5240  -56.2590 C   0  0  0  0  0  0  0  0  0  0  0  0
   10.6690    3.9630  -57.5640 C   0  0  2  0  0  0  0  0  0  0  0  0
   12.1950    4.1690  -57.3830 C   0  0  0  0  0  0  0  0  0  0  0  0
   12.8580    4.5460  -58.7190 C   0  0  1  0  0  0  0  0  0  0  0  0
   12.6270    3.4200  -59.7380 C   0  0  0  0  0  0  0  0  0  0  0  0
   11.1200    3.2130  -59.9590 C   0  0  2  0  0  0  0  0  0  0  0  0
   10.4990    4.5170  -60.4840 C   0  0  0  0  0  0  0  0  0  0  0  0
   10.7210    5.6490  -59.4690 C   0  0  2  0  0  0  0  0  0  0  0  0
   12.2290    5.8450  -59.2480 C   0  0  0  0  0  0  0  0  0  0  0  0
   10.0560    5.2720  -58.1320 C   0  0  0  0  0  0  0  0  0  0  0  0
   10.4600    2.8430  -58.6210 C   0  0  0  0  0  0  0  0  0  0  0  0
    8.6510    1.5290  -55.4480 C   0  0  0  0  0  0  0  0  0  0  0  0
    5.8302   -2.9599  -53.3808 H   0  0  0  0  0  0  0  0  0  0  0  0
    6.7278   -3.0261  -54.9597 H   0  0  0  0  0  0  0  0  0  0  0  0
    7.6810   -3.8216  -52.4964 H   0  0  0  0  0  0  0  0  0  0  0  0
    9.5330   -2.1420  -52.5480 H   0  0  0  0  0  0  0  0  0  0  0  0
    9.7167   -4.2622  -53.6464 H   0  0  0  0  0  0  0  0  0  0  0  0
    8.5024   -4.2644  -54.9493 H   0  0  0  0  0  0  0  0  0  0  0  0
   10.3970   -2.2780  -54.2120 H   0  0  0  0  0  0  0  0  0  0  0  0
    7.8540   -1.2460  -55.6860 H   0  0  0  0  0  0  0  0  0  0  0  0
    6.6417    1.3476  -54.7372 H   0  0  0  0  0  0  0  0  0  0  0  0
    7.2149    0.4657  -57.6014 H   0  0  0  0  0  0  0  0  0  0  0  0
    5.5975    0.5149  -56.7820 H   0  0  0  0  0  0  0  0  0  0  0  0
    6.4768    2.5039  -58.3457 H   0  0  0  0  0  0  0  0  0  0  0  0
    5.4504    2.7645  -56.8522 H   0  0  0  0  0  0  0  0  0  0  0  0
    7.6261    4.2292  -57.3329 H   0  0  0  0  0  0  0  0  0  0  0  0
    7.1405    3.7374  -55.6782 H   0  0  0  0  0  0  0  0  0  0  0  0
    8.9320    2.1300  -57.3960 H   0  0  0  0  0  0  0  0  0  0  0  0
    9.6211    4.4226  -55.7271 H   0  0  0  0  0  0  0  0  0  0  0  0
   10.6978    2.9537  -55.6668 H   0  0  0  0  0  0  0  0  0  0  0  0
   12.3661    4.9759  -56.6552 H   0  0  0  0  0  0  0  0  0  0  0  0
   12.6374    3.2284  -57.0231 H   0  0  0  0  0  0  0  0  0  0  0  0
   13.9378    4.6910  -58.5674 H   0  0  0  0  0  0  0  0  0  0  0  0
   13.1017    3.6897  -60.6930 H   0  0  0  0  0  0  0  0  0  0  0  0
   13.0671    2.4883  -59.3530 H   0  0  0  0  0  0  0  0  0  0  0  0
   10.9604    2.4064  -60.6897 H   0  0  0  0  0  0  0  0  0  0  0  0
   10.9715    4.7867  -61.4400 H   0  0  0  0  0  0  0  0  0  0  0  0
    9.4189    4.3697  -60.6310 H   0  0  0  0  0  0  0  0  0  0  0  0
   10.2791    6.5806  -59.8523 H   0  0  0  0  0  0  0  0  0  0  0  0
   12.7043    6.1173  -60.2019 H   0  0  0  0  0  0  0  0  0  0  0  0
   12.3839    6.6466  -58.5108 H   0  0  0  0  0  0  0  0  0  0  0  0
   10.2110    6.0866  -57.4092 H   0  0  0  0  0  0  0  0  0  0  0  0
    8.9811    5.1137  -58.3039 H   0  0  0  0  0  0  0  0  0  0  0  0
    9.3815    2.6970  -58.7809 H   0  0  0  0  0  0  0  0  0  0  0  0
   10.9246    1.9189  -58.2466 H   0  0  0  0  0  0  0  0  0  0  0  0
    9.4314    0.7742  -55.6249 H   0  0  0  0  0  0  0  0  0  0  0  0
    8.7673    2.0031  -54.4623 H   0  0  0  0  0  0  0  0  0  0  0  0
  1  2  2  0
  2  3  1  0
  3  4  1  0
  4  5  1  0
  4  6  1  0
  6  7  1  0
  2  8  1  0
  8  9  1  0
  9 10  1  0
 10 11  1  0
 11 12  1  0
 12 13  1  0
 13 14  1  0
 15 14  1  1
 15 16  1  0
 16 17  1  0
 17 18  1  0
 18 19  1  0
 19 20  1  0
 20 21  1  0
 21 22  1  0
 21 23  1  0
 19 24  1  0
 13 25  1  0
 25  9  1  0
 23 15  1  0
 24 15  1  0
 22 17  1  0
  3 26  1  0
  3 27  1  0
  4 28  1  1
  5 29  1  0
  6 30  1  0
  6 31  1  0
  7 32  1  0
  8 33  1  0
  9 34  1  1
 10 35  1  0
 10 36  1  0
 11 37  1  0
 11 38  1  0
 12 39  1  0
 12 40  1  0
 13 41  1  6
 14 42  1  0
 14 43  1  0
 16 44  1  0
 16 45  1  0
 17 46  1  1
 18 47  1  0
 18 48  1  0
 19 49  1  6
 20 50  1  0
 20 51  1  0
 21 52  1  6
 22 53  1  0
 22 54  1  0
 23 55  1  0
 23 56  1  0
 24 57  1  0
 24 58  1  0
 25 59  1  0
 25 60  1  0
M  CHG  1  13   1
M  END
>  <meeko>  (126) 
{"is_sidechain": false}

$$$$

     RDKit          3D

 60 63  0  0  0  0  0  0  0  0999 V2000
    9.4430   -3.3660  -52.3880 O   0  0  0  0  0  0  0  0  0  0  0  0
    8.5880   -2.6060  -51.9470 C   0  0  0  0  0  0  0  0  0  0  0  0
    8.1440   -2.5530  -50.5040 C   0  0  0  0  0  0  0  0  0  0  0  0
    7.2190   -3.7070  -50.1230 C   0  0  2  0  0  0  0  0  0  0  0  0
    7.9350   -4.9250  -50.3860 O   0  0  0  0  0  0  0  0  0  0  0  0
    5.9060   -3.7430  -50.9150 C   0  0  0  0  0  0  0  0  0  0  0  0
    4.9360   -4.4970  -50.1840 O   0  0  0  0  0  0  0  0  0  0  0  0
    7.9390   -1.6830  -52.7540 N   0  0  0  0  0  0  0  0  0  0  0  0
    8.0860   -1.7600  -54.2120 C   0  0  1  0  0  0  0  0  0  0  0  0
    6.7010   -1.7610  -54.8620 C   0  0  0  0  0  0  0  0  0  0  0  0
    5.9640   -0.4340  -54.6490 C   0  0  0  0  0  0  0  0  0  0  0  0
    6.8940    0.7670  -54.4970 C   0  0  0  0  0  0  0  0  0  0  0  0
    8.1170    0.5440  -55.3470 N   0  0  1  0  0  0  0  0  0  0  0  0
    8.9440    1.8040  -55.5430 C   0  0  0  0  0  0  0  0  0  0  0  0
    8.8050    2.4020  -56.9630 C   0  0  2  0  0  0  0  0  0  0  0  0
    8.7820    3.9510  -56.8280 C   0  0  0  0  0  0  0  0  0  0  0  0
    8.6620    4.6250  -58.2050 C   0  0  1  0  0  0  0  0  0  0  0  0
    9.8630    4.2170  -59.0730 C   0  0  0  0  0  0  0  0  0  0  0  0
    9.8900    2.6920  -59.2460 C   0  0  2  0  0  0  0  0  0  0  0  0
    8.5850    2.2330  -59.9180 C   0  0  0  0  0  0  0  0  0  0  0  0
    7.3780    2.6350  -59.0540 C   0  0  2  0  0  0  0  0  0  0  0  0
    7.3630    4.1610  -58.8820 C   0  0  0  0  0  0  0  0  0  0  0  0
    7.4990    1.9660  -57.6730 C   0  0  0  0  0  0  0  0  0  0  0  0
   10.0100    2.0230  -57.8650 C   0  0  0  0  0  0  0  0  0  0  0  0
    8.9630   -0.6140  -54.8070 C   0  0  0  0  0  0  0  0  0  0  0  0
    9.0357   -2.5912  -49.8610 H   0  0  0  0  0  0  0  0  0  0  0  0
    7.5795   -1.6189  -50.3669 H   0  0  0  0  0  0  0  0  0  0  0  0
    6.9429   -3.5785  -49.0660 H   0  0  0  0  0  0  0  0  0  0  0  0
    7.4350   -5.6350  -49.9350 H   0  0  0  0  0  0  0  0  0  0  0  0
    5.5382   -2.7171  -51.0642 H   0  0  0  0  0  0  0  0  0  0  0  0
    6.0781   -4.2136  -51.8942 H   0  0  0  0  0  0  0  0  0  0  0  0
    4.4110   -3.8520  -49.6740 H   0  0  0  0  0  0  0  0  0  0  0  0
    7.0370   -1.3820  -52.3910 H   0  0  0  0  0  0  0  0  0  0  0  0
    8.6153   -2.6979  -54.4358 H   0  0  0  0  0  0  0  0  0  0  0  0
    6.8161   -1.9335  -55.9423 H   0  0  0  0  0  0  0  0  0  0  0  0
    6.1065   -2.5583  -54.3920 H   0  0  0  0  0  0  0  0  0  0  0  0
    5.3083   -0.2581  -55.5145 H   0  0  0  0  0  0  0  0  0  0  0  0
    5.4015   -0.5261  -53.7082 H   0  0  0  0  0  0  0  0  0  0  0  0
    6.3761    1.6798  -54.8266 H   0  0  0  0  0  0  0  0  0  0  0  0
    7.1871    0.8819  -53.4430 H   0  0  0  0  0  0  0  0  0  0  0  0
    7.7830    0.2470  -56.2700 H   0  0  0  0  0  0  0  0  0  0  0  0
    8.6149    2.5568  -54.8116 H   0  0  0  0  0  0  0  0  0  0  0  0
   10.0001    1.5302  -55.4026 H   0  0  0  0  0  0  0  0  0  0  0  0
    7.9222    4.2449  -56.2080 H   0  0  0  0  0  0  0  0  0  0  0  0
    9.7239    4.2751  -56.3613 H   0  0  0  0  0  0  0  0  0  0  0  0
    8.6467    5.7184  -58.0855 H   0  0  0  0  0  0  0  0  0  0  0  0
    9.7781    4.6944  -60.0604 H   0  0  0  0  0  0  0  0  0  0  0  0
   10.7917    4.5417  -58.5810 H   0  0  0  0  0  0  0  0  0  0  0  0
   10.7496    2.4080  -59.8709 H   0  0  0  0  0  0  0  0  0  0  0  0
    8.4986    2.7065  -60.9071 H   0  0  0  0  0  0  0  0  0  0  0  0
    8.6014    1.1386  -60.0280 H   0  0  0  0  0  0  0  0  0  0  0  0
    6.4470    2.3104  -59.5418 H   0  0  0  0  0  0  0  0  0  0  0  0
    7.2759    4.6383  -59.8692 H   0  0  0  0  0  0  0  0  0  0  0  0
    6.5061    4.4457  -58.2538 H   0  0  0  0  0  0  0  0  0  0  0  0
    6.6375    2.2576  -57.0543 H   0  0  0  0  0  0  0  0  0  0  0  0
    7.5198    0.8748  -57.8105 H   0  0  0  0  0  0  0  0  0  0  0  0
   10.0345    0.9309  -57.9941 H   0  0  0  0  0  0  0  0  0  0  0  0
   10.9351    2.3721  -57.3830 H   0  0  0  0  0  0  0  0  0  0  0  0
    9.5693   -1.0226  -55.6288 H   0  0  0  0  0  0  0  0  0  0  0  0
    9.5964   -0.2201  -53.9985 H   0  0  0  0  0  0  0  0  0  0  0  0
  1  2  2  0
  2  3  1  0
  3  4  1  0
  4  5  1  0
  4  6  1  0
  6  7  1  0
  2  8  1  0
  8  9  1  0
  9 10  1  0
 10 11  1  0
 11 12  1  0
 12 13  1  0
 13 14  1  0
 15 14  1  1
 15 16  1  0
 16 17  1  0
 17 18  1  0
 18 19  1  0
 19 20  1  0
 20 21  1  0
 21 22  1  0
 21 23  1  0
 19 24  1  0
 13 25  1  0
 25  9  1  0
 23 15  1  0
 24 15  1  0
 22 17  1  0
  3 26  1  0
  3 27  1  0
  4 28  1  1
  5 29  1  0
  6 30  1  0
  6 31  1  0
  7 32  1  0
  8 33  1  0
  9 34  1  1
 10 35  1  0
 10 36  1  0
 11 37  1  0
 11 38  1  0
 12 39  1  0
 12 40  1  0
 13 41  1  6
 14 42  1  0
 14 43  1  0
 16 44  1  0
 16 45  1  0
 17 46  1  1
 18 47  1  0
 18 48  1  0
 19 49  1  6
 20 50  1  0
 20 51  1  0
 21 52  1  6
 22 53  1  0
 22 54  1  0
 23 55  1  0
 23 56  1  0
 24 57  1  0
 24 58  1  0
 25 59  1  0
 25 60  1  0
M  CHG  1  13   1
M  END
>  <meeko>  (127) 
{"is_sidechain": false}

$$$$

     RDKit          3D

 60 63  0  0  0  0  0  0  0  0999 V2000
    8.6960    1.8900  -57.6360 O   0  0  0  0  0  0  0  0  0  0  0  0
    9.1490    2.3410  -56.5890 C   0  0  0  0  0  0  0  0  0  0  0  0
    9.6680    3.7530  -56.4450 C   0  0  0  0  0  0  0  0  0  0  0  0
   11.0320    3.9280  -57.0990 C   0  0  1  0  0  0  0  0  0  0  0  0
   11.7060    2.6590  -57.1910 O   0  0  0  0  0  0  0  0  0  0  0  0
   10.9600    4.5530  -58.4960 C   0  0  0  0  0  0  0  0  0  0  0  0
   10.7400    3.4970  -59.4330 O   0  0  0  0  0  0  0  0  0  0  0  0
    9.2620    1.5810  -55.4460 N   0  0  0  0  0  0  0  0  0  0  0  0
    8.8670    0.1860  -55.4340 C   0  0  2  0  0  0  0  0  0  0  0  0
    7.5600    0.0020  -54.6600 C   0  0  0  0  0  0  0  0  0  0  0  0
    7.1400   -1.4640  -54.6150 C   0  0  0  0  0  0  0  0  0  0  0  0
    8.2370   -2.3570  -54.0510 C   0  0  0  0  0  0  0  0  0  0  0  0
    9.4980   -2.1810  -54.8620 N   0  0  2  0  0  0  0  0  0  0  0  0
   10.6010   -3.1360  -54.4380 C   0  0  0  0  0  0  0  0  0  0  0  0
   11.2630   -3.8530  -55.6360 C   0  0  2  0  0  0  0  0  0  0  0  0
   12.3550   -4.8110  -55.0810 C   0  0  0  0  0  0  0  0  0  0  0  0
   13.0580   -5.5670  -56.2190 C   0  0  1  0  0  0  0  0  0  0  0  0
   12.0190   -6.3910  -56.9950 C   0  0  0  0  0  0  0  0  0  0  0  0
   10.9440   -5.4620  -57.5800 C   0  0  2  0  0  0  0  0  0  0  0  0
   11.6100   -4.4460  -58.5230 C   0  0  0  0  0  0  0  0  0  0  0  0
   12.6500   -3.6150  -57.7540 C   0  0  2  0  0  0  0  0  0  0  0  0
   13.7170   -4.5530  -57.1670 C   0  0  0  0  0  0  0  0  0  0  0  0
   11.9500   -2.8610  -56.6090 C   0  0  0  0  0  0  0  0  0  0  0  0
   10.2440   -4.7090  -56.4350 C   0  0  0  0  0  0  0  0  0  0  0  0
    9.9680   -0.7340  -54.8650 C   0  0  0  0  0  0  0  0  0  0  0  0
    8.9553    4.4436  -56.9194 H   0  0  0  0  0  0  0  0  0  0  0  0
    9.7754    3.9681  -55.3716 H   0  0  0  0  0  0  0  0  0  0  0  0
   11.5918    4.6219  -56.4547 H   0  0  0  0  0  0  0  0  0  0  0  0
   12.5890    2.8400  -56.7980 H   0  0  0  0  0  0  0  0  0  0  0  0
   10.1301    5.2736  -58.5418 H   0  0  0  0  0  0  0  0  0  0  0  0
   11.8937    5.0862  -58.7283 H   0  0  0  0  0  0  0  0  0  0  0  0
   10.9250    2.6590  -58.9710 H   0  0  0  0  0  0  0  0  0  0  0  0
    9.9560    1.9270  -54.7760 H   0  0  0  0  0  0  0  0  0  0  0  0
    8.7080   -0.1112  -56.4811 H   0  0  0  0  0  0  0  0  0  0  0  0
    7.6992    0.3659  -53.6313 H   0  0  0  0  0  0  0  0  0  0  0  0
    6.7713    0.5720  -55.1729 H   0  0  0  0  0  0  0  0  0  0  0  0
    6.2457   -1.5575  -53.9813 H   0  0  0  0  0  0  0  0  0  0  0  0
    6.9347   -1.7894  -55.6455 H   0  0  0  0  0  0  0  0  0  0  0  0
    8.4328   -2.0803  -53.0045 H   0  0  0  0  0  0  0  0  0  0  0  0
    7.9146   -3.4076  -54.0991 H   0  0  0  0  0  0  0  0  0  0  0  0
    9.2550   -2.3950  -55.8370 H   0  0  0  0  0  0  0  0  0  0  0  0
   11.3722   -2.5658  -53.8994 H   0  0  0  0  0  0  0  0  0  0  0  0
   10.1451   -3.9075  -53.8000 H   0  0  0  0  0  0  0  0  0  0  0  0
   13.1007   -4.2227  -54.5261 H   0  0  0  0  0  0  0  0  0  0  0  0
   11.8720   -5.5455  -54.4197 H   0  0  0  0  0  0  0  0  0  0  0  0
   13.8253   -6.2371  -55.8039 H   0  0  0  0  0  0  0  0  0  0  0  0
   12.5188   -6.9306  -57.8129 H   0  0  0  0  0  0  0  0  0  0  0  0
   11.5431   -7.1092  -56.3111 H   0  0  0  0  0  0  0  0  0  0  0  0
   10.2052   -6.0564  -58.1376 H   0  0  0  0  0  0  0  0  0  0  0  0
   12.1081   -4.9833  -59.3435 H   0  0  0  0  0  0  0  0  0  0  0  0
   10.8403   -3.7733  -58.9292 H   0  0  0  0  0  0  0  0  0  0  0  0
   13.1263   -2.8948  -58.4356 H   0  0  0  0  0  0  0  0  0  0  0  0
   14.2191   -5.0910  -57.9845 H   0  0  0  0  0  0  0  0  0  0  0  0
   14.4528   -3.9582  -56.6060 H   0  0  0  0  0  0  0  0  0  0  0  0
   12.6963   -2.2718  -56.0559 H   0  0  0  0  0  0  0  0  0  0  0  0
   11.1828   -2.2003  -57.0390 H   0  0  0  0  0  0  0  0  0  0  0  0
    9.4708   -4.0497  -56.8563 H   0  0  0  0  0  0  0  0  0  0  0  0
    9.7900   -5.4443  -55.7544 H   0  0  0  0  0  0  0  0  0  0  0  0
   10.2015   -0.4262  -53.8351 H   0  0  0  0  0  0  0  0  0  0  0  0
   10.8652   -0.6506  -55.4960 H   0  0  0  0  0  0  0  0  0  0  0  0
  1  2  2  0
  2  3  1  0
  3  4  1  0
  4  5  1  0
  4  6  1  0
  6  7  1  0
  2  8  1  0
  8  9  1  0
  9 10  1  0
 10 11  1  0
 11 12  1  0
 12 13  1  0
 13 14  1  0
 15 14  1  1
 15 16  1  0
 16 17  1  0
 17 18  1  0
 18 19  1  0
 19 20  1  0
 20 21  1  0
 21 22  1  0
 21 23  1  0
 19 24  1  0
 13 25  1  0
 25  9  1  0
 23 15  1  0
 24 15  1  0
 22 17  1  0
  3 26  1  0
  3 27  1  0
  4 28  1  1
  5 29  1  0
  6 30  1  0
  6 31  1  0
  7 32  1  0
  8 33  1  0
  9 34  1  6
 10 35  1  0
 10 36  1  0
 11 37  1  0
 11 38  1  0
 12 39  1  0
 12 40  1  0
 13 41  1  6
 14 42  1  0
 14 43  1  0
 16 44  1  0
 16 45  1  0
 17 46  1  1
 18 47  1  0
 18 48  1  0
 19 49  1  6
 20 50  1  0
 20 51  1  0
 21 52  1  6
 22 53  1  0
 22 54  1  0
 23 55  1  0
 23 56  1  0
 24 57  1  0
 24 58  1  0
 25 59  1  0
 25 60  1  0
M  CHG  1  13   1
M  END
>  <meeko>  (128) 
{"is_sidechain": false}

$$$$

     RDKit          3D

 60 63  0  0  0  0  0  0  0  0999 V2000
    8.3110    0.3560  -55.2970 O   0  0  0  0  0  0  0  0  0  0  0  0
    7.0860    0.3810  -55.3000 C   0  0  0  0  0  0  0  0  0  0  0  0
    6.2820    1.3630  -56.1190 C   0  0  0  0  0  0  0  0  0  0  0  0
    7.0540    1.9000  -57.3240 C   0  0  2  0  0  0  0  0  0  0  0  0
    8.0550    2.8030  -56.8300 O   0  0  0  0  0  0  0  0  0  0  0  0
    6.1940    2.6950  -58.3170 C   0  0  0  0  0  0  0  0  0  0  0  0
    6.8740    3.9000  -58.6910 O   0  0  0  0  0  0  0  0  0  0  0  0
    6.3260   -0.5000  -54.5550 N   0  0  0  0  0  0  0  0  0  0  0  0
    6.9520   -1.6440  -53.9010 C   0  0  2  0  0  0  0  0  0  0  0  0
    7.9900   -1.1590  -52.8880 C   0  0  0  0  0  0  0  0  0  0  0  0
    8.6560   -2.3090  -52.1340 C   0  0  0  0  0  0  0  0  0  0  0  0
    8.6950   -3.6230  -52.9040 C   0  0  0  0  0  0  0  0  0  0  0  0
    8.7920   -3.3770  -54.3840 N   0  0  2  0  0  0  0  0  0  0  0  0
   10.1080   -2.7620  -54.8290 C   0  0  0  0  0  0  0  0  0  0  0  0
   10.9240   -3.6870  -55.7620 C   0  0  2  0  0  0  0  0  0  0  0  0
   11.9690   -4.5220  -54.9730 C   0  0  0  0  0  0  0  0  0  0  0  0
   12.8190   -5.3770  -55.9310 C   0  0  1  0  0  0  0  0  0  0  0  0
   11.8970   -6.3240  -56.7170 C   0  0  0  0  0  0  0  0  0  0  0  0
   10.8790   -5.5100  -57.5340 C   0  0  2  0  0  0  0  0  0  0  0  0
   11.6290   -4.5900  -58.5090 C   0  0  0  0  0  0  0  0  0  0  0  0
   12.5470   -3.6370  -57.7280 C   0  0  2  0  0  0  0  0  0  0  0  0
   13.5590   -4.4580  -56.9130 C   0  0  0  0  0  0  0  0  0  0  0  0
   11.6970   -2.7890  -56.7690 C   0  0  0  0  0  0  0  0  0  0  0  0
   10.0280   -4.6550  -56.5770 C   0  0  0  0  0  0  0  0  0  0  0  0
    7.5580   -2.6560  -54.9140 C   0  0  0  0  0  0  0  0  0  0  0  0
    5.3733    0.8589  -56.4798 H   0  0  0  0  0  0  0  0  0  0  0  0
    6.0432    2.2186  -55.4702 H   0  0  0  0  0  0  0  0  0  0  0  0
    7.4580    1.0268  -57.8572 H   0  0  0  0  0  0  0  0  0  0  0  0
    7.6110    3.6370  -56.5910 H   0  0  0  0  0  0  0  0  0  0  0  0
    6.0129    2.0844  -59.2138 H   0  0  0  0  0  0  0  0  0  0  0  0
    5.2348    2.9510  -57.8433 H   0  0  0  0  0  0  0  0  0  0  0  0
    7.4980    4.0640  -57.9520 H   0  0  0  0  0  0  0  0  0  0  0  0
    5.3800   -0.6400  -54.9270 H   0  0  0  0  0  0  0  0  0  0  0  0
    6.1671   -2.1969  -53.3641 H   0  0  0  0  0  0  0  0  0  0  0  0
    8.7661   -0.5918  -53.4227 H   0  0  0  0  0  0  0  0  0  0  0  0
    7.4679   -0.5337  -52.1489 H   0  0  0  0  0  0  0  0  0  0  0  0
    9.6901   -2.0153  -51.9009 H   0  0  0  0  0  0  0  0  0  0  0  0
    8.0500   -2.4888  -51.2338 H   0  0  0  0  0  0  0  0  0  0  0  0
    9.5695   -4.2053  -52.5780 H   0  0  0  0  0  0  0  0  0  0  0  0
    7.7663   -4.1763  -52.7006 H   0  0  0  0  0  0  0  0  0  0  0  0
    8.7420   -4.3100  -54.8110 H   0  0  0  0  0  0  0  0  0  0  0  0
    9.8936   -1.8254  -55.3645 H   0  0  0  0  0  0  0  0  0  0  0  0
   10.7123   -2.5905  -53.9260 H   0  0  0  0  0  0  0  0  0  0  0  0
   12.6286   -3.8409  -54.4154 H   0  0  0  0  0  0  0  0  0  0  0  0
   11.4369   -5.1906  -54.2803 H   0  0  0  0  0  0  0  0  0  0  0  0
   13.5492   -5.9638  -55.3544 H   0  0  0  0  0  0  0  0  0  0  0  0
   12.5026   -6.9391  -57.3988 H   0  0  0  0  0  0  0  0  0  0  0  0
   11.3573   -6.9713  -56.0100 H   0  0  0  0  0  0  0  0  0  0  0  0
   10.2270   -6.1922  -58.0992 H   0  0  0  0  0  0  0  0  0  0  0  0
   12.2355   -5.2011  -59.1936 H   0  0  0  0  0  0  0  0  0  0  0  0
   10.8998   -4.0002  -59.0838 H   0  0  0  0  0  0  0  0  0  0  0  0
   13.0824   -2.9816  -58.4307 H   0  0  0  0  0  0  0  0  0  0  0  0
   14.1670   -5.0691  -57.5963 H   0  0  0  0  0  0  0  0  0  0  0  0
   14.2082   -3.7731  -56.3477 H   0  0  0  0  0  0  0  0  0  0  0  0
   12.3567   -2.1086  -56.2105 H   0  0  0  0  0  0  0  0  0  0  0  0
   10.9658   -2.2194  -57.3614 H   0  0  0  0  0  0  0  0  0  0  0  0
    9.3040   -4.0697  -57.1629 H   0  0  0  0  0  0  0  0  0  0  0  0
    9.5030   -5.3231  -55.8784 H   0  0  0  0  0  0  0  0  0  0  0  0
    7.8382   -2.1102  -55.8270 H   0  0  0  0  0  0  0  0  0  0  0  0
    6.7919   -3.4216  -55.1062 H   0  0  0  0  0  0  0  0  0  0  0  0
  1  2  2  0
  2  3  1  0
  3  4  1  0
  4  5  1  0
  4  6  1  0
  6  7  1  0
  2  8  1  0
  8  9  1  0
  9 10  1  0
 10 11  1  0
 11 12  1  0
 12 13  1  0
 13 14  1  0
 15 14  1  1
 15 16  1  0
 16 17  1  0
 17 18  1  0
 18 19  1  0
 19 20  1  0
 20 21  1  0
 21 22  1  0
 21 23  1  0
 19 24  1  0
 13 25  1  0
 25  9  1  0
 23 15  1  0
 24 15  1  0
 22 17  1  0
  3 26  1  0
  3 27  1  0
  4 28  1  6
  5 29  1  0
  6 30  1  0
  6 31  1  0
  7 32  1  0
  8 33  1  0
  9 34  1  1
 10 35  1  0
 10 36  1  0
 11 37  1  0
 11 38  1  0
 12 39  1  0
 12 40  1  0
 13 41  1  6
 14 42  1  0
 14 43  1  0
 16 44  1  0
 16 45  1  0
 17 46  1  1
 18 47  1  0
 18 48  1  0
 19 49  1  6
 20 50  1  0
 20 51  1  0
 21 52  1  6
 22 53  1  0
 22 54  1  0
 23 55  1  0
 23 56  1  0
 24 57  1  0
 24 58  1  0
 25 59  1  0
 25 60  1  0
M  CHG  1  13   1
M  END
>  <meeko>  (129) 
{"is_sidechain": false}

$$$$

     RDKit          3D

 60 63  0  0  0  0  0  0  0  0999 V2000
   10.2870    5.4820  -59.6430 O   0  0  0  0  0  0  0  0  0  0  0  0
    9.9690    4.3190  -59.8700 C   0  0  0  0  0  0  0  0  0  0  0  0
    9.8520    3.7860  -61.2850 C   0  0  0  0  0  0  0  0  0  0  0  0
    8.7380    2.7710  -61.5490 C   0  0  1  0  0  0  0  0  0  0  0  0
    8.9980    1.5320  -60.8840 O   0  0  0  0  0  0  0  0  0  0  0  0
    7.3420    3.2460  -61.1240 C   0  0  0  0  0  0  0  0  0  0  0  0
    6.8080    2.3490  -60.1410 O   0  0  0  0  0  0  0  0  0  0  0  0
    9.6400    3.4330  -58.8630 N   0  0  0  0  0  0  0  0  0  0  0  0
    9.8400    3.8090  -57.4600 C   0  0  1  0  0  0  0  0  0  0  0  0
    8.5570    4.4080  -56.8700 C   0  0  0  0  0  0  0  0  0  0  0  0
    7.4030    3.4000  -56.8750 C   0  0  0  0  0  0  0  0  0  0  0  0
    7.8600    1.9460  -56.8240 C   0  0  0  0  0  0  0  0  0  0  0  0
    9.1060    1.8480  -55.9780 N   0  0  1  0  0  0  0  0  0  0  0  0
    9.4590    0.4220  -55.5990 C   0  0  0  0  0  0  0  0  0  0  0  0
    8.3990   -0.2390  -54.6870 C   0  0  2  0  0  0  0  0  0  0  0  0
    8.8750   -1.6850  -54.3700 C   0  0  0  0  0  0  0  0  0  0  0  0
    7.8780   -2.4070  -53.4500 C   0  0  1  0  0  0  0  0  0  0  0  0
    7.7480   -1.6250  -52.1340 C   0  0  0  0  0  0  0  0  0  0  0  0
    7.2480   -0.2000  -52.4180 C   0  0  2  0  0  0  0  0  0  0  0  0
    5.8800   -0.2710  -53.1160 C   0  0  0  0  0  0  0  0  0  0  0  0
    6.0020   -1.0510  -54.4360 C   0  0  2  0  0  0  0  0  0  0  0  0
    6.5070   -2.4710  -54.1420 C   0  0  0  0  0  0  0  0  0  0  0  0
    7.0050   -0.3320  -55.3580 C   0  0  0  0  0  0  0  0  0  0  0  0
    8.2500    0.5180  -53.3390 C   0  0  0  0  0  0  0  0  0  0  0  0
   10.2870    2.5960  -56.6030 C   0  0  0  0  0  0  0  0  0  0  0  0
    9.6847    4.6449  -61.9515 H   0  0  0  0  0  0  0  0  0  0  0  0
   10.7891    3.2389  -61.4653 H   0  0  0  0  0  0  0  0  0  0  0  0
    8.7377    2.6438  -62.6416 H   0  0  0  0  0  0  0  0  0  0  0  0
    9.6260    1.0260  -61.4340 H   0  0  0  0  0  0  0  0  0  0  0  0
    7.4135    4.2571  -60.6967 H   0  0  0  0  0  0  0  0  0  0  0  0
    6.6789    3.2635  -62.0015 H   0  0  0  0  0  0  0  0  0  0  0  0
    5.9950    2.8220  -59.8440 H   0  0  0  0  0  0  0  0  0  0  0  0
    9.8290    2.4590  -59.1140 H   0  0  0  0  0  0  0  0  0  0  0  0
   10.6387    4.5650  -57.4370 H   0  0  0  0  0  0  0  0  0  0  0  0
    8.7534    4.7191  -55.8333 H   0  0  0  0  0  0  0  0  0  0  0  0
    8.2634    5.2665  -57.4919 H   0  0  0  0  0  0  0  0  0  0  0  0
    6.7673    3.5953  -55.9988 H   0  0  0  0  0  0  0  0  0  0  0  0
    6.8624    3.5344  -57.8235 H   0  0  0  0  0  0  0  0  0  0  0  0
    7.0658    1.3258  -56.3829 H   0  0  0  0  0  0  0  0  0  0  0  0
    8.0751    1.5898  -57.8423 H   0  0  0  0  0  0  0  0  0  0  0  0
    8.8880    2.3560  -55.1130 H   0  0  0  0  0  0  0  0  0  0  0  0
    9.5503   -0.1733  -56.5195 H   0  0  0  0  0  0  0  0  0  0  0  0
   10.4039    0.4544  -55.0367 H   0  0  0  0  0  0  0  0  0  0  0  0
    8.9674   -2.2471  -55.3110 H   0  0  0  0  0  0  0  0  0  0  0  0
    9.8461   -1.6282  -53.8564 H   0  0  0  0  0  0  0  0  0  0  0  0
    8.2346   -3.4264  -53.2409 H   0  0  0  0  0  0  0  0  0  0  0  0
    7.0323   -2.1377  -51.4745 H   0  0  0  0  0  0  0  0  0  0  0  0
    8.7324   -1.5722  -51.6460 H   0  0  0  0  0  0  0  0  0  0  0  0
    7.1534    0.3528  -51.4717 H   0  0  0  0  0  0  0  0  0  0  0  0
    5.1611   -0.7802  -52.4573 H   0  0  0  0  0  0  0  0  0  0  0  0
    5.5313    0.7499  -53.3311 H   0  0  0  0  0  0  0  0  0  0  0  0
    5.0197   -1.1046  -54.9281 H   0  0  0  0  0  0  0  0  0  0  0  0
    5.7901   -2.9839  -53.4840 H   0  0  0  0  0  0  0  0  0  0  0  0
    6.6049   -3.0233  -55.0883 H   0  0  0  0  0  0  0  0  0  0  0  0
    7.0948   -0.8925  -56.3002 H   0  0  0  0  0  0  0  0  0  0  0  0
    6.6382    0.6866  -55.5524 H   0  0  0  0  0  0  0  0  0  0  0  0
    7.8912    1.5389  -53.5363 H   0  0  0  0  0  0  0  0  0  0  0  0
    9.2300    0.5468  -52.8401 H   0  0  0  0  0  0  0  0  0  0  0  0
   10.9418    2.9571  -55.7962 H   0  0  0  0  0  0  0  0  0  0  0  0
   10.8111    1.8939  -57.2681 H   0  0  0  0  0  0  0  0  0  0  0  0
  1  2  2  0
  2  3  1  0
  3  4  1  0
  4  5  1  0
  4  6  1  0
  6  7  1  0
  2  8  1  0
  8  9  1  0
  9 10  1  0
 10 11  1  0
 11 12  1  0
 12 13  1  0
 13 14  1  0
 15 14  1  6
 15 16  1  0
 16 17  1  0
 17 18  1  0
 18 19  1  0
 19 20  1  0
 20 21  1  0
 21 22  1  0
 21 23  1  0
 19 24  1  0
 13 25  1  0
 25  9  1  0
 23 15  1  0
 24 15  1  0
 22 17  1  0
  3 26  1  0
  3 27  1  0
  4 28  1  6
  5 29  1  0
  6 30  1  0
  6 31  1  0
  7 32  1  0
  8 33  1  0
  9 34  1  6
 10 35  1  0
 10 36  1  0
 11 37  1  0
 11 38  1  0
 12 39  1  0
 12 40  1  0
 13 41  1  1
 14 42  1  0
 14 43  1  0
 16 44  1  0
 16 45  1  0
 17 46  1  1
 18 47  1  0
 18 48  1  0
 19 49  1  1
 20 50  1  0
 20 51  1  0
 21 52  1  6
 22 53  1  0
 22 54  1  0
 23 55  1  0
 23 56  1  0
 24 57  1  0
 24 58  1  0
 25 59  1  0
 25 60  1  0
M  CHG  1  13   1
M  END
>  <meeko>  (130) 
{"is_sidechain": false}

$$$$

     RDKit          3D

 60 63  0  0  0  0  0  0  0  0999 V2000
    8.8080    1.8210  -55.7900 O   0  0  0  0  0  0  0  0  0  0  0  0
    7.8370    1.0730  -55.8650 C   0  0  0  0  0  0  0  0  0  0  0  0
    6.8290    1.1430  -56.9860 C   0  0  0  0  0  0  0  0  0  0  0  0
    6.2430    2.5480  -57.1110 C   0  0  2  0  0  0  0  0  0  0  0  0
    4.8570    2.4100  -57.4220 O   0  0  0  0  0  0  0  0  0  0  0  0
    6.9290    3.3840  -58.2090 C   0  0  0  0  0  0  0  0  0  0  0  0
    8.0620    4.1070  -57.7180 O   0  0  0  0  0  0  0  0  0  0  0  0
    7.6200    0.0340  -54.9860 N   0  0  0  0  0  0  0  0  0  0  0  0
    8.4720   -0.1780  -53.8120 C   0  0  1  0  0  0  0  0  0  0  0  0
    7.6580   -0.8900  -52.7180 C   0  0  0  0  0  0  0  0  0  0  0  0
    7.6730   -2.4190  -52.8540 C   0  0  0  0  0  0  0  0  0  0  0  0
    8.0360   -2.9020  -54.2520 C   0  0  0  0  0  0  0  0  0  0  0  0
    9.4090   -2.3980  -54.6520 N   0  0  2  0  0  0  0  0  0  0  0  0
   10.5170   -3.3990  -54.3700 C   0  0  0  0  0  0  0  0  0  0  0  0
   11.1920   -3.9860  -55.6290 C   0  0  2  0  0  0  0  0  0  0  0  0
   10.2460   -4.8660  -56.4830 C   0  0  0  0  0  0  0  0  0  0  0  0
   10.9870   -5.4510  -57.6960 C   0  0  1  0  0  0  0  0  0  0  0  0
   11.5420   -4.3020  -58.5550 C   0  0  0  0  0  0  0  0  0  0  0  0
   12.5250   -3.4550  -57.7310 C   0  0  2  0  0  0  0  0  0  0  0  0
   13.6770   -4.3430  -57.2400 C   0  0  0  0  0  0  0  0  0  0  0  0
   13.1250   -5.4830  -56.3700 C   0  0  2  0  0  0  0  0  0  0  0  0
   12.1500   -6.3280  -57.2040 C   0  0  0  0  0  0  0  0  0  0  0  0
   12.3760   -4.8860  -55.1660 C   0  0  0  0  0  0  0  0  0  0  0  0
   11.7930   -2.8630  -56.5140 C   0  0  0  0  0  0  0  0  0  0  0  0
    9.7460   -1.0170  -54.0840 C   0  0  0  0  0  0  0  0  0  0  0  0
    7.3235    0.8745  -57.9312 H   0  0  0  0  0  0  0  0  0  0  0  0
    6.0111    0.4415  -56.7650 H   0  0  0  0  0  0  0  0  0  0  0  0
    6.4024    3.0789  -56.1609 H   0  0  0  0  0  0  0  0  0  0  0  0
    4.3800    3.1790  -57.0590 H   0  0  0  0  0  0  0  0  0  0  0  0
    7.2617    2.7085  -59.0109 H   0  0  0  0  0  0  0  0  0  0  0  0
    6.1972    4.1181  -58.5772 H   0  0  0  0  0  0  0  0  0  0  0  0
    8.6860    3.4170  -57.4070 H   0  0  0  0  0  0  0  0  0  0  0  0
    6.6470   -0.2480  -54.9030 H   0  0  0  0  0  0  0  0  0  0  0  0
    8.8075    0.8230  -53.5032 H   0  0  0  0  0  0  0  0  0  0  0  0
    8.0793   -0.6217  -51.7379 H   0  0  0  0  0  0  0  0  0  0  0  0
    6.6131   -0.5621  -52.8214 H   0  0  0  0  0  0  0  0  0  0  0  0
    8.4088   -2.8243  -52.1438 H   0  0  0  0  0  0  0  0  0  0  0  0
    6.6523   -2.7720  -52.6451 H   0  0  0  0  0  0  0  0  0  0  0  0
    8.0368   -4.0019  -54.2654 H   0  0  0  0  0  0  0  0  0  0  0  0
    7.2942   -2.5128  -54.9650 H   0  0  0  0  0  0  0  0  0  0  0  0
    9.3370   -2.2410  -55.6780 H   0  0  0  0  0  0  0  0  0  0  0  0
   11.2895   -2.8952  -53.7704 H   0  0  0  0  0  0  0  0  0  0  0  0
   10.0462   -4.2445  -53.8470 H   0  0  0  0  0  0  0  0  0  0  0  0
    9.8633   -5.6901  -55.8630 H   0  0  0  0  0  0  0  0  0  0  0  0
    9.4167   -4.2409  -56.8458 H   0  0  0  0  0  0  0  0  0  0  0  0
   10.2942   -6.0587  -58.2967 H   0  0  0  0  0  0  0  0  0  0  0  0
   12.0647   -4.7199  -59.4280 H   0  0  0  0  0  0  0  0  0  0  0  0
   10.7087   -3.6656  -58.8875 H   0  0  0  0  0  0  0  0  0  0  0  0
   12.9228   -2.6431  -58.3576 H   0  0  0  0  0  0  0  0  0  0  0  0
   14.2045   -4.7682  -58.1066 H   0  0  0  0  0  0  0  0  0  0  0  0
   14.3727   -3.7358  -56.6422 H   0  0  0  0  0  0  0  0  0  0  0  0
   13.9536   -6.1134  -56.0151 H   0  0  0  0  0  0  0  0  0  0  0  0
   12.6812   -6.7491  -58.0703 H   0  0  0  0  0  0  0  0  0  0  0  0
   11.7515   -7.1421  -56.5807 H   0  0  0  0  0  0  0  0  0  0  0  0
   11.9829   -5.7051  -54.5459 H   0  0  0  0  0  0  0  0  0  0  0  0
   13.0797   -4.2669  -54.5902 H   0  0  0  0  0  0  0  0  0  0  0  0
   12.5054   -2.2757  -55.9160 H   0  0  0  0  0  0  0  0  0  0  0  0
   10.9739   -2.2231  -56.8739 H   0  0  0  0  0  0  0  0  0  0  0  0
   10.2958   -1.1452  -53.1399 H   0  0  0  0  0  0  0  0  0  0  0  0
   10.3547   -0.4816  -54.8276 H   0  0  0  0  0  0  0  0  0  0  0  0
  1  2  2  0
  2  3  1  0
  3  4  1  0
  4  5  1  0
  4  6  1  0
  6  7  1  0
  2  8  1  0
  8  9  1  0
  9 10  1  0
 10 11  1  0
 11 12  1  0
 12 13  1  0
 13 14  1  0
 15 14  1  1
 15 16  1  0
 16 17  1  0
 17 18  1  0
 18 19  1  0
 19 20  1  0
 20 21  1  0
 21 22  1  0
 21 23  1  0
 19 24  1  0
 13 25  1  0
 25  9  1  0
 23 15  1  0
 24 15  1  0
 22 17  1  0
  3 26  1  0
  3 27  1  0
  4 28  1  1
  5 29  1  0
  6 30  1  0
  6 31  1  0
  7 32  1  0
  8 33  1  0
  9 34  1  1
 10 35  1  0
 10 36  1  0
 11 37  1  0
 11 38  1  0
 12 39  1  0
 12 40  1  0
 13 41  1  6
 14 42  1  0
 14 43  1  0
 16 44  1  0
 16 45  1  0
 17 46  1  6
 18 47  1  0
 18 48  1  0
 19 49  1  6
 20 50  1  0
 20 51  1  0
 21 52  1  1
 22 53  1  0
 22 54  1  0
 23 55  1  0
 23 56  1  0
 24 57  1  0
 24 58  1  0
 25 59  1  0
 25 60  1  0
M  CHG  1  13   1
M  END
>  <meeko>  (131) 
{"is_sidechain": false}

$$$$

     RDKit          3D

 60 63  0  0  0  0  0  0  0  0999 V2000
    5.7670   -0.3310  -55.0410 O   0  0  0  0  0  0  0  0  0  0  0  0
    6.5660    0.5360  -55.3750 C   0  0  0  0  0  0  0  0  0  0  0  0
    6.1640    1.8140  -56.0720 C   0  0  0  0  0  0  0  0  0  0  0  0
    7.0120    2.0990  -57.3120 C   0  0  1  0  0  0  0  0  0  0  0  0
    6.1180    2.3630  -58.4030 O   0  0  0  0  0  0  0  0  0  0  0  0
    7.9240    3.3260  -57.1860 C   0  0  0  0  0  0  0  0  0  0  0  0
    9.1440    2.9660  -56.5270 O   0  0  0  0  0  0  0  0  0  0  0  0
    7.9270    0.3920  -55.1980 N   0  0  0  0  0  0  0  0  0  0  0  0
    8.4710   -0.8190  -54.6090 C   0  0  2  0  0  0  0  0  0  0  0  0
    8.3160   -0.7930  -53.0870 C   0  0  0  0  0  0  0  0  0  0  0  0
    8.9040   -2.0470  -52.4460 C   0  0  0  0  0  0  0  0  0  0  0  0
   10.3590   -2.2660  -52.8420 C   0  0  0  0  0  0  0  0  0  0  0  0
   10.5110   -2.2970  -54.3430 N   0  0  1  0  0  0  0  0  0  0  0  0
   10.0350   -3.5860  -54.9980 C   0  0  0  0  0  0  0  0  0  0  0  0
   11.0620   -4.1630  -55.9990 C   0  0  2  0  0  0  0  0  0  0  0  0
   12.2410   -4.8720  -55.2840 C   0  0  0  0  0  0  0  0  0  0  0  0
   13.2080   -5.4910  -56.3100 C   0  0  1  0  0  0  0  0  0  0  0  0
   12.4530   -6.5230  -57.1620 C   0  0  0  0  0  0  0  0  0  0  0  0
   11.2940   -5.8410  -57.9050 C   0  0  2  0  0  0  0  0  0  0  0  0
   11.8500   -4.7340  -58.8130 C   0  0  0  0  0  0  0  0  0  0  0  0
   12.6010   -3.6930  -57.9680 C   0  0  2  0  0  0  0  0  0  0  0  0
   13.7560   -4.3810  -57.2220 C   0  0  0  0  0  0  0  0  0  0  0  0
   11.6340   -3.0720  -56.9440 C   0  0  0  0  0  0  0  0  0  0  0  0
   10.3330   -5.2190  -56.8790 C   0  0  0  0  0  0  0  0  0  0  0  0
    9.9480   -1.0480  -54.9980 C   0  0  0  0  0  0  0  0  0  0  0  0
    5.1102    1.7326  -56.3769 H   0  0  0  0  0  0  0  0  0  0  0  0
    6.3188    2.6422  -55.3648 H   0  0  0  0  0  0  0  0  0  0  0  0
    7.6555    1.2190  -57.4586 H   0  0  0  0  0  0  0  0  0  0  0  0
    5.2070    2.3270  -58.0580 H   0  0  0  0  0  0  0  0  0  0  0  0
    8.1531    3.7138  -58.1896 H   0  0  0  0  0  0  0  0  0  0  0  0
    7.4096    4.0982  -56.5952 H   0  0  0  0  0  0  0  0  0  0  0  0
    9.8320    3.4860  -56.9990 H   0  0  0  0  0  0  0  0  0  0  0  0
    8.5100    0.9340  -55.8430 H   0  0  0  0  0  0  0  0  0  0  0  0
    7.8937   -1.6631  -55.0143 H   0  0  0  0  0  0  0  0  0  0  0  0
    8.8371    0.0903  -52.6892 H   0  0  0  0  0  0  0  0  0  0  0  0
    7.2428   -0.7531  -52.8489 H   0  0  0  0  0  0  0  0  0  0  0  0
    8.8456   -1.9467  -51.3521 H   0  0  0  0  0  0  0  0  0  0  0  0
    8.3233   -2.9117  -52.7996 H   0  0  0  0  0  0  0  0  0  0  0  0
   10.9700   -1.4467  -52.4352 H   0  0  0  0  0  0  0  0  0  0  0  0
   10.6916   -3.2325  -52.4356 H   0  0  0  0  0  0  0  0  0  0  0  0
   11.5220   -2.2360  -54.5080 H   0  0  0  0  0  0  0  0  0  0  0  0
    9.8523   -4.3333  -54.2118 H   0  0  0  0  0  0  0  0  0  0  0  0
    9.1186   -3.3534  -55.5602 H   0  0  0  0  0  0  0  0  0  0  0  0
   12.7856   -4.1381  -54.6718 H   0  0  0  0  0  0  0  0  0  0  0  0
   11.8378   -5.6750  -54.6494 H   0  0  0  0  0  0  0  0  0  0  0  0
   14.0397   -5.9840  -55.7854 H   0  0  0  0  0  0  0  0  0  0  0  0
   13.1439   -6.9674  -57.8936 H   0  0  0  0  0  0  0  0  0  0  0  0
   12.0499   -7.3086  -56.5060 H   0  0  0  0  0  0  0  0  0  0  0  0
   10.7588   -6.5835  -58.5150 H   0  0  0  0  0  0  0  0  0  0  0  0
   12.5409   -5.1761  -59.5460 H   0  0  0  0  0  0  0  0  0  0  0  0
   11.0169   -4.2426  -59.3369 H   0  0  0  0  0  0  0  0  0  0  0  0
   13.0003   -2.9053  -58.6238 H   0  0  0  0  0  0  0  0  0  0  0  0
   14.4508   -4.8204  -57.9529 H   0  0  0  0  0  0  0  0  0  0  0  0
   14.2821   -3.6361  -56.6069 H   0  0  0  0  0  0  0  0  0  0  0  0
   12.1734   -2.3227  -56.3460 H   0  0  0  0  0  0  0  0  0  0  0  0
   10.8007   -2.5999  -57.4850 H   0  0  0  0  0  0  0  0  0  0  0  0
    9.5038   -4.7315  -57.4126 H   0  0  0  0  0  0  0  0  0  0  0  0
    9.9543   -6.0182  -56.2249 H   0  0  0  0  0  0  0  0  0  0  0  0
   10.5406   -0.1786  -54.6773 H   0  0  0  0  0  0  0  0  0  0  0  0
   10.0004   -1.1780  -56.0890 H   0  0  0  0  0  0  0  0  0  0  0  0
  1  2  2  0
  2  3  1  0
  3  4  1  0
  4  5  1  0
  4  6  1  0
  6  7  1  0
  2  8  1  0
  8  9  1  0
  9 10  1  0
 10 11  1  0
 11 12  1  0
 12 13  1  0
 13 14  1  0
 15 14  1  1
 15 16  1  0
 16 17  1  0
 17 18  1  0
 18 19  1  0
 19 20  1  0
 20 21  1  0
 21 22  1  0
 21 23  1  0
 19 24  1  0
 13 25  1  0
 25  9  1  0
 23 15  1  0
 24 15  1  0
 22 17  1  0
  3 26  1  0
  3 27  1  0
  4 28  1  6
  5 29  1  0
  6 30  1  0
  6 31  1  0
  7 32  1  0
  8 33  1  0
  9 34  1  6
 10 35  1  0
 10 36  1  0
 11 37  1  0
 11 38  1  0
 12 39  1  0
 12 40  1  0
 13 41  1  1
 14 42  1  0
 14 43  1  0
 16 44  1  0
 16 45  1  0
 17 46  1  1
 18 47  1  0
 18 48  1  0
 19 49  1  6
 20 50  1  0
 20 51  1  0
 21 52  1  6
 22 53  1  0
 22 54  1  0
 23 55  1  0
 23 56  1  0
 24 57  1  0
 24 58  1  0
 25 59  1  0
 25 60  1  0
M  CHG  1  13   1
M  END
>  <meeko>  (132) 
{"is_sidechain": false}

$$$$

     RDKit          3D

 47 49  0  0  0  0  0  0  0  0999 V2000
    6.5080   -1.9780  -54.6080 C   0  0  0  0  0  0  0  0  0  0  0  0
    7.0710   -0.5370  -54.3850 C   0  0  0  0  0  0  0  0  0  0  0  0
    6.0990    0.3950  -55.1340 C   0  0  0  0  0  0  0  0  0  0  0  0
    7.0790   -0.3470  -52.8260 C   0  0  0  0  0  0  0  0  0  0  0  0
    7.0100    0.7690  -52.2990 O   0  0  0  0  0  0  0  0  0  0  0  0
    7.0590   -1.4280  -51.9990 N   0  0  0  0  0  0  0  0  0  0  0  0
    7.6260   -2.6170  -52.4630 O   0  0  0  0  0  0  0  0  0  0  0  0
    9.0040   -2.5470  -52.4190 C   0  0  0  0  0  0  0  0  0  0  0  0
    9.5570   -2.9650  -51.0770 C   0  0  0  0  0  0  0  0  0  0  0  0
    8.4880   -3.3130  -50.2060 O   0  0  0  0  0  0  0  0  0  0  0  0
    9.8100   -2.0660  -53.3900 C   0  0  0  0  0  0  0  0  0  0  0  0
    9.5280   -1.5510  -54.7980 C   0  0  2  0  0  0  0  0  0  0  0  0
   10.9180   -1.1960  -55.4040 C   0  0  0  0  0  0  0  0  0  0  0  0
   10.8120   -0.3670  -56.6740 C   0  0  0  0  0  0  0  0  0  0  0  0
   10.0480    0.8440  -56.3550 N   0  0  0  0  0  0  0  0  0  0  0  0
   10.3970    2.0550  -56.9860 C   0  0  0  0  0  0  0  0  0  0  0  0
   11.7440    2.4680  -56.9280 C   0  0  0  0  0  0  0  0  0  0  0  0
   12.1880    3.6420  -57.5510 C   0  0  0  0  0  0  0  0  0  0  0  0
   11.2880    4.4420  -58.2480 C   0  0  0  0  0  0  0  0  0  0  0  0
   11.8360    5.8810  -59.0130 Cl  0  0  0  0  0  0  0  0  0  0  0  0
    9.9470    4.0890  -58.3200 C   0  0  0  0  0  0  0  0  0  0  0  0
    9.5240    2.9090  -57.6860 C   0  0  0  0  0  0  0  0  0  0  0  0
    8.1030    2.6540  -57.7160 N   0  0  0  0  0  0  0  0  0  0  0  0
    7.4000    3.2480  -56.8890 O   0  0  0  0  0  0  0  0  0  0  0  0
    7.6940    1.8800  -58.5920 O   0  0  0  0  0  0  0  0  0  0  0  0
    8.8860    0.7110  -55.6130 C   0  0  0  0  0  0  0  0  0  0  0  0
    8.5210   -0.3880  -54.9180 C   0  0  0  0  0  0  0  0  0  0  0  0
    6.3221   -2.4538  -53.6338 H   0  0  0  0  0  0  0  0  0  0  0  0
    5.5663   -1.9203  -55.1736 H   0  0  0  0  0  0  0  0  0  0  0  0
    7.2394   -2.5740  -55.1736 H   0  0  0  0  0  0  0  0  0  0  0  0
    5.5038    0.9657  -54.4059 H   0  0  0  0  0  0  0  0  0  0  0  0
    6.6712    1.0906  -55.7654 H   0  0  0  0  0  0  0  0  0  0  0  0
    5.4280   -0.2060  -55.7654 H   0  0  0  0  0  0  0  0  0  0  0  0
    7.2260   -1.2180  -51.0240 H   0  0  0  0  0  0  0  0  0  0  0  0
   10.2190   -3.8335  -51.2087 H   0  0  0  0  0  0  0  0  0  0  0  0
   10.1255   -2.1303  -50.6410 H   0  0  0  0  0  0  0  0  0  0  0  0
    7.8550   -2.5760  -50.2380 H   0  0  0  0  0  0  0  0  0  0  0  0
   10.8741   -2.0407  -53.1123 H   0  0  0  0  0  0  0  0  0  0  0  0
    9.0066   -2.3415  -55.3578 H   0  0  0  0  0  0  0  0  0  0  0  0
   11.4912   -0.6253  -54.6585 H   0  0  0  0  0  0  0  0  0  0  0  0
   11.4166   -2.1409  -55.6657 H   0  0  0  0  0  0  0  0  0  0  0  0
   11.8171   -0.0934  -57.0275 H   0  0  0  0  0  0  0  0  0  0  0  0
   10.3103   -0.9407  -57.4672 H   0  0  0  0  0  0  0  0  0  0  0  0
   12.4681    1.8499  -56.3770 H   0  0  0  0  0  0  0  0  0  0  0  0
   13.2476    3.9310  -57.4890 H   0  0  0  0  0  0  0  0  0  0  0  0
    9.2294    4.7214  -58.8633 H   0  0  0  0  0  0  0  0  0  0  0  0
    8.2030    1.5729  -55.5877 H   0  0  0  0  0  0  0  0  0  0  0  0
  1  2  1  0
  2  3  1  0
  2  4  1  0
  4  5  2  0
  4  6  1  0
  6  7  1  0
  7  8  1  0
  8  9  1  0
  9 10  1  0
  8 11  2  0
 11 12  1  0
 12 13  1  0
 13 14  1  0
 14 15  1  0
 15 16  1  0
 16 17  1  0
 17 18  2  0
 18 19  1  0
 19 20  1  0
 19 21  2  0
 21 22  1  0
 22 23  1  0
 23 24  2  0
 23 25  1  0
 15 26  1  0
 26 27  2  0
 27  2  1  0
 27 12  1  0
 22 16  2  0
  1 28  1  0
  1 29  1  0
  1 30  1  0
  3 31  1  0
  3 32  1  0
  3 33  1  0
  6 34  1  0
  9 35  1  0
  9 36  1  0
 10 37  1  0
 11 38  1  0
 12 39  1  6
 13 40  1  0
 13 41  1  0
 14 42  1  0
 14 43  1  0
 17 44  1  0
 18 45  1  0
 21 46  1  0
 26 47  1  0
M  CHG  2  23   1  25  -1
M  END
>  <meeko>  (133) 
{"is_sidechain": false}

$$$$

     RDKit          3D

 47 49  0  0  0  0  0  0  0  0999 V2000
    8.5840    4.6560  -56.9150 C   0  0  0  0  0  0  0  0  0  0  0  0
    9.3110    3.2900  -56.8790 C   0  0  0  0  0  0  0  0  0  0  0  0
   10.3540    3.4830  -55.7280 C   0  0  0  0  0  0  0  0  0  0  0  0
   10.1430    3.0040  -58.1630 C   0  0  0  0  0  0  0  0  0  0  0  0
   11.3540    2.7600  -58.1340 O   0  0  0  0  0  0  0  0  0  0  0  0
    9.5100    2.9330  -59.3640 N   0  0  0  0  0  0  0  0  0  0  0  0
    8.3180    3.6500  -59.4940 O   0  0  0  0  0  0  0  0  0  0  0  0
    7.3110    2.7360  -59.6780 C   0  0  0  0  0  0  0  0  0  0  0  0
    6.8650    2.6070  -61.1120 C   0  0  0  0  0  0  0  0  0  0  0  0
    8.0030    2.4890  -61.9600 O   0  0  0  0  0  0  0  0  0  0  0  0
    6.6980    2.0970  -58.6650 C   0  0  0  0  0  0  0  0  0  0  0  0
    6.9060    2.0890  -57.1490 C   0  0  1  0  0  0  0  0  0  0  0  0
    6.0900    0.8510  -56.6570 C   0  0  0  0  0  0  0  0  0  0  0  0
    6.4570    0.4050  -55.2540 C   0  0  0  0  0  0  0  0  0  0  0  0
    7.9010    0.1350  -55.2440 N   0  0  0  0  0  0  0  0  0  0  0  0
    8.2940   -0.6860  -54.1600 C   0  0  0  0  0  0  0  0  0  0  0  0
    7.4970   -0.6590  -53.0020 C   0  0  0  0  0  0  0  0  0  0  0  0
    7.7930   -1.4620  -51.8950 C   0  0  0  0  0  0  0  0  0  0  0  0
    8.8980   -2.3100  -51.9240 C   0  0  0  0  0  0  0  0  0  0  0  0
    9.2560   -3.2940  -50.5600 Cl  0  0  0  0  0  0  0  0  0  0  0  0
    9.7170   -2.3600  -53.0450 C   0  0  0  0  0  0  0  0  0  0  0  0
    9.4080   -1.5450  -54.1430 C   0  0  0  0  0  0  0  0  0  0  0  0
   10.3280   -1.5870  -55.2600 N   0  0  0  0  0  0  0  0  0  0  0  0
   11.1380   -0.6560  -55.3640 O   0  0  0  0  0  0  0  0  0  0  0  0
   10.2710   -2.5830  -55.9940 O   0  0  0  0  0  0  0  0  0  0  0  0
    8.7360    1.0990  -55.7830 C   0  0  0  0  0  0  0  0  0  0  0  0
    8.3530    2.0940  -56.6130 C   0  0  0  0  0  0  0  0  0  0  0  0
    8.4004    5.0009  -55.8867 H   0  0  0  0  0  0  0  0  0  0  0  0
    9.2103    5.3909  -57.4419 H   0  0  0  0  0  0  0  0  0  0  0  0
    7.6246    4.5470  -57.4419 H   0  0  0  0  0  0  0  0  0  0  0  0
    9.8484    3.3894  -54.7556 H   0  0  0  0  0  0  0  0  0  0  0  0
   11.1367    2.7144  -55.8098 H   0  0  0  0  0  0  0  0  0  0  0  0
   10.8099    4.4807  -55.8098 H   0  0  0  0  0  0  0  0  0  0  0  0
   10.1160    2.9490  -60.1770 H   0  0  0  0  0  0  0  0  0  0  0  0
    6.2344    1.7121  -61.2197 H   0  0  0  0  0  0  0  0  0  0  0  0
    6.2900    3.5006  -61.3964 H   0  0  0  0  0  0  0  0  0  0  0  0
    8.0060    1.5780  -62.2990 H   0  0  0  0  0  0  0  0  0  0  0  0
    5.8763    1.4445  -58.9953 H   0  0  0  0  0  0  0  0  0  0  0  0
    6.5624    3.0528  -56.7452 H   0  0  0  0  0  0  0  0  0  0  0  0
    5.0210    1.1099  -56.6719 H   0  0  0  0  0  0  0  0  0  0  0  0
    6.3259    0.0171  -57.3345 H   0  0  0  0  0  0  0  0  0  0  0  0
    6.2178    1.1996  -54.5320 H   0  0  0  0  0  0  0  0  0  0  0  0
    5.8910   -0.4949  -54.9714 H   0  0  0  0  0  0  0  0  0  0  0  0
    6.6225    0.0073  -52.9655 H   0  0  0  0  0  0  0  0  0  0  0  0
    7.1528   -1.4237  -51.0013 H   0  0  0  0  0  0  0  0  0  0  0  0
   10.5916   -3.0266  -53.0706 H   0  0  0  0  0  0  0  0  0  0  0  0
    9.8012    1.0507  -55.5127 H   0  0  0  0  0  0  0  0  0  0  0  0
  1  2  1  0
  2  3  1  0
  2  4  1  0
  4  5  2  0
  4  6  1  0
  6  7  1  0
  7  8  1  0
  8  9  1  0
  9 10  1  0
  8 11  2  0
 11 12  1  0
 12 13  1  0
 13 14  1  0
 14 15  1  0
 15 16  1  0
 16 17  1  0
 17 18  2  0
 18 19  1  0
 19 20  1  0
 19 21  2  0
 21 22  1  0
 22 23  1  0
 23 24  2  0
 23 25  1  0
 15 26  1  0
 26 27  2  0
 27  2  1  0
 27 12  1  0
 22 16  2  0
  1 28  1  0
  1 29  1  0
  1 30  1  0
  3 31  1  0
  3 32  1  0
  3 33  1  0
  6 34  1  0
  9 35  1  0
  9 36  1  0
 10 37  1  0
 11 38  1  0
 12 39  1  1
 13 40  1  0
 13 41  1  0
 14 42  1  0
 14 43  1  0
 17 44  1  0
 18 45  1  0
 21 46  1  0
 26 47  1  0
M  CHG  2  23   1  25  -1
M  END
>  <meeko>  (134) 
{"is_sidechain": false}

$$$$

     RDKit          3D

 53 56  0  0  0  0  0  0  0  0999 V2000
    5.1320   -4.4590  -50.4120 C   0  0  0  0  0  0  0  0  0  0  0  0
    6.0430   -4.6680  -51.6130 C   0  0  0  0  0  0  0  0  0  0  0  0
    6.5630   -3.3520  -52.2060 C   0  0  0  0  0  0  0  0  0  0  0  0
    8.0350   -3.2730  -52.2090 N   0  0  0  0  0  0  0  0  0  0  0  0
    8.7140   -3.3500  -50.9070 C   0  0  0  0  0  0  0  0  0  0  0  0
    7.8530   -2.3550  -49.7110 Cl  0  0  0  0  0  0  0  0  0  0  0  0
    8.6490   -2.4070  -53.1420 C   0  0  0  0  0  0  0  0  0  0  0  0
    9.5230   -2.9170  -54.1200 C   0  0  0  0  0  0  0  0  0  0  0  0
    9.7580   -4.2390  -54.1830 F   0  0  0  0  0  0  0  0  0  0  0  0
   10.1460   -2.0990  -55.0660 C   0  0  0  0  0  0  0  0  0  0  0  0
   10.9610   -2.6720  -55.9670 F   0  0  0  0  0  0  0  0  0  0  0  0
    9.9230   -0.7270  -55.0830 C   0  0  0  0  0  0  0  0  0  0  0  0
   10.5510    0.1630  -56.0910 C   0  0  0  0  0  0  0  0  0  0  0  0
   11.7130   -0.0610  -56.4040 O   0  0  0  0  0  0  0  0  0  0  0  0
    9.7800    1.2280  -56.5250 N   0  0  0  0  0  0  0  0  0  0  0  0
   10.0850    2.0940  -57.5920 C   0  0  0  0  0  0  0  0  0  0  0  0
   11.3040    2.8230  -57.5530 C   0  0  0  0  0  0  0  0  0  0  0  0
   11.7250    3.7330  -58.5720 C   0  0  0  0  0  0  0  0  0  0  0  0
   10.9680    4.0250  -59.7220 C   0  0  0  0  0  0  0  0  0  0  0  0
    9.7650    3.3310  -59.7150 C   0  0  0  0  0  0  0  0  0  0  0  0
    8.8020    3.4330  -60.6790 C   0  0  0  0  0  0  0  0  0  0  0  0
    7.7820    2.6020  -60.2710 N   0  0  0  0  0  0  0  0  0  0  0  0
    6.5560    2.3280  -60.9450 C   0  0  0  0  0  0  0  0  0  0  0  0
    5.4970    1.7430  -60.2340 C   0  0  0  0  0  0  0  0  0  0  0  0
    4.2870    1.4640  -60.8720 C   0  0  0  0  0  0  0  0  0  0  0  0
    4.1240    1.7670  -62.2210 C   0  0  0  0  0  0  0  0  0  0  0  0
    5.1710    2.3460  -62.9360 C   0  0  0  0  0  0  0  0  0  0  0  0
    6.3870    2.6280  -62.3040 C   0  0  0  0  0  0  0  0  0  0  0  0
    8.0420    2.0330  -59.0680 N   0  0  0  0  0  0  0  0  0  0  0  0
    9.2840    2.4030  -58.7220 C   0  0  0  0  0  0  0  0  0  0  0  0
    9.0650   -0.1920  -54.1240 C   0  0  0  0  0  0  0  0  0  0  0  0
    8.8350    1.1280  -54.0540 F   0  0  0  0  0  0  0  0  0  0  0  0
    8.4430   -1.0140  -53.1770 C   0  0  0  0  0  0  0  0  0  0  0  0
    7.6620   -0.4200  -52.2610 F   0  0  0  0  0  0  0  0  0  0  0  0
    5.7102   -4.5917  -49.4857 H   0  0  0  0  0  0  0  0  0  0  0  0
    4.7145   -3.4417  -50.4411 H   0  0  0  0  0  0  0  0  0  0  0  0
    4.3128   -5.1925  -50.4411 H   0  0  0  0  0  0  0  0  0  0  0  0
    6.9044   -5.2754  -51.2983 H   0  0  0  0  0  0  0  0  0  0  0  0
    5.4506   -5.1693  -52.3926 H   0  0  0  0  0  0  0  0  0  0  0  0
    6.2037   -3.2664  -53.2421 H   0  0  0  0  0  0  0  0  0  0  0  0
    6.1871   -2.5319  -51.5766 H   0  0  0  0  0  0  0  0  0  0  0  0
    8.7306   -4.3958  -50.5663 H   0  0  0  0  0  0  0  0  0  0  0  0
    9.7428   -2.9756  -51.0141 H   0  0  0  0  0  0  0  0  0  0  0  0
    8.9890    1.4980  -55.9520 H   0  0  0  0  0  0  0  0  0  0  0  0
   11.9644    2.6782  -56.6853 H   0  0  0  0  0  0  0  0  0  0  0  0
   12.6967    4.2339  -58.4502 H   0  0  0  0  0  0  0  0  0  0  0  0
   11.2867    4.7115  -60.5202 H   0  0  0  0  0  0  0  0  0  0  0  0
    8.8345    4.0493  -61.5896 H   0  0  0  0  0  0  0  0  0  0  0  0
    5.6210    1.5029  -59.1677 H   0  0  0  0  0  0  0  0  0  0  0  0
    3.4617    1.0044  -60.3084 H   0  0  0  0  0  0  0  0  0  0  0  0
    3.1694    1.5496  -62.7224 H   0  0  0  0  0  0  0  0  0  0  0  0
    5.0407    2.5824  -64.0024 H   0  0  0  0  0  0  0  0  0  0  0  0
    7.2100    3.0849  -62.8732 H   0  0  0  0  0  0  0  0  0  0  0  0
  1  2  1  0
  2  3  1  0
  3  4  1  0
  4  5  1  0
  5  6  1  0
  4  7  1  0
  7  8  1  0
  8  9  1  0
  8 10  2  0
 10 11  1  0
 10 12  1  0
 12 13  1  0
 13 14  2  0
 13 15  1  0
 15 16  1  0
 16 17  2  0
 17 18  1  0
 18 19  2  0
 19 20  1  0
 20 21  2  0
 21 22  1  0
 22 23  1  0
 23 24  2  0
 24 25  1  0
 25 26  2  0
 26 27  1  0
 27 28  2  0
 22 29  1  0
 29 30  2  0
 12 31  2  0
 31 32  1  0
 31 33  1  0
 33 34  1  0
 33  7  2  0
 30 16  1  0
 30 20  1  0
 28 23  1  0
  1 35  1  0
  1 36  1  0
  1 37  1  0
  2 38  1  0
  2 39  1  0
  3 40  1  0
  3 41  1  0
  5 42  1  0
  5 43  1  0
 15 44  1  0
 17 45  1  0
 18 46  1  0
 19 47  1  0
 21 48  1  0
 24 49  1  0
 25 50  1  0
 26 51  1  0
 27 52  1  0
 28 53  1  0
M  END
>  <meeko>  (135) 
{"is_sidechain": false}

$$$$

     RDKit          3D

 52 58  0  0  0  0  0  0  0  0999 V2000
    8.9060    3.0110  -61.2660 N   0  0  0  0  0  0  0  0  0  0  0  0
    9.4500    4.2200  -60.6010 C   0  0  2  0  0  0  0  0  0  0  0  0
   11.1950    3.7520  -60.4840 S   0  0  0  0  0  0  0  0  0  0  0  0
   11.0790    3.0150  -58.8850 C   0  0  0  0  0  0  0  0  0  0  0  0
   10.7570    1.8380  -58.8240 O   0  0  0  0  0  0  0  0  0  0  0  0
   11.2810    3.9590  -57.6950 C   0  0  1  0  0  0  0  0  0  0  0  0
   10.8050    5.3870  -58.0360 C   0  0  0  0  0  0  0  0  0  0  0  0
    9.3170    5.2090  -58.2000 C   0  0  0  0  0  0  0  0  0  0  0  0
    8.7480    4.6030  -59.2790 C   0  0  0  0  0  0  0  0  0  0  0  0
    7.4550    3.9280  -59.1030 C   0  0  0  0  0  0  0  0  0  0  0  0
    7.2330    3.0060  -58.1440 C   0  0  0  0  0  0  0  0  0  0  0  0
    6.1410    2.0200  -58.1880 C   0  0  0  0  0  0  0  0  0  0  0  0
    5.0760    1.8790  -59.1820 C   0  0  0  0  0  0  0  0  0  0  0  0
    3.9070    2.6450  -59.0730 C   0  0  0  0  0  0  0  0  0  0  0  0
    2.9060    2.5450  -60.0400 C   0  0  0  0  0  0  0  0  0  0  0  0
    3.0650    1.6800  -61.1220 C   0  0  0  0  0  0  0  0  0  0  0  0
    4.2210    0.9090  -61.2360 C   0  0  0  0  0  0  0  0  0  0  0  0
    5.2250    1.0090  -60.2700 C   0  0  0  0  0  0  0  0  0  0  0  0
    6.3740    1.2110  -57.1460 C   0  0  0  0  0  0  0  0  0  0  0  0
    5.5880   -0.1610  -56.4840 S   0  0  0  0  0  0  0  0  0  0  0  0
    6.7430   -0.1530  -55.0860 C   0  0  0  0  0  0  0  0  0  0  0  0
    6.6520   -1.0640  -54.1000 N   0  0  0  0  0  0  0  0  0  0  0  0
    7.5760   -0.9460  -53.1210 C   0  0  0  0  0  0  0  0  0  0  0  0
    8.5720    0.0290  -53.0970 C   0  0  0  0  0  0  0  0  0  0  0  0
    8.6440    0.9580  -54.1370 C   0  0  0  0  0  0  0  0  0  0  0  0
    7.7080    0.8690  -55.1500 C   0  0  0  0  0  0  0  0  0  0  0  0
    7.5190    1.6560  -56.3600 C   0  0  0  0  0  0  0  0  0  0  0  0
    8.0460    2.7600  -56.9240 C   0  0  0  0  0  0  0  0  0  0  0  0
    9.0000    3.7660  -56.2980 C   0  0  2  0  0  0  0  0  0  0  0  0
    8.6810    5.1810  -56.8260 C   0  0  0  0  0  0  0  0  0  0  0  0
   10.5270    3.4220  -56.4320 C   0  0  0  0  0  0  0  0  0  0  0  0
    8.6930    3.1470  -62.2580 H   0  0  0  0  0  0  0  0  0  0  0  0
    8.0480    2.7140  -60.7800 H   0  0  0  0  0  0  0  0  0  0  0  0
    9.5760    2.2410  -61.1720 H   0  0  0  0  0  0  0  0  0  0  0  0
    9.2868    5.1645  -61.1408 H   0  0  0  0  0  0  0  0  0  0  0  0
   12.3574    3.9984  -57.4720 H   0  0  0  0  0  0  0  0  0  0  0  0
   11.0332    6.0871  -57.2188 H   0  0  0  0  0  0  0  0  0  0  0  0
   11.2950    5.8102  -58.9253 H   0  0  0  0  0  0  0  0  0  0  0  0
    6.6308    4.1862  -59.7841 H   0  0  0  0  0  0  0  0  0  0  0  0
    3.7782    3.3284  -58.2208 H   0  0  0  0  0  0  0  0  0  0  0  0
    1.9911    3.1488  -59.9487 H   0  0  0  0  0  0  0  0  0  0  0  0
    2.2775    1.6058  -61.8865 H   0  0  0  0  0  0  0  0  0  0  0  0
    4.3424    0.2221  -62.0865 H   0  0  0  0  0  0  0  0  0  0  0  0
    6.1373    0.4016  -60.3640 H   0  0  0  0  0  0  0  0  0  0  0  0
    7.5399   -1.6655  -52.2897 H   0  0  0  0  0  0  0  0  0  0  0  0
    9.2936    0.0661  -52.2676 H   0  0  0  0  0  0  0  0  0  0  0  0
    9.4213    1.7362  -54.1496 H   0  0  0  0  0  0  0  0  0  0  0  0
    8.8214    3.7190  -55.2136 H   0  0  0  0  0  0  0  0  0  0  0  0
    7.5943    5.3374  -56.8945 H   0  0  0  0  0  0  0  0  0  0  0  0
    9.0606    5.9754  -56.1666 H   0  0  0  0  0  0  0  0  0  0  0  0
   11.0357    3.8303  -55.5462 H   0  0  0  0  0  0  0  0  0  0  0  0
   10.5599    2.3269  -56.5305 H   0  0  0  0  0  0  0  0  0  0  0  0
  1  2  1  0
  2  3  1  0
  3  4  1  0
  4  5  2  0
  4  6  1  0
  6  7  1  0
  7  8  1  0
  8  9  2  0
  9 10  1  0
 10 11  2  0
 11 12  1  0
 12 13  1  0
 13 14  2  0
 14 15  1  0
 15 16  2  0
 16 17  1  0
 17 18  2  0
 12 19  2  0
 19 20  1  0
 20 21  1  0
 21 22  1  0
 22 23  2  0
 23 24  1  0
 24 25  2  0
 25 26  1  0
 26 27  1  0
 27 28  2  0
 28 29  1  0
 29 30  1  0
 29 31  1  0
  9  2  1  0
 28 11  1  0
 31  6  1  0
 30  8  1  0
 18 13  1  0
 27 19  1  0
 26 21  2  0
  1 32  1  0
  1 33  1  0
  1 34  1  0
  2 35  1  6
  6 36  1  1
  7 37  1  0
  7 38  1  0
 10 39  1  0
 14 40  1  0
 15 41  1  0
 16 42  1  0
 17 43  1  0
 18 44  1  0
 23 45  1  0
 24 46  1  0
 25 47  1  0
 29 48  1  1
 30 49  1  0
 30 50  1  0
 31 51  1  0
 31 52  1  0
M  CHG  1   1   1
M  END
>  <meeko>  (136) 
{"is_sidechain": false}

$$$$

     RDKit          3D

 52 58  0  0  0  0  0  0  0  0999 V2000
   12.6430    3.7090  -56.9070 N   0  0  0  0  0  0  0  0  0  0  0  0
   11.2700    3.9120  -57.3960 C   0  0  1  0  0  0  0  0  0  0  0  0
   11.3010    5.5310  -58.1700 S   0  0  0  0  0  0  0  0  0  0  0  0
   10.0000    5.2600  -59.3370 C   0  0  0  0  0  0  0  0  0  0  0  0
    8.8700    5.6360  -59.0660 O   0  0  0  0  0  0  0  0  0  0  0  0
   10.4070    4.5620  -60.6460 C   0  0  1  0  0  0  0  0  0  0  0  0
   11.6170    3.6230  -60.4610 C   0  0  0  0  0  0  0  0  0  0  0  0
   11.0680    2.5360  -59.5730 C   0  0  0  0  0  0  0  0  0  0  0  0
   10.8120    2.7360  -58.2530 C   0  0  0  0  0  0  0  0  0  0  0  0
    9.7170    2.0130  -57.5970 C   0  0  0  0  0  0  0  0  0  0  0  0
    8.4750    1.9140  -58.1110 C   0  0  0  0  0  0  0  0  0  0  0  0
    7.2920    1.5220  -57.3230 C   0  0  0  0  0  0  0  0  0  0  0  0
    7.2240    1.0720  -55.9340 C   0  0  0  0  0  0  0  0  0  0  0  0
    5.9820    0.8340  -55.3330 C   0  0  0  0  0  0  0  0  0  0  0  0
    5.9140    0.3800  -54.0150 C   0  0  0  0  0  0  0  0  0  0  0  0
    7.0850    0.1620  -53.2910 C   0  0  0  0  0  0  0  0  0  0  0  0
    8.3250    0.4000  -53.8810 C   0  0  0  0  0  0  0  0  0  0  0  0
    8.3960    0.8530  -55.2000 C   0  0  0  0  0  0  0  0  0  0  0  0
    6.2560    1.7000  -58.1520 C   0  0  0  0  0  0  0  0  0  0  0  0
    4.5630    1.4550  -58.0360 S   0  0  0  0  0  0  0  0  0  0  0  0
    4.3790    1.8740  -59.7900 C   0  0  0  0  0  0  0  0  0  0  0  0
    3.1750    1.8630  -60.3890 N   0  0  0  0  0  0  0  0  0  0  0  0
    3.1780    2.2030  -61.6970 C   0  0  0  0  0  0  0  0  0  0  0  0
    4.3230    2.5500  -62.4140 C   0  0  0  0  0  0  0  0  0  0  0  0
    5.5590    2.5520  -61.7650 C   0  0  0  0  0  0  0  0  0  0  0  0
    5.5900    2.2010  -60.4270 C   0  0  0  0  0  0  0  0  0  0  0  0
    6.6910    2.1200  -59.4790 C   0  0  0  0  0  0  0  0  0  0  0  0
    8.0340    2.2270  -59.4960 C   0  0  0  0  0  0  0  0  0  0  0  0
    8.9430    2.3210  -60.7000 C   0  0  2  0  0  0  0  0  0  0  0  0
   10.2610    1.5730  -60.4150 C   0  0  0  0  0  0  0  0  0  0  0  0
    9.1960    3.7710  -61.2420 C   0  0  0  0  0  0  0  0  0  0  0  0
   13.2400    4.4890  -57.1980 H   0  0  0  0  0  0  0  0  0  0  0  0
   12.6400    3.6780  -55.8820 H   0  0  0  0  0  0  0  0  0  0  0  0
   13.0430    2.8380  -57.2670 H   0  0  0  0  0  0  0  0  0  0  0  0
   10.4986    3.9200  -56.6119 H   0  0  0  0  0  0  0  0  0  0  0  0
   10.7107    5.3506  -61.3502 H   0  0  0  0  0  0  0  0  0  0  0  0
   11.9517    3.2143  -61.4258 H   0  0  0  0  0  0  0  0  0  0  0  0
   12.4971    4.1277  -60.0359 H   0  0  0  0  0  0  0  0  0  0  0  0
    9.9208    1.5248  -56.6326 H   0  0  0  0  0  0  0  0  0  0  0  0
    5.0562    1.0055  -55.9018 H   0  0  0  0  0  0  0  0  0  0  0  0
    4.9359    0.1941  -53.5473 H   0  0  0  0  0  0  0  0  0  0  0  0
    7.0304   -0.1982  -52.2531 H   0  0  0  0  0  0  0  0  0  0  0  0
    9.2482    0.2309  -53.3074 H   0  0  0  0  0  0  0  0  0  0  0  0
    9.3760    1.0384  -55.6639 H   0  0  0  0  0  0  0  0  0  0  0  0
    2.2159    2.2063  -62.2303 H   0  0  0  0  0  0  0  0  0  0  0  0
    4.2529    2.8189  -63.4783 H   0  0  0  0  0  0  0  0  0  0  0  0
    6.4802    2.8243  -62.3010 H   0  0  0  0  0  0  0  0  0  0  0  0
    8.4049    1.8315  -61.5251 H   0  0  0  0  0  0  0  0  0  0  0  0
   10.0679    0.6414  -59.8630 H   0  0  0  0  0  0  0  0  0  0  0  0
   10.7854    1.2829  -61.3374 H   0  0  0  0  0  0  0  0  0  0  0  0
    9.3545    3.6942  -62.3278 H   0  0  0  0  0  0  0  0  0  0  0  0
    8.3082    4.3441  -60.9363 H   0  0  0  0  0  0  0  0  0  0  0  0
  1  2  1  0
  2  3  1  0
  3  4  1  0
  4  5  2  0
  4  6  1  0
  6  7  1  0
  7  8  1  0
  8  9  2  0
  9 10  1  0
 10 11  2  0
 11 12  1  0
 12 13  1  0
 13 14  2  0
 14 15  1  0
 15 16  2  0
 16 17  1  0
 17 18  2  0
 12 19  2  0
 19 20  1  0
 20 21  1  0
 21 22  1  0
 22 23  2  0
 23 24  1  0
 24 25  2  0
 25 26  1  0
 26 27  1  0
 27 28  2  0
 28 29  1  0
 29 30  1  0
 29 31  1  0
  9  2  1  0
 28 11  1  0
 31  6  1  0
 30  8  1  0
 18 13  1  0
 27 19  1  0
 26 21  2  0
  1 32  1  0
  1 33  1  0
  1 34  1  0
  2 35  1  1
  6 36  1  6
  7 37  1  0
  7 38  1  0
 10 39  1  0
 14 40  1  0
 15 41  1  0
 16 42  1  0
 17 43  1  0
 18 44  1  0
 23 45  1  0
 24 46  1  0
 25 47  1  0
 29 48  1  6
 30 49  1  0
 30 50  1  0
 31 51  1  0
 31 52  1  0
M  CHG  1   1   1
M  END
>  <meeko>  (137) 
{"is_sidechain": false}

$$$$

     RDKit          3D

 52 58  0  0  0  0  0  0  0  0999 V2000
   12.5250    4.4430  -56.4550 N   0  0  0  0  0  0  0  0  0  0  0  0
   11.6710    3.6790  -57.3770 C   0  0  2  0  0  0  0  0  0  0  0  0
   12.6610    3.4950  -58.8630 S   0  0  0  0  0  0  0  0  0  0  0  0
   11.3290    3.3740  -60.0210 C   0  0  0  0  0  0  0  0  0  0  0  0
   10.9500    2.2710  -60.3770 O   0  0  0  0  0  0  0  0  0  0  0  0
   10.7400    4.7040  -60.5100 C   0  0  2  0  0  0  0  0  0  0  0  0
   10.8760    5.8290  -59.4630 C   0  0  0  0  0  0  0  0  0  0  0  0
    9.9710    5.3650  -58.3510 C   0  0  0  0  0  0  0  0  0  0  0  0
   10.3000    4.3340  -57.5270 C   0  0  0  0  0  0  0  0  0  0  0  0
    9.2510    3.4740  -56.9680 C   0  0  0  0  0  0  0  0  0  0  0  0
    8.2540    2.9390  -57.7030 C   0  0  0  0  0  0  0  0  0  0  0  0
    7.4250    1.8080  -57.2530 C   0  0  0  0  0  0  0  0  0  0  0  0
    7.4200    1.1310  -55.9580 C   0  0  0  0  0  0  0  0  0  0  0  0
    8.6280    0.7710  -55.3490 C   0  0  0  0  0  0  0  0  0  0  0  0
    8.6270    0.1010  -54.1250 C   0  0  0  0  0  0  0  0  0  0  0  0
    7.4200   -0.2130  -53.5020 C   0  0  0  0  0  0  0  0  0  0  0  0
    6.2130    0.1450  -54.1010 C   0  0  0  0  0  0  0  0  0  0  0  0
    6.2110    0.8150  -55.3260 C   0  0  0  0  0  0  0  0  0  0  0  0
    6.6780    1.4890  -58.3180 C   0  0  0  0  0  0  0  0  0  0  0  0
    5.4530    0.3300  -58.6290 S   0  0  0  0  0  0  0  0  0  0  0  0
    5.1800    1.0540  -60.2680 C   0  0  0  0  0  0  0  0  0  0  0  0
    4.2490    0.5600  -61.1030 N   0  0  0  0  0  0  0  0  0  0  0  0
    4.1540    1.1870  -62.2970 C   0  0  0  0  0  0  0  0  0  0  0  0
    4.9460    2.2700  -62.6780 C   0  0  0  0  0  0  0  0  0  0  0  0
    5.9030    2.7610  -61.7890 C   0  0  0  0  0  0  0  0  0  0  0  0
    6.0200    2.1440  -60.5560 C   0  0  0  0  0  0  0  0  0  0  0  0
    6.9100    2.3980  -59.4320 C   0  0  0  0  0  0  0  0  0  0  0  0
    7.8370    3.3110  -59.0790 C   0  0  0  0  0  0  0  0  0  0  0  0
    8.1680    4.6130  -59.7710 C   0  0  1  0  0  0  0  0  0  0  0  0
    8.5380    5.6780  -58.7180 C   0  0  0  0  0  0  0  0  0  0  0  0
    9.2380    4.5200  -60.9120 C   0  0  0  0  0  0  0  0  0  0  0  0
   12.8330    3.8460  -55.6820 H   0  0  0  0  0  0  0  0  0  0  0  0
   13.3540    4.8130  -56.9330 H   0  0  0  0  0  0  0  0  0  0  0  0
   11.9900    5.2240  -56.0600 H   0  0  0  0  0  0  0  0  0  0  0  0
   11.3932    2.6756  -57.0221 H   0  0  0  0  0  0  0  0  0  0  0  0
   11.3211    5.0081  -61.3931 H   0  0  0  0  0  0  0  0  0  0  0  0
   11.9153    5.9220  -59.1147 H   0  0  0  0  0  0  0  0  0  0  0  0
   10.6091    6.8216  -59.8547 H   0  0  0  0  0  0  0  0  0  0  0  0
    9.2789    3.2533  -55.8907 H   0  0  0  0  0  0  0  0  0  0  0  0
    9.5823    1.0174  -55.8376 H   0  0  0  0  0  0  0  0  0  0  0  0
    9.5793   -0.1796  -53.6513 H   0  0  0  0  0  0  0  0  0  0  0  0
    7.4199   -0.7430  -52.5381 H   0  0  0  0  0  0  0  0  0  0  0  0
    5.2609   -0.1007  -53.6078 H   0  0  0  0  0  0  0  0  0  0  0  0
    5.2569    1.0955  -55.7960 H   0  0  0  0  0  0  0  0  0  0  0  0
    3.4045    0.8197  -63.0135 H   0  0  0  0  0  0  0  0  0  0  0  0
    4.8177    2.7319  -63.6681 H   0  0  0  0  0  0  0  0  0  0  0  0
    6.5446    3.6124  -62.0601 H   0  0  0  0  0  0  0  0  0  0  0  0
    7.2548    4.9123  -60.3062 H   0  0  0  0  0  0  0  0  0  0  0  0
    8.4574    6.6894  -59.1429 H   0  0  0  0  0  0  0  0  0  0  0  0
    7.8680    5.6546  -57.8459 H   0  0  0  0  0  0  0  0  0  0  0  0
    9.1401    3.5273  -61.3757 H   0  0  0  0  0  0  0  0  0  0  0  0
    9.0181    5.3713  -61.5730 H   0  0  0  0  0  0  0  0  0  0  0  0
  1  2  1  0
  2  3  1  0
  3  4  1  0
  4  5  2  0
  4  6  1  0
  6  7  1  0
  7  8  1  0
  8  9  2  0
  9 10  1  0
 10 11  2  0
 11 12  1  0
 12 13  1  0
 13 14  2  0
 14 15  1  0
 15 16  2  0
 16 17  1  0
 17 18  2  0
 12 19  2  0
 19 20  1  0
 20 21  1  0
 21 22  1  0
 22 23  2  0
 23 24  1  0
 24 25  2  0
 25 26  1  0
 26 27  1  0
 27 28  2  0
 28 29  1  0
 29 30  1  0
 29 31  1  0
  9  2  1  0
 28 11  1  0
 31  6  1  0
 30  8  1  0
 18 13  1  0
 27 19  1  0
 26 21  2  0
  1 32  1  0
  1 33  1  0
  1 34  1  0
  2 35  1  1
  6 36  1  6
  7 37  1  0
  7 38  1  0
 10 39  1  0
 14 40  1  0
 15 41  1  0
 16 42  1  0
 17 43  1  0
 18 44  1  0
 23 45  1  0
 24 46  1  0
 25 47  1  0
 29 48  1  6
 30 49  1  0
 30 50  1  0
 31 51  1  0
 31 52  1  0
M  CHG  1   1   1
M  END
>  <meeko>  (138) 
{"is_sidechain": false}

$$$$

     RDKit          3D

 52 58  0  0  0  0  0  0  0  0999 V2000
   11.5850    2.2420  -56.8460 N   0  0  0  0  0  0  0  0  0  0  0  0
   11.6240    3.7030  -57.1020 C   0  0  1  0  0  0  0  0  0  0  0  0
   12.7070    3.7370  -58.5510 S   0  0  0  0  0  0  0  0  0  0  0  0
   11.4160    3.6050  -59.7470 C   0  0  0  0  0  0  0  0  0  0  0  0
   11.0320    2.4850  -60.0470 O   0  0  0  0  0  0  0  0  0  0  0  0
   10.7960    4.9300  -60.2110 C   0  0  2  0  0  0  0  0  0  0  0  0
   10.8670    5.9920  -59.0930 C   0  0  0  0  0  0  0  0  0  0  0  0
    9.9320    5.4360  -58.0490 C   0  0  0  0  0  0  0  0  0  0  0  0
   10.2380    4.3690  -57.2600 C   0  0  0  0  0  0  0  0  0  0  0  0
    9.1420    3.5300  -56.7590 C   0  0  0  0  0  0  0  0  0  0  0  0
    8.2000    2.9970  -57.5630 C   0  0  0  0  0  0  0  0  0  0  0  0
    7.3630    1.8410  -57.1960 C   0  0  0  0  0  0  0  0  0  0  0  0
    7.3180    1.1110  -55.9300 C   0  0  0  0  0  0  0  0  0  0  0  0
    6.0920    0.7690  -55.3460 C   0  0  0  0  0  0  0  0  0  0  0  0
    6.0560    0.0380  -54.1560 C   0  0  0  0  0  0  0  0  0  0  0  0
    7.2440   -0.3580  -53.5450 C   0  0  0  0  0  0  0  0  0  0  0  0
    8.4690   -0.0170  -54.1170 C   0  0  0  0  0  0  0  0  0  0  0  0
    8.5070    0.7150  -55.3050 C   0  0  0  0  0  0  0  0  0  0  0  0
    6.6910    1.5430  -58.3170 C   0  0  0  0  0  0  0  0  0  0  0  0
    5.5190    0.3660  -58.7430 S   0  0  0  0  0  0  0  0  0  0  0  0
    5.3230    1.1440  -60.3680 C   0  0  0  0  0  0  0  0  0  0  0  0
    4.4550    0.6610  -61.2740 N   0  0  0  0  0  0  0  0  0  0  0  0
    4.4100    1.3320  -62.4460 C   0  0  0  0  0  0  0  0  0  0  0  0
    5.1930    2.4480  -62.7400 C   0  0  0  0  0  0  0  0  0  0  0  0
    6.0890    2.9250  -61.7810 C   0  0  0  0  0  0  0  0  0  0  0  0
    6.1530    2.2620  -60.5680 C   0  0  0  0  0  0  0  0  0  0  0  0
    6.9730    2.4900  -59.3880 C   0  0  0  0  0  0  0  0  0  0  0  0
    7.8650    3.4030  -58.9540 C   0  0  0  0  0  0  0  0  0  0  0  0
    8.1990    4.7460  -59.5720 C   0  0  1  0  0  0  0  0  0  0  0  0
    8.5110    5.7630  -58.4540 C   0  0  0  0  0  0  0  0  0  0  0  0
    9.3140    4.7320  -60.6770 C   0  0  0  0  0  0  0  0  0  0  0  0
   10.7850    1.7700  -57.2770 H   0  0  0  0  0  0  0  0  0  0  0  0
   11.5670    2.0750  -55.8350 H   0  0  0  0  0  0  0  0  0  0  0  0
   12.4540    1.8140  -57.2000 H   0  0  0  0  0  0  0  0  0  0  0  0
   11.9949    4.3149  -56.2665 H   0  0  0  0  0  0  0  0  0  0  0  0
   11.3817    5.2861  -61.0713 H   0  0  0  0  0  0  0  0  0  0  0  0
   11.8899    6.0863  -58.6997 H   0  0  0  0  0  0  0  0  0  0  0  0
   10.5926    7.0019  -59.4318 H   0  0  0  0  0  0  0  0  0  0  0  0
    9.0870    3.3272  -55.6792 H   0  0  0  0  0  0  0  0  0  0  0  0
    5.1521    1.0777  -55.8269 H   0  0  0  0  0  0  0  0  0  0  0  0
    5.0895   -0.2250  -53.7013 H   0  0  0  0  0  0  0  0  0  0  0  0
    7.2154   -0.9395  -52.6117 H   0  0  0  0  0  0  0  0  0  0  0  0
    9.4067   -0.3252  -53.6315 H   0  0  0  0  0  0  0  0  0  0  0  0
    9.4757    0.9821  -55.7525 H   0  0  0  0  0  0  0  0  0  0  0  0
    3.7114    0.9753  -63.2172 H   0  0  0  0  0  0  0  0  0  0  0  0
    5.1058    2.9469  -63.7164 H   0  0  0  0  0  0  0  0  0  0  0  0
    6.7239    3.8002  -61.9834 H   0  0  0  0  0  0  0  0  0  0  0  0
    7.3007    5.0524  -60.1280 H   0  0  0  0  0  0  0  0  0  0  0  0
    8.4392    6.7937  -58.8316 H   0  0  0  0  0  0  0  0  0  0  0  0
    7.8051    5.6979  -57.6129 H   0  0  0  0  0  0  0  0  0  0  0  0
    9.2570    3.7608  -61.1904 H   0  0  0  0  0  0  0  0  0  0  0  0
    9.0979    5.6092  -61.3045 H   0  0  0  0  0  0  0  0  0  0  0  0
  1  2  1  0
  2  3  1  0
  3  4  1  0
  4  5  2  0
  4  6  1  0
  6  7  1  0
  7  8  1  0
  8  9  2  0
  9 10  1  0
 10 11  2  0
 11 12  1  0
 12 13  1  0
 13 14  2  0
 14 15  1  0
 15 16  2  0
 16 17  1  0
 17 18  2  0
 12 19  2  0
 19 20  1  0
 20 21  1  0
 21 22  1  0
 22 23  2  0
 23 24  1  0
 24 25  2  0
 25 26  1  0
 26 27  1  0
 27 28  2  0
 28 29  1  0
 29 30  1  0
 29 31  1  0
  9  2  1  0
 28 11  1  0
 31  6  1  0
 30  8  1  0
 18 13  1  0
 27 19  1  0
 26 21  2  0
  1 32  1  0
  1 33  1  0
  1 34  1  0
  2 35  1  1
  6 36  1  6
  7 37  1  0
  7 38  1  0
 10 39  1  0
 14 40  1  0
 15 41  1  0
 16 42  1  0
 17 43  1  0
 18 44  1  0
 23 45  1  0
 24 46  1  0
 25 47  1  0
 29 48  1  6
 30 49  1  0
 30 50  1  0
 31 51  1  0
 31 52  1  0
M  CHG  1   1   1
M  END
>  <meeko>  (139) 
{"is_sidechain": false}

$$$$

     RDKit          3D

 52 58  0  0  0  0  0  0  0  0999 V2000
    8.2680    2.4990  -60.7900 N   0  0  0  0  0  0  0  0  0  0  0  0
    9.0250    3.7510  -60.5930 C   0  0  2  0  0  0  0  0  0  0  0  0
   10.7130    3.0940  -60.5230 S   0  0  0  0  0  0  0  0  0  0  0  0
   10.6750    2.6330  -58.8120 C   0  0  0  0  0  0  0  0  0  0  0  0
   10.2000    1.5380  -58.5450 O   0  0  0  0  0  0  0  0  0  0  0  0
   11.1210    3.6860  -57.7920 C   0  0  2  0  0  0  0  0  0  0  0  0
   10.3190    3.4970  -56.4320 C   0  0  0  0  0  0  0  0  0  0  0  0
    8.8760    4.0080  -56.5790 C   0  0  0  0  0  0  0  0  0  0  0  0
    7.8220    3.1910  -56.7880 C   0  0  0  0  0  0  0  0  0  0  0  0
    6.8800    3.3740  -57.9670 C   0  0  0  0  0  0  0  0  0  0  0  0
    6.0690    2.2770  -58.0680 C   0  0  0  0  0  0  0  0  0  0  0  0
    5.1340    2.0240  -59.1700 C   0  0  0  0  0  0  0  0  0  0  0  0
    3.8700    2.6330  -59.1850 C   0  0  0  0  0  0  0  0  0  0  0  0
    2.9620    2.3580  -60.2100 C   0  0  0  0  0  0  0  0  0  0  0  0
    3.3090    1.4770  -61.2310 C   0  0  0  0  0  0  0  0  0  0  0  0
    4.5690    0.8820  -61.2390 C   0  0  0  0  0  0  0  0  0  0  0  0
    5.4790    1.1580  -60.2160 C   0  0  0  0  0  0  0  0  0  0  0  0
    6.4970    1.4040  -57.0270 C   0  0  0  0  0  0  0  0  0  0  0  0
    6.0050   -0.1250  -56.5420 S   0  0  0  0  0  0  0  0  0  0  0  0
    7.1520   -0.1220  -55.2620 C   0  0  0  0  0  0  0  0  0  0  0  0
    7.2380   -1.1790  -54.4290 N   0  0  0  0  0  0  0  0  0  0  0  0
    8.1360   -1.0270  -53.4370 C   0  0  0  0  0  0  0  0  0  0  0  0
    8.9290    0.0910  -53.2370 C   0  0  0  0  0  0  0  0  0  0  0  0
    8.8200    1.1600  -54.1260 C   0  0  0  0  0  0  0  0  0  0  0  0
    7.9110    1.0540  -55.1990 C   0  0  0  0  0  0  0  0  0  0  0  0
    7.5340    1.8940  -56.2710 C   0  0  0  0  0  0  0  0  0  0  0  0
    7.0810    4.4650  -59.0160 C   0  0  0  0  0  0  0  0  0  0  0  0
    8.5730    4.6000  -59.4060 C   0  0  0  0  0  0  0  0  0  0  0  0
    9.3820    5.2290  -58.4950 C   0  0  0  0  0  0  0  0  0  0  0  0
    8.8490    5.4290  -57.0980 C   0  0  0  0  0  0  0  0  0  0  0  0
   10.8910    5.1030  -58.3850 C   0  0  0  0  0  0  0  0  0  0  0  0
    8.1490    2.3150  -61.7990 H   0  0  0  0  0  0  0  0  0  0  0  0
    7.3200    2.6200  -60.4170 H   0  0  0  0  0  0  0  0  0  0  0  0
    8.6840    1.6730  -60.3480 H   0  0  0  0  0  0  0  0  0  0  0  0
    8.8836    4.5065  -61.3800 H   0  0  0  0  0  0  0  0  0  0  0  0
   12.1924    3.5653  -57.5738 H   0  0  0  0  0  0  0  0  0  0  0  0
   10.2993    2.4290  -56.1694 H   0  0  0  0  0  0  0  0  0  0  0  0
   10.8207    4.0741  -55.6413 H   0  0  0  0  0  0  0  0  0  0  0  0
    3.5920    3.3327  -58.3830 H   0  0  0  0  0  0  0  0  0  0  0  0
    1.9721    2.8377  -60.2107 H   0  0  0  0  0  0  0  0  0  0  0  0
    2.5887    1.2508  -62.0310 H   0  0  0  0  0  0  0  0  0  0  0  0
    4.8471    0.1946  -62.0514 H   0  0  0  0  0  0  0  0  0  0  0  0
    6.4751    0.6915  -60.2317 H   0  0  0  0  0  0  0  0  0  0  0  0
    8.2491   -1.8594  -52.7269 H   0  0  0  0  0  0  0  0  0  0  0  0
    9.6321    0.1349  -52.3922 H   0  0  0  0  0  0  0  0  0  0  0  0
    9.4296    2.0659  -53.9932 H   0  0  0  0  0  0  0  0  0  0  0  0
    6.4973    4.2117  -59.9133 H   0  0  0  0  0  0  0  0  0  0  0  0
    6.7445    5.4222  -58.5912 H   0  0  0  0  0  0  0  0  0  0  0  0
    9.5009    6.0886  -56.5064 H   0  0  0  0  0  0  0  0  0  0  0  0
    7.8620    5.9124  -57.0516 H   0  0  0  0  0  0  0  0  0  0  0  0
   11.3617    5.1911  -59.3753 H   0  0  0  0  0  0  0  0  0  0  0  0
   11.3323    5.8941  -57.7610 H   0  0  0  0  0  0  0  0  0  0  0  0
  1  2  1  0
  2  3  1  0
  3  4  1  0
  4  5  2  0
  4  6  1  0
  6  7  1  0
  7  8  1  0
  8  9  2  0
  9 10  1  0
 10 11  2  0
 11 12  1  0
 12 13  2  0
 13 14  1  0
 14 15  2  0
 15 16  1  0
 16 17  2  0
 11 18  1  0
 18 19  1  0
 19 20  1  0
 20 21  1  0
 21 22  2  0
 22 23  1  0
 23 24  2  0
 24 25  1  0
 25 26  1  0
 10 27  1  0
 27 28  1  0
 28 29  2  0
 29 30  1  0
 29 31  1  0
 28  2  1  0
 31  6  1  0
 30  8  1  0
 26  9  1  0
 17 12  1  0
 26 18  2  0
 25 20  2  0
  1 32  1  0
  1 33  1  0
  1 34  1  0
  2 35  1  6
  6 36  1  1
  7 37  1  0
  7 38  1  0
 13 39  1  0
 14 40  1  0
 15 41  1  0
 16 42  1  0
 17 43  1  0
 22 44  1  0
 23 45  1  0
 24 46  1  0
 27 47  1  0
 27 48  1  0
 30 49  1  0
 30 50  1  0
 31 51  1  0
 31 52  1  0
M  CHG  1   1   1
M  END
>  <meeko>  (140) 
{"is_sidechain": false}

$$$$

     RDKit          3D

 52 58  0  0  0  0  0  0  0  0999 V2000
   10.7830    4.6570  -54.9830 N   0  0  0  0  0  0  0  0  0  0  0  0
    9.9590    4.3830  -56.1680 C   0  0  1  0  0  0  0  0  0  0  0  0
    9.5180    6.0190  -56.7600 S   0  0  0  0  0  0  0  0  0  0  0  0
    8.9830    5.5720  -58.3900 C   0  0  0  0  0  0  0  0  0  0  0  0
    7.7890    5.4040  -58.5860 O   0  0  0  0  0  0  0  0  0  0  0  0
   10.0760    5.4600  -59.4720 C   0  0  2  0  0  0  0  0  0  0  0  0
    9.6930    4.3230  -60.5070 C   0  0  0  0  0  0  0  0  0  0  0  0
    9.9450    2.9410  -59.8880 C   0  0  0  0  0  0  0  0  0  0  0  0
    8.9550    2.2080  -59.3350 C   0  0  0  0  0  0  0  0  0  0  0  0
    9.0280    1.7080  -57.9050 C   0  0  0  0  0  0  0  0  0  0  0  0
    7.7990    1.2570  -57.5220 C   0  0  0  0  0  0  0  0  0  0  0  0
    7.4480    0.8390  -56.1620 C   0  0  0  0  0  0  0  0  0  0  0  0
    6.1100    0.8070  -55.7500 C   0  0  0  0  0  0  0  0  0  0  0  0
    5.7780    0.3810  -54.4620 C   0  0  0  0  0  0  0  0  0  0  0  0
    6.7810   -0.0110  -53.5760 C   0  0  0  0  0  0  0  0  0  0  0  0
    8.1160    0.0290  -53.9740 C   0  0  0  0  0  0  0  0  0  0  0  0
    8.4500    0.4530  -55.2610 C   0  0  0  0  0  0  0  0  0  0  0  0
    6.9520    1.4830  -58.6420 C   0  0  0  0  0  0  0  0  0  0  0  0
    5.3190    1.2130  -58.9130 S   0  0  0  0  0  0  0  0  0  0  0  0
    5.4610    1.8040  -60.5230 C   0  0  0  0  0  0  0  0  0  0  0  0
    4.3840    1.8200  -61.3350 N   0  0  0  0  0  0  0  0  0  0  0  0
    4.6420    2.2590  -62.5820 C   0  0  0  0  0  0  0  0  0  0  0  0
    5.8800    2.6640  -63.0500 C   0  0  0  0  0  0  0  0  0  0  0  0
    6.9690    2.6380  -62.1800 C   0  0  0  0  0  0  0  0  0  0  0  0
    6.7620    2.2090  -60.8540 C   0  0  0  0  0  0  0  0  0  0  0  0
    7.5880    2.0520  -59.7180 C   0  0  0  0  0  0  0  0  0  0  0  0
   10.2090    1.9860  -56.9900 C   0  0  0  0  0  0  0  0  0  0  0  0
   10.6850    3.4540  -57.1170 C   0  0  0  0  0  0  0  0  0  0  0  0
   11.3720    3.8010  -58.2460 C   0  0  0  0  0  0  0  0  0  0  0  0
   11.3700    2.8150  -59.3910 C   0  0  0  0  0  0  0  0  0  0  0  0
   11.4670    5.1950  -58.8320 C   0  0  0  0  0  0  0  0  0  0  0  0
   10.2420    5.1910  -54.2980 H   0  0  0  0  0  0  0  0  0  0  0  0
   11.6330    5.1780  -55.2190 H   0  0  0  0  0  0  0  0  0  0  0  0
   11.0480    3.7670  -54.5470 H   0  0  0  0  0  0  0  0  0  0  0  0
    9.0316    3.8180  -55.9927 H   0  0  0  0  0  0  0  0  0  0  0  0
   10.1409    6.4162  -60.0118 H   0  0  0  0  0  0  0  0  0  0  0  0
    8.6293    4.4149  -60.7716 H   0  0  0  0  0  0  0  0  0  0  0  0
   10.3133    4.4326  -61.4088 H   0  0  0  0  0  0  0  0  0  0  0  0
    5.3162    1.1191  -56.4446 H   0  0  0  0  0  0  0  0  0  0  0  0
    4.7246    0.3547  -54.1462 H   0  0  0  0  0  0  0  0  0  0  0  0
    6.5186   -0.3516  -52.5635 H   0  0  0  0  0  0  0  0  0  0  0  0
    8.9075   -0.2740  -53.2728 H   0  0  0  0  0  0  0  0  0  0  0  0
    9.5052    0.4844  -55.5700 H   0  0  0  0  0  0  0  0  0  0  0  0
    3.7986    2.2990  -63.2871 H   0  0  0  0  0  0  0  0  0  0  0  0
    6.0025    3.0005  -64.0901 H   0  0  0  0  0  0  0  0  0  0  0  0
    7.9684    2.9458  -62.5214 H   0  0  0  0  0  0  0  0  0  0  0  0
    9.9086    1.7954  -55.9491 H   0  0  0  0  0  0  0  0  0  0  0  0
   11.0383    1.3253  -57.2827 H   0  0  0  0  0  0  0  0  0  0  0  0
   12.0943    3.0992  -60.1685 H   0  0  0  0  0  0  0  0  0  0  0  0
   11.6591    1.7927  -59.1059 H   0  0  0  0  0  0  0  0  0  0  0  0
   11.6759    5.9323  -58.0429 H   0  0  0  0  0  0  0  0  0  0  0  0
   12.2816    5.2790  -59.5664 H   0  0  0  0  0  0  0  0  0  0  0  0
  1  2  1  0
  2  3  1  0
  3  4  1  0
  4  5  2  0
  4  6  1  0
  6  7  1  0
  7  8  1  0
  8  9  2  0
  9 10  1  0
 10 11  2  0
 11 12  1  0
 12 13  2  0
 13 14  1  0
 14 15  2  0
 15 16  1  0
 16 17  2  0
 11 18  1  0
 18 19  1  0
 19 20  1  0
 20 21  1  0
 21 22  2  0
 22 23  1  0
 23 24  2  0
 24 25  1  0
 25 26  1  0
 10 27  1  0
 27 28  1  0
 28 29  2  0
 29 30  1  0
 29 31  1  0
 28  2  1  0
 31  6  1  0
 30  8  1  0
 26  9  1  0
 17 12  1  0
 26 18  2  0
 25 20  2  0
  1 32  1  0
  1 33  1  0
  1 34  1  0
  2 35  1  1
  6 36  1  6
  7 37  1  0
  7 38  1  0
 13 39  1  0
 14 40  1  0
 15 41  1  0
 16 42  1  0
 17 43  1  0
 22 44  1  0
 23 45  1  0
 24 46  1  0
 27 47  1  0
 27 48  1  0
 30 49  1  0
 30 50  1  0
 31 51  1  0
 31 52  1  0
M  CHG  1   1   1
M  END
>  <meeko>  (141) 
{"is_sidechain": false}

$$$$

     RDKit          3D

 52 58  0  0  0  0  0  0  0  0999 V2000
   12.0700    3.3330  -56.6930 N   0  0  0  0  0  0  0  0  0  0  0  0
   10.9710    3.0820  -57.6330 C   0  0  2  0  0  0  0  0  0  0  0  0
   11.8140    2.7030  -59.1730 S   0  0  0  0  0  0  0  0  0  0  0  0
   10.4420    2.9020  -60.2770 C   0  0  0  0  0  0  0  0  0  0  0  0
    9.8150    1.9090  -60.6130 O   0  0  0  0  0  0  0  0  0  0  0  0
   10.1490    4.3340  -60.7710 C   0  0  1  0  0  0  0  0  0  0  0  0
    8.5880    4.5350  -60.9670 C   0  0  0  0  0  0  0  0  0  0  0  0
    7.9050    4.7030  -59.6030 C   0  0  0  0  0  0  0  0  0  0  0  0
    7.2840    3.6790  -58.9780 C   0  0  0  0  0  0  0  0  0  0  0  0
    7.6540    3.2560  -57.5700 C   0  0  0  0  0  0  0  0  0  0  0  0
    7.0880    2.0430  -57.3010 C   0  0  0  0  0  0  0  0  0  0  0  0
    7.3450    1.2490  -56.0970 C   0  0  0  0  0  0  0  0  0  0  0  0
    6.2830    0.7720  -55.3180 C   0  0  0  0  0  0  0  0  0  0  0  0
    6.5340    0.0390  -54.1560 C   0  0  0  0  0  0  0  0  0  0  0  0
    7.8460   -0.2250  -53.7680 C   0  0  0  0  0  0  0  0  0  0  0  0
    8.9090    0.2370  -54.5420 C   0  0  0  0  0  0  0  0  0  0  0  0
    8.6610    0.9700  -55.7030 C   0  0  0  0  0  0  0  0  0  0  0  0
    6.4030    1.6790  -58.4930 C   0  0  0  0  0  0  0  0  0  0  0  0
    5.5060    0.3290  -58.9280 S   0  0  0  0  0  0  0  0  0  0  0  0
    5.1860    1.0090  -60.4760 C   0  0  0  0  0  0  0  0  0  0  0  0
    4.4190    0.3410  -61.3630 N   0  0  0  0  0  0  0  0  0  0  0  0
    4.2060    1.0040  -62.5160 C   0  0  0  0  0  0  0  0  0  0  0  0
    4.6950    2.2630  -62.8190 C   0  0  0  0  0  0  0  0  0  0  0  0
    5.4870    2.9210  -61.8800 C   0  0  0  0  0  0  0  0  0  0  0  0
    5.7670    2.2710  -60.6610 C   0  0  0  0  0  0  0  0  0  0  0  0
    6.5060    2.6030  -59.5030 C   0  0  0  0  0  0  0  0  0  0  0  0
    8.7400    3.9410  -56.7570 C   0  0  0  0  0  0  0  0  0  0  0  0
    9.9900    4.2330  -57.6230 C   0  0  0  0  0  0  0  0  0  0  0  0
    9.9080    5.2540  -58.5280 C   0  0  0  0  0  0  0  0  0  0  0  0
    8.5370    5.8260  -58.8080 C   0  0  0  0  0  0  0  0  0  0  0  0
   10.7340    5.3870  -59.7910 C   0  0  0  0  0  0  0  0  0  0  0  0
   11.9710    4.2680  -56.2830 H   0  0  0  0  0  0  0  0  0  0  0  0
   12.0990    2.6390  -55.9400 H   0  0  0  0  0  0  0  0  0  0  0  0
   12.9610    3.3090  -57.2020 H   0  0  0  0  0  0  0  0  0  0  0  0
   10.3064    2.2405  -57.3875 H   0  0  0  0  0  0  0  0  0  0  0  0
   10.6402    4.4790  -61.7445 H   0  0  0  0  0  0  0  0  0  0  0  0
    8.4101    5.4332  -61.5766 H   0  0  0  0  0  0  0  0  0  0  0  0
    8.1710    3.6519  -61.4733 H   0  0  0  0  0  0  0  0  0  0  0  0
    5.2460    0.9758  -55.6231 H   0  0  0  0  0  0  0  0  0  0  0  0
    5.6957   -0.3300  -53.5469 H   0  0  0  0  0  0  0  0  0  0  0  0
    8.0429   -0.7984  -52.8502 H   0  0  0  0  0  0  0  0  0  0  0  0
    9.9442    0.0236  -54.2373 H   0  0  0  0  0  0  0  0  0  0  0  0
    9.5027    1.3309  -56.3124 H   0  0  0  0  0  0  0  0  0  0  0  0
    3.5928    0.5036  -63.2799 H   0  0  0  0  0  0  0  0  0  0  0  0
    4.4624    2.7360  -63.7845 H   0  0  0  0  0  0  0  0  0  0  0  0
    5.8850    3.9257  -62.0856 H   0  0  0  0  0  0  0  0  0  0  0  0
    8.3477    4.8898  -56.3623 H   0  0  0  0  0  0  0  0  0  0  0  0
    9.0347    3.2707  -55.9361 H   0  0  0  0  0  0  0  0  0  0  0  0
    7.9842    6.0214  -57.8773 H   0  0  0  0  0  0  0  0  0  0  0  0
    8.5504    6.7950  -59.3285 H   0  0  0  0  0  0  0  0  0  0  0  0
   10.6381    6.3995  -60.2101 H   0  0  0  0  0  0  0  0  0  0  0  0
   11.8051    5.2229  -59.6017 H   0  0  0  0  0  0  0  0  0  0  0  0
  1  2  1  0
  2  3  1  0
  3  4  1  0
  4  5  2  0
  4  6  1  0
  6  7  1  0
  7  8  1  0
  8  9  2  0
  9 10  1  0
 10 11  2  0
 11 12  1  0
 12 13  2  0
 13 14  1  0
 14 15  2  0
 15 16  1  0
 16 17  2  0
 11 18  1  0
 18 19  1  0
 19 20  1  0
 20 21  1  0
 21 22  2  0
 22 23  1  0
 23 24  2  0
 24 25  1  0
 25 26  1  0
 10 27  1  0
 27 28  1  0
 28 29  2  0
 29 30  1  0
 29 31  1  0
 28  2  1  0
 31  6  1  0
 30  8  1  0
 26  9  1  0
 17 12  1  0
 26 18  2  0
 25 20  2  0
  1 32  1  0
  1 33  1  0
  1 34  1  0
  2 35  1  1
  6 36  1  6
  7 37  1  0
  7 38  1  0
 13 39  1  0
 14 40  1  0
 15 41  1  0
 16 42  1  0
 17 43  1  0
 22 44  1  0
 23 45  1  0
 24 46  1  0
 27 47  1  0
 27 48  1  0
 30 49  1  0
 30 50  1  0
 31 51  1  0
 31 52  1  0
M  CHG  1   1   1
M  END
>  <meeko>  (142) 
{"is_sidechain": false}

$$$$

     RDKit          3D

 52 58  0  0  0  0  0  0  0  0999 V2000
   10.5260    1.7550  -57.0830 N   0  0  0  0  0  0  0  0  0  0  0  0
   11.0280    3.1350  -57.2330 C   0  0  1  0  0  0  0  0  0  0  0  0
   12.0060    2.9560  -58.7490 S   0  0  0  0  0  0  0  0  0  0  0  0
   10.6510    3.1100  -59.8790 C   0  0  0  0  0  0  0  0  0  0  0  0
   10.0210    2.0920  -60.1300 O   0  0  0  0  0  0  0  0  0  0  0  0
   10.3020    4.5340  -60.3560 C   0  0  1  0  0  0  0  0  0  0  0  0
    8.7390    4.6560  -60.6250 C   0  0  0  0  0  0  0  0  0  0  0  0
    7.9670    4.7390  -59.2970 C   0  0  0  0  0  0  0  0  0  0  0  0
    7.3340    3.6820  -58.7460 C   0  0  0  0  0  0  0  0  0  0  0  0
    7.6190    3.2190  -57.3250 C   0  0  0  0  0  0  0  0  0  0  0  0
    7.0300    2.0040  -57.1230 C   0  0  0  0  0  0  0  0  0  0  0  0
    7.2080    1.1740  -55.9240 C   0  0  0  0  0  0  0  0  0  0  0  0
    6.1000    0.7330  -55.1890 C   0  0  0  0  0  0  0  0  0  0  0  0
    6.2730   -0.0150  -54.0220 C   0  0  0  0  0  0  0  0  0  0  0  0
    7.5570   -0.3390  -53.5870 C   0  0  0  0  0  0  0  0  0  0  0  0
    8.6660    0.0720  -54.3210 C   0  0  0  0  0  0  0  0  0  0  0  0
    8.4940    0.8230  -55.4860 C   0  0  0  0  0  0  0  0  0  0  0  0
    6.4270    1.6710  -58.3690 C   0  0  0  0  0  0  0  0  0  0  0  0
    5.5540    0.3400  -58.9000 S   0  0  0  0  0  0  0  0  0  0  0  0
    5.3510    1.0530  -60.4520 C   0  0  0  0  0  0  0  0  0  0  0  0
    4.6570    0.4030  -61.4070 N   0  0  0  0  0  0  0  0  0  0  0  0
    4.5220    1.0940  -62.5560 C   0  0  0  0  0  0  0  0  0  0  0  0
    5.0290    2.3610  -62.7930 C   0  0  0  0  0  0  0  0  0  0  0  0
    5.7520    2.9960  -61.7840 C   0  0  0  0  0  0  0  0  0  0  0  0
    5.9440    2.3170  -60.5640 C   0  0  0  0  0  0  0  0  0  0  0  0
    6.6010    2.6190  -59.3480 C   0  0  0  0  0  0  0  0  0  0  0  0
    8.6670    3.8910  -56.4400 C   0  0  0  0  0  0  0  0  0  0  0  0
    9.9510    4.2180  -57.2410 C   0  0  0  0  0  0  0  0  0  0  0  0
    9.8780    5.2930  -58.0890 C   0  0  0  0  0  0  0  0  0  0  0  0
    8.5110    5.8430  -58.4150 C   0  0  0  0  0  0  0  0  0  0  0  0
   10.7680    5.5630  -59.2880 C   0  0  0  0  0  0  0  0  0  0  0  0
    9.6400    1.6730  -56.5770 H   0  0  0  0  0  0  0  0  0  0  0  0
   11.2300    1.1960  -56.5890 H   0  0  0  0  0  0  0  0  0  0  0  0
   10.4250    1.3150  -58.0120 H   0  0  0  0  0  0  0  0  0  0  0  0
   11.6117    3.5096  -56.3792 H   0  0  0  0  0  0  0  0  0  0  0  0
   10.8235    4.7453  -61.3012 H   0  0  0  0  0  0  0  0  0  0  0  0
    8.5432    5.5638  -61.2145 H   0  0  0  0  0  0  0  0  0  0  0  0
    8.4029    3.7652  -61.1760 H   0  0  0  0  0  0  0  0  0  0  0  0
    5.0846    0.9779  -55.5339 H   0  0  0  0  0  0  0  0  0  0  0  0
    5.3966   -0.3481  -53.4467 H   0  0  0  0  0  0  0  0  0  0  0  0
    7.6940   -0.9199  -52.6630 H   0  0  0  0  0  0  0  0  0  0  0  0
    9.6783   -0.1948  -53.9834 H   0  0  0  0  0  0  0  0  0  0  0  0
    9.3735    1.1418  -56.0646 H   0  0  0  0  0  0  0  0  0  0  0  0
    3.9636    0.6126  -63.3723 H   0  0  0  0  0  0  0  0  0  0  0  0
    4.8641    2.8577  -63.7605 H   0  0  0  0  0  0  0  0  0  0  0  0
    6.1635    4.0046  -61.9368 H   0  0  0  0  0  0  0  0  0  0  0  0
    8.2493    4.8246  -56.0352 H   0  0  0  0  0  0  0  0  0  0  0  0
    8.9310    3.1991  -55.6267 H   0  0  0  0  0  0  0  0  0  0  0  0
    7.9010    5.9758  -57.5093 H   0  0  0  0  0  0  0  0  0  0  0  0
    8.5192    6.8386  -58.8826 H   0  0  0  0  0  0  0  0  0  0  0  0
   10.6289    6.5917  -59.6520 H   0  0  0  0  0  0  0  0  0  0  0  0
   11.8367    5.4625  -59.0476 H   0  0  0  0  0  0  0  0  0  0  0  0
  1  2  1  0
  2  3  1  0
  3  4  1  0
  4  5  2  0
  4  6  1  0
  6  7  1  0
  7  8  1  0
  8  9  2  0
  9 10  1  0
 10 11  2  0
 11 12  1  0
 12 13  2  0
 13 14  1  0
 14 15  2  0
 15 16  1  0
 16 17  2  0
 11 18  1  0
 18 19  1  0
 19 20  1  0
 20 21  1  0
 21 22  2  0
 22 23  1  0
 23 24  2  0
 24 25  1  0
 25 26  1  0
 10 27  1  0
 27 28  1  0
 28 29  2  0
 29 30  1  0
 29 31  1  0
 28  2  1  0
 31  6  1  0
 30  8  1  0
 26  9  1  0
 17 12  1  0
 26 18  2  0
 25 20  2  0
  1 32  1  0
  1 33  1  0
  1 34  1  0
  2 35  1  1
  6 36  1  6
  7 37  1  0
  7 38  1  0
 13 39  1  0
 14 40  1  0
 15 41  1  0
 16 42  1  0
 17 43  1  0
 22 44  1  0
 23 45  1  0
 24 46  1  0
 27 47  1  0
 27 48  1  0
 30 49  1  0
 30 50  1  0
 31 51  1  0
 31 52  1  0
M  CHG  1   1   1
M  END
>  <meeko>  (143) 
{"is_sidechain": false}

$$$$

     RDKit          3D

 52 58  0  0  0  0  0  0  0  0999 V2000
    8.7660    4.3380  -60.5410 N   0  0  0  0  0  0  0  0  0  0  0  0
    9.5110    5.1180  -59.5340 C   0  0  2  0  0  0  0  0  0  0  0  0
   11.1970    4.9560  -60.1710 S   0  0  0  0  0  0  0  0  0  0  0  0
   11.5430    3.3820  -59.4340 C   0  0  0  0  0  0  0  0  0  0  0  0
   11.2240    2.3970  -60.0890 O   0  0  0  0  0  0  0  0  0  0  0  0
   12.0360    3.3590  -57.9620 C   0  0  2  0  0  0  0  0  0  0  0  0
   11.2360    2.1970  -57.2750 C   0  0  0  0  0  0  0  0  0  0  0  0
   10.2200    2.4530  -56.4060 C   0  0  0  0  0  0  0  0  0  0  0  0
   10.0300    3.8510  -55.8450 C   0  0  0  0  0  0  0  0  0  0  0  0
   10.2320    4.7040  -57.0830 C   0  0  0  0  0  0  0  0  0  0  0  0
    9.2830    4.7160  -58.0760 C   0  0  0  0  0  0  0  0  0  0  0  0
    7.9380    3.9970  -57.7700 C   0  0  0  0  0  0  0  0  0  0  0  0
    8.0620    2.4280  -57.7820 C   0  0  2  0  0  0  0  0  0  0  0  0
    6.7460    1.7000  -57.5680 C   0  0  0  0  0  0  0  0  0  0  0  0
    5.5980    1.9000  -58.4410 C   0  0  0  0  0  0  0  0  0  0  0  0
    5.6180    1.4100  -59.7530 C   0  0  0  0  0  0  0  0  0  0  0  0
    4.5350    1.6340  -60.6070 C   0  0  0  0  0  0  0  0  0  0  0  0
    3.4300    2.3510  -60.1540 C   0  0  0  0  0  0  0  0  0  0  0  0
    3.3980    2.8340  -58.8470 C   0  0  0  0  0  0  0  0  0  0  0  0
    4.4770    2.6070  -57.9910 C   0  0  0  0  0  0  0  0  0  0  0  0
    6.8910    0.8660  -56.5310 C   0  0  0  0  0  0  0  0  0  0  0  0
    5.8740   -0.2490  -55.7200 S   0  0  0  0  0  0  0  0  0  0  0  0
    7.2050   -0.6100  -54.5360 C   0  0  0  0  0  0  0  0  0  0  0  0
    7.0370   -1.4780  -53.5250 N   0  0  0  0  0  0  0  0  0  0  0  0
    8.1160   -1.6460  -52.7270 C   0  0  0  0  0  0  0  0  0  0  0  0
    9.3350   -0.9870  -52.9000 C   0  0  0  0  0  0  0  0  0  0  0  0
    9.4790   -0.0890  -53.9580 C   0  0  0  0  0  0  0  0  0  0  0  0
    8.3910    0.1020  -54.7880 C   0  0  0  0  0  0  0  0  0  0  0  0
    8.2200    0.9440  -55.9570 C   0  0  0  0  0  0  0  0  0  0  0  0
    8.9320    1.8430  -56.6440 C   0  0  0  0  0  0  0  0  0  0  0  0
   11.7380    4.7410  -57.3080 C   0  0  0  0  0  0  0  0  0  0  0  0
    7.7540    4.4910  -60.5340 H   0  0  0  0  0  0  0  0  0  0  0  0
    8.9740    3.3330  -60.4460 H   0  0  0  0  0  0  0  0  0  0  0  0
    9.1150    4.6000  -61.4720 H   0  0  0  0  0  0  0  0  0  0  0  0
    9.1815    6.1631  -59.4377 H   0  0  0  0  0  0  0  0  0  0  0  0
   13.1183    3.1874  -57.8659 H   0  0  0  0  0  0  0  0  0  0  0  0
   11.5018    1.1537  -57.5004 H   0  0  0  0  0  0  0  0  0  0  0  0
    9.0211    3.9824  -55.4268 H   0  0  0  0  0  0  0  0  0  0  0  0
   10.7088    4.0972  -55.0152 H   0  0  0  0  0  0  0  0  0  0  0  0
    7.5898    4.3134  -56.7757 H   0  0  0  0  0  0  0  0  0  0  0  0
    7.2280    4.2767  -58.5623 H   0  0  0  0  0  0  0  0  0  0  0  0
    8.4946    2.2703  -58.7810 H   0  0  0  0  0  0  0  0  0  0  0  0
    6.4910    0.8458  -60.1130 H   0  0  0  0  0  0  0  0  0  0  0  0
    4.5550    1.2447  -61.6356 H   0  0  0  0  0  0  0  0  0  0  0  0
    2.5813    2.5363  -60.8288 H   0  0  0  0  0  0  0  0  0  0  0  0
    2.5216    3.3946  -58.4897 H   0  0  0  0  0  0  0  0  0  0  0  0
    4.4461    2.9853  -56.9586 H   0  0  0  0  0  0  0  0  0  0  0  0
    8.0274   -2.3487  -51.8854 H   0  0  0  0  0  0  0  0  0  0  0  0
   10.1715   -1.1737  -52.2105 H   0  0  0  0  0  0  0  0  0  0  0  0
   10.4246    0.4476  -54.1253 H   0  0  0  0  0  0  0  0  0  0  0  0
   12.0156    5.5644  -57.9825 H   0  0  0  0  0  0  0  0  0  0  0  0
   12.3077    4.9114  -56.3826 H   0  0  0  0  0  0  0  0  0  0  0  0
  1  2  1  0
  2  3  1  0
  3  4  1  0
  4  5  2  0
  4  6  1  0
  6  7  1  0
  7  8  2  0
  8  9  1  0
  9 10  1  0
 10 11  2  0
 11 12  1  0
 12 13  1  0
 13 14  1  0
 14 15  1  0
 15 16  2  0
 16 17  1  0
 17 18  2  0
 18 19  1  0
 19 20  2  0
 14 21  2  0
 21 22  1  0
 22 23  1  0
 23 24  1  0
 24 25  2  0
 25 26  1  0
 26 27  2  0
 27 28  1  0
 28 29  1  0
 29 30  2  0
 10 31  1  0
 11  2  1  0
 30 13  1  0
 31  6  1  0
 30  8  1  0
 20 15  1  0
 29 21  1  0
 28 23  2  0
  1 32  1  0
  1 33  1  0
  1 34  1  0
  2 35  1  1
  6 36  1  6
  7 37  1  0
  9 38  1  0
  9 39  1  0
 12 40  1  0
 12 41  1  0
 13 42  1  6
 16 43  1  0
 17 44  1  0
 18 45  1  0
 19 46  1  0
 20 47  1  0
 25 48  1  0
 26 49  1  0
 27 50  1  0
 31 51  1  0
 31 52  1  0
M  CHG  1   1   1
M  END
>  <meeko>  (144) 
{"is_sidechain": false}

$$$$

     RDKit          3D

 52 58  0  0  0  0  0  0  0  0999 V2000
    9.0850    6.4540  -59.6210 N   0  0  0  0  0  0  0  0  0  0  0  0
    9.4970    5.0680  -59.3650 C   0  0  1  0  0  0  0  0  0  0  0  0
   11.1590    4.9910  -60.0250 S   0  0  0  0  0  0  0  0  0  0  0  0
   11.6440    3.4330  -59.3330 C   0  0  0  0  0  0  0  0  0  0  0  0
   11.6060    2.4480  -60.0570 O   0  0  0  0  0  0  0  0  0  0  0  0
   12.0480    3.3860  -57.8370 C   0  0  2  0  0  0  0  0  0  0  0  0
   11.2380    2.2050  -57.2130 C   0  0  0  0  0  0  0  0  0  0  0  0
   10.2230    2.4260  -56.3340 C   0  0  0  0  0  0  0  0  0  0  0  0
   10.0300    3.8000  -55.7160 C   0  0  0  0  0  0  0  0  0  0  0  0
   10.2340    4.7070  -56.9150 C   0  0  0  0  0  0  0  0  0  0  0  0
    9.2850    4.7300  -57.9020 C   0  0  0  0  0  0  0  0  0  0  0  0
    7.9470    3.9760  -57.6790 C   0  0  0  0  0  0  0  0  0  0  0  0
    8.0740    2.4100  -57.7280 C   0  0  2  0  0  0  0  0  0  0  0  0
    6.7560    1.6750  -57.5240 C   0  0  0  0  0  0  0  0  0  0  0  0
    5.5920    1.8990  -58.3770 C   0  0  0  0  0  0  0  0  0  0  0  0
    5.5950    1.4870  -59.7150 C   0  0  0  0  0  0  0  0  0  0  0  0
    4.4660    1.6710  -60.5160 C   0  0  0  0  0  0  0  0  0  0  0  0
    3.3250    2.2700  -59.9890 C   0  0  0  0  0  0  0  0  0  0  0  0
    3.3110    2.6890  -58.6610 C   0  0  0  0  0  0  0  0  0  0  0  0
    4.4380    2.5030  -57.8570 C   0  0  0  0  0  0  0  0  0  0  0  0
    6.9130    0.8130  -56.5110 C   0  0  0  0  0  0  0  0  0  0  0  0
    5.9080   -0.3310  -55.7200 S   0  0  0  0  0  0  0  0  0  0  0  0
    7.2430   -0.7080  -54.5480 C   0  0  0  0  0  0  0  0  0  0  0  0
    7.0840   -1.5990  -53.5560 N   0  0  0  0  0  0  0  0  0  0  0  0
    8.1680   -1.7780  -52.7660 C   0  0  0  0  0  0  0  0  0  0  0  0
    9.3810   -1.1080  -52.9300 C   0  0  0  0  0  0  0  0  0  0  0  0
    9.5150   -0.1840  -53.9670 C   0  0  0  0  0  0  0  0  0  0  0  0
    8.4220    0.0200  -54.7880 C   0  0  0  0  0  0  0  0  0  0  0  0
    8.2410    0.8870  -55.9350 C   0  0  0  0  0  0  0  0  0  0  0  0
    8.9440    1.8110  -56.5970 C   0  0  0  0  0  0  0  0  0  0  0  0
   11.7350    4.7500  -57.1570 C   0  0  0  0  0  0  0  0  0  0  0  0
    8.8610    6.9550  -58.7560 H   0  0  0  0  0  0  0  0  0  0  0  0
    8.2640    6.4600  -60.2360 H   0  0  0  0  0  0  0  0  0  0  0  0
    9.8400    6.9540  -60.1030 H   0  0  0  0  0  0  0  0  0  0  0  0
    8.9064    4.2800  -59.8551 H   0  0  0  0  0  0  0  0  0  0  0  0
   13.1262    3.2200  -57.6957 H   0  0  0  0  0  0  0  0  0  0  0  0
   11.4938    1.1717  -57.4903 H   0  0  0  0  0  0  0  0  0  0  0  0
    9.0198    3.9123  -55.2953 H   0  0  0  0  0  0  0  0  0  0  0  0
   10.7075    4.0111  -54.8755 H   0  0  0  0  0  0  0  0  0  0  0  0
    7.5516    4.2593  -56.6924 H   0  0  0  0  0  0  0  0  0  0  0  0
    7.2799    4.2650  -58.5045 H   0  0  0  0  0  0  0  0  0  0  0  0
    8.5038    2.2684  -58.7306 H   0  0  0  0  0  0  0  0  0  0  0  0
    6.4936    1.0147  -60.1386 H   0  0  0  0  0  0  0  0  0  0  0  0
    4.4782    1.3420  -61.5656 H   0  0  0  0  0  0  0  0  0  0  0  0
    2.4358    2.4121  -60.6207 H   0  0  0  0  0  0  0  0  0  0  0  0
    2.4118    3.1668  -58.2449 H   0  0  0  0  0  0  0  0  0  0  0  0
    4.4203    2.8328  -56.8078 H   0  0  0  0  0  0  0  0  0  0  0  0
    8.0876   -2.4996  -51.9397 H   0  0  0  0  0  0  0  0  0  0  0  0
   10.2222   -1.3060  -52.2494 H   0  0  0  0  0  0  0  0  0  0  0  0
   10.4565    0.3623  -54.1254 H   0  0  0  0  0  0  0  0  0  0  0  0
   12.0000    5.5869  -57.8199 H   0  0  0  0  0  0  0  0  0  0  0  0
   12.3082    4.9016  -56.2305 H   0  0  0  0  0  0  0  0  0  0  0  0
  1  2  1  0
  2  3  1  0
  3  4  1  0
  4  5  2  0
  4  6  1  0
  6  7  1  0
  7  8  2  0
  8  9  1  0
  9 10  1  0
 10 11  2  0
 11 12  1  0
 12 13  1  0
 13 14  1  0
 14 15  1  0
 15 16  2  0
 16 17  1  0
 17 18  2  0
 18 19  1  0
 19 20  2  0
 14 21  2  0
 21 22  1  0
 22 23  1  0
 23 24  1  0
 24 25  2  0
 25 26  1  0
 26 27  2  0
 27 28  1  0
 28 29  1  0
 29 30  2  0
 10 31  1  0
 11  2  1  0
 30 13  1  0
 31  6  1  0
 30  8  1  0
 20 15  1  0
 29 21  1  0
 28 23  2  0
  1 32  1  0
  1 33  1  0
  1 34  1  0
  2 35  1  6
  6 36  1  6
  7 37  1  0
  9 38  1  0
  9 39  1  0
 12 40  1  0
 12 41  1  0
 13 42  1  6
 16 43  1  0
 17 44  1  0
 18 45  1  0
 19 46  1  0
 20 47  1  0
 25 48  1  0
 26 49  1  0
 27 50  1  0
 31 51  1  0
 31 52  1  0
M  CHG  1   1   1
M  END
>  <meeko>  (145) 
{"is_sidechain": false}

$$$$

     RDKit          3D

 52 58  0  0  0  0  0  0  0  0999 V2000
   12.5720    4.0040  -56.5780 N   0  0  0  0  0  0  0  0  0  0  0  0
   11.6740    3.4730  -57.6130 C   0  0  2  0  0  0  0  0  0  0  0  0
   12.6090    3.6710  -59.1290 S   0  0  0  0  0  0  0  0  0  0  0  0
   11.2830    3.6110  -60.3030 C   0  0  0  0  0  0  0  0  0  0  0  0
   11.1200    2.5770  -60.9360 O   0  0  0  0  0  0  0  0  0  0  0  0
   10.3890    4.8730  -60.4460 C   0  0  1  0  0  0  0  0  0  0  0  0
    8.9220    4.3230  -60.3970 C   0  0  0  0  0  0  0  0  0  0  0  0
    8.0980    4.5830  -59.3440 C   0  0  0  0  0  0  0  0  0  0  0  0
    8.4950    5.6490  -58.3420 C   0  0  0  0  0  0  0  0  0  0  0  0
    9.9470    5.3080  -58.1120 C   0  0  0  0  0  0  0  0  0  0  0  0
   10.3070    4.1360  -57.4970 C   0  0  0  0  0  0  0  0  0  0  0  0
    9.2570    3.1390  -56.8910 C   0  0  0  0  0  0  0  0  0  0  0  0
    7.7210    3.1910  -57.2300 C   0  0  2  0  0  0  0  0  0  0  0  0
    6.9970    1.8670  -57.0060 C   0  0  0  0  0  0  0  0  0  0  0  0
    7.0450    1.1450  -55.7350 C   0  0  0  0  0  0  0  0  0  0  0  0
    5.8670    0.7820  -55.0680 C   0  0  0  0  0  0  0  0  0  0  0  0
    5.9170    0.0610  -53.8720 C   0  0  0  0  0  0  0  0  0  0  0  0
    7.1440   -0.3080  -53.3300 C   0  0  0  0  0  0  0  0  0  0  0  0
    8.3230    0.0430  -53.9810 C   0  0  0  0  0  0  0  0  0  0  0  0
    8.2740    0.7630  -55.1790 C   0  0  0  0  0  0  0  0  0  0  0  0
    6.3320    1.5680  -58.1300 C   0  0  0  0  0  0  0  0  0  0  0  0
    5.3110    0.2810  -58.6270 S   0  0  0  0  0  0  0  0  0  0  0  0
    5.1560    1.0270  -60.2730 C   0  0  0  0  0  0  0  0  0  0  0  0
    4.4130    0.4550  -61.2370 N   0  0  0  0  0  0  0  0  0  0  0  0
    4.3640    1.1370  -62.4040 C   0  0  0  0  0  0  0  0  0  0  0  0
    5.0170    2.3480  -62.6340 C   0  0  0  0  0  0  0  0  0  0  0  0
    5.7830    2.9130  -61.6140 C   0  0  0  0  0  0  0  0  0  0  0  0
    5.8640    2.2330  -60.4140 C   0  0  0  0  0  0  0  0  0  0  0  0
    6.5510    2.5520  -59.1740 C   0  0  0  0  0  0  0  0  0  0  0  0
    7.3920    3.4880  -58.7140 C   0  0  0  0  0  0  0  0  0  0  0  0
   10.6890    5.8930  -59.3050 C   0  0  0  0  0  0  0  0  0  0  0  0
   12.1460    3.8680  -55.6540 H   0  0  0  0  0  0  0  0  0  0  0  0
   13.4600    3.4930  -56.5930 H   0  0  0  0  0  0  0  0  0  0  0  0
   12.7640    5.0010  -56.7150 H   0  0  0  0  0  0  0  0  0  0  0  0
   11.3980    2.4109  -57.5363 H   0  0  0  0  0  0  0  0  0  0  0  0
   10.5720    5.4282  -61.3778 H   0  0  0  0  0  0  0  0  0  0  0  0
    8.5491    3.7126  -61.2327 H   0  0  0  0  0  0  0  0  0  0  0  0
    8.3796    6.6594  -58.7612 H   0  0  0  0  0  0  0  0  0  0  0  0
    7.8833    5.6599  -57.4278 H   0  0  0  0  0  0  0  0  0  0  0  0
    9.5955    2.1327  -57.1787 H   0  0  0  0  0  0  0  0  0  0  0  0
    9.2561    3.4412  -55.8333 H   0  0  0  0  0  0  0  0  0  0  0  0
    7.3934    3.9949  -56.5544 H   0  0  0  0  0  0  0  0  0  0  0  0
    4.8924    1.0678  -55.4906 H   0  0  0  0  0  0  0  0  0  0  0  0
    4.9845   -0.2153  -53.3581 H   0  0  0  0  0  0  0  0  0  0  0  0
    7.1823   -0.8760  -52.3888 H   0  0  0  0  0  0  0  0  0  0  0  0
    9.2942   -0.2461  -53.5529 H   0  0  0  0  0  0  0  0  0  0  0  0
    9.2098    1.0325  -55.6905 H   0  0  0  0  0  0  0  0  0  0  0  0
    3.7705    0.7088  -63.2252 H   0  0  0  0  0  0  0  0  0  0  0  0
    4.9290    2.8515  -63.6080 H   0  0  0  0  0  0  0  0  0  0  0  0
    6.3059    3.8696  -61.7605 H   0  0  0  0  0  0  0  0  0  0  0  0
   10.3042    6.8920  -59.5577 H   0  0  0  0  0  0  0  0  0  0  0  0
   11.7647    6.0290  -59.1197 H   0  0  0  0  0  0  0  0  0  0  0  0
  1  2  1  0
  2  3  1  0
  3  4  1  0
  4  5  2  0
  4  6  1  0
  6  7  1  0
  7  8  2  0
  8  9  1  0
  9 10  1  0
 10 11  2  0
 11 12  1  0
 12 13  1  0
 13 14  1  0
 14 15  1  0
 15 16  2  0
 16 17  1  0
 17 18  2  0
 18 19  1  0
 19 20  2  0
 14 21  2  0
 21 22  1  0
 22 23  1  0
 23 24  1  0
 24 25  2  0
 25 26  1  0
 26 27  2  0
 27 28  1  0
 28 29  1  0
 29 30  2  0
 10 31  1  0
 11  2  1  0
 30 13  1  0
 31  6  1  0
 30  8  1  0
 20 15  1  0
 29 21  1  0
 28 23  2  0
  1 32  1  0
  1 33  1  0
  1 34  1  0
  2 35  1  1
  6 36  1  6
  7 37  1  0
  9 38  1  0
  9 39  1  0
 12 40  1  0
 12 41  1  0
 13 42  1  1
 16 43  1  0
 17 44  1  0
 18 45  1  0
 19 46  1  0
 20 47  1  0
 25 48  1  0
 26 49  1  0
 27 50  1  0
 31 51  1  0
 31 52  1  0
M  CHG  1   1   1
M  END
>  <meeko>  (146) 
{"is_sidechain": false}

$$$$

     RDKit          3D

 52 58  0  0  0  0  0  0  0  0999 V2000
   10.6200    1.6730  -57.8510 N   0  0  0  0  0  0  0  0  0  0  0  0
   11.1380    3.0300  -57.5730 C   0  0  1  0  0  0  0  0  0  0  0  0
   12.2500    3.3020  -58.9640 S   0  0  0  0  0  0  0  0  0  0  0  0
   11.0120    3.5300  -60.2090 C   0  0  0  0  0  0  0  0  0  0  0  0
   10.6660    2.5250  -60.8230 O   0  0  0  0  0  0  0  0  0  0  0  0
   10.2950    4.8990  -60.3140 C   0  0  1  0  0  0  0  0  0  0  0  0
    8.7660    4.5530  -60.2870 C   0  0  0  0  0  0  0  0  0  0  0  0
    7.9830    4.8200  -59.1990 C   0  0  0  0  0  0  0  0  0  0  0  0
    8.5000    5.8110  -58.1650 C   0  0  0  0  0  0  0  0  0  0  0  0
    9.9070    5.2820  -57.9580 C   0  0  0  0  0  0  0  0  0  0  0  0
   10.0490    4.0670  -57.3380 C   0  0  0  0  0  0  0  0  0  0  0  0
    8.8880    3.5770  -56.4560 C   0  0  0  0  0  0  0  0  0  0  0  0
    7.4650    3.3480  -57.1040 C   0  0  2  0  0  0  0  0  0  0  0  0
    6.9420    1.9130  -57.0470 C   0  0  0  0  0  0  0  0  0  0  0  0
    7.0450    1.0690  -55.8540 C   0  0  0  0  0  0  0  0  0  0  0  0
    8.3000    0.7470  -55.3190 C   0  0  0  0  0  0  0  0  0  0  0  0
    8.4110   -0.1030  -54.2160 C   0  0  0  0  0  0  0  0  0  0  0  0
    7.2680   -0.6440  -53.6340 C   0  0  0  0  0  0  0  0  0  0  0  0
    6.0140   -0.3300  -54.1500 C   0  0  0  0  0  0  0  0  0  0  0  0
    5.9020    0.5190  -55.2540 C   0  0  0  0  0  0  0  0  0  0  0  0
    6.3590    1.6500  -58.2240 C   0  0  0  0  0  0  0  0  0  0  0  0
    5.5660    0.2850  -58.8960 S   0  0  0  0  0  0  0  0  0  0  0  0
    5.3840    1.1500  -60.4750 C   0  0  0  0  0  0  0  0  0  0  0  0
    4.7740    0.5740  -61.5250 N   0  0  0  0  0  0  0  0  0  0  0  0
    4.6600    1.3540  -62.6230 C   0  0  0  0  0  0  0  0  0  0  0  0
    5.1240    2.6660  -62.7050 C   0  0  0  0  0  0  0  0  0  0  0  0
    5.7620    3.2320  -61.5990 C   0  0  0  0  0  0  0  0  0  0  0  0
    5.9150    2.4510  -60.4680 C   0  0  0  0  0  0  0  0  0  0  0  0
    6.4980    2.7460  -59.1670 C   0  0  0  0  0  0  0  0  0  0  0  0
    7.2500    3.7070  -58.6050 C   0  0  0  0  0  0  0  0  0  0  0  0
   10.7230    5.7990  -59.1310 C   0  0  0  0  0  0  0  0  0  0  0  0
   10.8450    1.4280  -58.8220 H   0  0  0  0  0  0  0  0  0  0  0  0
    9.5910    1.6460  -57.7900 H   0  0  0  0  0  0  0  0  0  0  0  0
   11.0060    0.9440  -57.2440 H   0  0  0  0  0  0  0  0  0  0  0  0
   11.6707    3.1313  -56.6160 H   0  0  0  0  0  0  0  0  0  0  0  0
   10.5478    5.4598  -61.2259 H   0  0  0  0  0  0  0  0  0  0  0  0
    8.3099    4.0814  -61.1699 H   0  0  0  0  0  0  0  0  0  0  0  0
    8.5057    6.8395  -58.5550 H   0  0  0  0  0  0  0  0  0  0  0  0
    7.8946    5.8768  -57.2489 H   0  0  0  0  0  0  0  0  0  0  0  0
    9.2000    2.6165  -56.0201 H   0  0  0  0  0  0  0  0  0  0  0  0
    8.7237    4.4101  -55.7567 H   0  0  0  0  0  0  0  0  0  0  0  0
    6.9348    4.0589  -56.4532 H   0  0  0  0  0  0  0  0  0  0  0  0
    9.2086    1.1688  -55.7733 H   0  0  0  0  0  0  0  0  0  0  0  0
    9.4029   -0.3452  -53.8068 H   0  0  0  0  0  0  0  0  0  0  0  0
    7.3556   -1.3177  -52.7688 H   0  0  0  0  0  0  0  0  0  0  0  0
    5.1091   -0.7512  -53.6876 H   0  0  0  0  0  0  0  0  0  0  0  0
    4.9070    0.7588  -55.6572 H   0  0  0  0  0  0  0  0  0  0  0  0
    4.1692    0.9257  -63.5094 H   0  0  0  0  0  0  0  0  0  0  0  0
    4.9894    3.2479  -63.6287 H   0  0  0  0  0  0  0  0  0  0  0  0
    6.1316    4.2677  -61.6267 H   0  0  0  0  0  0  0  0  0  0  0  0
   10.4863    6.8533  -59.3369 H   0  0  0  0  0  0  0  0  0  0  0  0
   11.8059    5.7607  -58.9415 H   0  0  0  0  0  0  0  0  0  0  0  0
  1  2  1  0
  2  3  1  0
  3  4  1  0
  4  5  2  0
  4  6  1  0
  6  7  1  0
  7  8  2  0
  8  9  1  0
  9 10  1  0
 10 11  2  0
 11 12  1  0
 12 13  1  0
 13 14  1  0
 14 15  1  0
 15 16  2  0
 16 17  1  0
 17 18  2  0
 18 19  1  0
 19 20  2  0
 14 21  2  0
 21 22  1  0
 22 23  1  0
 23 24  1  0
 24 25  2  0
 25 26  1  0
 26 27  2  0
 27 28  1  0
 28 29  1  0
 29 30  2  0
 10 31  1  0
 11  2  1  0
 30 13  1  0
 31  6  1  0
 30  8  1  0
 20 15  1  0
 29 21  1  0
 28 23  2  0
  1 32  1  0
  1 33  1  0
  1 34  1  0
  2 35  1  1
  6 36  1  6
  7 37  1  0
  9 38  1  0
  9 39  1  0
 12 40  1  0
 12 41  1  0
 13 42  1  1
 16 43  1  0
 17 44  1  0
 18 45  1  0
 19 46  1  0
 20 47  1  0
 25 48  1  0
 26 49  1  0
 27 50  1  0
 31 51  1  0
 31 52  1  0
M  CHG  1   1   1
M  END
>  <meeko>  (147) 
{"is_sidechain": false}

$$$$

     RDKit          3D

 52 58  0  0  0  0  0  0  0  0999 V2000
    9.4280    3.4220  -62.0150 N   0  0  0  0  0  0  0  0  0  0  0  0
    9.9780    3.9460  -60.7580 C   0  0  2  0  0  0  0  0  0  0  0  0
   10.8540    2.5510  -60.0210 S   0  0  0  0  0  0  0  0  0  0  0  0
   11.9240    3.4370  -58.9080 C   0  0  0  0  0  0  0  0  0  0  0  0
   13.1220    3.4570  -59.1610 O   0  0  0  0  0  0  0  0  0  0  0  0
   11.2990    4.2650  -57.7790 C   0  0  2  0  0  0  0  0  0  0  0  0
   10.1870    3.5120  -56.9990 C   0  0  0  0  0  0  0  0  0  0  0  0
    8.9150    3.9950  -56.9380 C   0  0  0  0  0  0  0  0  0  0  0  0
    8.6360    5.3890  -57.4740 C   0  0  0  0  0  0  0  0  0  0  0  0
    9.3510    5.3310  -58.8000 C   0  0  0  0  0  0  0  0  0  0  0  0
    8.9390    4.4660  -59.7800 C   0  0  0  0  0  0  0  0  0  0  0  0
    7.6190    3.6410  -59.7010 C   0  0  0  0  0  0  0  0  0  0  0  0
    6.8720    3.3670  -58.3430 C   0  0  1  0  0  0  0  0  0  0  0  0
    6.0100    2.1050  -58.3660 C   0  0  0  0  0  0  0  0  0  0  0  0
    4.9950    1.8640  -59.3920 C   0  0  0  0  0  0  0  0  0  0  0  0
    5.2410    0.9860  -60.4570 C   0  0  0  0  0  0  0  0  0  0  0  0
    4.2840    0.7900  -61.4570 C   0  0  0  0  0  0  0  0  0  0  0  0
    3.0720    1.4750  -61.4080 C   0  0  0  0  0  0  0  0  0  0  0  0
    2.8140    2.3510  -60.3570 C   0  0  0  0  0  0  0  0  0  0  0  0
    3.7710    2.5460  -59.3570 C   0  0  0  0  0  0  0  0  0  0  0  0
    6.3500    1.3590  -57.3060 C   0  0  0  0  0  0  0  0  0  0  0  0
    5.8380   -0.1530  -56.6740 S   0  0  0  0  0  0  0  0  0  0  0  0
    7.0710   -0.0290  -55.3510 C   0  0  0  0  0  0  0  0  0  0  0  0
    7.2020   -0.9900  -54.4200 N   0  0  0  0  0  0  0  0  0  0  0  0
    8.1360   -0.7480  -53.4720 C   0  0  0  0  0  0  0  0  0  0  0  0
    8.9290    0.3990  -53.4240 C   0  0  0  0  0  0  0  0  0  0  0  0
    8.7720    1.3750  -54.4090 C   0  0  0  0  0  0  0  0  0  0  0  0
    7.8340    1.1500  -55.4000 C   0  0  0  0  0  0  0  0  0  0  0  0
    7.4250    1.9580  -56.5360 C   0  0  0  0  0  0  0  0  0  0  0  0
    7.7990    3.0970  -57.1330 C   0  0  0  0  0  0  0  0  0  0  0  0
   10.8270    5.5690  -58.4960 C   0  0  0  0  0  0  0  0  0  0  0  0
    9.1130    2.4510  -61.9200 H   0  0  0  0  0  0  0  0  0  0  0  0
   10.1220    3.4830  -62.7670 H   0  0  0  0  0  0  0  0  0  0  0  0
    8.6330    3.9990  -62.3090 H   0  0  0  0  0  0  0  0  0  0  0  0
   10.6126    4.8177  -60.9756 H   0  0  0  0  0  0  0  0  0  0  0  0
   12.0112    4.4861  -56.9704 H   0  0  0  0  0  0  0  0  0  0  0  0
   10.4315    2.5703  -56.4858 H   0  0  0  0  0  0  0  0  0  0  0  0
    7.5578    5.5647  -57.6029 H   0  0  0  0  0  0  0  0  0  0  0  0
    8.9662    6.2048  -56.8142 H   0  0  0  0  0  0  0  0  0  0  0  0
    6.8959    4.1592  -60.3480 H   0  0  0  0  0  0  0  0  0  0  0  0
    7.9665    2.6337  -59.9740 H   0  0  0  0  0  0  0  0  0  0  0  0
    6.2973    4.2987  -58.2345 H   0  0  0  0  0  0  0  0  0  0  0  0
    6.1977    0.4453  -60.5063 H   0  0  0  0  0  0  0  0  0  0  0  0
    4.4883    0.0938  -62.2838 H   0  0  0  0  0  0  0  0  0  0  0  0
    2.3209    1.3242  -62.1974 H   0  0  0  0  0  0  0  0  0  0  0  0
    1.8562    2.8901  -60.3136 H   0  0  0  0  0  0  0  0  0  0  0  0
    3.5609    3.2432  -58.5325 H   0  0  0  0  0  0  0  0  0  0  0  0
    8.2798   -1.5053  -52.6873 H   0  0  0  0  0  0  0  0  0  0  0  0
    9.6682    0.5322  -52.6203 H   0  0  0  0  0  0  0  0  0  0  0  0
    9.3755    2.2946  -54.3975 H   0  0  0  0  0  0  0  0  0  0  0  0
   11.3938    5.7277  -59.4253 H   0  0  0  0  0  0  0  0  0  0  0  0
   10.9855    6.4648  -57.8776 H   0  0  0  0  0  0  0  0  0  0  0  0
  1  2  1  0
  2  3  1  0
  3  4  1  0
  4  5  2  0
  4  6  1  0
  6  7  1  0
  7  8  2  0
  8  9  1  0
  9 10  1  0
 10 11  2  0
 11 12  1  0
 12 13  1  0
 13 14  1  0
 14 15  1  0
 15 16  2  0
 16 17  1  0
 17 18  2  0
 18 19  1  0
 19 20  2  0
 14 21  2  0
 21 22  1  0
 22 23  1  0
 23 24  1  0
 24 25  2  0
 25 26  1  0
 26 27  2  0
 27 28  1  0
 28 29  1  0
 29 30  2  0
 10 31  1  0
 11  2  1  0
 30 13  1  0
 31  6  1  0
 30  8  1  0
 20 15  1  0
 29 21  1  0
 28 23  2  0
  1 32  1  0
  1 33  1  0
  1 34  1  0
  2 35  1  6
  6 36  1  1
  7 37  1  0
  9 38  1  0
  9 39  1  0
 12 40  1  0
 12 41  1  0
 13 42  1  1
 16 43  1  0
 17 44  1  0
 18 45  1  0
 19 46  1  0
 20 47  1  0
 25 48  1  0
 26 49  1  0
 27 50  1  0
 31 51  1  0
 31 52  1  0
M  CHG  1   1   1
M  END
>  <meeko>  (148) 
{"is_sidechain": false}

$$$$

     RDKit          3D

 52 58  0  0  0  0  0  0  0  0999 V2000
   10.4440    4.8630  -61.0530 N   0  0  0  0  0  0  0  0  0  0  0  0
   10.2950    3.8430  -60.0050 C   0  0  1  0  0  0  0  0  0  0  0  0
   11.9790    3.5270  -59.4780 S   0  0  0  0  0  0  0  0  0  0  0  0
   11.6630    2.8400  -57.8750 C   0  0  0  0  0  0  0  0  0  0  0  0
   11.7630    1.6280  -57.7390 O   0  0  0  0  0  0  0  0  0  0  0  0
   11.2700    3.8010  -56.7350 C   0  0  2  0  0  0  0  0  0  0  0  0
   10.0190    3.1290  -56.0730 C   0  0  0  0  0  0  0  0  0  0  0  0
    8.7760    3.6790  -56.1730 C   0  0  0  0  0  0  0  0  0  0  0  0
    8.6400    5.1000  -56.6810 C   0  0  0  0  0  0  0  0  0  0  0  0
    9.5640    5.0760  -57.8740 C   0  0  0  0  0  0  0  0  0  0  0  0
    9.2760    4.3100  -58.9740 C   0  0  0  0  0  0  0  0  0  0  0  0
    7.9230    3.5220  -59.1210 C   0  0  0  0  0  0  0  0  0  0  0  0
    6.9590    3.2240  -57.9150 C   0  0  1  0  0  0  0  0  0  0  0  0
    6.0500    2.0160  -58.1370 C   0  0  0  0  0  0  0  0  0  0  0  0
    5.1860    1.8860  -59.3100 C   0  0  0  0  0  0  0  0  0  0  0  0
    5.6730    1.3360  -60.5050 C   0  0  0  0  0  0  0  0  0  0  0  0
    4.8560    1.2450  -61.6340 C   0  0  0  0  0  0  0  0  0  0  0  0
    3.5430    1.7050  -61.5840 C   0  0  0  0  0  0  0  0  0  0  0  0
    3.0450    2.2540  -60.4060 C   0  0  0  0  0  0  0  0  0  0  0  0
    3.8620    2.3460  -59.2760 C   0  0  0  0  0  0  0  0  0  0  0  0
    6.1850    1.2010  -57.0820 C   0  0  0  0  0  0  0  0  0  0  0  0
    5.4990   -0.3020  -56.6200 S   0  0  0  0  0  0  0  0  0  0  0  0
    6.5170   -0.3140  -55.1180 C   0  0  0  0  0  0  0  0  0  0  0  0
    6.4480   -1.3210  -54.2310 N   0  0  0  0  0  0  0  0  0  0  0  0
    7.2410   -1.1840  -53.1430 C   0  0  0  0  0  0  0  0  0  0  0  0
    8.0800   -0.0930  -52.9150 C   0  0  0  0  0  0  0  0  0  0  0  0
    8.1300    0.9360  -53.8580 C   0  0  0  0  0  0  0  0  0  0  0  0
    7.3410    0.8160  -54.9880 C   0  0  0  0  0  0  0  0  0  0  0  0
    7.1550    1.7000  -56.1260 C   0  0  0  0  0  0  0  0  0  0  0  0
    7.6680    2.8470  -56.5900 C   0  0  0  0  0  0  0  0  0  0  0  0
   10.9640    5.2230  -57.2960 C   0  0  0  0  0  0  0  0  0  0  0  0
   11.3640    5.3130  -61.0180 H   0  0  0  0  0  0  0  0  0  0  0  0
    9.7160    5.5770  -60.9390 H   0  0  0  0  0  0  0  0  0  0  0  0
   10.3220    4.4340  -61.9750 H   0  0  0  0  0  0  0  0  0  0  0  0
    9.8602    2.8787  -60.3069 H   0  0  0  0  0  0  0  0  0  0  0  0
   12.0739    3.9531  -55.9998 H   0  0  0  0  0  0  0  0  0  0  0  0
   10.1470    2.1904  -55.5139 H   0  0  0  0  0  0  0  0  0  0  0  0
    7.6048    5.3245  -56.9776 H   0  0  0  0  0  0  0  0  0  0  0  0
    8.8858    5.8708  -55.9357 H   0  0  0  0  0  0  0  0  0  0  0  0
    7.3247    4.0849  -59.8526 H   0  0  0  0  0  0  0  0  0  0  0  0
    8.2868    2.5120  -59.3607 H   0  0  0  0  0  0  0  0  0  0  0  0
    6.4199    4.1807  -57.8504 H   0  0  0  0  0  0  0  0  0  0  0  0
    6.7100    0.9723  -60.5534 H   0  0  0  0  0  0  0  0  0  0  0  0
    5.2504    0.8093  -62.5639 H   0  0  0  0  0  0  0  0  0  0  0  0
    2.9003    1.6347  -62.4739 H   0  0  0  0  0  0  0  0  0  0  0  0
    2.0071    2.6159  -60.3644 H   0  0  0  0  0  0  0  0  0  0  0  0
    3.4620    2.7841  -58.3497 H   0  0  0  0  0  0  0  0  0  0  0  0
    7.2229   -1.9850  -52.3893 H   0  0  0  0  0  0  0  0  0  0  0  0
    8.6945   -0.0438  -52.0039 H   0  0  0  0  0  0  0  0  0  0  0  0
    8.7759    1.8135  -53.7071 H   0  0  0  0  0  0  0  0  0  0  0  0
   11.6859    5.5023  -58.0776 H   0  0  0  0  0  0  0  0  0  0  0  0
   11.0345    6.0118  -56.5326 H   0  0  0  0  0  0  0  0  0  0  0  0
  1  2  1  0
  2  3  1  0
  3  4  1  0
  4  5  2  0
  4  6  1  0
  6  7  1  0
  7  8  2  0
  8  9  1  0
  9 10  1  0
 10 11  2  0
 11 12  1  0
 12 13  1  0
 13 14  1  0
 14 15  1  0
 15 16  2  0
 16 17  1  0
 17 18  2  0
 18 19  1  0
 19 20  2  0
 14 21  2  0
 21 22  1  0
 22 23  1  0
 23 24  1  0
 24 25  2  0
 25 26  1  0
 26 27  2  0
 27 28  1  0
 28 29  1  0
 29 30  2  0
 10 31  1  0
 11  2  1  0
 30 13  1  0
 31  6  1  0
 30  8  1  0
 20 15  1  0
 29 21  1  0
 28 23  2  0
  1 32  1  0
  1 33  1  0
  1 34  1  0
  2 35  1  6
  6 36  1  1
  7 37  1  0
  9 38  1  0
  9 39  1  0
 12 40  1  0
 12 41  1  0
 13 42  1  1
 16 43  1  0
 17 44  1  0
 18 45  1  0
 19 46  1  0
 20 47  1  0
 25 48  1  0
 26 49  1  0
 27 50  1  0
 31 51  1  0
 31 52  1  0
M  CHG  1   1   1
M  END
>  <meeko>  (149) 
{"is_sidechain": false}

$$$$

     RDKit          3D

 52 58  0  0  0  0  0  0  0  0999 V2000
   10.1120    3.6080  -61.6290 N   0  0  0  0  0  0  0  0  0  0  0  0
    9.7100    3.8670  -60.2420 C   0  0  2  0  0  0  0  0  0  0  0  0
   10.6860    5.2950  -59.7770 S   0  0  0  0  0  0  0  0  0  0  0  0
   10.4030    5.2460  -58.0270 C   0  0  0  0  0  0  0  0  0  0  0  0
    9.5570    5.9990  -57.5650 O   0  0  0  0  0  0  0  0  0  0  0  0
   11.2060    4.2210  -57.1910 C   0  0  1  0  0  0  0  0  0  0  0  0
   10.1380    3.5100  -56.2990 C   0  0  0  0  0  0  0  0  0  0  0  0
    9.7870    2.2130  -56.5060 C   0  0  0  0  0  0  0  0  0  0  0  0
   10.6200    1.3320  -57.4220 C   0  0  0  0  0  0  0  0  0  0  0  0
   10.8830    2.2640  -58.5890 C   0  0  0  0  0  0  0  0  0  0  0  0
    9.8470    2.6000  -59.4210 C   0  0  0  0  0  0  0  0  0  0  0  0
    8.4870    1.8710  -59.2600 C   0  0  0  0  0  0  0  0  0  0  0  0
    7.6870    2.2800  -57.9700 C   0  0  1  0  0  0  0  0  0  0  0  0
    6.3440    1.5770  -57.8250 C   0  0  0  0  0  0  0  0  0  0  0  0
    5.3040    1.6500  -58.8480 C   0  0  0  0  0  0  0  0  0  0  0  0
    4.2580    2.5740  -58.7290 C   0  0  0  0  0  0  0  0  0  0  0  0
    3.2790    2.6700  -59.7220 C   0  0  0  0  0  0  0  0  0  0  0  0
    3.3410    1.8470  -60.8430 C   0  0  0  0  0  0  0  0  0  0  0  0
    4.3750    0.9230  -60.9700 C   0  0  0  0  0  0  0  0  0  0  0  0
    5.3520    0.8240  -59.9780 C   0  0  0  0  0  0  0  0  0  0  0  0
    6.3170    0.9760  -56.6280 C   0  0  0  0  0  0  0  0  0  0  0  0
    5.1780    0.0200  -55.7720 S   0  0  0  0  0  0  0  0  0  0  0  0
    6.3690   -0.2020  -54.4180 C   0  0  0  0  0  0  0  0  0  0  0  0
    6.0790   -0.9410  -53.3350 N   0  0  0  0  0  0  0  0  0  0  0  0
    7.0610   -1.0110  -52.4070 C   0  0  0  0  0  0  0  0  0  0  0  0
    8.3030   -0.3820  -52.5260 C   0  0  0  0  0  0  0  0  0  0  0  0
    8.5760    0.3750  -53.6650 C   0  0  0  0  0  0  0  0  0  0  0  0
    7.5900    0.4620  -54.6290 C   0  0  0  0  0  0  0  0  0  0  0  0
    7.5560    1.1610  -55.8990 C   0  0  0  0  0  0  0  0  0  0  0  0
    8.3860    1.8960  -56.6450 C   0  0  0  0  0  0  0  0  0  0  0  0
   11.9630    3.2270  -58.1200 C   0  0  0  0  0  0  0  0  0  0  0  0
    9.4930    2.9340  -62.0900 H   0  0  0  0  0  0  0  0  0  0  0  0
   11.0690    3.2400  -61.6480 H   0  0  0  0  0  0  0  0  0  0  0  0
   10.1060    4.4860  -62.1580 H   0  0  0  0  0  0  0  0  0  0  0  0
    8.6520    4.1172  -60.0742 H   0  0  0  0  0  0  0  0  0  0  0  0
   11.9864    4.6906  -56.5742 H   0  0  0  0  0  0  0  0  0  0  0  0
    9.6587    4.0724  -55.4841 H   0  0  0  0  0  0  0  0  0  0  0  0
   11.5575    1.0224  -56.9369 H   0  0  0  0  0  0  0  0  0  0  0  0
   10.1273    0.3901  -57.7050 H   0  0  0  0  0  0  0  0  0  0  0  0
    7.8661    2.1005  -60.1385 H   0  0  0  0  0  0  0  0  0  0  0  0
    8.7118    0.7983  -59.1664 H   0  0  0  0  0  0  0  0  0  0  0  0
    7.5986    3.3665  -58.1172 H   0  0  0  0  0  0  0  0  0  0  0  0
    4.2066    3.2293  -57.8470 H   0  0  0  0  0  0  0  0  0  0  0  0
    2.4593    3.3961  -59.6176 H   0  0  0  0  0  0  0  0  0  0  0  0
    2.5741    1.9265  -61.6276 H   0  0  0  0  0  0  0  0  0  0  0  0
    4.4220    0.2698  -61.8538 H   0  0  0  0  0  0  0  0  0  0  0  0
    6.1658    0.0917  -60.0846 H   0  0  0  0  0  0  0  0  0  0  0  0
    6.8691   -1.6019  -51.4992 H   0  0  0  0  0  0  0  0  0  0  0  0
    9.0564   -0.4827  -51.7308 H   0  0  0  0  0  0  0  0  0  0  0  0
    9.5424    0.8849  -53.7915 H   0  0  0  0  0  0  0  0  0  0  0  0
   12.7479    2.6932  -57.5641 H   0  0  0  0  0  0  0  0  0  0  0  0
   12.4708    3.7319  -58.9550 H   0  0  0  0  0  0  0  0  0  0  0  0
  1  2  1  0
  2  3  1  0
  3  4  1  0
  4  5  2  0
  4  6  1  0
  6  7  1  0
  7  8  2  0
  8  9  1  0
  9 10  1  0
 10 11  2  0
 11 12  1  0
 12 13  1  0
 13 14  1  0
 14 15  1  0
 15 16  2  0
 16 17  1  0
 17 18  2  0
 18 19  1  0
 19 20  2  0
 14 21  2  0
 21 22  1  0
 22 23  1  0
 23 24  1  0
 24 25  2  0
 25 26  1  0
 26 27  2  0
 27 28  1  0
 28 29  1  0
 29 30  2  0
 10 31  1  0
 11  2  1  0
 30 13  1  0
 31  6  1  0
 30  8  1  0
 20 15  1  0
 29 21  1  0
 28 23  2  0
  1 32  1  0
  1 33  1  0
  1 34  1  0
  2 35  1  6
  6 36  1  1
  7 37  1  0
  9 38  1  0
  9 39  1  0
 12 40  1  0
 12 41  1  0
 13 42  1  1
 16 43  1  0
 17 44  1  0
 18 45  1  0
 19 46  1  0
 20 47  1  0
 25 48  1  0
 26 49  1  0
 27 50  1  0
 31 51  1  0
 31 52  1  0
M  CHG  1   1   1
M  END
>  <meeko>  (150) 
{"is_sidechain": false}

$$$$

     RDKit          3D

 52 58  0  0  0  0  0  0  0  0999 V2000
    8.4720    4.6520  -60.2260 N   0  0  0  0  0  0  0  0  0  0  0  0
    9.8210    4.0640  -60.1170 C   0  0  1  0  0  0  0  0  0  0  0  0
   10.7590    5.4970  -59.5320 S   0  0  0  0  0  0  0  0  0  0  0  0
   10.3780    5.3020  -57.8130 C   0  0  0  0  0  0  0  0  0  0  0  0
    9.3480    5.8420  -57.4240 O   0  0  0  0  0  0  0  0  0  0  0  0
   11.2540    4.3270  -56.9830 C   0  0  1  0  0  0  0  0  0  0  0  0
   10.2340    3.5270  -56.0980 C   0  0  0  0  0  0  0  0  0  0  0  0
    9.9210    2.2320  -56.3720 C   0  0  0  0  0  0  0  0  0  0  0  0
   10.7650    1.4320  -57.3490 C   0  0  0  0  0  0  0  0  0  0  0  0
   10.9720    2.4390  -58.4640 C   0  0  0  0  0  0  0  0  0  0  0  0
    9.9260    2.7850  -59.2850 C   0  0  0  0  0  0  0  0  0  0  0  0
    8.6160    1.9670  -59.1440 C   0  0  0  0  0  0  0  0  0  0  0  0
    7.8160    2.2910  -57.8270 C   0  0  1  0  0  0  0  0  0  0  0  0
    6.4940    1.5520  -57.7070 C   0  0  0  0  0  0  0  0  0  0  0  0
    5.4450    1.6690  -58.7110 C   0  0  0  0  0  0  0  0  0  0  0  0
    5.5110    0.9290  -59.8960 C   0  0  0  0  0  0  0  0  0  0  0  0
    4.5270    1.0790  -60.8750 C   0  0  0  0  0  0  0  0  0  0  0  0
    3.4690    1.9640  -60.6730 C   0  0  0  0  0  0  0  0  0  0  0  0
    3.3880    2.6950  -59.4890 C   0  0  0  0  0  0  0  0  0  0  0  0
    4.3740    2.5500  -58.5110 C   0  0  0  0  0  0  0  0  0  0  0  0
    6.4900    0.8840  -56.5470 C   0  0  0  0  0  0  0  0  0  0  0  0
    5.3780   -0.1410  -55.7420 S   0  0  0  0  0  0  0  0  0  0  0  0
    6.5800   -0.4020  -54.4040 C   0  0  0  0  0  0  0  0  0  0  0  0
    6.3130   -1.2030  -53.3590 N   0  0  0  0  0  0  0  0  0  0  0  0
    7.3020   -1.2980  -52.4410 C   0  0  0  0  0  0  0  0  0  0  0  0
    8.5260   -0.6320  -52.5300 C   0  0  0  0  0  0  0  0  0  0  0  0
    8.7760    0.1910  -53.6280 C   0  0  0  0  0  0  0  0  0  0  0  0
    7.7830    0.3040  -54.5830 C   0  0  0  0  0  0  0  0  0  0  0  0
    7.7270    1.0680  -55.8140 C   0  0  0  0  0  0  0  0  0  0  0  0
    8.5300    1.8700  -56.5200 C   0  0  0  0  0  0  0  0  0  0  0  0
   12.0410    3.3960  -57.9530 C   0  0  0  0  0  0  0  0  0  0  0  0
    7.9850    4.4400  -61.1020 H   0  0  0  0  0  0  0  0  0  0  0  0
    7.8900    4.3750  -59.4220 H   0  0  0  0  0  0  0  0  0  0  0  0
    8.5610    5.6720  -60.1580 H   0  0  0  0  0  0  0  0  0  0  0  0
   10.2088    3.6446  -61.0571 H   0  0  0  0  0  0  0  0  0  0  0  0
   12.0031    4.8327  -56.3559 H   0  0  0  0  0  0  0  0  0  0  0  0
    9.7622    4.0243  -55.2377 H   0  0  0  0  0  0  0  0  0  0  0  0
   11.7217    1.1285  -56.8988 H   0  0  0  0  0  0  0  0  0  0  0  0
   10.3010    0.4897  -57.6758 H   0  0  0  0  0  0  0  0  0  0  0  0
    7.9714    2.1891  -60.0072 H   0  0  0  0  0  0  0  0  0  0  0  0
    8.8991    0.9050  -59.0994 H   0  0  0  0  0  0  0  0  0  0  0  0
    7.7038    3.3808  -57.9254 H   0  0  0  0  0  0  0  0  0  0  0  0
    6.3415    0.2260  -60.0573 H   0  0  0  0  0  0  0  0  0  0  0  0
    4.5866    0.4980  -61.8071 H   0  0  0  0  0  0  0  0  0  0  0  0
    2.6980    2.0854  -61.4481 H   0  0  0  0  0  0  0  0  0  0  0  0
    2.5478    3.3858  -59.3251 H   0  0  0  0  0  0  0  0  0  0  0  0
    4.3096    3.1304  -57.5788 H   0  0  0  0  0  0  0  0  0  0  0  0
    7.1306   -1.9427  -51.5664 H   0  0  0  0  0  0  0  0  0  0  0  0
    9.2846   -0.7550  -51.7430 H   0  0  0  0  0  0  0  0  0  0  0  0
    9.7290    0.7307  -53.7303 H   0  0  0  0  0  0  0  0  0  0  0  0
   12.8347    2.8520  -57.4199 H   0  0  0  0  0  0  0  0  0  0  0  0
   12.5486    3.9451  -58.7598 H   0  0  0  0  0  0  0  0  0  0  0  0
  1  2  1  0
  2  3  1  0
  3  4  1  0
  4  5  2  0
  4  6  1  0
  6  7  1  0
  7  8  2  0
  8  9  1  0
  9 10  1  0
 10 11  2  0
 11 12  1  0
 12 13  1  0
 13 14  1  0
 14 15  1  0
 15 16  2  0
 16 17  1  0
 17 18  2  0
 18 19  1  0
 19 20  2  0
 14 21  2  0
 21 22  1  0
 22 23  1  0
 23 24  1  0
 24 25  2  0
 25 26  1  0
 26 27  2  0
 27 28  1  0
 28 29  1  0
 29 30  2  0
 10 31  1  0
 11  2  1  0
 30 13  1  0
 31  6  1  0
 30  8  1  0
 20 15  1  0
 29 21  1  0
 28 23  2  0
  1 32  1  0
  1 33  1  0
  1 34  1  0
  2 35  1  6
  6 36  1  1
  7 37  1  0
  9 38  1  0
  9 39  1  0
 12 40  1  0
 12 41  1  0
 13 42  1  1
 16 43  1  0
 17 44  1  0
 18 45  1  0
 19 46  1  0
 20 47  1  0
 25 48  1  0
 26 49  1  0
 27 50  1  0
 31 51  1  0
 31 52  1  0
M  CHG  1   1   1
M  END
>  <meeko>  (151) 
{"is_sidechain": false}

$$$$

     RDKit          3D

 52 58  0  0  0  0  0  0  0  0999 V2000
    8.1870    4.8430  -60.3240 N   0  0  0  0  0  0  0  0  0  0  0  0
    9.2700    5.2090  -59.3950 C   0  0  2  0  0  0  0  0  0  0  0  0
   10.7220    4.6090  -60.2890 S   0  0  0  0  0  0  0  0  0  0  0  0
   11.0610    3.1490  -59.3580 C   0  0  0  0  0  0  0  0  0  0  0  0
   10.6340    2.0900  -59.7970 O   0  0  0  0  0  0  0  0  0  0  0  0
   11.8270    3.3080  -58.0400 C   0  0  2  0  0  0  0  0  0  0  0  0
   11.3730    2.1830  -57.0230 C   0  0  0  0  0  0  0  0  0  0  0  0
   10.1330    2.5440  -56.1700 C   0  0  0  0  0  0  0  0  0  0  0  0
    9.9930    3.8510  -55.8430 C   0  0  0  0  0  0  0  0  0  0  0  0
   10.1290    4.6720  -57.0590 C   0  0  0  0  0  0  0  0  0  0  0  0
    9.1050    4.7460  -57.9590 C   0  0  0  0  0  0  0  0  0  0  0  0
    7.7970    4.0320  -57.5820 C   0  0  0  0  0  0  0  0  0  0  0  0
    7.9850    2.4880  -57.6770 C   0  0  2  0  0  0  0  0  0  0  0  0
    6.7030    1.6960  -57.5120 C   0  0  0  0  0  0  0  0  0  0  0  0
    5.5640    1.8700  -58.4030 C   0  0  0  0  0  0  0  0  0  0  0  0
    4.4250    2.5580  -57.9740 C   0  0  0  0  0  0  0  0  0  0  0  0
    3.3560    2.7620  -58.8480 C   0  0  0  0  0  0  0  0  0  0  0  0
    3.4180    2.2750  -60.1530 C   0  0  0  0  0  0  0  0  0  0  0  0
    4.5430    1.5760  -60.5840 C   0  0  0  0  0  0  0  0  0  0  0  0
    5.6150    1.3760  -59.7120 C   0  0  0  0  0  0  0  0  0  0  0  0
    6.8770    0.8330  -56.5060 C   0  0  0  0  0  0  0  0  0  0  0  0
    5.9060   -0.3600  -55.7540 S   0  0  0  0  0  0  0  0  0  0  0  0
    7.2320   -0.6870  -54.5570 C   0  0  0  0  0  0  0  0  0  0  0  0
    7.0890   -1.5940  -53.5760 N   0  0  0  0  0  0  0  0  0  0  0  0
    8.1590   -1.7300  -52.7590 C   0  0  0  0  0  0  0  0  0  0  0  0
    9.3440   -1.0040  -52.8860 C   0  0  0  0  0  0  0  0  0  0  0  0
    9.4620   -0.0670  -53.9140 C   0  0  0  0  0  0  0  0  0  0  0  0
    8.3830    0.0950  -54.7640 C   0  0  0  0  0  0  0  0  0  0  0  0
    8.1930    0.9630  -55.9120 C   0  0  0  0  0  0  0  0  0  0  0  0
    8.8770    1.9190  -56.5590 C   0  0  0  0  0  0  0  0  0  0  0  0
   11.5970    4.7160  -57.4300 C   0  0  0  0  0  0  0  0  0  0  0  0
    7.2960    4.7300  -59.8270 H   0  0  0  0  0  0  0  0  0  0  0  0
    8.0680    5.5120  -61.0910 H   0  0  0  0  0  0  0  0  0  0  0  0
    8.4040    3.9270  -60.7340 H   0  0  0  0  0  0  0  0  0  0  0  0
    9.3195    6.2861  -59.1771 H   0  0  0  0  0  0  0  0  0  0  0  0
   12.9029    3.2009  -58.2422 H   0  0  0  0  0  0  0  0  0  0  0  0
   11.1404    1.2747  -57.5983 H   0  0  0  0  0  0  0  0  0  0  0  0
   12.2062    2.0473  -56.3178 H   0  0  0  0  0  0  0  0  0  0  0  0
    9.8072    4.2381  -54.8303 H   0  0  0  0  0  0  0  0  0  0  0  0
    7.5183    4.3022  -56.5528 H   0  0  0  0  0  0  0  0  0  0  0  0
    7.0033    4.3422  -58.2776 H   0  0  0  0  0  0  0  0  0  0  0  0
    8.4188    2.3773  -58.6818 H   0  0  0  0  0  0  0  0  0  0  0  0
    4.3711    2.9400  -56.9439 H   0  0  0  0  0  0  0  0  0  0  0  0
    2.4638    3.3075  -58.5069 H   0  0  0  0  0  0  0  0  0  0  0  0
    2.5777    2.4430  -60.8427 H   0  0  0  0  0  0  0  0  0  0  0  0
    4.5869    1.1820  -61.6101 H   0  0  0  0  0  0  0  0  0  0  0  0
    6.5044    0.8273  -60.0554 H   0  0  0  0  0  0  0  0  0  0  0  0
    8.0902   -2.4614  -51.9403 H   0  0  0  0  0  0  0  0  0  0  0  0
   10.1752   -1.1681  -52.1844 H   0  0  0  0  0  0  0  0  0  0  0  0
   10.3817    0.5224  -54.0436 H   0  0  0  0  0  0  0  0  0  0  0  0
   11.7979    5.5071  -58.1674 H   0  0  0  0  0  0  0  0  0  0  0  0
   12.2590    4.9414  -56.5809 H   0  0  0  0  0  0  0  0  0  0  0  0
  1  2  1  0
  2  3  1  0
  3  4  1  0
  4  5  2  0
  4  6  1  0
  6  7  1  0
  7  8  1  0
  8  9  2  0
  9 10  1  0
 10 11  2  0
 11 12  1  0
 12 13  1  0
 13 14  1  0
 14 15  1  0
 15 16  2  0
 16 17  1  0
 17 18  2  0
 18 19  1  0
 19 20  2  0
 14 21  2  0
 21 22  1  0
 22 23  1  0
 23 24  1  0
 24 25  2  0
 25 26  1  0
 26 27  2  0
 27 28  1  0
 28 29  1  0
 29 30  2  0
 10 31  1  0
 11  2  1  0
 30 13  1  0
 31  6  1  0
 30  8  1  0
 20 15  1  0
 29 21  1  0
 28 23  2  0
  1 32  1  0
  1 33  1  0
  1 34  1  0
  2 35  1  1
  6 36  1  6
  7 37  1  0
  7 38  1  0
  9 39  1  0
 12 40  1  0
 12 41  1  0
 13 42  1  6
 16 43  1  0
 17 44  1  0
 18 45  1  0
 19 46  1  0
 20 47  1  0
 25 48  1  0
 26 49  1  0
 27 50  1  0
 31 51  1  0
 31 52  1  0
M  CHG  1   1   1
M  END
>  <meeko>  (152) 
{"is_sidechain": false}

$$$$

     RDKit          3D

 52 58  0  0  0  0  0  0  0  0999 V2000
    9.2100    6.4620  -59.4940 N   0  0  0  0  0  0  0  0  0  0  0  0
    9.3370    5.0130  -59.3070 C   0  0  1  0  0  0  0  0  0  0  0  0
   10.8550    4.5790  -60.1590 S   0  0  0  0  0  0  0  0  0  0  0  0
   11.1700    3.0490  -59.3240 C   0  0  0  0  0  0  0  0  0  0  0  0
   10.7870    2.0120  -59.8440 O   0  0  0  0  0  0  0  0  0  0  0  0
   11.9100    3.1360  -57.9780 C   0  0  2  0  0  0  0  0  0  0  0  0
   11.3960    1.9970  -57.0100 C   0  0  0  0  0  0  0  0  0  0  0  0
   10.1820    2.3850  -56.1300 C   0  0  0  0  0  0  0  0  0  0  0  0
   10.0880    3.6860  -55.7620 C   0  0  0  0  0  0  0  0  0  0  0  0
   10.2590    4.5370  -56.9530 C   0  0  0  0  0  0  0  0  0  0  0  0
    9.2320    4.6520  -57.8420 C   0  0  0  0  0  0  0  0  0  0  0  0
    7.8950    3.9740  -57.5090 C   0  0  0  0  0  0  0  0  0  0  0  0
    8.0210    2.4250  -57.6260 C   0  0  2  0  0  0  0  0  0  0  0  0
    6.7080    1.6790  -57.4490 C   0  0  0  0  0  0  0  0  0  0  0  0
    5.5460    1.9190  -58.2990 C   0  0  0  0  0  0  0  0  0  0  0  0
    5.5650    1.5620  -59.6530 C   0  0  0  0  0  0  0  0  0  0  0  0
    4.4380    1.7610  -60.4540 C   0  0  0  0  0  0  0  0  0  0  0  0
    3.2830    2.3170  -59.9100 C   0  0  0  0  0  0  0  0  0  0  0  0
    3.2540    2.6810  -58.5650 C   0  0  0  0  0  0  0  0  0  0  0  0
    4.3780    2.4800  -57.7620 C   0  0  0  0  0  0  0  0  0  0  0  0
    6.8730    0.7880  -56.4660 C   0  0  0  0  0  0  0  0  0  0  0  0
    5.8780   -0.3900  -55.7150 S   0  0  0  0  0  0  0  0  0  0  0  0
    7.2110   -0.7810  -54.5470 C   0  0  0  0  0  0  0  0  0  0  0  0
    7.0540   -1.7000  -53.5800 N   0  0  0  0  0  0  0  0  0  0  0  0
    8.1320   -1.8870  -52.7850 C   0  0  0  0  0  0  0  0  0  0  0  0
    9.3380   -1.1980  -52.9200 C   0  0  0  0  0  0  0  0  0  0  0  0
    9.4690   -0.2470  -53.9320 C   0  0  0  0  0  0  0  0  0  0  0  0
    8.3830   -0.0330  -54.7590 C   0  0  0  0  0  0  0  0  0  0  0  0
    8.2000    0.8620  -55.8890 C   0  0  0  0  0  0  0  0  0  0  0  0
    8.9040    1.8110  -56.5230 C   0  0  0  0  0  0  0  0  0  0  0  0
   11.7270    4.5270  -57.3210 C   0  0  0  0  0  0  0  0  0  0  0  0
    9.4290    6.9760  -58.6340 H   0  0  0  0  0  0  0  0  0  0  0  0
    8.2520    6.6900  -59.7820 H   0  0  0  0  0  0  0  0  0  0  0  0
    9.8440    6.7800  -60.2340 H   0  0  0  0  0  0  0  0  0  0  0  0
    8.5221    4.4138  -59.7394 H   0  0  0  0  0  0  0  0  0  0  0  0
   12.9847    2.9956  -58.1659 H   0  0  0  0  0  0  0  0  0  0  0  0
   11.1093    1.1307  -57.6242 H   0  0  0  0  0  0  0  0  0  0  0  0
   12.2235    1.7859  -56.3167 H   0  0  0  0  0  0  0  0  0  0  0  0
    9.9123    4.0486  -54.7385 H   0  0  0  0  0  0  0  0  0  0  0  0
    7.6028    4.2363  -56.4815 H   0  0  0  0  0  0  0  0  0  0  0  0
    7.1334    4.3226  -58.2221 H   0  0  0  0  0  0  0  0  0  0  0  0
    8.4351    2.3082  -58.6383 H   0  0  0  0  0  0  0  0  0  0  0  0
    6.4739    1.1217  -60.0889 H   0  0  0  0  0  0  0  0  0  0  0  0
    4.4630    1.4779  -61.5167 H   0  0  0  0  0  0  0  0  0  0  0  0
    2.3948    2.4687  -60.5409 H   0  0  0  0  0  0  0  0  0  0  0  0
    2.3447    3.1270  -58.1359 H   0  0  0  0  0  0  0  0  0  0  0  0
    4.3475    2.7638  -56.6997 H   0  0  0  0  0  0  0  0  0  0  0  0
    8.0529   -2.6312  -51.9789 H   0  0  0  0  0  0  0  0  0  0  0  0
   10.1753   -1.4024  -52.2365 H   0  0  0  0  0  0  0  0  0  0  0  0
   10.4056    0.3138  -54.0672 H   0  0  0  0  0  0  0  0  0  0  0  0
   11.9626    5.3338  -58.0306 H   0  0  0  0  0  0  0  0  0  0  0  0
   12.3916    4.6915  -56.4601 H   0  0  0  0  0  0  0  0  0  0  0  0
  1  2  1  0
  2  3  1  0
  3  4  1  0
  4  5  2  0
  4  6  1  0
  6  7  1  0
  7  8  1  0
  8  9  2  0
  9 10  1  0
 10 11  2  0
 11 12  1  0
 12 13  1  0
 13 14  1  0
 14 15  1  0
 15 16  2  0
 16 17  1  0
 17 18  2  0
 18 19  1  0
 19 20  2  0
 14 21  2  0
 21 22  1  0
 22 23  1  0
 23 24  1  0
 24 25  2  0
 25 26  1  0
 26 27  2  0
 27 28  1  0
 28 29  1  0
 29 30  2  0
 10 31  1  0
 11  2  1  0
 30 13  1  0
 31  6  1  0
 30  8  1  0
 20 15  1  0
 29 21  1  0
 28 23  2  0
  1 32  1  0
  1 33  1  0
  1 34  1  0
  2 35  1  6
  6 36  1  6
  7 37  1  0
  7 38  1  0
  9 39  1  0
 12 40  1  0
 12 41  1  0
 13 42  1  6
 16 43  1  0
 17 44  1  0
 18 45  1  0
 19 46  1  0
 20 47  1  0
 25 48  1  0
 26 49  1  0
 27 50  1  0
 31 51  1  0
 31 52  1  0
M  CHG  1   1   1
M  END
>  <meeko>  (153) 
{"is_sidechain": false}

$$$$

     RDKit          3D

 52 58  0  0  0  0  0  0  0  0999 V2000
   12.1490    2.8350  -56.8740 N   0  0  0  0  0  0  0  0  0  0  0  0
   10.9880    2.7810  -57.7690 C   0  0  2  0  0  0  0  0  0  0  0  0
   11.7080    2.6300  -59.4030 S   0  0  0  0  0  0  0  0  0  0  0  0
   10.2430    2.9770  -60.3360 C   0  0  0  0  0  0  0  0  0  0  0  0
    9.5690    2.0420  -60.7360 O   0  0  0  0  0  0  0  0  0  0  0  0
    9.9310    4.4650  -60.5980 C   0  0  1  0  0  0  0  0  0  0  0  0
    8.3720    4.7010  -60.5810 C   0  0  0  0  0  0  0  0  0  0  0  0
    7.7810    4.8410  -59.1470 C   0  0  0  0  0  0  0  0  0  0  0  0
    8.5230    5.6480  -58.3440 C   0  0  0  0  0  0  0  0  0  0  0  0
    9.8850    5.0580  -58.2670 C   0  0  0  0  0  0  0  0  0  0  0  0
   10.0520    3.9390  -57.5110 C   0  0  0  0  0  0  0  0  0  0  0  0
    8.9850    3.6200  -56.4730 C   0  0  0  0  0  0  0  0  0  0  0  0
    7.5610    3.3000  -57.0230 C   0  0  2  0  0  0  0  0  0  0  0  0
    7.1550    1.8360  -56.9130 C   0  0  0  0  0  0  0  0  0  0  0  0
    7.3450    1.0360  -55.7010 C   0  0  0  0  0  0  0  0  0  0  0  0
    6.2410    0.6390  -54.9350 C   0  0  0  0  0  0  0  0  0  0  0  0
    6.4160   -0.0870  -53.7530 C   0  0  0  0  0  0  0  0  0  0  0  0
    7.6980   -0.4210  -53.3240 C   0  0  0  0  0  0  0  0  0  0  0  0
    8.8040   -0.0340  -54.0750 C   0  0  0  0  0  0  0  0  0  0  0  0
    8.6290    0.6920  -55.2560 C   0  0  0  0  0  0  0  0  0  0  0  0
    6.5700    1.4960  -58.0660 C   0  0  0  0  0  0  0  0  0  0  0  0
    5.8540    0.0560  -58.6650 S   0  0  0  0  0  0  0  0  0  0  0  0
    5.4350    0.8980  -60.2100 C   0  0  0  0  0  0  0  0  0  0  0  0
    4.7270    0.2750  -61.1690 N   0  0  0  0  0  0  0  0  0  0  0  0
    4.3820    1.0470  -62.2230 C   0  0  0  0  0  0  0  0  0  0  0  0
    4.6950    2.4010  -62.3350 C   0  0  0  0  0  0  0  0  0  0  0  0
    5.4280    3.0160  -61.3180 C   0  0  0  0  0  0  0  0  0  0  0  0
    5.8420    2.2410  -60.2480 C   0  0  0  0  0  0  0  0  0  0  0  0
    6.5580    2.5900  -59.0250 C   0  0  0  0  0  0  0  0  0  0  0  0
    7.2720    3.6150  -58.5210 C   0  0  0  0  0  0  0  0  0  0  0  0
   10.6090    5.3780  -59.5560 C   0  0  0  0  0  0  0  0  0  0  0  0
   12.9920    3.0290  -57.4270 H   0  0  0  0  0  0  0  0  0  0  0  0
   12.2830    1.9540  -56.3670 H   0  0  0  0  0  0  0  0  0  0  0  0
   12.0370    3.5950  -56.1970 H   0  0  0  0  0  0  0  0  0  0  0  0
   10.3086    1.9299  -57.6139 H   0  0  0  0  0  0  0  0  0  0  0  0
   10.3325    4.7230  -61.5891 H   0  0  0  0  0  0  0  0  0  0  0  0
    8.1533    5.6231  -61.1394 H   0  0  0  0  0  0  0  0  0  0  0  0
    7.9056    3.8160  -61.0384 H   0  0  0  0  0  0  0  0  0  0  0  0
    8.1799    6.5660  -57.8445 H   0  0  0  0  0  0  0  0  0  0  0  0
    9.3267    2.7464  -55.8984 H   0  0  0  0  0  0  0  0  0  0  0  0
    8.8705    4.5379  -55.8778 H   0  0  0  0  0  0  0  0  0  0  0  0
    6.9967    3.9780  -56.3658 H   0  0  0  0  0  0  0  0  0  0  0  0
    5.2257    0.9013  -55.2671 H   0  0  0  0  0  0  0  0  0  0  0  0
    5.5408   -0.3944  -53.1618 H   0  0  0  0  0  0  0  0  0  0  0  0
    7.8364   -0.9900  -52.3928 H   0  0  0  0  0  0  0  0  0  0  0  0
    9.8169   -0.2999  -53.7385 H   0  0  0  0  0  0  0  0  0  0  0  0
    9.5081    0.9968  -55.8427 H   0  0  0  0  0  0  0  0  0  0  0  0
    3.8193    0.5780  -63.0436 H   0  0  0  0  0  0  0  0  0  0  0  0
    4.3687    2.9774  -63.2132 H   0  0  0  0  0  0  0  0  0  0  0  0
    5.6701    4.0880  -61.3657 H   0  0  0  0  0  0  0  0  0  0  0  0
   10.4831    6.4376  -59.8231 H   0  0  0  0  0  0  0  0  0  0  0  0
   11.6939    5.2101  -59.4865 H   0  0  0  0  0  0  0  0  0  0  0  0
  1  2  1  0
  2  3  1  0
  3  4  1  0
  4  5  2  0
  4  6  1  0
  6  7  1  0
  7  8  1  0
  8  9  2  0
  9 10  1  0
 10 11  2  0
 11 12  1  0
 12 13  1  0
 13 14  1  0
 14 15  1  0
 15 16  2  0
 16 17  1  0
 17 18  2  0
 18 19  1  0
 19 20  2  0
 14 21  2  0
 21 22  1  0
 22 23  1  0
 23 24  1  0
 24 25  2  0
 25 26  1  0
 26 27  2  0
 27 28  1  0
 28 29  1  0
 29 30  2  0
 10 31  1  0
 11  2  1  0
 30 13  1  0
 31  6  1  0
 30  8  1  0
 20 15  1  0
 29 21  1  0
 28 23  2  0
  1 32  1  0
  1 33  1  0
  1 34  1  0
  2 35  1  1
  6 36  1  6
  7 37  1  0
  7 38  1  0
  9 39  1  0
 12 40  1  0
 12 41  1  0
 13 42  1  1
 16 43  1  0
 17 44  1  0
 18 45  1  0
 19 46  1  0
 20 47  1  0
 25 48  1  0
 26 49  1  0
 27 50  1  0
 31 51  1  0
 31 52  1  0
M  CHG  1   1   1
M  END
>  <meeko>  (154) 
{"is_sidechain": false}

$$$$

     RDKit          3D

 52 58  0  0  0  0  0  0  0  0999 V2000
   12.2660    2.5320  -56.8480 N   0  0  0  0  0  0  0  0  0  0  0  0
   11.8350    3.6430  -57.7080 C   0  0  1  0  0  0  0  0  0  0  0  0
   12.2790    3.0950  -59.3650 S   0  0  0  0  0  0  0  0  0  0  0  0
   10.7560    3.3080  -60.2400 C   0  0  0  0  0  0  0  0  0  0  0  0
   10.1880    2.2960  -60.6270 O   0  0  0  0  0  0  0  0  0  0  0  0
   10.2560    4.7330  -60.4990 C   0  0  1  0  0  0  0  0  0  0  0  0
    8.6780    4.7110  -60.5820 C   0  0  0  0  0  0  0  0  0  0  0  0
    7.9830    4.7580  -59.1970 C   0  0  0  0  0  0  0  0  0  0  0  0
    8.5660    5.5830  -58.2960 C   0  0  0  0  0  0  0  0  0  0  0  0
    9.9830    5.2210  -58.1750 C   0  0  0  0  0  0  0  0  0  0  0  0
   10.4030    4.0960  -57.5330 C   0  0  0  0  0  0  0  0  0  0  0  0
    9.4280    3.1120  -56.8600 C   0  0  0  0  0  0  0  0  0  0  0  0
    7.8970    3.1650  -57.1550 C   0  0  2  0  0  0  0  0  0  0  0  0
    7.2470    1.7980  -56.9600 C   0  0  0  0  0  0  0  0  0  0  0  0
    7.3430    1.0520  -55.7020 C   0  0  0  0  0  0  0  0  0  0  0  0
    6.1930    0.7840  -54.9460 C   0  0  0  0  0  0  0  0  0  0  0  0
    6.2810    0.1120  -53.7250 C   0  0  0  0  0  0  0  0  0  0  0  0
    7.5210   -0.2970  -53.2420 C   0  0  0  0  0  0  0  0  0  0  0  0
    8.6720   -0.0380  -53.9810 C   0  0  0  0  0  0  0  0  0  0  0  0
    8.5840    0.6350  -55.2030 C   0  0  0  0  0  0  0  0  0  0  0  0
    6.6190    1.4810  -58.0990 C   0  0  0  0  0  0  0  0  0  0  0  0
    5.6790    0.1440  -58.6210 S   0  0  0  0  0  0  0  0  0  0  0  0
    5.3640    0.9730  -60.1990 C   0  0  0  0  0  0  0  0  0  0  0  0
    4.5740    0.4140  -61.1330 N   0  0  0  0  0  0  0  0  0  0  0  0
    4.3600    1.1700  -62.2330 C   0  0  0  0  0  0  0  0  0  0  0  0
    4.8880    2.4460  -62.4200 C   0  0  0  0  0  0  0  0  0  0  0  0
    5.7030    2.9970  -61.4300 C   0  0  0  0  0  0  0  0  0  0  0  0
    5.9690    2.2380  -60.3040 C   0  0  0  0  0  0  0  0  0  0  0  0
    6.7420    2.5240  -59.1030 C   0  0  0  0  0  0  0  0  0  0  0  0
    7.5280    3.5010  -58.6200 C   0  0  0  0  0  0  0  0  0  0  0  0
   10.7140    5.7330  -59.4070 C   0  0  0  0  0  0  0  0  0  0  0  0
   11.6580    2.4830  -56.0230 H   0  0  0  0  0  0  0  0  0  0  0  0
   13.2160    2.7010  -56.4950 H   0  0  0  0  0  0  0  0  0  0  0  0
   12.2390    1.6270  -57.3300 H   0  0  0  0  0  0  0  0  0  0  0  0
   12.3381    4.5829  -57.4372 H   0  0  0  0  0  0  0  0  0  0  0  0
   10.6915    5.0784  -61.4482 H   0  0  0  0  0  0  0  0  0  0  0  0
    8.3483    5.5827  -61.1663 H   0  0  0  0  0  0  0  0  0  0  0  0
    8.3930    3.7591  -61.0538 H   0  0  0  0  0  0  0  0  0  0  0  0
    8.0613    6.3908  -57.7458 H   0  0  0  0  0  0  0  0  0  0  0  0
    9.7642    2.1016  -57.1359 H   0  0  0  0  0  0  0  0  0  0  0  0
    9.4794    3.4083  -55.8019 H   0  0  0  0  0  0  0  0  0  0  0  0
    7.5491    3.9469  -56.4640 H   0  0  0  0  0  0  0  0  0  0  0  0
    5.2099    1.1069  -55.3191 H   0  0  0  0  0  0  0  0  0  0  0  0
    5.3698   -0.0943  -53.1444 H   0  0  0  0  0  0  0  0  0  0  0  0
    7.5911   -0.8235  -52.2788 H   0  0  0  0  0  0  0  0  0  0  0  0
    9.6523   -0.3635  -53.6027 H   0  0  0  0  0  0  0  0  0  0  0  0
    9.4987    0.8393  -55.7789 H   0  0  0  0  0  0  0  0  0  0  0  0
    3.7291    0.7515  -63.0310 H   0  0  0  0  0  0  0  0  0  0  0  0
    4.6652    3.0120  -63.3365 H   0  0  0  0  0  0  0  0  0  0  0  0
    6.1227    4.0076  -61.5419 H   0  0  0  0  0  0  0  0  0  0  0  0
   10.4084    6.7605  -59.6537 H   0  0  0  0  0  0  0  0  0  0  0  0
   11.8059    5.7824  -59.2837 H   0  0  0  0  0  0  0  0  0  0  0  0
  1  2  1  0
  2  3  1  0
  3  4  1  0
  4  5  2  0
  4  6  1  0
  6  7  1  0
  7  8  1  0
  8  9  2  0
  9 10  1  0
 10 11  2  0
 11 12  1  0
 12 13  1  0
 13 14  1  0
 14 15  1  0
 15 16  2  0
 16 17  1  0
 17 18  2  0
 18 19  1  0
 19 20  2  0
 14 21  2  0
 21 22  1  0
 22 23  1  0
 23 24  1  0
 24 25  2  0
 25 26  1  0
 26 27  2  0
 27 28  1  0
 28 29  1  0
 29 30  2  0
 10 31  1  0
 11  2  1  0
 30 13  1  0
 31  6  1  0
 30  8  1  0
 20 15  1  0
 29 21  1  0
 28 23  2  0
  1 32  1  0
  1 33  1  0
  1 34  1  0
  2 35  1  1
  6 36  1  6
  7 37  1  0
  7 38  1  0
  9 39  1  0
 12 40  1  0
 12 41  1  0
 13 42  1  1
 16 43  1  0
 17 44  1  0
 18 45  1  0
 19 46  1  0
 20 47  1  0
 25 48  1  0
 26 49  1  0
 27 50  1  0
 31 51  1  0
 31 52  1  0
M  CHG  1   1   1
M  END
>  <meeko>  (155) 
{"is_sidechain": false}

$$$$

     RDKit          3D

 52 58  0  0  0  0  0  0  0  0999 V2000
    9.5240    3.5170  -61.6630 N   0  0  0  0  0  0  0  0  0  0  0  0
   10.0590    4.1300  -60.4380 C   0  0  2  0  0  0  0  0  0  0  0  0
   11.4400    3.0630  -59.9970 S   0  0  0  0  0  0  0  0  0  0  0  0
   11.0810    2.6800  -58.3070 C   0  0  0  0  0  0  0  0  0  0  0  0
   10.7750    1.5240  -58.0500 O   0  0  0  0  0  0  0  0  0  0  0  0
   11.1950    3.7870  -57.2670 C   0  0  2  0  0  0  0  0  0  0  0  0
   10.1860    3.4900  -56.0860 C   0  0  0  0  0  0  0  0  0  0  0  0
    8.7400    3.9620  -56.3720 C   0  0  0  0  0  0  0  0  0  0  0  0
    8.6460    5.1530  -57.0090 C   0  0  0  0  0  0  0  0  0  0  0  0
    9.4450    5.0920  -58.2390 C   0  0  0  0  0  0  0  0  0  0  0  0
    9.0550    4.3860  -59.3360 C   0  0  0  0  0  0  0  0  0  0  0  0
    7.7330    3.6010  -59.3920 C   0  0  0  0  0  0  0  0  0  0  0  0
    6.9200    3.2970  -58.0940 C   0  0  1  0  0  0  0  0  0  0  0  0
    6.0830    2.0320  -58.2480 C   0  0  0  0  0  0  0  0  0  0  0  0
    5.1080    1.8590  -59.3290 C   0  0  0  0  0  0  0  0  0  0  0  0
    3.8810    2.5370  -59.3110 C   0  0  0  0  0  0  0  0  0  0  0  0
    2.9380    2.3340  -60.3220 C   0  0  0  0  0  0  0  0  0  0  0  0
    3.2090    1.4490  -61.3620 C   0  0  0  0  0  0  0  0  0  0  0  0
    4.4230    0.7670  -61.3930 C   0  0  0  0  0  0  0  0  0  0  0  0
    5.3650    0.9690  -60.3810 C   0  0  0  0  0  0  0  0  0  0  0  0
    6.4110    1.2030  -57.2500 C   0  0  0  0  0  0  0  0  0  0  0  0
    5.8930   -0.3590  -56.7650 S   0  0  0  0  0  0  0  0  0  0  0  0
    6.9650   -0.2690  -55.3080 C   0  0  0  0  0  0  0  0  0  0  0  0
    6.9910   -1.2630  -54.4020 N   0  0  0  0  0  0  0  0  0  0  0  0
    7.7750   -1.0380  -53.3240 C   0  0  0  0  0  0  0  0  0  0  0  0
    8.5080    0.1300  -53.1200 C   0  0  0  0  0  0  0  0  0  0  0  0
    8.4570    1.1420  -54.0810 C   0  0  0  0  0  0  0  0  0  0  0  0
    7.6900    0.9310  -55.2120 C   0  0  0  0  0  0  0  0  0  0  0  0
    7.4080    1.7780  -56.3640 C   0  0  0  0  0  0  0  0  0  0  0  0
    7.7810    2.9750  -56.8490 C   0  0  0  0  0  0  0  0  0  0  0  0
   10.9140    5.1900  -57.8600 C   0  0  0  0  0  0  0  0  0  0  0  0
    8.4970    3.5380  -61.6550 H   0  0  0  0  0  0  0  0  0  0  0  0
    9.8660    3.9740  -62.5140 H   0  0  0  0  0  0  0  0  0  0  0  0
    9.7890    2.5260  -61.6930 H   0  0  0  0  0  0  0  0  0  0  0  0
   10.3805    5.1676  -60.6115 H   0  0  0  0  0  0  0  0  0  0  0  0
   12.2311    3.7971  -56.8976 H   0  0  0  0  0  0  0  0  0  0  0  0
   10.1686    2.4046  -55.9083 H   0  0  0  0  0  0  0  0  0  0  0  0
   10.5411    4.0522  -55.2097 H   0  0  0  0  0  0  0  0  0  0  0  0
    8.0672    6.0219  -56.6625 H   0  0  0  0  0  0  0  0  0  0  0  0
    7.0620    4.1663  -60.0555 H   0  0  0  0  0  0  0  0  0  0  0  0
    8.0603    2.6005  -59.7110 H   0  0  0  0  0  0  0  0  0  0  0  0
    6.3409    4.2217  -57.9538 H   0  0  0  0  0  0  0  0  0  0  0  0
    3.6581    3.2366  -58.4919 H   0  0  0  0  0  0  0  0  0  0  0  0
    1.9801    2.8742  -60.2961 H   0  0  0  0  0  0  0  0  0  0  0  0
    2.4661    1.2888  -62.1573 H   0  0  0  0  0  0  0  0  0  0  0  0
    4.6403    0.0688  -62.2148 H   0  0  0  0  0  0  0  0  0  0  0  0
    6.3196    0.4232  -60.4102 H   0  0  0  0  0  0  0  0  0  0  0  0
    7.8386   -1.8264  -52.5595 H   0  0  0  0  0  0  0  0  0  0  0  0
    9.1189    0.2530  -52.2135 H   0  0  0  0  0  0  0  0  0  0  0  0
    9.0120    2.0815  -53.9420 H   0  0  0  0  0  0  0  0  0  0  0  0
   11.5414    5.3825  -58.7428 H   0  0  0  0  0  0  0  0  0  0  0  0
   11.1364    6.0144  -57.1665 H   0  0  0  0  0  0  0  0  0  0  0  0
  1  2  1  0
  2  3  1  0
  3  4  1  0
  4  5  2  0
  4  6  1  0
  6  7  1  0
  7  8  1  0
  8  9  2  0
  9 10  1  0
 10 11  2  0
 11 12  1  0
 12 13  1  0
 13 14  1  0
 14 15  1  0
 15 16  2  0
 16 17  1  0
 17 18  2  0
 18 19  1  0
 19 20  2  0
 14 21  2  0
 21 22  1  0
 22 23  1  0
 23 24  1  0
 24 25  2  0
 25 26  1  0
 26 27  2  0
 27 28  1  0
 28 29  1  0
 29 30  2  0
 10 31  1  0
 11  2  1  0
 30 13  1  0
 31  6  1  0
 30  8  1  0
 20 15  1  0
 29 21  1  0
 28 23  2  0
  1 32  1  0
  1 33  1  0
  1 34  1  0
  2 35  1  6
  6 36  1  1
  7 37  1  0
  7 38  1  0
  9 39  1  0
 12 40  1  0
 12 41  1  0
 13 42  1  1
 16 43  1  0
 17 44  1  0
 18 45  1  0
 19 46  1  0
 20 47  1  0
 25 48  1  0
 26 49  1  0
 27 50  1  0
 31 51  1  0
 31 52  1  0
M  CHG  1   1   1
M  END
>  <meeko>  (156) 
{"is_sidechain": false}

$$$$

     RDKit          3D

 52 58  0  0  0  0  0  0  0  0999 V2000
   12.2080    4.5090  -56.9550 N   0  0  0  0  0  0  0  0  0  0  0  0
   10.8360    4.4190  -57.4770 C   0  0  1  0  0  0  0  0  0  0  0  0
   10.6750    5.8380  -58.5670 S   0  0  0  0  0  0  0  0  0  0  0  0
    9.4540    5.1790  -59.6670 C   0  0  0  0  0  0  0  0  0  0  0  0
    8.2800    5.4510  -59.4720 O   0  0  0  0  0  0  0  0  0  0  0  0
    9.9850    4.2900  -60.8150 C   0  0  2  0  0  0  0  0  0  0  0  0
    8.9020    3.1950  -61.1720 C   0  0  0  0  0  0  0  0  0  0  0  0
    8.9910    1.9010  -60.3190 C   0  0  0  0  0  0  0  0  0  0  0  0
   10.2430    1.5170  -59.9740 C   0  0  0  0  0  0  0  0  0  0  0  0
   10.9050    2.6600  -59.3310 C   0  0  0  0  0  0  0  0  0  0  0  0
   10.5720    3.0450  -58.0660 C   0  0  0  0  0  0  0  0  0  0  0  0
    9.5930    2.2280  -57.1910 C   0  0  0  0  0  0  0  0  0  0  0  0
    8.5290    1.2880  -57.8450 C   0  0  1  0  0  0  0  0  0  0  0  0
    7.2380    1.2360  -57.0340 C   0  0  0  0  0  0  0  0  0  0  0  0
    7.2100    0.8610  -55.6190 C   0  0  0  0  0  0  0  0  0  0  0  0
    8.3970    0.6510  -54.9030 C   0  0  0  0  0  0  0  0  0  0  0  0
    8.3620    0.2570  -53.5620 C   0  0  0  0  0  0  0  0  0  0  0  0
    7.1410    0.0650  -52.9220 C   0  0  0  0  0  0  0  0  0  0  0  0
    5.9530    0.2680  -53.6200 C   0  0  0  0  0  0  0  0  0  0  0  0
    5.9880    0.6600  -54.9620 C   0  0  0  0  0  0  0  0  0  0  0  0
    6.2300    1.5570  -57.8530 C   0  0  0  0  0  0  0  0  0  0  0  0
    4.5290    1.6850  -57.6710 S   0  0  0  0  0  0  0  0  0  0  0  0
    4.3570    2.0310  -59.4390 C   0  0  0  0  0  0  0  0  0  0  0  0
    3.1470    2.2010  -60.0010 N   0  0  0  0  0  0  0  0  0  0  0  0
    3.1530    2.3750  -61.3400 C   0  0  0  0  0  0  0  0  0  0  0  0
    4.3050    2.3700  -62.1240 C   0  0  0  0  0  0  0  0  0  0  0  0
    5.5460    2.1900  -61.5090 C   0  0  0  0  0  0  0  0  0  0  0  0
    5.5800    2.0420  -60.1350 C   0  0  0  0  0  0  0  0  0  0  0  0
    6.6830    1.8130  -59.2100 C   0  0  0  0  0  0  0  0  0  0  0  0
    8.0240    1.7310  -59.2420 C   0  0  0  0  0  0  0  0  0  0  0  0
   11.3250    3.6140  -60.4320 C   0  0  0  0  0  0  0  0  0  0  0  0
   12.4920    3.6150  -56.5410 H   0  0  0  0  0  0  0  0  0  0  0  0
   12.2910    5.2420  -56.2440 H   0  0  0  0  0  0  0  0  0  0  0  0
   12.8520    4.7170  -57.7250 H   0  0  0  0  0  0  0  0  0  0  0  0
   10.0422    4.4831  -56.7182 H   0  0  0  0  0  0  0  0  0  0  0  0
   10.1727    4.9263  -61.6924 H   0  0  0  0  0  0  0  0  0  0  0  0
    7.9053    3.6363  -61.0242 H   0  0  0  0  0  0  0  0  0  0  0  0
    9.0896    2.8969  -62.2141 H   0  0  0  0  0  0  0  0  0  0  0  0
   10.6859    0.5247  -60.1450 H   0  0  0  0  0  0  0  0  0  0  0  0
   10.2104    1.5954  -56.5363 H   0  0  0  0  0  0  0  0  0  0  0  0
    8.9748    3.0081  -56.7228 H   0  0  0  0  0  0  0  0  0  0  0  0
    9.0774    0.3360  -57.8995 H   0  0  0  0  0  0  0  0  0  0  0  0
    9.3664    0.7978  -55.4017 H   0  0  0  0  0  0  0  0  0  0  0  0
    9.3012    0.0985  -53.0117 H   0  0  0  0  0  0  0  0  0  0  0  0
    7.1144   -0.2464  -51.8673 H   0  0  0  0  0  0  0  0  0  0  0  0
    4.9868    0.1199  -53.1155 H   0  0  0  0  0  0  0  0  0  0  0  0
    5.0456    0.8124  -55.5085 H   0  0  0  0  0  0  0  0  0  0  0  0
    2.1876    2.5305  -61.8437 H   0  0  0  0  0  0  0  0  0  0  0  0
    4.2378    2.5061  -63.2135 H   0  0  0  0  0  0  0  0  0  0  0  0
    6.4720    2.1666  -62.1024 H   0  0  0  0  0  0  0  0  0  0  0  0
   12.0521    4.3524  -60.0629 H   0  0  0  0  0  0  0  0  0  0  0  0
   11.8243    3.1175  -61.2771 H   0  0  0  0  0  0  0  0  0  0  0  0
  1  2  1  0
  2  3  1  0
  3  4  1  0
  4  5  2  0
  4  6  1  0
  6  7  1  0
  7  8  1  0
  8  9  2  0
  9 10  1  0
 10 11  2  0
 11 12  1  0
 12 13  1  0
 13 14  1  0
 14 15  1  0
 15 16  2  0
 16 17  1  0
 17 18  2  0
 18 19  1  0
 19 20  2  0
 14 21  2  0
 21 22  1  0
 22 23  1  0
 23 24  1  0
 24 25  2  0
 25 26  1  0
 26 27  2  0
 27 28  1  0
 28 29  1  0
 29 30  2  0
 10 31  1  0
 11  2  1  0
 30 13  1  0
 31  6  1  0
 30  8  1  0
 20 15  1  0
 29 21  1  0
 28 23  2  0
  1 32  1  0
  1 33  1  0
  1 34  1  0
  2 35  1  1
  6 36  1  6
  7 37  1  0
  7 38  1  0
  9 39  1  0
 12 40  1  0
 12 41  1  0
 13 42  1  6
 16 43  1  0
 17 44  1  0
 18 45  1  0
 19 46  1  0
 20 47  1  0
 25 48  1  0
 26 49  1  0
 27 50  1  0
 31 51  1  0
 31 52  1  0
M  CHG  1   1   1
M  END
>  <meeko>  (157) 
{"is_sidechain": false}

$$$$

     RDKit          3D

 52 58  0  0  0  0  0  0  0  0999 V2000
   10.3030    4.0630  -61.3500 N   0  0  0  0  0  0  0  0  0  0  0  0
    9.6600    4.1310  -60.0330 C   0  0  2  0  0  0  0  0  0  0  0  0
   10.2600    5.6610  -59.3160 S   0  0  0  0  0  0  0  0  0  0  0  0
    9.9480    5.2700  -57.6170 C   0  0  0  0  0  0  0  0  0  0  0  0
    8.8970    5.6390  -57.1170 O   0  0  0  0  0  0  0  0  0  0  0  0
   11.0320    4.4630  -56.8830 C   0  0  1  0  0  0  0  0  0  0  0  0
   10.3550    3.5070  -55.8210 C   0  0  0  0  0  0  0  0  0  0  0  0
    9.9670    2.1070  -56.3570 C   0  0  0  0  0  0  0  0  0  0  0  0
   10.7480    1.5920  -57.3370 C   0  0  0  0  0  0  0  0  0  0  0  0
   10.9250    2.6060  -58.3930 C   0  0  0  0  0  0  0  0  0  0  0  0
    9.9010    2.8560  -59.2560 C   0  0  0  0  0  0  0  0  0  0  0  0
    8.6380    1.9720  -59.1630 C   0  0  0  0  0  0  0  0  0  0  0  0
    7.8330    2.3240  -57.8750 C   0  0  1  0  0  0  0  0  0  0  0  0
    6.4920    1.6150  -57.7670 C   0  0  0  0  0  0  0  0  0  0  0  0
    5.4490    1.7450  -58.7800 C   0  0  0  0  0  0  0  0  0  0  0  0
    4.3630    2.6070  -58.5830 C   0  0  0  0  0  0  0  0  0  0  0  0
    3.3500    2.7000  -59.5390 C   0  0  0  0  0  0  0  0  0  0  0  0
    3.4130    1.9350  -60.7010 C   0  0  0  0  0  0  0  0  0  0  0  0
    4.4900    1.0780  -60.9110 C   0  0  0  0  0  0  0  0  0  0  0  0
    5.5030    0.9800  -59.9540 C   0  0  0  0  0  0  0  0  0  0  0  0
    6.4690    0.9590  -56.6020 C   0  0  0  0  0  0  0  0  0  0  0  0
    5.3310   -0.0340  -55.7910 S   0  0  0  0  0  0  0  0  0  0  0  0
    6.5310   -0.3350  -54.4630 C   0  0  0  0  0  0  0  0  0  0  0  0
    6.2430   -1.1330  -53.4200 N   0  0  0  0  0  0  0  0  0  0  0  0
    7.2330   -1.2630  -52.5070 C   0  0  0  0  0  0  0  0  0  0  0  0
    8.4760   -0.6360  -52.6000 C   0  0  0  0  0  0  0  0  0  0  0  0
    8.7450    0.1840  -53.6960 C   0  0  0  0  0  0  0  0  0  0  0  0
    7.7520    0.3350  -54.6470 C   0  0  0  0  0  0  0  0  0  0  0  0
    7.7130    1.1080  -55.8750 C   0  0  0  0  0  0  0  0  0  0  0  0
    8.5480    1.8850  -56.5820 C   0  0  0  0  0  0  0  0  0  0  0  0
   11.8960    3.6460  -57.8740 C   0  0  0  0  0  0  0  0  0  0  0  0
    9.6830    3.6450  -62.0520 H   0  0  0  0  0  0  0  0  0  0  0  0
   10.5650    5.0070  -61.6560 H   0  0  0  0  0  0  0  0  0  0  0  0
   11.1590    3.5020  -61.2970 H   0  0  0  0  0  0  0  0  0  0  0  0
    8.5610    4.1735  -60.0518 H   0  0  0  0  0  0  0  0  0  0  0  0
   11.6991    5.1682  -56.3656 H   0  0  0  0  0  0  0  0  0  0  0  0
   11.0588    3.3704  -54.9868 H   0  0  0  0  0  0  0  0  0  0  0  0
    9.4150    3.9942  -55.5227 H   0  0  0  0  0  0  0  0  0  0  0  0
   11.1804    0.5806  -57.3439 H   0  0  0  0  0  0  0  0  0  0  0  0
    8.0059    2.1460  -60.0463 H   0  0  0  0  0  0  0  0  0  0  0  0
    8.9399    0.9150  -59.1220 H   0  0  0  0  0  0  0  0  0  0  0  0
    7.7232    3.4145  -57.9685 H   0  0  0  0  0  0  0  0  0  0  0  0
    4.3078    3.2153  -57.6682 H   0  0  0  0  0  0  0  0  0  0  0  0
    2.5003    3.3789  -59.3742 H   0  0  0  0  0  0  0  0  0  0  0  0
    2.6127    2.0078  -61.4521 H   0  0  0  0  0  0  0  0  0  0  0  0
    4.5433    0.4776  -61.8312 H   0  0  0  0  0  0  0  0  0  0  0  0
    6.3492    0.2977  -60.1226 H   0  0  0  0  0  0  0  0  0  0  0  0
    7.0456   -1.9053  -51.6339 H   0  0  0  0  0  0  0  0  0  0  0  0
    9.2350   -0.7865  -51.8182 H   0  0  0  0  0  0  0  0  0  0  0  0
    9.7143    0.6934  -53.8004 H   0  0  0  0  0  0  0  0  0  0  0  0
   12.7458    3.1725  -57.3606 H   0  0  0  0  0  0  0  0  0  0  0  0
   12.3408    4.2604  -58.6707 H   0  0  0  0  0  0  0  0  0  0  0  0
  1  2  1  0
  2  3  1  0
  3  4  1  0
  4  5  2  0
  4  6  1  0
  6  7  1  0
  7  8  1  0
  8  9  2  0
  9 10  1  0
 10 11  2  0
 11 12  1  0
 12 13  1  0
 13 14  1  0
 14 15  1  0
 15 16  2  0
 16 17  1  0
 17 18  2  0
 18 19  1  0
 19 20  2  0
 14 21  2  0
 21 22  1  0
 22 23  1  0
 23 24  1  0
 24 25  2  0
 25 26  1  0
 26 27  2  0
 27 28  1  0
 28 29  1  0
 29 30  2  0
 10 31  1  0
 11  2  1  0
 30 13  1  0
 31  6  1  0
 30  8  1  0
 20 15  1  0
 29 21  1  0
 28 23  2  0
  1 32  1  0
  1 33  1  0
  1 34  1  0
  2 35  1  6
  6 36  1  1
  7 37  1  0
  7 38  1  0
  9 39  1  0
 12 40  1  0
 12 41  1  0
 13 42  1  1
 16 43  1  0
 17 44  1  0
 18 45  1  0
 19 46  1  0
 20 47  1  0
 25 48  1  0
 26 49  1  0
 27 50  1  0
 31 51  1  0
 31 52  1  0
M  CHG  1   1   1
M  END
>  <meeko>  (158) 
{"is_sidechain": false}

$$$$

     RDKit          3D

 52 58  0  0  0  0  0  0  0  0999 V2000
    8.5470    4.3750  -60.6750 N   0  0  0  0  0  0  0  0  0  0  0  0
    9.8750    4.0550  -60.1230 C   0  0  1  0  0  0  0  0  0  0  0  0
   10.3130    5.6170  -59.3260 S   0  0  0  0  0  0  0  0  0  0  0  0
   10.0150    5.1820  -57.6410 C   0  0  0  0  0  0  0  0  0  0  0  0
    8.9440    5.5150  -57.1550 O   0  0  0  0  0  0  0  0  0  0  0  0
   11.1140    4.3990  -56.9080 C   0  0  1  0  0  0  0  0  0  0  0  0
   10.4600    3.4500  -55.8220 C   0  0  0  0  0  0  0  0  0  0  0  0
   10.0370    2.0570  -56.3510 C   0  0  0  0  0  0  0  0  0  0  0  0
   10.8050    1.5350  -57.3360 C   0  0  0  0  0  0  0  0  0  0  0  0
   10.9780    2.5410  -58.4000 C   0  0  0  0  0  0  0  0  0  0  0  0
    9.9610    2.7990  -59.2740 C   0  0  0  0  0  0  0  0  0  0  0  0
    8.7040    1.9220  -59.1550 C   0  0  0  0  0  0  0  0  0  0  0  0
    7.9110    2.3020  -57.8690 C   0  0  1  0  0  0  0  0  0  0  0  0
    6.5550    1.6340  -57.7560 C   0  0  0  0  0  0  0  0  0  0  0  0
    5.5160    1.8150  -58.7600 C   0  0  0  0  0  0  0  0  0  0  0  0
    4.3560    2.5340  -58.4620 C   0  0  0  0  0  0  0  0  0  0  0  0
    3.3430    2.6630  -59.4150 C   0  0  0  0  0  0  0  0  0  0  0  0
    3.4890    2.0810  -60.6730 C   0  0  0  0  0  0  0  0  0  0  0  0
    4.6500    1.3740  -60.9840 C   0  0  0  0  0  0  0  0  0  0  0  0
    5.6610    1.2400  -60.0310 C   0  0  0  0  0  0  0  0  0  0  0  0
    6.5160    0.9710  -56.5970 C   0  0  0  0  0  0  0  0  0  0  0  0
    5.3520    0.0050  -55.7930 S   0  0  0  0  0  0  0  0  0  0  0  0
    6.5440   -0.3270  -54.4630 C   0  0  0  0  0  0  0  0  0  0  0  0
    6.2360   -1.1190  -53.4220 N   0  0  0  0  0  0  0  0  0  0  0  0
    7.2210   -1.2760  -52.5090 C   0  0  0  0  0  0  0  0  0  0  0  0
    8.4810   -0.6800  -52.5990 C   0  0  0  0  0  0  0  0  0  0  0  0
    8.7710    0.1360  -53.6930 C   0  0  0  0  0  0  0  0  0  0  0  0
    7.7820    0.3150  -54.6430 C   0  0  0  0  0  0  0  0  0  0  0  0
    7.7640    1.0910  -55.8700 C   0  0  0  0  0  0  0  0  0  0  0  0
    8.6130    1.8570  -56.5730 C   0  0  0  0  0  0  0  0  0  0  0  0
   11.9660    3.5760  -57.9070 C   0  0  0  0  0  0  0  0  0  0  0  0
    8.2370    5.3280  -60.4600 H   0  0  0  0  0  0  0  0  0  0  0  0
    8.5230    4.2280  -61.6910 H   0  0  0  0  0  0  0  0  0  0  0  0
    7.8610    3.7220  -60.2770 H   0  0  0  0  0  0  0  0  0  0  0  0
   10.6074    3.7459  -60.8833 H   0  0  0  0  0  0  0  0  0  0  0  0
   11.7813    5.1144  -56.4051 H   0  0  0  0  0  0  0  0  0  0  0  0
   11.1896    3.3020  -55.0122 H   0  0  0  0  0  0  0  0  0  0  0  0
    9.5382    3.9487  -55.4879 H   0  0  0  0  0  0  0  0  0  0  0  0
   11.2322    0.5213  -57.3417 H   0  0  0  0  0  0  0  0  0  0  0  0
    8.0653    2.0787  -60.0368 H   0  0  0  0  0  0  0  0  0  0  0  0
    9.0043    0.8654  -59.0959 H   0  0  0  0  0  0  0  0  0  0  0  0
    7.8320    3.3944  -57.9709 H   0  0  0  0  0  0  0  0  0  0  0  0
    4.2398    3.0006  -57.4726 H   0  0  0  0  0  0  0  0  0  0  0  0
    2.4288    3.2246  -59.1724 H   0  0  0  0  0  0  0  0  0  0  0  0
    2.6882    2.1794  -61.4207 H   0  0  0  0  0  0  0  0  0  0  0  0
    4.7690    0.9221  -61.9798 H   0  0  0  0  0  0  0  0  0  0  0  0
    6.5756    0.6809  -60.2779 H   0  0  0  0  0  0  0  0  0  0  0  0
    7.0164   -1.9155  -51.6377 H   0  0  0  0  0  0  0  0  0  0  0  0
    9.2354   -0.8518  -51.8171 H   0  0  0  0  0  0  0  0  0  0  0  0
    9.7531    0.6206  -53.7964 H   0  0  0  0  0  0  0  0  0  0  0  0
   12.8216    3.1017  -57.4040 H   0  0  0  0  0  0  0  0  0  0  0  0
   12.4068    4.1819  -58.7124 H   0  0  0  0  0  0  0  0  0  0  0  0
  1  2  1  0
  2  3  1  0
  3  4  1  0
  4  5  2  0
  4  6  1  0
  6  7  1  0
  7  8  1  0
  8  9  2  0
  9 10  1  0
 10 11  2  0
 11 12  1  0
 12 13  1  0
 13 14  1  0
 14 15  1  0
 15 16  2  0
 16 17  1  0
 17 18  2  0
 18 19  1  0
 19 20  2  0
 14 21  2  0
 21 22  1  0
 22 23  1  0
 23 24  1  0
 24 25  2  0
 25 26  1  0
 26 27  2  0
 27 28  1  0
 28 29  1  0
 29 30  2  0
 10 31  1  0
 11  2  1  0
 30 13  1  0
 31  6  1  0
 30  8  1  0
 20 15  1  0
 29 21  1  0
 28 23  2  0
  1 32  1  0
  1 33  1  0
  1 34  1  0
  2 35  1  6
  6 36  1  1
  7 37  1  0
  7 38  1  0
  9 39  1  0
 12 40  1  0
 12 41  1  0
 13 42  1  1
 16 43  1  0
 17 44  1  0
 18 45  1  0
 19 46  1  0
 20 47  1  0
 25 48  1  0
 26 49  1  0
 27 50  1  0
 31 51  1  0
 31 52  1  0
M  CHG  1   1   1
M  END
>  <meeko>  (159) 
{"is_sidechain": false}

$$$$

     RDKit          3D

 63 67  0  0  0  0  0  0  0  0999 V2000
    9.9000    3.8450  -61.2660 C   0  0  0  0  0  0  0  0  0  0  0  0
    9.1480    2.5400  -61.0620 C   0  0  2  0  0  0  0  0  0  0  0  0
    8.1720    2.1360  -62.2230 C   0  0  0  0  0  0  0  0  0  0  0  0
    7.0640    2.3100  -61.2260 C   0  0  0  0  0  0  0  0  0  0  0  0
    5.6970    2.2770  -61.0730 C   0  0  0  0  0  0  0  0  0  0  0  0
    5.1840    2.6090  -59.8160 C   0  0  0  0  0  0  0  0  0  0  0  0
    6.0450    2.9640  -58.7600 C   0  0  0  0  0  0  0  0  0  0  0  0
    7.4350    2.9750  -58.9450 C   0  0  0  0  0  0  0  0  0  0  0  0
    8.3300    3.4080  -57.8480 C   0  0  0  0  0  0  0  0  0  0  0  0
    8.2060    4.5530  -57.4220 O   0  0  0  0  0  0  0  0  0  0  0  0
    9.3300    2.6000  -57.2770 N   0  0  0  0  0  0  0  0  0  0  0  0
   10.7140    2.7160  -57.4220 C   0  0  0  0  0  0  0  0  0  0  0  0
   11.4250    3.7470  -58.1720 C   0  0  0  0  0  0  0  0  0  0  0  0
   12.6500    3.4480  -58.7860 C   0  0  0  0  0  0  0  0  0  0  0  0
   13.3540    4.4350  -59.4780 C   0  0  0  0  0  0  0  0  0  0  0  0
   12.8460    5.7300  -59.5570 C   0  0  0  0  0  0  0  0  0  0  0  0
   11.6340    6.0380  -58.9420 C   0  0  0  0  0  0  0  0  0  0  0  0
   10.9300    5.0530  -58.2480 C   0  0  0  0  0  0  0  0  0  0  0  0
   11.2260    1.5650  -56.8530 C   0  0  0  0  0  0  0  0  0  0  0  0
   10.2460    0.8090  -56.2780 N   0  0  0  0  0  0  0  0  0  0  0  0
    9.1300    1.4960  -56.4580 C   0  0  0  0  0  0  0  0  0  0  0  0
    7.9110    1.1350  -55.7650 C   0  0  0  0  0  0  0  0  0  0  0  0
    6.7790    1.5230  -56.0480 O   0  0  0  0  0  0  0  0  0  0  0  0
    8.1110    0.2970  -54.6770 N   0  0  0  0  0  0  0  0  0  0  0  0
    7.1120    0.1840  -53.6410 C   0  0  0  0  0  0  0  0  0  0  0  0
    7.3110   -0.9180  -52.6110 C   0  0  2  0  0  0  0  0  0  0  0  0
    8.6260   -1.6400  -52.7080 C   0  0  0  0  0  0  0  0  0  0  0  0
    9.6740   -1.1410  -53.0860 O   0  0  0  0  0  0  0  0  0  0  0  0
    8.4880   -3.0610  -52.1690 C   0  0  1  0  0  0  0  0  0  0  0  0
    9.4010   -3.3210  -50.9880 C   0  0  0  0  0  0  0  0  0  0  0  0
    7.0370   -3.1320  -51.7180 N   0  0  2  0  0  0  0  0  0  0  0  0
    6.4120   -4.4830  -51.8170 C   0  0  0  0  0  0  0  0  0  0  0  0
    6.3710   -2.1140  -52.6110 C   0  0  2  0  0  0  0  0  0  0  0  0
    6.3170   -2.6990  -53.8280 F   0  0  0  0  0  0  0  0  0  0  0  0
    7.9150    2.6520  -60.1990 C   0  0  0  0  0  0  0  0  0  0  0  0
   10.1509    4.2804  -60.2875 H   0  0  0  0  0  0  0  0  0  0  0  0
   10.8249    3.6511  -61.8291 H   0  0  0  0  0  0  0  0  0  0  0  0
    9.2685    4.5479  -61.8291 H   0  0  0  0  0  0  0  0  0  0  0  0
   10.0138    1.9206  -60.7850 H   0  0  0  0  0  0  0  0  0  0  0  0
    8.1461    2.8365  -63.0707 H   0  0  0  0  0  0  0  0  0  0  0  0
    8.3004    1.2104  -62.8034 H   0  0  0  0  0  0  0  0  0  0  0  0
    5.0345    2.0004  -61.9065 H   0  0  0  0  0  0  0  0  0  0  0  0
    4.0967    2.5928  -59.6500 H   0  0  0  0  0  0  0  0  0  0  0  0
    5.6234    3.2352  -57.7809 H   0  0  0  0  0  0  0  0  0  0  0  0
   13.0588    2.4288  -58.7218 H   0  0  0  0  0  0  0  0  0  0  0  0
   14.3111    4.1900  -59.9616 H   0  0  0  0  0  0  0  0  0  0  0  0
   13.4002    6.5073  -60.1034 H   0  0  0  0  0  0  0  0  0  0  0  0
   11.2313    7.0598  -59.0037 H   0  0  0  0  0  0  0  0  0  0  0  0
    9.9786    5.3056  -57.7570 H   0  0  0  0  0  0  0  0  0  0  0  0
   12.2916    1.2921  -56.8625 H   0  0  0  0  0  0  0  0  0  0  0  0
    9.0990    0.2050  -54.4220 H   0  0  0  0  0  0  0  0  0  0  0  0
    7.0829    1.1421  -53.1014 H   0  0  0  0  0  0  0  0  0  0  0  0
    6.1820   -0.0787  -54.1664 H   0  0  0  0  0  0  0  0  0  0  0  0
    7.1615   -0.2747  -51.7313 H   0  0  0  0  0  0  0  0  0  0  0  0
    8.7618   -3.8092  -52.9275 H   0  0  0  0  0  0  0  0  0  0  0  0
    8.8445   -3.1625  -50.0525 H   0  0  0  0  0  0  0  0  0  0  0  0
    9.7647   -4.3584  -51.0271 H   0  0  0  0  0  0  0  0  0  0  0  0
   10.2566   -2.6308  -51.0271 H   0  0  0  0  0  0  0  0  0  0  0  0
    6.9460   -2.8030  -50.7490 H   0  0  0  0  0  0  0  0  0  0  0  0
    6.2295   -4.8775  -50.8065 H   0  0  0  0  0  0  0  0  0  0  0  0
    5.4577   -4.4067  -52.3587 H   0  0  0  0  0  0  0  0  0  0  0  0
    7.0880   -5.1609  -52.3587 H   0  0  0  0  0  0  0  0  0  0  0  0
    5.3631   -1.7964  -52.3056 H   0  0  0  0  0  0  0  0  0  0  0  0
  1  2  1  0
  2  3  1  0
  3  4  1  0
  4  5  2  0
  5  6  1  0
  6  7  2  0
  7  8  1  0
  8  9  1  0
  9 10  2  0
  9 11  1  0
 11 12  1  0
 12 13  1  0
 13 14  2  0
 14 15  1  0
 15 16  2  0
 16 17  1  0
 17 18  2  0
 12 19  2  0
 19 20  1  0
 20 21  2  0
 21 22  1  0
 22 23  2  0
 22 24  1  0
 24 25  1  0
 25 26  1  0
 26 27  1  0
 27 28  2  0
 27 29  1  0
 29 30  1  0
 29 31  1  0
 31 32  1  0
 31 33  1  0
 33 34  1  0
  8 35  2  0
 35  2  1  0
 35  4  1  0
 21 11  1  0
 33 26  1  0
 18 13  1  0
  1 36  1  0
  1 37  1  0
  1 38  1  0
  2 39  1  1
  3 40  1  0
  3 41  1  0
  5 42  1  0
  6 43  1  0
  7 44  1  0
 14 45  1  0
 15 46  1  0
 16 47  1  0
 17 48  1  0
 18 49  1  0
 19 50  1  0
 24 51  1  0
 25 52  1  0
 25 53  1  0
 26 54  1  1
 29 55  1  6
 30 56  1  0
 30 57  1  0
 30 58  1  0
 31 59  1  1
 32 60  1  0
 32 61  1  0
 32 62  1  0
 33 63  1  1
M  CHG  1  31   1
M  END
>  <meeko>  (160) 
{"is_sidechain": false}

$$$$

     RDKit          3D

 63 67  0  0  0  0  0  0  0  0999 V2000
    9.1760    4.1660  -60.5900 C   0  0  0  0  0  0  0  0  0  0  0  0
    8.6500    2.7410  -60.5470 C   0  0  2  0  0  0  0  0  0  0  0  0
    7.6850    2.3220  -61.7150 C   0  0  0  0  0  0  0  0  0  0  0  0
    6.6180    2.2130  -60.6630 C   0  0  0  0  0  0  0  0  0  0  0  0
    5.2860    1.9360  -60.4570 C   0  0  0  0  0  0  0  0  0  0  0  0
    4.8040    2.0200  -59.1470 C   0  0  0  0  0  0  0  0  0  0  0  0
    5.6610    2.3660  -58.0870 C   0  0  0  0  0  0  0  0  0  0  0  0
    7.0180    2.6090  -58.3340 C   0  0  0  0  0  0  0  0  0  0  0  0
    7.9240    3.0000  -57.2430 C   0  0  0  0  0  0  0  0  0  0  0  0
    7.7680    4.1090  -56.7240 O   0  0  0  0  0  0  0  0  0  0  0  0
    8.9660    2.1980  -56.7350 N   0  0  0  0  0  0  0  0  0  0  0  0
   10.3410    2.3110  -56.9410 C   0  0  0  0  0  0  0  0  0  0  0  0
   11.0250    3.3120  -57.7530 C   0  0  0  0  0  0  0  0  0  0  0  0
   11.9860    2.9310  -58.6980 C   0  0  0  0  0  0  0  0  0  0  0  0
   12.6340    3.8960  -59.4710 C   0  0  0  0  0  0  0  0  0  0  0  0
   12.3390    5.2460  -59.2940 C   0  0  0  0  0  0  0  0  0  0  0  0
   11.4040    5.6350  -58.3360 C   0  0  0  0  0  0  0  0  0  0  0  0
   10.7550    4.6720  -57.5620 C   0  0  0  0  0  0  0  0  0  0  0  0
   10.8820    1.1900  -56.3390 C   0  0  0  0  0  0  0  0  0  0  0  0
    9.9190    0.4040  -55.7770 N   0  0  0  0  0  0  0  0  0  0  0  0
    8.7860    1.0530  -55.9730 C   0  0  0  0  0  0  0  0  0  0  0  0
    7.5390    0.5930  -55.4100 C   0  0  0  0  0  0  0  0  0  0  0  0
    6.4890    1.2380  -55.3460 O   0  0  0  0  0  0  0  0  0  0  0  0
    7.5610   -0.7140  -54.9570 N   0  0  0  0  0  0  0  0  0  0  0  0
    6.4570   -1.2560  -54.1950 C   0  0  0  0  0  0  0  0  0  0  0  0
    6.6820   -2.6540  -53.6110 C   0  0  1  0  0  0  0  0  0  0  0  0
    8.1100   -3.0460  -53.8770 C   0  0  0  0  0  0  0  0  0  0  0  0
    8.5410   -3.3210  -54.9880 O   0  0  0  0  0  0  0  0  0  0  0  0
    8.9520   -2.9890  -52.6070 C   0  0  1  0  0  0  0  0  0  0  0  0
   10.1400   -2.0590  -52.7440 C   0  0  0  0  0  0  0  0  0  0  0  0
    7.9980   -2.4650  -51.5700 N   0  0  2  0  0  0  0  0  0  0  0  0
    8.2370   -2.9140  -50.1740 C   0  0  0  0  0  0  0  0  0  0  0  0
    6.6540   -2.8350  -52.0990 C   0  0  2  0  0  0  0  0  0  0  0  0
    6.4890   -4.1570  -51.8330 F   0  0  0  0  0  0  0  0  0  0  0  0
    7.4650    2.5470  -59.6350 C   0  0  0  0  0  0  0  0  0  0  0  0
    9.3131    4.5374  -59.5637 H   0  0  0  0  0  0  0  0  0  0  0  0
   10.1404    4.1851  -61.1187 H   0  0  0  0  0  0  0  0  0  0  0  0
    8.4553    4.8071  -61.1187 H   0  0  0  0  0  0  0  0  0  0  0  0
    9.6185    2.2423  -60.3940 H   0  0  0  0  0  0  0  0  0  0  0  0
    7.5104    3.0994  -62.4734 H   0  0  0  0  0  0  0  0  0  0  0  0
    7.9184    1.4976  -62.4049 H   0  0  0  0  0  0  0  0  0  0  0  0
    4.6251    1.6589  -61.2915 H   0  0  0  0  0  0  0  0  0  0  0  0
    3.7430    1.8132  -58.9434 H   0  0  0  0  0  0  0  0  0  0  0  0
    5.2654    2.4458  -57.0637 H   0  0  0  0  0  0  0  0  0  0  0  0
   12.2311    1.8670  -58.8316 H   0  0  0  0  0  0  0  0  0  0  0  0
   13.3785    3.5901  -60.2208 H   0  0  0  0  0  0  0  0  0  0  0  0
   12.8437    6.0048  -59.9100 H   0  0  0  0  0  0  0  0  0  0  0  0
   11.1776    6.7015  -58.1901 H   0  0  0  0  0  0  0  0  0  0  0  0
   10.0275    4.9834  -56.7979 H   0  0  0  0  0  0  0  0  0  0  0  0
   11.9575    0.9601  -56.3160 H   0  0  0  0  0  0  0  0  0  0  0  0
    8.5030   -1.0910  -54.8210 H   0  0  0  0  0  0  0  0  0  0  0  0
    6.2517   -0.5692  -53.3606 H   0  0  0  0  0  0  0  0  0  0  0  0
    5.6214   -1.3556  -54.9034 H   0  0  0  0  0  0  0  0  0  0  0  0
    5.8553   -3.2165  -54.0694 H   0  0  0  0  0  0  0  0  0  0  0  0
    9.3796   -3.9716  -52.3589 H   0  0  0  0  0  0  0  0  0  0  0  0
   10.5014   -1.7761  -51.7443 H   0  0  0  0  0  0  0  0  0  0  0  0
   10.9442   -2.5700  -53.2936 H   0  0  0  0  0  0  0  0  0  0  0  0
    9.8370   -1.1556  -53.2936 H   0  0  0  0  0  0  0  0  0  0  0  0
    8.0150   -1.4230  -51.5610 H   0  0  0  0  0  0  0  0  0  0  0  0
    7.8381   -2.1646  -49.4745 H   0  0  0  0  0  0  0  0  0  0  0  0
    7.7321   -3.8769  -50.0070 H   0  0  0  0  0  0  0  0  0  0  0  0
    9.3177   -3.0329  -50.0070 H   0  0  0  0  0  0  0  0  0  0  0  0
    5.8524   -2.2264  -51.6550 H   0  0  0  0  0  0  0  0  0  0  0  0
  1  2  1  0
  2  3  1  0
  3  4  1  0
  4  5  2  0
  5  6  1  0
  6  7  2  0
  7  8  1  0
  8  9  1  0
  9 10  2  0
  9 11  1  0
 11 12  1  0
 12 13  1  0
 13 14  2  0
 14 15  1  0
 15 16  2  0
 16 17  1  0
 17 18  2  0
 12 19  2  0
 19 20  1  0
 20 21  2  0
 21 22  1  0
 22 23  2  0
 22 24  1  0
 24 25  1  0
 25 26  1  0
 26 27  1  0
 27 28  2  0
 27 29  1  0
 29 30  1  0
 29 31  1  0
 31 32  1  0
 31 33  1  0
 33 34  1  0
  8 35  2  0
 35  2  1  0
 35  4  1  0
 21 11  1  0
 33 26  1  0
 18 13  1  0
  1 36  1  0
  1 37  1  0
  1 38  1  0
  2 39  1  1
  3 40  1  0
  3 41  1  0
  5 42  1  0
  6 43  1  0
  7 44  1  0
 14 45  1  0
 15 46  1  0
 16 47  1  0
 17 48  1  0
 18 49  1  0
 19 50  1  0
 24 51  1  0
 25 52  1  0
 25 53  1  0
 26 54  1  6
 29 55  1  1
 30 56  1  0
 30 57  1  0
 30 58  1  0
 31 59  1  1
 32 60  1  0
 32 61  1  0
 32 62  1  0
 33 63  1  1
M  CHG  1  31   1
M  END
>  <meeko>  (161) 
{"is_sidechain": false}

$$$$

     RDKit          3D

 63 67  0  0  0  0  0  0  0  0999 V2000
   11.0960    0.1610  -56.8080 C   0  0  0  0  0  0  0  0  0  0  0  0
   11.7830   -1.0020  -56.1120 C   0  0  2  0  0  0  0  0  0  0  0  0
   12.3520   -2.1320  -57.0440 C   0  0  0  0  0  0  0  0  0  0  0  0
   11.3180   -3.0290  -56.4280 C   0  0  0  0  0  0  0  0  0  0  0  0
   10.7970   -4.3020  -56.4500 C   0  0  0  0  0  0  0  0  0  0  0  0
    9.7310   -4.5790  -55.5880 C   0  0  0  0  0  0  0  0  0  0  0  0
    9.2280   -3.5870  -54.7260 C   0  0  0  0  0  0  0  0  0  0  0  0
    9.8080   -2.3110  -54.7100 C   0  0  0  0  0  0  0  0  0  0  0  0
    9.2780   -1.2530  -53.8360 C   0  0  0  0  0  0  0  0  0  0  0  0
   10.0810   -0.5640  -53.2030 O   0  0  0  0  0  0  0  0  0  0  0  0
    7.9090   -0.9580  -53.6720 N   0  0  0  0  0  0  0  0  0  0  0  0
    6.9790   -1.5640  -52.8260 C   0  0  0  0  0  0  0  0  0  0  0  0
    7.2240   -2.6680  -51.9050 C   0  0  0  0  0  0  0  0  0  0  0  0
    8.2740   -2.6090  -50.9810 C   0  0  0  0  0  0  0  0  0  0  0  0
    8.4990   -3.6710  -50.1030 C   0  0  0  0  0  0  0  0  0  0  0  0
    7.6870   -4.8010  -50.1510 C   0  0  0  0  0  0  0  0  0  0  0  0
    6.6570   -4.8790  -51.0870 C   0  0  0  0  0  0  0  0  0  0  0  0
    6.4310   -3.8200  -51.9670 C   0  0  0  0  0  0  0  0  0  0  0  0
    5.7660   -0.9930  -53.1670 C   0  0  0  0  0  0  0  0  0  0  0  0
    5.9040   -0.0740  -54.1670 N   0  0  0  0  0  0  0  0  0  0  0  0
    7.1990   -0.0280  -54.4170 C   0  0  0  0  0  0  0  0  0  0  0  0
    7.7630    0.9280  -55.3440 C   0  0  0  0  0  0  0  0  0  0  0  0
    8.8980    1.4020  -55.2810 O   0  0  0  0  0  0  0  0  0  0  0  0
    6.9400    1.2530  -56.3980 N   0  0  0  0  0  0  0  0  0  0  0  0
    7.2270    2.3070  -57.3540 C   0  0  0  0  0  0  0  0  0  0  0  0
    8.1210    1.9500  -58.5440 C   0  0  2  0  0  0  0  0  0  0  0  0
    9.0390    3.0690  -58.9430 C   0  0  0  0  0  0  0  0  0  0  0  0
   10.0180    3.4080  -58.2910 O   0  0  0  0  0  0  0  0  0  0  0  0
    8.5980    3.7150  -60.2540 C   0  0  1  0  0  0  0  0  0  0  0  0
    9.6970    3.5850  -61.2940 C   0  0  0  0  0  0  0  0  0  0  0  0
    7.3550    2.9490  -60.6260 N   0  0  1  0  0  0  0  0  0  0  0  0
    6.9490    2.8420  -62.0440 C   0  0  0  0  0  0  0  0  0  0  0  0
    7.4320    1.6730  -59.8750 C   0  0  2  0  0  0  0  0  0  0  0  0
    6.1920    1.1810  -59.7170 F   0  0  0  0  0  0  0  0  0  0  0  0
   10.8380   -2.0540  -55.5880 C   0  0  0  0  0  0  0  0  0  0  0  0
   10.6886    0.8506  -56.0540 H   0  0  0  0  0  0  0  0  0  0  0  0
   11.8243    0.6939  -57.4369 H   0  0  0  0  0  0  0  0  0  0  0  0
   10.2777   -0.2197  -57.4369 H   0  0  0  0  0  0  0  0  0  0  0  0
   12.4415   -0.4035  -55.4654 H   0  0  0  0  0  0  0  0  0  0  0  0
   12.2252   -1.9510  -58.1216 H   0  0  0  0  0  0  0  0  0  0  0  0
   13.4201   -2.3940  -57.0659 H   0  0  0  0  0  0  0  0  0  0  0  0
   11.2037   -5.0733  -57.1206 H   0  0  0  0  0  0  0  0  0  0  0  0
    9.2811   -5.5828  -55.5838 H   0  0  0  0  0  0  0  0  0  0  0  0
    8.3789   -3.8131  -54.0642 H   0  0  0  0  0  0  0  0  0  0  0  0
    8.9243   -1.7225  -50.9466 H   0  0  0  0  0  0  0  0  0  0  0  0
    9.3192   -3.6149  -49.3721 H   0  0  0  0  0  0  0  0  0  0  0  0
    7.8582   -5.6318  -49.4507 H   0  0  0  0  0  0  0  0  0  0  0  0
    6.0219   -5.7760  -51.1319 H   0  0  0  0  0  0  0  0  0  0  0  0
    5.6258   -3.8907  -52.7131 H   0  0  0  0  0  0  0  0  0  0  0  0
    4.8078   -1.2482  -52.6908 H   0  0  0  0  0  0  0  0  0  0  0  0
    5.9700    0.9530  -56.2760 H   0  0  0  0  0  0  0  0  0  0  0  0
    6.2657    2.6589  -57.7566 H   0  0  0  0  0  0  0  0  0  0  0  0
    7.7982    3.0561  -56.7860 H   0  0  0  0  0  0  0  0  0  0  0  0
    8.6013    1.0488  -58.1351 H   0  0  0  0  0  0  0  0  0  0  0  0
    8.3990    4.7941  -60.1766 H   0  0  0  0  0  0  0  0  0  0  0  0
   10.6676    3.4702  -60.7894 H   0  0  0  0  0  0  0  0  0  0  0  0
    9.5042    2.7034  -61.9230 H   0  0  0  0  0  0  0  0  0  0  0  0
    9.7152    4.4873  -61.9230 H   0  0  0  0  0  0  0  0  0  0  0  0
    6.5520    3.4380  -60.1750 H   0  0  0  0  0  0  0  0  0  0  0  0
    5.8868    2.5620  -62.1011 H   0  0  0  0  0  0  0  0  0  0  0  0
    7.1002    3.8107  -62.5428 H   0  0  0  0  0  0  0  0  0  0  0  0
    7.5580    2.0737  -62.5428 H   0  0  0  0  0  0  0  0  0  0  0  0
    8.0175    0.9160  -60.4173 H   0  0  0  0  0  0  0  0  0  0  0  0
  1  2  1  0
  2  3  1  0
  3  4  1  0
  4  5  2  0
  5  6  1  0
  6  7  2  0
  7  8  1  0
  8  9  1  0
  9 10  2  0
  9 11  1  0
 11 12  1  0
 12 13  1  0
 13 14  2  0
 14 15  1  0
 15 16  2  0
 16 17  1  0
 17 18  2  0
 12 19  2  0
 19 20  1  0
 20 21  2  0
 21 22  1  0
 22 23  2  0
 22 24  1  0
 24 25  1  0
 25 26  1  0
 26 27  1  0
 27 28  2  0
 27 29  1  0
 29 30  1  0
 29 31  1  0
 31 32  1  0
 31 33  1  0
 33 34  1  0
  8 35  2  0
 35  2  1  0
 35  4  1  0
 21 11  1  0
 33 26  1  0
 18 13  1  0
  1 36  1  0
  1 37  1  0
  1 38  1  0
  2 39  1  1
  3 40  1  0
  3 41  1  0
  5 42  1  0
  6 43  1  0
  7 44  1  0
 14 45  1  0
 15 46  1  0
 16 47  1  0
 17 48  1  0
 18 49  1  0
 19 50  1  0
 24 51  1  0
 25 52  1  0
 25 53  1  0
 26 54  1  1
 29 55  1  1
 30 56  1  0
 30 57  1  0
 30 58  1  0
 31 59  1  1
 32 60  1  0
 32 61  1  0
 32 62  1  0
 33 63  1  6
M  CHG  1  31   1
M  END
>  <meeko>  (162) 
{"is_sidechain": false}

$$$$

     RDKit          3D

 63 67  0  0  0  0  0  0  0  0999 V2000
    9.6570    3.7430  -60.9830 C   0  0  0  0  0  0  0  0  0  0  0  0
    8.9290    2.4500  -60.6550 C   0  0  2  0  0  0  0  0  0  0  0  0
    7.8480    1.9800  -61.6950 C   0  0  0  0  0  0  0  0  0  0  0  0
    6.8380    2.2350  -60.6150 C   0  0  0  0  0  0  0  0  0  0  0  0
    5.4930    2.2140  -60.3240 C   0  0  0  0  0  0  0  0  0  0  0  0
    5.1010    2.6110  -59.0430 C   0  0  0  0  0  0  0  0  0  0  0  0
    6.0600    3.0060  -58.0900 C   0  0  0  0  0  0  0  0  0  0  0  0
    7.4220    2.9830  -58.4120 C   0  0  0  0  0  0  0  0  0  0  0  0
    8.4340    3.4140  -57.4330 C   0  0  0  0  0  0  0  0  0  0  0  0
    8.3010    4.5160  -56.8990 O   0  0  0  0  0  0  0  0  0  0  0  0
    9.5480    2.6470  -57.0420 N   0  0  0  0  0  0  0  0  0  0  0  0
   10.8960    2.8460  -57.3390 C   0  0  0  0  0  0  0  0  0  0  0  0
   11.4660    3.9240  -58.1400 C   0  0  0  0  0  0  0  0  0  0  0  0
   10.7500    5.1070  -58.3620 C   0  0  0  0  0  0  0  0  0  0  0  0
   11.3040    6.1330  -59.1300 C   0  0  0  0  0  0  0  0  0  0  0  0
   12.5700    5.9770  -59.6930 C   0  0  0  0  0  0  0  0  0  0  0  0
   13.2770    4.7930  -59.5000 C   0  0  0  0  0  0  0  0  0  0  0  0
   12.7240    3.7660  -58.7330 C   0  0  0  0  0  0  0  0  0  0  0  0
   11.5360    1.7230  -56.8460 C   0  0  0  0  0  0  0  0  0  0  0  0
   10.6580    0.8560  -56.2630 N   0  0  0  0  0  0  0  0  0  0  0  0
    9.4830    1.4540  -56.3370 C   0  0  0  0  0  0  0  0  0  0  0  0
    8.3030    0.9040  -55.7080 C   0  0  0  0  0  0  0  0  0  0  0  0
    7.1840    0.8280  -56.2160 O   0  0  0  0  0  0  0  0  0  0  0  0
    8.5210    0.4130  -54.4360 N   0  0  0  0  0  0  0  0  0  0  0  0
    7.4550   -0.1360  -53.6320 C   0  0  0  0  0  0  0  0  0  0  0  0
    7.2940   -1.6410  -53.8060 C   0  0  1  0  0  0  0  0  0  0  0  0
    8.6590   -2.2660  -53.8030 C   0  0  0  0  0  0  0  0  0  0  0  0
    9.5050   -2.0510  -54.6590 O   0  0  0  0  0  0  0  0  0  0  0  0
    8.8640   -3.1650  -52.5940 C   0  0  1  0  0  0  0  0  0  0  0  0
   10.1940   -2.9440  -51.9040 C   0  0  0  0  0  0  0  0  0  0  0  0
    7.6680   -2.8900  -51.7130 N   0  0  1  0  0  0  0  0  0  0  0  0
    7.8250   -2.0200  -50.5090 C   0  0  0  0  0  0  0  0  0  0  0  0
    6.6280   -2.4140  -52.6750 C   0  0  2  0  0  0  0  0  0  0  0  0
    6.1380   -3.5710  -53.1930 F   0  0  0  0  0  0  0  0  0  0  0  0
    7.7810    2.6140  -59.6910 C   0  0  0  0  0  0  0  0  0  0  0  0
    9.9425    4.2500  -60.0495 H   0  0  0  0  0  0  0  0  0  0  0  0
   10.5604    3.5168  -61.5685 H   0  0  0  0  0  0  0  0  0  0  0  0
    8.9951    4.3981  -61.5685 H   0  0  0  0  0  0  0  0  0  0  0  0
    9.8200    1.8431  -60.4362 H   0  0  0  0  0  0  0  0  0  0  0  0
    7.7492    2.6221  -62.5827 H   0  0  0  0  0  0  0  0  0  0  0  0
    7.9169    1.0163  -62.2209 H   0  0  0  0  0  0  0  0  0  0  0  0
    4.7530    1.8960  -61.0732 H   0  0  0  0  0  0  0  0  0  0  0  0
    4.0338    2.6151  -58.7764 H   0  0  0  0  0  0  0  0  0  0  0  0
    5.7379    3.3333  -57.0904 H   0  0  0  0  0  0  0  0  0  0  0  0
    9.7461    5.2284  -57.9291 H   0  0  0  0  0  0  0  0  0  0  0  0
   10.7416    7.0646  -59.2909 H   0  0  0  0  0  0  0  0  0  0  0  0
   13.0104    6.7894  -60.2897 H   0  0  0  0  0  0  0  0  0  0  0  0
   14.2718    4.6668  -59.9522 H   0  0  0  0  0  0  0  0  0  0  0  0
   13.2801    2.8272  -58.5939 H   0  0  0  0  0  0  0  0  0  0  0  0
   12.6201    1.5500  -56.9154 H   0  0  0  0  0  0  0  0  0  0  0  0
    9.4160    0.6700  -54.0150 H   0  0  0  0  0  0  0  0  0  0  0  0
    7.6701    0.0737  -52.5738 H   0  0  0  0  0  0  0  0  0  0  0  0
    6.5175    0.3359  -53.9612 H   0  0  0  0  0  0  0  0  0  0  0  0
    6.6812   -1.7089  -54.7170 H   0  0  0  0  0  0  0  0  0  0  0  0
    8.9199   -4.2269  -52.8754 H   0  0  0  0  0  0  0  0  0  0  0  0
   10.0499   -2.9679  -50.8137 H   0  0  0  0  0  0  0  0  0  0  0  0
   10.8963   -3.7378  -52.1986 H   0  0  0  0  0  0  0  0  0  0  0  0
   10.6018   -1.9658  -52.1986 H   0  0  0  0  0  0  0  0  0  0  0  0
    7.2960   -3.7900  -51.3840 H   0  0  0  0  0  0  0  0  0  0  0  0
    7.7151   -2.6291  -49.5996 H   0  0  0  0  0  0  0  0  0  0  0  0
    8.8216   -1.5546  -50.5203 H   0  0  0  0  0  0  0  0  0  0  0  0
    7.0539   -1.2356  -50.5203 H   0  0  0  0  0  0  0  0  0  0  0  0
    5.8727   -1.7665  -52.2058 H   0  0  0  0  0  0  0  0  0  0  0  0
  1  2  1  0
  2  3  1  0
  3  4  1  0
  4  5  2  0
  5  6  1  0
  6  7  2  0
  7  8  1  0
  8  9  1  0
  9 10  2  0
  9 11  1  0
 11 12  1  0
 12 13  1  0
 13 14  2  0
 14 15  1  0
 15 16  2  0
 16 17  1  0
 17 18  2  0
 12 19  2  0
 19 20  1  0
 20 21  2  0
 21 22  1  0
 22 23  2  0
 22 24  1  0
 24 25  1  0
 25 26  1  0
 26 27  1  0
 27 28  2  0
 27 29  1  0
 29 30  1  0
 29 31  1  0
 31 32  1  0
 31 33  1  0
 33 34  1  0
  8 35  2  0
 35  2  1  0
 35  4  1  0
 21 11  1  0
 33 26  1  0
 18 13  1  0
  1 36  1  0
  1 37  1  0
  1 38  1  0
  2 39  1  1
  3 40  1  0
  3 41  1  0
  5 42  1  0
  6 43  1  0
  7 44  1  0
 14 45  1  0
 15 46  1  0
 16 47  1  0
 17 48  1  0
 18 49  1  0
 19 50  1  0
 24 51  1  0
 25 52  1  0
 25 53  1  0
 26 54  1  6
 29 55  1  6
 30 56  1  0
 30 57  1  0
 30 58  1  0
 31 59  1  1
 32 60  1  0
 32 61  1  0
 32 62  1  0
 33 63  1  1
M  CHG  1  31   1
M  END
>  <meeko>  (163) 
{"is_sidechain": false}

$$$$

     RDKit          3D

 64 68  0  0  0  0  0  0  0  0999 V2000
    9.8910    3.6790  -61.3610 C   0  0  0  0  0  0  0  0  0  0  0  0
    9.0670    2.4800  -60.9360 C   0  0  2  0  0  0  0  0  0  0  0  0
    8.0050    2.0250  -61.9970 C   0  0  0  0  0  0  0  0  0  0  0  0
    6.9780    2.2900  -60.9370 C   0  0  0  0  0  0  0  0  0  0  0  0
    5.6310    2.1950  -60.6700 C   0  0  0  0  0  0  0  0  0  0  0  0
    5.2020    2.5430  -59.3900 C   0  0  0  0  0  0  0  0  0  0  0  0
    6.1260    2.9800  -58.4250 C   0  0  0  0  0  0  0  0  0  0  0  0
    7.4890    3.1060  -58.7480 C   0  0  0  0  0  0  0  0  0  0  0  0
    8.4420    3.5130  -57.7030 C   0  0  0  0  0  0  0  0  0  0  0  0
    8.2860    4.5590  -57.0880 O   0  0  0  0  0  0  0  0  0  0  0  0
    9.6430    2.7930  -57.2740 N   0  0  0  0  0  0  0  0  0  0  0  0
   10.9630    3.0150  -57.6470 C   0  0  0  0  0  0  0  0  0  0  0  0
   11.6460    4.1800  -58.4490 C   0  0  0  0  0  0  0  0  0  0  0  0
   13.0040    4.0900  -58.7780 C   0  0  0  0  0  0  0  0  0  0  0  0
   13.6210    5.1210  -59.4910 C   0  0  0  0  0  0  0  0  0  0  0  0
   12.8920    6.2490  -59.8590 C   0  0  0  0  0  0  0  0  0  0  0  0
   11.5500    6.3550  -59.5040 C   0  0  0  0  0  0  0  0  0  0  0  0
   10.9290    5.3270  -58.7920 C   0  0  0  0  0  0  0  0  0  0  0  0
   11.6430    1.9560  -57.0750 C   0  0  0  0  0  0  0  0  0  0  0  0
   10.7540    1.2480  -56.3050 N   0  0  0  0  0  0  0  0  0  0  0  0
    9.5080    1.7530  -56.4290 C   0  0  0  0  0  0  0  0  0  0  0  0
    8.3390    1.1910  -55.8590 C   0  0  0  0  0  0  0  0  0  0  0  0
    7.2320    1.6780  -56.0740 O   0  0  0  0  0  0  0  0  0  0  0  0
    8.5330    0.0210  -55.1280 N   0  0  0  0  0  0  0  0  0  0  0  0
    7.3930   -0.6720  -54.5550 C   0  0  0  0  0  0  0  0  0  0  0  0
    7.6050   -1.1090  -53.1080 C   0  0  2  0  0  0  0  0  0  0  0  0
    8.8240   -1.9620  -52.8500 C   0  0  0  0  0  0  0  0  0  0  0  0
    9.9570   -1.6670  -53.2180 O   0  0  0  0  0  0  0  0  0  0  0  0
    8.4740   -3.1570  -51.9700 C   0  0  1  0  0  0  0  0  0  0  0  0
    9.3990   -3.2850  -50.7760 C   0  0  0  0  0  0  0  0  0  0  0  0
    7.0640   -2.8490  -51.4990 N   0  0  2  0  0  0  0  0  0  0  0  0
    6.2400   -4.0580  -51.1770 C   0  0  0  0  0  0  0  0  0  0  0  0
    6.4920   -2.0330  -52.6170 C   0  0  2  0  0  0  0  0  0  0  0  0
    6.1460   -2.9010  -53.5900 F   0  0  0  0  0  0  0  0  0  0  0  0
    7.8950    2.7440  -60.0160 C   0  0  0  0  0  0  0  0  0  0  0  0
   10.2550    4.2087  -60.4683 H   0  0  0  0  0  0  0  0  0  0  0  0
   10.7482    3.3405  -61.9616 H   0  0  0  0  0  0  0  0  0  0  0  0
    9.2678    4.3579  -61.9616 H   0  0  0  0  0  0  0  0  0  0  0  0
    9.9104    1.8525  -60.6120 H   0  0  0  0  0  0  0  0  0  0  0  0
    7.9315    2.6697  -62.8852 H   0  0  0  0  0  0  0  0  0  0  0  0
    8.0734    1.0618  -62.5238 H   0  0  0  0  0  0  0  0  0  0  0  0
    4.9196    1.8571  -61.4379 H   0  0  0  0  0  0  0  0  0  0  0  0
    4.1344    2.4752  -59.1337 H   0  0  0  0  0  0  0  0  0  0  0  0
    5.7805    3.2252  -57.4099 H   0  0  0  0  0  0  0  0  0  0  0  0
   13.5855    3.2069  -58.4749 H   0  0  0  0  0  0  0  0  0  0  0  0
   14.6841    5.0416  -59.7621 H   0  0  0  0  0  0  0  0  0  0  0  0
   13.3760    7.0554  -60.4296 H   0  0  0  0  0  0  0  0  0  0  0  0
   10.9774    7.2511  -59.7852 H   0  0  0  0  0  0  0  0  0  0  0  0
    9.8724    5.4214  -58.5008 H   0  0  0  0  0  0  0  0  0  0  0  0
   12.7089    1.7219  -57.2126 H   0  0  0  0  0  0  0  0  0  0  0  0
   10.9500    0.3930  -55.7850 H   0  0  0  0  0  0  0  0  0  0  0  0
    9.4760   -0.2660  -54.8790 H   0  0  0  0  0  0  0  0  0  0  0  0
    6.5236    0.0009  -54.5908 H   0  0  0  0  0  0  0  0  0  0  0  0
    7.2408   -1.5859  -55.1480 H   0  0  0  0  0  0  0  0  0  0  0  0
    7.6715   -0.1332  -52.6046 H   0  0  0  0  0  0  0  0  0  0  0  0
    8.5676   -4.1062  -52.5180 H   0  0  0  0  0  0  0  0  0  0  0  0
    8.8135   -3.2040  -49.8483 H   0  0  0  0  0  0  0  0  0  0  0  0
    9.9043   -4.2616  -50.8066 H   0  0  0  0  0  0  0  0  0  0  0  0
   10.1505   -2.4823  -50.8066 H   0  0  0  0  0  0  0  0  0  0  0  0
    7.0960   -2.2630  -50.6540 H   0  0  0  0  0  0  0  0  0  0  0  0
    6.1639   -4.1697  -50.0853 H   0  0  0  0  0  0  0  0  0  0  0  0
    5.2334   -3.9402  -51.6046 H   0  0  0  0  0  0  0  0  0  0  0  0
    6.7177   -4.9518  -51.6046 H   0  0  0  0  0  0  0  0  0  0  0  0
    5.6188   -1.4365  -52.3142 H   0  0  0  0  0  0  0  0  0  0  0  0
  1  2  1  0
  2  3  1  0
  3  4  1  0
  4  5  2  0
  5  6  1  0
  6  7  2  0
  7  8  1  0
  8  9  1  0
  9 10  2  0
  9 11  1  0
 11 12  1  0
 12 13  1  0
 13 14  2  0
 14 15  1  0
 15 16  2  0
 16 17  1  0
 17 18  2  0
 12 19  2  0
 19 20  1  0
 20 21  2  0
 21 22  1  0
 22 23  2  0
 22 24  1  0
 24 25  1  0
 25 26  1  0
 26 27  1  0
 27 28  2  0
 27 29  1  0
 29 30  1  0
 29 31  1  0
 31 32  1  0
 31 33  1  0
 33 34  1  0
  8 35  2  0
 35  2  1  0
 35  4  1  0
 21 11  1  0
 33 26  1  0
 18 13  1  0
  1 36  1  0
  1 37  1  0
  1 38  1  0
  2 39  1  1
  3 40  1  0
  3 41  1  0
  5 42  1  0
  6 43  1  0
  7 44  1  0
 14 45  1  0
 15 46  1  0
 16 47  1  0
 17 48  1  0
 18 49  1  0
 19 50  1  0
 20 51  1  0
 24 52  1  0
 25 53  1  0
 25 54  1  0
 26 55  1  1
 29 56  1  6
 30 57  1  0
 30 58  1  0
 30 59  1  0
 31 60  1  1
 32 61  1  0
 32 62  1  0
 32 63  1  0
 33 64  1  1
M  CHG  2  20   1  31   1
M  END
>  <meeko>  (164) 
{"is_sidechain": false}

$$$$

     RDKit          3D

 64 68  0  0  0  0  0  0  0  0999 V2000
    9.2410    3.5280  -60.9730 C   0  0  0  0  0  0  0  0  0  0  0  0
    8.3830    2.3470  -60.5670 C   0  0  2  0  0  0  0  0  0  0  0  0
    7.2330    2.0170  -61.5820 C   0  0  0  0  0  0  0  0  0  0  0  0
    6.2920    2.2710  -60.4440 C   0  0  0  0  0  0  0  0  0  0  0  0
    4.9590    2.2420  -60.1000 C   0  0  0  0  0  0  0  0  0  0  0  0
    4.6270    2.5390  -58.7790 C   0  0  0  0  0  0  0  0  0  0  0  0
    5.6320    2.8560  -57.8490 C   0  0  0  0  0  0  0  0  0  0  0  0
    6.9800    2.9140  -58.2450 C   0  0  0  0  0  0  0  0  0  0  0  0
    8.0170    3.1910  -57.2360 C   0  0  0  0  0  0  0  0  0  0  0  0
    7.9830    4.2210  -56.5750 O   0  0  0  0  0  0  0  0  0  0  0  0
    9.1640    2.3460  -56.9060 N   0  0  0  0  0  0  0  0  0  0  0  0
   10.4760    2.5030  -57.3430 C   0  0  0  0  0  0  0  0  0  0  0  0
   11.1830    3.6430  -58.1600 C   0  0  0  0  0  0  0  0  0  0  0  0
   10.5870    4.8970  -58.3040 C   0  0  0  0  0  0  0  0  0  0  0  0
   11.2300    5.8990  -59.0350 C   0  0  0  0  0  0  0  0  0  0  0  0
   12.4750    5.6570  -59.6100 C   0  0  0  0  0  0  0  0  0  0  0  0
   13.0880    4.4180  -59.4420 C   0  0  0  0  0  0  0  0  0  0  0  0
   12.4500    3.4140  -58.7120 C   0  0  0  0  0  0  0  0  0  0  0  0
   11.1230    1.4000  -56.8250 C   0  0  0  0  0  0  0  0  0  0  0  0
   10.2340    0.7260  -56.0240 N   0  0  0  0  0  0  0  0  0  0  0  0
    9.0100    1.2970  -56.0720 C   0  0  0  0  0  0  0  0  0  0  0  0
    7.8370    0.7870  -55.4400 C   0  0  0  0  0  0  0  0  0  0  0  0
    6.7760    0.5940  -56.0310 O   0  0  0  0  0  0  0  0  0  0  0  0
    7.9680    0.4980  -54.0900 N   0  0  0  0  0  0  0  0  0  0  0  0
    6.8610   -0.0350  -53.3100 C   0  0  0  0  0  0  0  0  0  0  0  0
    6.9290   -1.5100  -52.9100 C   0  0  1  0  0  0  0  0  0  0  0  0
    7.1860   -2.5320  -53.9780 C   0  0  0  0  0  0  0  0  0  0  0  0
    6.8110   -2.4250  -55.1380 O   0  0  0  0  0  0  0  0  0  0  0  0
    7.9240   -3.7360  -53.4000 C   0  0  1  0  0  0  0  0  0  0  0  0
    9.2010   -4.0580  -54.1470 C   0  0  0  0  0  0  0  0  0  0  0  0
    8.2680   -3.3180  -51.9780 N   0  0  2  0  0  0  0  0  0  0  0  0
    7.4900   -4.0440  -50.9210 C   0  0  0  0  0  0  0  0  0  0  0  0
    8.0720   -1.8260  -51.9560 C   0  0  2  0  0  0  0  0  0  0  0  0
    7.7550   -1.4470  -50.7030 F   0  0  0  0  0  0  0  0  0  0  0  0
    7.2880    2.6100  -59.5560 C   0  0  0  0  0  0  0  0  0  0  0  0
    9.6120    4.0386  -60.0721 H   0  0  0  0  0  0  0  0  0  0  0  0
   10.0936    3.1735  -61.5708 H   0  0  0  0  0  0  0  0  0  0  0  0
    8.6403    4.2293  -61.5708 H   0  0  0  0  0  0  0  0  0  0  0  0
    9.2091    1.6577  -60.3380 H   0  0  0  0  0  0  0  0  0  0  0  0
    7.1423    2.7187  -62.4243 H   0  0  0  0  0  0  0  0  0  0  0  0
    7.2124    1.0863  -62.1679 H   0  0  0  0  0  0  0  0  0  0  0  0
    4.1844    1.9936  -60.8405 H   0  0  0  0  0  0  0  0  0  0  0  0
    3.5735    2.5252  -58.4630 H   0  0  0  0  0  0  0  0  0  0  0  0
    5.3618    3.0605  -56.8025 H   0  0  0  0  0  0  0  0  0  0  0  0
    9.6093    5.0966  -57.8411 H   0  0  0  0  0  0  0  0  0  0  0  0
   10.7514    6.8819  -59.1567 H   0  0  0  0  0  0  0  0  0  0  0  0
   12.9734    6.4433  -60.1960 H   0  0  0  0  0  0  0  0  0  0  0  0
   14.0770    4.2302  -59.8855 H   0  0  0  0  0  0  0  0  0  0  0  0
   12.9430    2.4410  -58.5698 H   0  0  0  0  0  0  0  0  0  0  0  0
   12.1665    1.1114  -57.0193 H   0  0  0  0  0  0  0  0  0  0  0  0
   10.4380   -0.1330  -55.5160 H   0  0  0  0  0  0  0  0  0  0  0  0
    8.7250    0.9390  -53.5720 H   0  0  0  0  0  0  0  0  0  0  0  0
    6.7950    0.5554  -52.3842 H   0  0  0  0  0  0  0  0  0  0  0  0
    5.9876    0.0367  -53.9748 H   0  0  0  0  0  0  0  0  0  0  0  0
    5.9091   -1.5976  -52.5074 H   0  0  0  0  0  0  0  0  0  0  0  0
    7.3014   -4.6404  -53.4663 H   0  0  0  0  0  0  0  0  0  0  0  0
   10.0064   -4.2611  -53.4258 H   0  0  0  0  0  0  0  0  0  0  0  0
    9.0426   -4.9443  -54.7789 H   0  0  0  0  0  0  0  0  0  0  0  0
    9.4818   -3.2025  -54.7789 H   0  0  0  0  0  0  0  0  0  0  0  0
    9.2610   -3.4940  -51.7770 H   0  0  0  0  0  0  0  0  0  0  0  0
    7.8342   -3.7228  -49.9268 H   0  0  0  0  0  0  0  0  0  0  0  0
    6.4199   -3.8142  -51.0305 H   0  0  0  0  0  0  0  0  0  0  0  0
    7.6454   -5.1275  -51.0305 H   0  0  0  0  0  0  0  0  0  0  0  0
    8.9829   -1.2915  -52.2634 H   0  0  0  0  0  0  0  0  0  0  0  0
  1  2  1  0
  2  3  1  0
  3  4  1  0
  4  5  2  0
  5  6  1  0
  6  7  2  0
  7  8  1  0
  8  9  1  0
  9 10  2  0
  9 11  1  0
 11 12  1  0
 12 13  1  0
 13 14  2  0
 14 15  1  0
 15 16  2  0
 16 17  1  0
 17 18  2  0
 12 19  2  0
 19 20  1  0
 20 21  2  0
 21 22  1  0
 22 23  2  0
 22 24  1  0
 24 25  1  0
 25 26  1  0
 26 27  1  0
 27 28  2  0
 27 29  1  0
 29 30  1  0
 29 31  1  0
 31 32  1  0
 31 33  1  0
 33 34  1  0
  8 35  2  0
 35  2  1  0
 35  4  1  0
 21 11  1  0
 33 26  1  0
 18 13  1  0
  1 36  1  0
  1 37  1  0
  1 38  1  0
  2 39  1  1
  3 40  1  0
  3 41  1  0
  5 42  1  0
  6 43  1  0
  7 44  1  0
 14 45  1  0
 15 46  1  0
 16 47  1  0
 17 48  1  0
 18 49  1  0
 19 50  1  0
 20 51  1  0
 24 52  1  0
 25 53  1  0
 25 54  1  0
 26 55  1  1
 29 56  1  1
 30 57  1  0
 30 58  1  0
 30 59  1  0
 31 60  1  1
 32 61  1  0
 32 62  1  0
 32 63  1  0
 33 64  1  6
M  CHG  2  20   1  31   1
M  END
>  <meeko>  (165) 
{"is_sidechain": false}

$$$$

     RDKit          3D

 64 68  0  0  0  0  0  0  0  0999 V2000
    9.6580    3.8260  -61.0570 C   0  0  0  0  0  0  0  0  0  0  0  0
    8.9100    2.5260  -60.8090 C   0  0  2  0  0  0  0  0  0  0  0  0
    7.9050    2.0950  -61.9350 C   0  0  0  0  0  0  0  0  0  0  0  0
    6.8260    2.3040  -60.9150 C   0  0  0  0  0  0  0  0  0  0  0  0
    5.4640    2.2590  -60.7270 C   0  0  0  0  0  0  0  0  0  0  0  0
    4.9740    2.6060  -59.4670 C   0  0  0  0  0  0  0  0  0  0  0  0
    5.8560    2.9770  -58.4360 C   0  0  0  0  0  0  0  0  0  0  0  0
    7.2430    2.9900  -58.6560 C   0  0  0  0  0  0  0  0  0  0  0  0
    8.1610    3.3800  -57.5680 C   0  0  0  0  0  0  0  0  0  0  0  0
    8.0380    4.4410  -56.9720 O   0  0  0  0  0  0  0  0  0  0  0  0
    9.2870    2.5950  -57.0580 N   0  0  0  0  0  0  0  0  0  0  0  0
   10.6420    2.8220  -57.2500 C   0  0  0  0  0  0  0  0  0  0  0  0
   11.4190    3.8670  -58.1350 C   0  0  0  0  0  0  0  0  0  0  0  0
   12.6270    3.4950  -58.7390 C   0  0  0  0  0  0  0  0  0  0  0  0
   13.3320    4.4130  -59.5220 C   0  0  0  0  0  0  0  0  0  0  0  0
   12.8270    5.6960  -59.7170 C   0  0  0  0  0  0  0  0  0  0  0  0
   11.6130    6.0600  -59.1410 C   0  0  0  0  0  0  0  0  0  0  0  0
   10.9040    5.1460  -58.3580 C   0  0  0  0  0  0  0  0  0  0  0  0
   11.2430    1.8270  -56.5050 C   0  0  0  0  0  0  0  0  0  0  0  0
   10.2540    1.0000  -56.0250 N   0  0  0  0  0  0  0  0  0  0  0  0
    9.0330    1.4890  -56.3320 C   0  0  0  0  0  0  0  0  0  0  0  0
    7.7840    0.9780  -55.8780 C   0  0  0  0  0  0  0  0  0  0  0  0
    6.7390    1.5850  -56.0760 O   0  0  0  0  0  0  0  0  0  0  0  0
    7.8420   -0.2280  -55.1750 N   0  0  0  0  0  0  0  0  0  0  0  0
    6.5990   -0.9680  -54.9760 C   0  0  0  0  0  0  0  0  0  0  0  0
    6.6350   -1.8780  -53.7580 C   0  0  2  0  0  0  0  0  0  0  0  0
    7.3190   -1.2390  -52.5840 C   0  0  0  0  0  0  0  0  0  0  0  0
    7.1070   -0.0830  -52.2380 O   0  0  0  0  0  0  0  0  0  0  0  0
    8.2520   -2.2240  -51.8900 C   0  0  1  0  0  0  0  0  0  0  0  0
    8.0460   -2.2930  -50.3930 C   0  0  0  0  0  0  0  0  0  0  0  0
    7.9860   -3.5410  -52.6060 N   0  0  1  0  0  0  0  0  0  0  0  0
    7.0810   -4.5410  -51.9590 C   0  0  0  0  0  0  0  0  0  0  0  0
    7.5190   -3.1010  -53.9600 C   0  0  2  0  0  0  0  0  0  0  0  0
    8.6490   -2.7550  -54.6140 F   0  0  0  0  0  0  0  0  0  0  0  0
    7.7010    2.6620  -59.9150 C   0  0  0  0  0  0  0  0  0  0  0  0
    9.9228    4.2862  -60.0936 H   0  0  0  0  0  0  0  0  0  0  0  0
   10.5747    3.6183  -61.6284 H   0  0  0  0  0  0  0  0  0  0  0  0
    9.0177    4.5142  -61.6284 H   0  0  0  0  0  0  0  0  0  0  0  0
    9.7819    1.9099  -60.5441 H   0  0  0  0  0  0  0  0  0  0  0  0
    7.8614    2.7716  -62.8012 H   0  0  0  0  0  0  0  0  0  0  0  0
    8.0139    1.1535  -62.4933 H   0  0  0  0  0  0  0  0  0  0  0  0
    4.7858    1.9604  -61.5400 H   0  0  0  0  0  0  0  0  0  0  0  0
    3.8903    2.5892  -59.2789 H   0  0  0  0  0  0  0  0  0  0  0  0
    5.4566    3.2589  -57.4506 H   0  0  0  0  0  0  0  0  0  0  0  0
   13.0215    2.4781  -58.5966 H   0  0  0  0  0  0  0  0  0  0  0  0
   14.2866    4.1219  -59.9847 H   0  0  0  0  0  0  0  0  0  0  0  0
   13.3869    6.4213  -60.3257 H   0  0  0  0  0  0  0  0  0  0  0  0
   11.2107    7.0709  -59.3030 H   0  0  0  0  0  0  0  0  0  0  0  0
    9.9386    5.4340  -57.9163 H   0  0  0  0  0  0  0  0  0  0  0  0
   12.3227    1.7152  -56.3266 H   0  0  0  0  0  0  0  0  0  0  0  0
   10.4020    0.1790  -55.4430 H   0  0  0  0  0  0  0  0  0  0  0  0
    8.6800   -0.7950  -55.3170 H   0  0  0  0  0  0  0  0  0  0  0  0
    5.7784   -0.2465  -54.8498 H   0  0  0  0  0  0  0  0  0  0  0  0
    6.4530   -1.6075  -55.8590 H   0  0  0  0  0  0  0  0  0  0  0  0
    5.5716   -2.1098  -53.5987 H   0  0  0  0  0  0  0  0  0  0  0  0
    9.3072   -1.9219  -51.9631 H   0  0  0  0  0  0  0  0  0  0  0  0
    8.9693   -1.9838  -49.8812 H   0  0  0  0  0  0  0  0  0  0  0  0
    7.2242   -1.6211  -50.1046 H   0  0  0  0  0  0  0  0  0  0  0  0
    7.7947   -3.3244  -50.1046 H   0  0  0  0  0  0  0  0  0  0  0  0
    8.8930   -4.0030  -52.7680 H   0  0  0  0  0  0  0  0  0  0  0  0
    7.1602   -4.4535  -50.8653 H   0  0  0  0  0  0  0  0  0  0  0  0
    6.0427   -4.3497  -52.2679 H   0  0  0  0  0  0  0  0  0  0  0  0
    7.3746   -5.5551  -52.2679 H   0  0  0  0  0  0  0  0  0  0  0  0
    6.9522   -3.8657  -54.5113 H   0  0  0  0  0  0  0  0  0  0  0  0
  1  2  1  0
  2  3  1  0
  3  4  1  0
  4  5  2  0
  5  6  1  0
  6  7  2  0
  7  8  1  0
  8  9  1  0
  9 10  2  0
  9 11  1  0
 11 12  1  0
 12 13  1  0
 13 14  2  0
 14 15  1  0
 15 16  2  0
 16 17  1  0
 17 18  2  0
 12 19  2  0
 19 20  1  0
 20 21  2  0
 21 22  1  0
 22 23  2  0
 22 24  1  0
 24 25  1  0
 25 26  1  0
 26 27  1  0
 27 28  2  0
 27 29  1  0
 29 30  1  0
 29 31  1  0
 31 32  1  0
 31 33  1  0
 33 34  1  0
  8 35  2  0
 35  2  1  0
 35  4  1  0
 21 11  1  0
 33 26  1  0
 18 13  1  0
  1 36  1  0
  1 37  1  0
  1 38  1  0
  2 39  1  1
  3 40  1  0
  3 41  1  0
  5 42  1  0
  6 43  1  0
  7 44  1  0
 14 45  1  0
 15 46  1  0
 16 47  1  0
 17 48  1  0
 18 49  1  0
 19 50  1  0
 20 51  1  0
 24 52  1  0
 25 53  1  0
 25 54  1  0
 26 55  1  1
 29 56  1  1
 30 57  1  0
 30 58  1  0
 30 59  1  0
 31 60  1  6
 32 61  1  0
 32 62  1  0
 32 63  1  0
 33 64  1  6
M  CHG  2  20   1  31   1
M  END
>  <meeko>  (166) 
{"is_sidechain": false}

$$$$

     RDKit          3D

 64 68  0  0  0  0  0  0  0  0999 V2000
    9.6410    3.7130  -61.1010 C   0  0  0  0  0  0  0  0  0  0  0  0
    8.7970    2.4920  -60.8000 C   0  0  2  0  0  0  0  0  0  0  0  0
    7.7380    2.1630  -61.9110 C   0  0  0  0  0  0  0  0  0  0  0  0
    6.7060    2.3440  -60.8400 C   0  0  0  0  0  0  0  0  0  0  0  0
    5.3520    2.2580  -60.6010 C   0  0  0  0  0  0  0  0  0  0  0  0
    4.9130    2.4900  -59.2980 C   0  0  0  0  0  0  0  0  0  0  0  0
    5.8340    2.8020  -58.2840 C   0  0  0  0  0  0  0  0  0  0  0  0
    7.2050    2.9220  -58.5730 C   0  0  0  0  0  0  0  0  0  0  0  0
    8.1490    3.1950  -57.4760 C   0  0  0  0  0  0  0  0  0  0  0  0
    8.0250    4.1870  -56.7710 O   0  0  0  0  0  0  0  0  0  0  0  0
    9.3070    2.3880  -57.0910 N   0  0  0  0  0  0  0  0  0  0  0  0
   10.6390    2.5950  -57.4340 C   0  0  0  0  0  0  0  0  0  0  0  0
   11.3580    3.7520  -58.2170 C   0  0  0  0  0  0  0  0  0  0  0  0
   10.7730    5.0130  -58.3340 C   0  0  0  0  0  0  0  0  0  0  0  0
   11.4280    6.0290  -59.0350 C   0  0  0  0  0  0  0  0  0  0  0  0
   12.6760    5.7930  -59.6060 C   0  0  0  0  0  0  0  0  0  0  0  0
   13.2790    4.5460  -59.4650 C   0  0  0  0  0  0  0  0  0  0  0  0
   12.6290    3.5290  -58.7650 C   0  0  0  0  0  0  0  0  0  0  0  0
   11.2910    1.5280  -56.8490 C   0  0  0  0  0  0  0  0  0  0  0  0
   10.3740    0.8290  -56.0980 N   0  0  0  0  0  0  0  0  0  0  0  0
    9.1360    1.3440  -56.2550 C   0  0  0  0  0  0  0  0  0  0  0  0
    7.9320    0.8110  -55.7070 C   0  0  0  0  0  0  0  0  0  0  0  0
    6.8810    0.7640  -56.3430 O   0  0  0  0  0  0  0  0  0  0  0  0
    8.0250    0.3130  -54.4110 N   0  0  0  0  0  0  0  0  0  0  0  0
    6.8120    0.0900  -53.6270 C   0  0  0  0  0  0  0  0  0  0  0  0
    6.7490   -1.2510  -52.9000 C   0  0  1  0  0  0  0  0  0  0  0  0
    6.9930   -2.3910  -53.8510 C   0  0  0  0  0  0  0  0  0  0  0  0
    6.5500   -2.4320  -54.9880 O   0  0  0  0  0  0  0  0  0  0  0  0
    7.8380   -3.4850  -53.2100 C   0  0  1  0  0  0  0  0  0  0  0  0
    9.1320   -3.6650  -53.9860 C   0  0  0  0  0  0  0  0  0  0  0  0
    8.0590   -2.9690  -51.8060 N   0  0  1  0  0  0  0  0  0  0  0  0
    9.2920   -3.3800  -51.0740 C   0  0  0  0  0  0  0  0  0  0  0  0
    7.8570   -1.4890  -51.8840 C   0  0  2  0  0  0  0  0  0  0  0  0
    7.4410   -1.1090  -50.6580 F   0  0  0  0  0  0  0  0  0  0  0  0
    7.6210    2.6800  -59.8670 C   0  0  0  0  0  0  0  0  0  0  0  0
    9.9625    4.1782  -60.1575 H   0  0  0  0  0  0  0  0  0  0  0  0
   10.5256    3.4131  -61.6821 H   0  0  0  0  0  0  0  0  0  0  0  0
    9.0479    4.4345  -61.6821 H   0  0  0  0  0  0  0  0  0  0  0  0
    9.6275    1.8228  -60.5310 H   0  0  0  0  0  0  0  0  0  0  0  0
    7.6863    2.8922  -62.7329 H   0  0  0  0  0  0  0  0  0  0  0  0
    7.7940    1.2545  -62.5287 H   0  0  0  0  0  0  0  0  0  0  0  0
    4.6442    2.0156  -61.4073 H   0  0  0  0  0  0  0  0  0  0  0  0
    3.8402    2.4284  -59.0629 H   0  0  0  0  0  0  0  0  0  0  0  0
    5.4792    2.9539  -57.2539 H   0  0  0  0  0  0  0  0  0  0  0  0
    9.7934    5.2081  -57.8732 H   0  0  0  0  0  0  0  0  0  0  0  0
   10.9566    7.0177  -59.1360 H   0  0  0  0  0  0  0  0  0  0  0  0
   13.1846    6.5905  -60.1675 H   0  0  0  0  0  0  0  0  0  0  0  0
   14.2697    4.3622  -59.9063 H   0  0  0  0  0  0  0  0  0  0  0  0
   13.1150    2.5498  -58.6428 H   0  0  0  0  0  0  0  0  0  0  0  0
   12.3566    1.2801  -56.9632 H   0  0  0  0  0  0  0  0  0  0  0  0
   10.5810   -0.0040  -55.5520 H   0  0  0  0  0  0  0  0  0  0  0  0
    8.8470    0.5780  -53.8710 H   0  0  0  0  0  0  0  0  0  0  0  0
    6.7406    0.8893  -52.8747 H   0  0  0  0  0  0  0  0  0  0  0  0
    5.9787    0.0890  -54.3450 H   0  0  0  0  0  0  0  0  0  0  0  0
    5.7553   -1.2129  -52.4298 H   0  0  0  0  0  0  0  0  0  0  0  0
    7.3692   -4.4801  -53.2070 H   0  0  0  0  0  0  0  0  0  0  0  0
    9.9688   -3.7814  -53.2816 H   0  0  0  0  0  0  0  0  0  0  0  0
    9.0582   -4.5615  -54.6191 H   0  0  0  0  0  0  0  0  0  0  0  0
    9.3057   -2.7824  -54.6191 H   0  0  0  0  0  0  0  0  0  0  0  0
    7.2780   -3.3000  -51.2240 H   0  0  0  0  0  0  0  0  0  0  0  0
    9.1123   -3.3201  -49.9904 H   0  0  0  0  0  0  0  0  0  0  0  0
    9.5525   -4.4136  -51.3459 H   0  0  0  0  0  0  0  0  0  0  0  0
   10.1205   -2.7094  -51.3459 H   0  0  0  0  0  0  0  0  0  0  0  0
    8.7611   -0.9358  -52.1782 H   0  0  0  0  0  0  0  0  0  0  0  0
  1  2  1  0
  2  3  1  0
  3  4  1  0
  4  5  2  0
  5  6  1  0
  6  7  2  0
  7  8  1  0
  8  9  1  0
  9 10  2  0
  9 11  1  0
 11 12  1  0
 12 13  1  0
 13 14  2  0
 14 15  1  0
 15 16  2  0
 16 17  1  0
 17 18  2  0
 12 19  2  0
 19 20  1  0
 20 21  2  0
 21 22  1  0
 22 23  2  0
 22 24  1  0
 24 25  1  0
 25 26  1  0
 26 27  1  0
 27 28  2  0
 27 29  1  0
 29 30  1  0
 29 31  1  0
 31 32  1  0
 31 33  1  0
 33 34  1  0
  8 35  2  0
 35  2  1  0
 35  4  1  0
 21 11  1  0
 33 26  1  0
 18 13  1  0
  1 36  1  0
  1 37  1  0
  1 38  1  0
  2 39  1  1
  3 40  1  0
  3 41  1  0
  5 42  1  0
  6 43  1  0
  7 44  1  0
 14 45  1  0
 15 46  1  0
 16 47  1  0
 17 48  1  0
 18 49  1  0
 19 50  1  0
 20 51  1  0
 24 52  1  0
 25 53  1  0
 25 54  1  0
 26 55  1  1
 29 56  1  1
 30 57  1  0
 30 58  1  0
 30 59  1  0
 31 60  1  1
 32 61  1  0
 32 62  1  0
 32 63  1  0
 33 64  1  6
M  CHG  2  20   1  31   1
M  END
>  <meeko>  (167) 
{"is_sidechain": false}

$$$$

     RDKit          3D

 63 68  0  0  0  0  0  0  0  0999 V2000
    6.2680    0.0360  -53.9690 C   0  0  0  0  0  0  0  0  0  0  0  0
    7.6670   -0.3250  -54.3210 C   0  0  0  0  0  0  0  0  0  0  0  0
    8.5140    0.2950  -55.2960 C   0  0  0  0  0  0  0  0  0  0  0  0
    8.2250    1.4700  -56.1440 C   0  0  0  0  0  0  0  0  0  0  0  0
    7.1050    1.9610  -56.2450 O   0  0  0  0  0  0  0  0  0  0  0  0
    9.3310    1.9400  -56.8350 N   0  0  0  0  0  0  0  0  0  0  0  0
    9.2980    3.0170  -57.8270 C   0  0  2  0  0  0  0  0  0  0  0  0
    8.2240    2.7620  -58.9120 C   0  0  0  0  0  0  0  0  0  0  0  0
    8.2520    3.8770  -59.9730 C   0  0  1  0  0  0  0  0  0  0  0  0
    7.9880    5.2310  -59.2920 C   0  0  0  0  0  0  0  0  0  0  0  0
    9.0720    5.5130  -58.2370 C   0  0  2  0  0  0  0  0  0  0  0  0
   10.4490    5.5350  -58.9180 C   0  0  0  0  0  0  0  0  0  0  0  0
   10.7210    4.1810  -59.5900 C   0  0  2  0  0  0  0  0  0  0  0  0
    9.6340    3.9070  -60.6420 C   0  0  0  0  0  0  0  0  0  0  0  0
   10.6840    3.0730  -58.5260 C   0  0  0  0  0  0  0  0  0  0  0  0
    9.0460    4.4010  -57.1740 C   0  0  0  0  0  0  0  0  0  0  0  0
    9.6970   -0.3350  -55.3720 N   0  0  0  0  0  0  0  0  0  0  0  0
    9.6280   -1.3140  -54.4480 N   0  0  0  0  0  0  0  0  0  0  0  0
   10.7690   -2.2120  -54.2860 C   0  0  0  0  0  0  0  0  0  0  0  0
   11.0290   -3.0320  -55.5270 C   0  0  0  0  0  0  0  0  0  0  0  0
   10.6110   -4.3690  -55.6000 C   0  0  0  0  0  0  0  0  0  0  0  0
   10.8560   -5.1280  -56.7460 C   0  0  0  0  0  0  0  0  0  0  0  0
   11.5230   -4.5590  -57.8290 C   0  0  0  0  0  0  0  0  0  0  0  0
   11.9480   -3.2330  -57.7670 C   0  0  0  0  0  0  0  0  0  0  0  0
   11.7050   -2.4740  -56.6220 C   0  0  0  0  0  0  0  0  0  0  0  0
    8.4220   -1.3600  -53.7890 C   0  0  0  0  0  0  0  0  0  0  0  0
    8.0850   -2.3340  -52.7600 C   0  0  0  0  0  0  0  0  0  0  0  0
    8.1950   -1.9930  -51.4080 C   0  0  0  0  0  0  0  0  0  0  0  0
    7.8760   -2.9280  -50.4210 C   0  0  0  0  0  0  0  0  0  0  0  0
    7.4400   -4.2020  -50.7810 C   0  0  0  0  0  0  0  0  0  0  0  0
    7.3200   -4.5440  -52.1280 C   0  0  0  0  0  0  0  0  0  0  0  0
    7.6390   -3.6120  -53.1170 C   0  0  0  0  0  0  0  0  0  0  0  0
    6.1608    0.0637  -52.8746 H   0  0  0  0  0  0  0  0  0  0  0  0
    6.0286    1.0253  -54.3860 H   0  0  0  0  0  0  0  0  0  0  0  0
    5.5798   -0.7140  -54.3860 H   0  0  0  0  0  0  0  0  0  0  0  0
   10.1170    1.3040  -56.8720 H   0  0  0  0  0  0  0  0  0  0  0  0
    8.4230    1.7953  -59.3978 H   0  0  0  0  0  0  0  0  0  0  0  0
    7.2329    2.7506  -58.4349 H   0  0  0  0  0  0  0  0  0  0  0  0
    7.4785    3.6860  -60.7314 H   0  0  0  0  0  0  0  0  0  0  0  0
    8.0019    6.0282  -60.0499 H   0  0  0  0  0  0  0  0  0  0  0  0
    7.0052    5.2002  -58.7988 H   0  0  0  0  0  0  0  0  0  0  0  0
    8.8813    6.4854  -57.7594 H   0  0  0  0  0  0  0  0  0  0  0  0
   10.4674    6.3298  -59.6782 H   0  0  0  0  0  0  0  0  0  0  0  0
   11.2243    5.7263  -58.1615 H   0  0  0  0  0  0  0  0  0  0  0  0
   11.7084    4.2003  -60.0745 H   0  0  0  0  0  0  0  0  0  0  0  0
    9.6538    4.7020  -61.4019 H   0  0  0  0  0  0  0  0  0  0  0  0
    9.8272    2.9333  -61.1160 H   0  0  0  0  0  0  0  0  0  0  0  0
   10.8828    2.1046  -59.0084 H   0  0  0  0  0  0  0  0  0  0  0  0
   11.4501    3.2907  -57.7672 H   0  0  0  0  0  0  0  0  0  0  0  0
    9.8293    4.5964  -56.4269 H   0  0  0  0  0  0  0  0  0  0  0  0
    8.0565    4.3921  -56.6937 H   0  0  0  0  0  0  0  0  0  0  0  0
   11.6637   -1.6118  -54.0639 H   0  0  0  0  0  0  0  0  0  0  0  0
   10.5390   -2.9061  -53.4642 H   0  0  0  0  0  0  0  0  0  0  0  0
   10.0857   -4.8234  -54.7470 H   0  0  0  0  0  0  0  0  0  0  0  0
   10.5225   -6.1751  -56.7939 H   0  0  0  0  0  0  0  0  0  0  0  0
   11.7141   -5.1562  -58.7328 H   0  0  0  0  0  0  0  0  0  0  0  0
   12.4755   -2.7846  -58.6218 H   0  0  0  0  0  0  0  0  0  0  0  0
   12.0464   -1.4293  -56.5775 H   0  0  0  0  0  0  0  0  0  0  0  0
    8.5335   -0.9863  -51.1216 H   0  0  0  0  0  0  0  0  0  0  0  0
    7.9689   -2.6588  -49.3585 H   0  0  0  0  0  0  0  0  0  0  0  0
    7.1904   -4.9380  -50.0026 H   0  0  0  0  0  0  0  0  0  0  0  0
    6.9737   -5.5490  -52.4111 H   0  0  0  0  0  0  0  0  0  0  0  0
    7.5398   -3.8822  -54.1787 H   0  0  0  0  0  0  0  0  0  0  0  0
  1  2  1  0
  2  3  1  0
  3  4  1  0
  4  5  2  0
  4  6  1  0
  7  6  1  1
  7  8  1  0
  8  9  1  0
  9 10  1  0
 10 11  1  0
 11 12  1  0
 12 13  1  0
 13 14  1  0
 13 15  1  0
 11 16  1  0
  3 17  2  0
 17 18  1  0
 18 19  1  0
 19 20  1  0
 20 21  2  0
 21 22  1  0
 22 23  2  0
 23 24  1  0
 24 25  2  0
 18 26  1  0
 26 27  1  0
 27 28  2  0
 28 29  1  0
 29 30  2  0
 30 31  1  0
 31 32  2  0
 26  2  2  0
 32 27  1  0
 15  7  1  0
 25 20  1  0
 16  7  1  0
 14  9  1  0
  1 33  1  0
  1 34  1  0
  1 35  1  0
  6 36  1  0
  8 37  1  0
  8 38  1  0
  9 39  1  6
 10 40  1  0
 10 41  1  0
 11 42  1  1
 12 43  1  0
 12 44  1  0
 13 45  1  6
 14 46  1  0
 14 47  1  0
 15 48  1  0
 15 49  1  0
 16 50  1  0
 16 51  1  0
 19 52  1  0
 19 53  1  0
 21 54  1  0
 22 55  1  0
 23 56  1  0
 24 57  1  0
 25 58  1  0
 28 59  1  0
 29 60  1  0
 30 61  1  0
 31 62  1  0
 32 63  1  0
M  END
>  <meeko>  (168) 
{"is_sidechain": false}

$$$$

     RDKit          3D

 60 65  0  0  0  0  0  0  0  0999 V2000
    8.0640    0.6520  -53.4400 C   0  0  0  0  0  0  0  0  0  0  0  0
    8.9570   -0.1530  -54.3160 C   0  0  0  0  0  0  0  0  0  0  0  0
    9.5850    0.2920  -55.5070 C   0  0  0  0  0  0  0  0  0  0  0  0
    9.5250    1.6350  -56.1200 C   0  0  0  0  0  0  0  0  0  0  0  0
    9.7040    2.6680  -55.4840 O   0  0  0  0  0  0  0  0  0  0  0  0
    9.2540    1.5880  -57.4700 N   0  0  0  0  0  0  0  0  0  0  0  0
    9.1430    2.7320  -58.3690 C   0  0  2  0  0  0  0  0  0  0  0  0
    7.8330    3.5220  -58.1290 C   0  0  0  0  0  0  0  0  0  0  0  0
    7.7180    4.6930  -59.1210 C   0  0  1  0  0  0  0  0  0  0  0  0
    8.9250    5.6290  -58.9420 C   0  0  0  0  0  0  0  0  0  0  0  0
   10.2320    4.8640  -59.2130 C   0  0  2  0  0  0  0  0  0  0  0  0
   10.2100    4.3150  -60.6470 C   0  0  0  0  0  0  0  0  0  0  0  0
    9.0090    3.3720  -60.8290 C   0  0  2  0  0  0  0  0  0  0  0  0
    7.7100    4.1450  -60.5570 C   0  0  0  0  0  0  0  0  0  0  0  0
    9.1250    2.2090  -59.8300 C   0  0  0  0  0  0  0  0  0  0  0  0
   10.3480    3.6930  -58.2210 C   0  0  0  0  0  0  0  0  0  0  0  0
   10.2790   -0.6990  -56.0910 N   0  0  0  0  0  0  0  0  0  0  0  0
   10.1800   -1.7680  -55.2500 N   0  0  0  0  0  0  0  0  0  0  0  0
   10.9340   -2.9460  -55.5680 C   0  0  0  0  0  0  0  0  0  0  0  0
   11.1440   -3.2710  -56.9230 C   0  0  0  0  0  0  0  0  0  0  0  0
   11.8720   -4.4080  -57.2840 C   0  0  0  0  0  0  0  0  0  0  0  0
   12.4100   -5.2310  -56.3010 C   0  0  0  0  0  0  0  0  0  0  0  0
   12.2260   -4.9130  -54.9580 C   0  0  0  0  0  0  0  0  0  0  0  0
   11.4970   -3.7760  -54.5910 C   0  0  0  0  0  0  0  0  0  0  0  0
    9.3250   -1.4880  -54.1820 C   0  0  0  0  0  0  0  0  0  0  0  0
    8.8470   -2.4340  -53.1760 C   0  0  0  0  0  0  0  0  0  0  0  0
    9.3950   -2.4300  -51.8870 C   0  0  0  0  0  0  0  0  0  0  0  0
    8.9270   -3.3230  -50.9210 C   0  0  0  0  0  0  0  0  0  0  0  0
    7.9060   -4.2170  -51.2340 C   0  0  0  0  0  0  0  0  0  0  0  0
    7.3450   -4.2180  -52.5110 C   0  0  0  0  0  0  0  0  0  0  0  0
    7.8110   -3.3270  -53.4790 C   0  0  0  0  0  0  0  0  0  0  0  0
    8.2975    0.4415  -52.3859 H   0  0  0  0  0  0  0  0  0  0  0  0
    8.2184    1.7220  -53.6432 H   0  0  0  0  0  0  0  0  0  0  0  0
    7.0157    0.3878  -53.6432 H   0  0  0  0  0  0  0  0  0  0  0  0
    9.1470    0.6440  -57.8340 H   0  0  0  0  0  0  0  0  0  0  0  0
    6.9743    2.8479  -58.2641 H   0  0  0  0  0  0  0  0  0  0  0  0
    7.8434    3.9239  -57.1051 H   0  0  0  0  0  0  0  0  0  0  0  0
    6.7869    5.2474  -58.9321 H   0  0  0  0  0  0  0  0  0  0  0  0
    8.8420    6.4688  -59.6476 H   0  0  0  0  0  0  0  0  0  0  0  0
    8.9369    6.0076  -57.9093 H   0  0  0  0  0  0  0  0  0  0  0  0
   11.0907    5.5404  -59.0898 H   0  0  0  0  0  0  0  0  0  0  0  0
   10.1274    5.1516  -61.3564 H   0  0  0  0  0  0  0  0  0  0  0  0
   11.1394    3.7576  -60.8353 H   0  0  0  0  0  0  0  0  0  0  0  0
    8.9974    2.9804  -61.8569 H   0  0  0  0  0  0  0  0  0  0  0  0
    7.6283    4.9818  -61.2662 H   0  0  0  0  0  0  0  0  0  0  0  0
    6.8526    3.4672  -60.6811 H   0  0  0  0  0  0  0  0  0  0  0  0
    8.2653    1.5353  -59.9605 H   0  0  0  0  0  0  0  0  0  0  0  0
   10.0663    1.6735  -60.0226 H   0  0  0  0  0  0  0  0  0  0  0  0
   11.2778    3.1404  -58.4212 H   0  0  0  0  0  0  0  0  0  0  0  0
   10.3572    4.0951  -57.1972 H   0  0  0  0  0  0  0  0  0  0  0  0
   10.7292   -2.6208  -57.7074 H   0  0  0  0  0  0  0  0  0  0  0  0
   12.0194   -4.6519  -58.3464 H   0  0  0  0  0  0  0  0  0  0  0  0
   12.9785   -6.1294  -56.5831 H   0  0  0  0  0  0  0  0  0  0  0  0
   12.6567   -5.5601  -54.1797 H   0  0  0  0  0  0  0  0  0  0  0  0
   11.3653   -3.5325  -53.5264 H   0  0  0  0  0  0  0  0  0  0  0  0
   10.1971   -1.7207  -51.6348 H   0  0  0  0  0  0  0  0  0  0  0  0
    9.3651   -3.3204  -49.9120 H   0  0  0  0  0  0  0  0  0  0  0  0
    7.5416   -4.9231  -50.4733 H   0  0  0  0  0  0  0  0  0  0  0  0
    6.5351   -4.9212  -52.7553 H   0  0  0  0  0  0  0  0  0  0  0  0
    7.3631   -3.3260  -54.4837 H   0  0  0  0  0  0  0  0  0  0  0  0
  1  2  1  0
  2  3  1  0
  3  4  1  0
  4  5  2  0
  4  6  1  0
  7  6  1  1
  7  8  1  0
  8  9  1  0
  9 10  1  0
 10 11  1  0
 11 12  1  0
 12 13  1  0
 13 14  1  0
 13 15  1  0
 11 16  1  0
  3 17  2  0
 17 18  1  0
 18 19  1  0
 19 20  2  0
 20 21  1  0
 21 22  2  0
 22 23  1  0
 23 24  2  0
 18 25  1  0
 25 26  1  0
 26 27  2  0
 27 28  1  0
 28 29  2  0
 29 30  1  0
 30 31  2  0
 25  2  2  0
 31 26  1  0
 15  7  1  0
 24 19  1  0
 16  7  1  0
 14  9  1  0
  1 32  1  0
  1 33  1  0
  1 34  1  0
  6 35  1  0
  8 36  1  0
  8 37  1  0
  9 38  1  1
 10 39  1  0
 10 40  1  0
 11 41  1  6
 12 42  1  0
 12 43  1  0
 13 44  1  6
 14 45  1  0
 14 46  1  0
 15 47  1  0
 15 48  1  0
 16 49  1  0
 16 50  1  0
 20 51  1  0
 21 52  1  0
 22 53  1  0
 23 54  1  0
 24 55  1  0
 27 56  1  0
 28 57  1  0
 29 58  1  0
 30 59  1  0
 31 60  1  0
M  END
>  <meeko>  (169) 
{"is_sidechain": false}

$$$$

     RDKit          3D

 62 66  0  0  0  0  0  0  0  0999 V2000
    5.9810   -0.1060  -53.8750 C   0  0  0  0  0  0  0  0  0  0  0  0
    7.4110   -0.4110  -54.1410 C   0  0  0  0  0  0  0  0  0  0  0  0
    8.2780    0.2230  -55.0910 C   0  0  0  0  0  0  0  0  0  0  0  0
    7.9530    1.2940  -56.0560 C   0  0  0  0  0  0  0  0  0  0  0  0
    6.8300    1.7760  -56.1640 O   0  0  0  0  0  0  0  0  0  0  0  0
    9.0420    1.7160  -56.8000 N   0  0  0  0  0  0  0  0  0  0  0  0
    9.0210    2.8370  -57.7440 C   0  0  2  0  0  0  0  0  0  0  0  0
    8.8600    4.1940  -57.0170 C   0  0  0  0  0  0  0  0  0  0  0  0
    8.9010    5.3560  -58.0250 C   0  0  1  0  0  0  0  0  0  0  0  0
   10.2530    5.3440  -58.7580 C   0  0  0  0  0  0  0  0  0  0  0  0
   10.4320    4.0160  -59.5090 C   0  0  2  0  0  0  0  0  0  0  0  0
    9.2940    3.8500  -60.5280 C   0  0  0  0  0  0  0  0  0  0  0  0
    7.9390    3.8510  -59.8060 C   0  0  2  0  0  0  0  0  0  0  0  0
    7.7680    5.1790  -59.0490 C   0  0  0  0  0  0  0  0  0  0  0  0
    7.8970    2.6870  -58.8000 C   0  0  0  0  0  0  0  0  0  0  0  0
   10.3780    2.8570  -58.5010 C   0  0  0  0  0  0  0  0  0  0  0  0
    9.5140   -0.2980  -55.0300 N   0  0  0  0  0  0  0  0  0  0  0  0
    9.4520   -1.2230  -54.0570 N   0  0  0  0  0  0  0  0  0  0  0  0
   10.6590   -1.9610  -53.7210 C   0  0  0  0  0  0  0  0  0  0  0  0
   11.0960   -2.9650  -54.8010 C   0  0  0  0  0  0  0  0  0  0  0  0
   11.4350   -2.2760  -56.1250 C   0  0  0  0  0  0  0  0  0  0  0  0
    9.9900   -3.9980  -55.0220 C   0  0  0  0  0  0  0  0  0  0  0  0
    8.1990   -1.3650  -53.5120 C   0  0  0  0  0  0  0  0  0  0  0  0
    7.8600   -2.3180  -52.4630 C   0  0  0  0  0  0  0  0  0  0  0  0
    8.0860   -1.9960  -51.1190 C   0  0  0  0  0  0  0  0  0  0  0  0
    7.7630   -2.9090  -50.1140 C   0  0  0  0  0  0  0  0  0  0  0  0
    7.2070   -4.1440  -50.4460 C   0  0  0  0  0  0  0  0  0  0  0  0
    6.9720   -4.4660  -51.7810 C   0  0  0  0  0  0  0  0  0  0  0  0
    7.2940   -3.5550  -52.7880 C   0  0  0  0  0  0  0  0  0  0  0  0
    5.8097   -0.0695  -52.7890 H   0  0  0  0  0  0  0  0  0  0  0  0
    5.7248    0.8670  -54.3195 H   0  0  0  0  0  0  0  0  0  0  0  0
    5.3501   -0.8898  -54.3195 H   0  0  0  0  0  0  0  0  0  0  0  0
    9.9440    1.4350  -56.4400 H   0  0  0  0  0  0  0  0  0  0  0  0
    7.8959    4.2084  -56.4875 H   0  0  0  0  0  0  0  0  0  0  0  0
    9.6879    4.3144  -56.3028 H   0  0  0  0  0  0  0  0  0  0  0  0
    8.7754    6.3114  -57.4944 H   0  0  0  0  0  0  0  0  0  0  0  0
   10.2850    6.1761  -59.4768 H   0  0  0  0  0  0  0  0  0  0  0  0
   11.0634    5.4548  -58.0225 H   0  0  0  0  0  0  0  0  0  0  0  0
   11.4000    4.0134  -60.0314 H   0  0  0  0  0  0  0  0  0  0  0  0
    9.3244    4.6820  -61.2469 H   0  0  0  0  0  0  0  0  0  0  0  0
    9.4202    2.8944  -61.0581 H   0  0  0  0  0  0  0  0  0  0  0  0
    7.1291    3.7352  -60.5413 H   0  0  0  0  0  0  0  0  0  0  0  0
    7.7934    6.0122  -59.7667 H   0  0  0  0  0  0  0  0  0  0  0  0
    6.8039    5.1688  -58.5195 H   0  0  0  0  0  0  0  0  0  0  0  0
    6.9216    2.6838  -58.2916 H   0  0  0  0  0  0  0  0  0  0  0  0
    8.0459    1.7428  -59.3443 H   0  0  0  0  0  0  0  0  0  0  0  0
   10.5029    1.9061  -59.0398 H   0  0  0  0  0  0  0  0  0  0  0  0
   11.1857    2.9943  -57.7670 H   0  0  0  0  0  0  0  0  0  0  0  0
   11.4751   -1.2394  -53.5683 H   0  0  0  0  0  0  0  0  0  0  0  0
   10.4356   -2.5434  -52.8150 H   0  0  0  0  0  0  0  0  0  0  0  0
   12.0098   -3.4622  -54.4436 H   0  0  0  0  0  0  0  0  0  0  0  0
   11.9123   -1.3060  -55.9219 H   0  0  0  0  0  0  0  0  0  0  0  0
   12.1241   -2.9099  -56.7023 H   0  0  0  0  0  0  0  0  0  0  0  0
   10.5123   -2.1169  -56.7023 H   0  0  0  0  0  0  0  0  0  0  0  0
    9.6153   -4.3479  -54.0488 H   0  0  0  0  0  0  0  0  0  0  0  0
    9.1666   -3.5381  -55.5881 H   0  0  0  0  0  0  0  0  0  0  0  0
   10.3927   -4.8509  -55.5881 H   0  0  0  0  0  0  0  0  0  0  0  0
    8.5195   -1.0202  -50.8545 H   0  0  0  0  0  0  0  0  0  0  0  0
    7.9470   -2.6543  -49.0598 H   0  0  0  0  0  0  0  0  0  0  0  0
    6.9539   -4.8640  -49.6538 H   0  0  0  0  0  0  0  0  0  0  0  0
    6.5320   -5.4399  -52.0417 H   0  0  0  0  0  0  0  0  0  0  0  0
    7.1021   -3.8106  -53.8405 H   0  0  0  0  0  0  0  0  0  0  0  0
  1  2  1  0
  2  3  1  0
  3  4  1  0
  4  5  2  0
  4  6  1  0
  7  6  1  1
  7  8  1  0
  8  9  1  0
  9 10  1  0
 10 11  1  0
 11 12  1  0
 12 13  1  0
 13 14  1  0
 13 15  1  0
 11 16  1  0
  3 17  2  0
 17 18  1  0
 18 19  1  0
 19 20  1  0
 20 21  1  0
 20 22  1  0
 18 23  1  0
 23 24  1  0
 24 25  2  0
 25 26  1  0
 26 27  2  0
 27 28  1  0
 28 29  2  0
 23  2  2  0
 29 24  1  0
 15  7  1  0
 16  7  1  0
 14  9  1  0
  1 30  1  0
  1 31  1  0
  1 32  1  0
  6 33  1  0
  8 34  1  0
  8 35  1  0
  9 36  1  1
 10 37  1  0
 10 38  1  0
 11 39  1  6
 12 40  1  0
 12 41  1  0
 13 42  1  6
 14 43  1  0
 14 44  1  0
 15 45  1  0
 15 46  1  0
 16 47  1  0
 16 48  1  0
 19 49  1  0
 19 50  1  0
 20 51  1  0
 21 52  1  0
 21 53  1  0
 21 54  1  0
 22 55  1  0
 22 56  1  0
 22 57  1  0
 25 58  1  0
 26 59  1  0
 27 60  1  0
 28 61  1  0
 29 62  1  0
M  END
>  <meeko>  (170) 
{"is_sidechain": false}

$$$$

     RDKit          3D

 49 53  0  0  0  0  0  0  0  0999 V2000
    6.3560    2.1020  -56.7760 O   0  0  0  0  0  0  0  0  0  0  0  0
    7.4210    1.6380  -56.3840 C   0  0  0  0  0  0  0  0  0  0  0  0
    8.6640    2.0000  -56.8570 N   0  0  0  0  0  0  0  0  0  0  0  0
    8.9330    2.9870  -57.8990 C   0  0  2  0  0  0  0  0  0  0  0  0
    7.9160    2.8810  -59.0630 C   0  0  0  0  0  0  0  0  0  0  0  0
    8.1910    3.9610  -60.1240 C   0  0  1  0  0  0  0  0  0  0  0  0
    8.0640    5.3510  -59.4790 C   0  0  0  0  0  0  0  0  0  0  0  0
    9.0770    5.4920  -58.3320 C   0  0  2  0  0  0  0  0  0  0  0  0
   10.5000    5.3120  -58.8850 C   0  0  0  0  0  0  0  0  0  0  0  0
   10.6410    3.9230  -59.5260 C   0  0  2  0  0  0  0  0  0  0  0  0
    9.6190    3.7840  -60.6680 C   0  0  0  0  0  0  0  0  0  0  0  0
   10.3670    2.8420  -58.4660 C   0  0  0  0  0  0  0  0  0  0  0  0
    8.8040    4.4050  -57.2810 C   0  0  0  0  0  0  0  0  0  0  0  0
    7.4620    0.5910  -55.3110 C   0  0  0  0  0  0  0  0  0  0  0  0
    8.6430    0.3500  -54.6230 C   0  0  0  0  0  0  0  0  0  0  0  0
    8.6390   -0.6320  -53.6320 C   0  0  0  0  0  0  0  0  0  0  0  0
    7.4690   -1.3490  -53.3480 C   0  0  0  0  0  0  0  0  0  0  0  0
    7.4310   -2.3900  -52.3120 C   0  0  0  0  0  0  0  0  0  0  0  0
    8.1420   -2.2400  -51.1090 C   0  0  0  0  0  0  0  0  0  0  0  0
    8.1060   -3.2290  -50.1210 C   0  0  0  0  0  0  0  0  0  0  0  0
    7.3590   -4.3860  -50.3200 C   0  0  0  0  0  0  0  0  0  0  0  0
    6.6480   -4.5570  -51.5050 C   0  0  0  0  0  0  0  0  0  0  0  0
    6.6840   -3.5670  -52.4920 C   0  0  0  0  0  0  0  0  0  0  0  0
    6.3380   -1.0200  -54.1020 C   0  0  0  0  0  0  0  0  0  0  0  0
    6.2980   -0.0760  -55.0750 N   0  0  0  0  0  0  0  0  0  0  0  0
    9.4410    1.5090  -56.4190 H   0  0  0  0  0  0  0  0  0  0  0  0
    8.0013    1.8877  -59.5280 H   0  0  0  0  0  0  0  0  0  0  0  0
    6.9023    3.0284  -58.6621 H   0  0  0  0  0  0  0  0  0  0  0  0
    7.4656    3.8663  -60.9455 H   0  0  0  0  0  0  0  0  0  0  0  0
    8.2615    6.1237  -60.2366 H   0  0  0  0  0  0  0  0  0  0  0  0
    7.0464    5.4723  -59.0793 H   0  0  0  0  0  0  0  0  0  0  0  0
    8.9805    6.4873  -57.8736 H   0  0  0  0  0  0  0  0  0  0  0  0
   10.6972    6.0848  -59.6425 H   0  0  0  0  0  0  0  0  0  0  0  0
   11.2228    5.4053  -58.0611 H   0  0  0  0  0  0  0  0  0  0  0  0
   11.6596    3.8017  -59.9231 H   0  0  0  0  0  0  0  0  0  0  0  0
    9.8165    4.5536  -61.4287 H   0  0  0  0  0  0  0  0  0  0  0  0
    9.7125    2.7833  -61.1150 H   0  0  0  0  0  0  0  0  0  0  0  0
   10.4753    1.8487  -58.9260 H   0  0  0  0  0  0  0  0  0  0  0  0
   11.0877    2.9605  -57.6435 H   0  0  0  0  0  0  0  0  0  0  0  0
    9.5302    4.5072  -56.4611 H   0  0  0  0  0  0  0  0  0  0  0  0
    7.7777    4.5311  -56.9056 H   0  0  0  0  0  0  0  0  0  0  0  0
    9.5569    0.9175  -54.8527 H   0  0  0  0  0  0  0  0  0  0  0  0
    9.5603   -0.8448  -53.0699 H   0  0  0  0  0  0  0  0  0  0  0  0
    8.7365   -1.3297  -50.9419 H   0  0  0  0  0  0  0  0  0  0  0  0
    8.6687   -3.0922  -49.1857 H   0  0  0  0  0  0  0  0  0  0  0  0
    7.3302   -5.1639  -49.5428 H   0  0  0  0  0  0  0  0  0  0  0  0
    6.0577   -5.4713  -51.6648 H   0  0  0  0  0  0  0  0  0  0  0  0
    6.1186   -3.7117  -53.4244 H   0  0  0  0  0  0  0  0  0  0  0  0
    5.4090   -1.5694  -53.8895 H   0  0  0  0  0  0  0  0  0  0  0  0
  1  2  2  0
  2  3  1  0
  4  3  1  1
  4  5  1  0
  5  6  1  0
  6  7  1  0
  7  8  1  0
  8  9  1  0
  9 10  1  0
 10 11  1  0
 10 12  1  0
  8 13  1  0
  2 14  1  0
 14 15  2  0
 15 16  1  0
 16 17  2  0
 17 18  1  0
 18 19  2  0
 19 20  1  0
 20 21  2  0
 21 22  1  0
 22 23  2  0
 17 24  1  0
 24 25  2  0
 12  4  1  0
 25 14  1  0
 13  4  1  0
 23 18  1  0
 11  6  1  0
  3 26  1  0
  5 27  1  0
  5 28  1  0
  6 29  1  6
  7 30  1  0
  7 31  1  0
  8 32  1  1
  9 33  1  0
  9 34  1  0
 10 35  1  6
 11 36  1  0
 11 37  1  0
 12 38  1  0
 12 39  1  0
 13 40  1  0
 13 41  1  0
 15 42  1  0
 16 43  1  0
 19 44  1  0
 20 45  1  0
 21 46  1  0
 22 47  1  0
 23 48  1  0
 24 49  1  0
M  END
>  <meeko>  (171) 
{"is_sidechain": false}

$$$$

     RDKit          3D

 63 67  0  0  0  0  0  0  0  0999 V2000
    6.0760   -0.2960  -53.9300 C   0  0  0  0  0  0  0  0  0  0  0  0
    7.5380   -0.5080  -54.0880 C   0  0  0  0  0  0  0  0  0  0  0  0
    8.4260    0.1640  -54.9890 C   0  0  0  0  0  0  0  0  0  0  0  0
    8.1150    1.2620  -55.9250 C   0  0  0  0  0  0  0  0  0  0  0  0
    6.9680    1.5940  -56.2110 O   0  0  0  0  0  0  0  0  0  0  0  0
    9.2430    1.8580  -56.4670 N   0  0  0  0  0  0  0  0  0  0  0  0
    9.2220    2.8860  -57.5100 C   0  0  2  0  0  0  0  0  0  0  0  0
    8.2050    2.5470  -58.6270 C   0  0  0  0  0  0  0  0  0  0  0  0
    8.2480    3.6100  -59.7380 C   0  0  1  0  0  0  0  0  0  0  0  0
    7.9150    4.9860  -59.1360 C   0  0  0  0  0  0  0  0  0  0  0  0
    8.9430    5.3520  -58.0500 C   0  0  2  0  0  0  0  0  0  0  0  0
   10.3480    5.3830  -58.6710 C   0  0  0  0  0  0  0  0  0  0  0  0
   10.6880    4.0080  -59.2660 C   0  0  2  0  0  0  0  0  0  0  0  0
    9.6570    3.6520  -60.3480 C   0  0  0  0  0  0  0  0  0  0  0  0
   10.6350    2.9520  -58.1510 C   0  0  0  0  0  0  0  0  0  0  0  0
    8.9010    4.2890  -56.9370 C   0  0  0  0  0  0  0  0  0  0  0  0
    9.6680   -0.3360  -54.8980 N   0  0  0  0  0  0  0  0  0  0  0  0
    9.6010   -1.2460  -53.9060 N   0  0  0  0  0  0  0  0  0  0  0  0
   10.8130   -1.9680  -53.5620 C   0  0  0  0  0  0  0  0  0  0  0  0
   10.9360   -3.3530  -54.2030 C   0  0  0  0  0  0  0  0  0  0  0  0
   10.6940   -3.4180  -55.7140 C   0  0  2  0  0  0  0  0  0  0  0  0
   10.9800   -4.7870  -56.3170 C   0  0  0  0  0  0  0  0  0  0  0  0
   11.4730   -2.4370  -56.3850 O   0  0  0  0  0  0  0  0  0  0  0  0
    8.3300   -1.4310  -53.4190 C   0  0  0  0  0  0  0  0  0  0  0  0
    7.9630   -2.4060  -52.4000 C   0  0  0  0  0  0  0  0  0  0  0  0
    7.4810   -3.6680  -52.7700 C   0  0  0  0  0  0  0  0  0  0  0  0
    7.1210   -4.5970  -51.7920 C   0  0  0  0  0  0  0  0  0  0  0  0
    7.2370   -4.2690  -50.4410 C   0  0  0  0  0  0  0  0  0  0  0  0
    7.7070   -3.0110  -50.0670 C   0  0  0  0  0  0  0  0  0  0  0  0
    8.0660   -2.0810  -51.0440 C   0  0  0  0  0  0  0  0  0  0  0  0
    5.8243   -0.2595  -52.8598 H   0  0  0  0  0  0  0  0  0  0  0  0
    5.7895    0.6531  -54.4066 H   0  0  0  0  0  0  0  0  0  0  0  0
    5.5317   -1.1246  -54.4066 H   0  0  0  0  0  0  0  0  0  0  0  0
   10.0960    1.3250  -56.3590 H   0  0  0  0  0  0  0  0  0  0  0  0
    8.4531    1.5651  -59.0562 H   0  0  0  0  0  0  0  0  0  0  0  0
    7.1944    2.5278  -58.1930 H   0  0  0  0  0  0  0  0  0  0  0  0
    7.5148    3.3586  -60.5186 H   0  0  0  0  0  0  0  0  0  0  0  0
    7.9393    5.7462  -59.9307 H   0  0  0  0  0  0  0  0  0  0  0  0
    6.9127    4.9480  -58.6844 H   0  0  0  0  0  0  0  0  0  0  0  0
    8.7042    6.3399  -57.6293 H   0  0  0  0  0  0  0  0  0  0  0  0
   10.3783    6.1421  -59.4665 H   0  0  0  0  0  0  0  0  0  0  0  0
   11.0829    5.6315  -57.8911 H   0  0  0  0  0  0  0  0  0  0  0  0
   11.6942    4.0340  -59.7096 H   0  0  0  0  0  0  0  0  0  0  0  0
    9.6870    4.4111  -61.1435 H   0  0  0  0  0  0  0  0  0  0  0  0
    9.8990    2.6637  -60.7659 H   0  0  0  0  0  0  0  0  0  0  0  0
   10.8830    1.9682  -58.5759 H   0  0  0  0  0  0  0  0  0  0  0  0
   11.3595    3.2303  -57.3715 H   0  0  0  0  0  0  0  0  0  0  0  0
    9.6435    4.5432  -56.1663 H   0  0  0  0  0  0  0  0  0  0  0  0
    7.8910    4.2714  -56.5016 H   0  0  0  0  0  0  0  0  0  0  0  0
   11.6745   -1.3641  -53.8831 H   0  0  0  0  0  0  0  0  0  0  0  0
   10.7799   -2.1306  -52.4746 H   0  0  0  0  0  0  0  0  0  0  0  0
   11.9530   -3.7245  -54.0089 H   0  0  0  0  0  0  0  0  0  0  0  0
   10.1399   -3.9614  -53.7490 H   0  0  0  0  0  0  0  0  0  0  0  0
    9.6216   -3.2187  -55.8561 H   0  0  0  0  0  0  0  0  0  0  0  0
   11.1328   -5.5185  -55.5098 H   0  0  0  0  0  0  0  0  0  0  0  0
   10.1277   -5.0993  -56.9383 H   0  0  0  0  0  0  0  0  0  0  0  0
   11.8860   -4.7320  -56.9383 H   0  0  0  0  0  0  0  0  0  0  0  0
   10.8920   -1.9870  -57.0220 H   0  0  0  0  0  0  0  0  0  0  0  0
    7.3858   -3.9280  -53.8346 H   0  0  0  0  0  0  0  0  0  0  0  0
    6.7457   -5.5881  -52.0868 H   0  0  0  0  0  0  0  0  0  0  0  0
    6.9576   -5.0030  -49.6709 H   0  0  0  0  0  0  0  0  0  0  0  0
    7.7950   -2.7512  -49.0017 H   0  0  0  0  0  0  0  0  0  0  0  0
    8.4318   -1.0874  -50.7456 H   0  0  0  0  0  0  0  0  0  0  0  0
  1  2  1  0
  2  3  1  0
  3  4  1  0
  4  5  2  0
  4  6  1  0
  7  6  1  1
  7  8  1  0
  8  9  1  0
  9 10  1  0
 10 11  1  0
 11 12  1  0
 12 13  1  0
 13 14  1  0
 13 15  1  0
 11 16  1  0
  3 17  2  0
 17 18  1  0
 18 19  1  0
 19 20  1  0
 20 21  1  0
 21 22  1  0
 21 23  1  0
 18 24  1  0
 24 25  1  0
 25 26  2  0
 26 27  1  0
 27 28  2  0
 28 29  1  0
 29 30  2  0
 24  2  2  0
 30 25  1  0
 15  7  1  0
 16  7  1  0
 14  9  1  0
  1 31  1  0
  1 32  1  0
  1 33  1  0
  6 34  1  0
  8 35  1  0
  8 36  1  0
  9 37  1  6
 10 38  1  0
 10 39  1  0
 11 40  1  1
 12 41  1  0
 12 42  1  0
 13 43  1  6
 14 44  1  0
 14 45  1  0
 15 46  1  0
 15 47  1  0
 16 48  1  0
 16 49  1  0
 19 50  1  0
 19 51  1  0
 20 52  1  0
 20 53  1  0
 21 54  1  1
 22 55  1  0
 22 56  1  0
 22 57  1  0
 23 58  1  0
 26 59  1  0
 27 60  1  0
 28 61  1  0
 29 62  1  0
 30 63  1  0
M  END
>  <meeko>  (172) 
{"is_sidechain": false}

$$$$

     RDKit          3D

 63 67  0  0  0  0  0  0  0  0999 V2000
    6.3140    0.0710  -53.5780 C   0  0  0  0  0  0  0  0  0  0  0  0
    7.6480   -0.4320  -53.9980 C   0  0  0  0  0  0  0  0  0  0  0  0
    8.5090    0.1100  -55.0100 C   0  0  0  0  0  0  0  0  0  0  0  0
    8.2600    1.2580  -55.9050 C   0  0  0  0  0  0  0  0  0  0  0  0
    7.1780    1.8310  -55.9720 O   0  0  0  0  0  0  0  0  0  0  0  0
    9.3740    1.6370  -56.6390 N   0  0  0  0  0  0  0  0  0  0  0  0
    9.4320    2.8090  -57.5160 C   0  0  2  0  0  0  0  0  0  0  0  0
    8.3660    2.7480  -58.6400 C   0  0  0  0  0  0  0  0  0  0  0  0
    8.4930    3.9660  -59.5740 C   0  0  1  0  0  0  0  0  0  0  0  0
    8.3090    5.2530  -58.7530 C   0  0  0  0  0  0  0  0  0  0  0  0
    9.3860    5.3420  -57.6570 C   0  0  2  0  0  0  0  0  0  0  0  0
   10.7760    5.3370  -58.3140 C   0  0  0  0  0  0  0  0  0  0  0  0
   10.9680    4.0480  -59.1290 C   0  0  2  0  0  0  0  0  0  0  0  0
    9.8880    3.9700  -60.2180 C   0  0  0  0  0  0  0  0  0  0  0  0
   10.8300    2.8360  -58.1940 C   0  0  0  0  0  0  0  0  0  0  0  0
    9.2600    4.1280  -56.7220 C   0  0  0  0  0  0  0  0  0  0  0  0
    9.6550   -0.5870  -55.0820 N   0  0  0  0  0  0  0  0  0  0  0  0
    9.5370   -1.5420  -54.1460 N   0  0  0  0  0  0  0  0  0  0  0  0
   10.6410   -2.4700  -53.9500 C   0  0  0  0  0  0  0  0  0  0  0  0
   10.5310   -3.6860  -54.8670 C   0  0  0  0  0  0  0  0  0  0  0  0
   11.4480   -3.6290  -56.0910 C   0  0  1  0  0  0  0  0  0  0  0  0
   11.0640   -4.6190  -57.1850 C   0  0  0  0  0  0  0  0  0  0  0  0
   11.4880   -2.3100  -56.6210 O   0  0  0  0  0  0  0  0  0  0  0  0
    8.3400   -1.5120  -53.4740 C   0  0  0  0  0  0  0  0  0  0  0  0
    7.9740   -2.4400  -52.4120 C   0  0  0  0  0  0  0  0  0  0  0  0
    7.3950   -3.6740  -52.7230 C   0  0  0  0  0  0  0  0  0  0  0  0
    7.0330   -4.5570  -51.7050 C   0  0  0  0  0  0  0  0  0  0  0  0
    7.2500   -4.2110  -50.3720 C   0  0  0  0  0  0  0  0  0  0  0  0
    7.8340   -2.9850  -50.0560 C   0  0  0  0  0  0  0  0  0  0  0  0
    8.1980   -2.1010  -51.0730 C   0  0  0  0  0  0  0  0  0  0  0  0
    6.2591    0.0917  -52.4796 H   0  0  0  0  0  0  0  0  0  0  0  0
    6.1647    1.0872  -53.9718 H   0  0  0  0  0  0  0  0  0  0  0  0
    5.5309   -0.5936  -53.9718 H   0  0  0  0  0  0  0  0  0  0  0  0
   10.2530    1.2650  -56.3070 H   0  0  0  0  0  0  0  0  0  0  0  0
    8.5095    1.8274  -59.2248 H   0  0  0  0  0  0  0  0  0  0  0  0
    7.3662    2.7554  -58.1814 H   0  0  0  0  0  0  0  0  0  0  0  0
    7.7245    3.9129  -60.3593 H   0  0  0  0  0  0  0  0  0  0  0  0
    8.3951    6.1243  -59.4188 H   0  0  0  0  0  0  0  0  0  0  0  0
    7.3158    5.2387  -58.2804 H   0  0  0  0  0  0  0  0  0  0  0  0
    9.2527    6.2681  -57.0786 H   0  0  0  0  0  0  0  0  0  0  0  0
   10.8665    6.2067  -58.9813 H   0  0  0  0  0  0  0  0  0  0  0  0
   11.5460    5.3864  -57.5300 H   0  0  0  0  0  0  0  0  0  0  0  0
   11.9644    4.0488  -59.5951 H   0  0  0  0  0  0  0  0  0  0  0  0
    9.9791    4.8402  -60.8847 H   0  0  0  0  0  0  0  0  0  0  0  0
   10.0225    3.0430  -60.7948 H   0  0  0  0  0  0  0  0  0  0  0  0
   10.9635    1.9140  -58.7789 H   0  0  0  0  0  0  0  0  0  0  0  0
   11.5975    2.9107  -57.4095 H   0  0  0  0  0  0  0  0  0  0  0  0
   10.0374    4.1870  -55.9460 H   0  0  0  0  0  0  0  0  0  0  0  0
    8.2613    4.1371  -56.2611 H   0  0  0  0  0  0  0  0  0  0  0  0
   11.5860   -1.9486  -54.1623 H   0  0  0  0  0  0  0  0  0  0  0  0
   10.6089   -2.8236  -52.9089 H   0  0  0  0  0  0  0  0  0  0  0  0
   10.7878   -4.5829  -54.2841 H   0  0  0  0  0  0  0  0  0  0  0  0
    9.4980   -3.7069  -55.2445 H   0  0  0  0  0  0  0  0  0  0  0  0
   12.4479   -3.9217  -55.7380 H   0  0  0  0  0  0  0  0  0  0  0  0
   10.7025   -5.5509  -56.7258 H   0  0  0  0  0  0  0  0  0  0  0  0
   10.2688   -4.1854  -57.8093 H   0  0  0  0  0  0  0  0  0  0  0  0
   11.9436   -4.8350  -57.8093 H   0  0  0  0  0  0  0  0  0  0  0  0
   10.6940   -2.1570  -57.1610 H   0  0  0  0  0  0  0  0  0  0  0  0
    7.2242   -3.9498  -53.7741 H   0  0  0  0  0  0  0  0  0  0  0  0
    6.5764   -5.5262  -51.9543 H   0  0  0  0  0  0  0  0  0  0  0  0
    6.9604   -4.9053  -49.5695 H   0  0  0  0  0  0  0  0  0  0  0  0
    8.0081   -2.7142  -49.0042 H   0  0  0  0  0  0  0  0  0  0  0  0
    8.6619   -1.1359  -50.8214 H   0  0  0  0  0  0  0  0  0  0  0  0
  1  2  1  0
  2  3  1  0
  3  4  1  0
  4  5  2  0
  4  6  1  0
  7  6  1  1
  7  8  1  0
  8  9  1  0
  9 10  1  0
 10 11  1  0
 11 12  1  0
 12 13  1  0
 13 14  1  0
 13 15  1  0
 11 16  1  0
  3 17  2  0
 17 18  1  0
 18 19  1  0
 19 20  1  0
 20 21  1  0
 21 22  1  0
 21 23  1  0
 18 24  1  0
 24 25  1  0
 25 26  2  0
 26 27  1  0
 27 28  2  0
 28 29  1  0
 29 30  2  0
 24  2  2  0
 30 25  1  0
 15  7  1  0
 16  7  1  0
 14  9  1  0
  1 31  1  0
  1 32  1  0
  1 33  1  0
  6 34  1  0
  8 35  1  0
  8 36  1  0
  9 37  1  6
 10 38  1  0
 10 39  1  0
 11 40  1  1
 12 41  1  0
 12 42  1  0
 13 43  1  6
 14 44  1  0
 14 45  1  0
 15 46  1  0
 15 47  1  0
 16 48  1  0
 16 49  1  0
 19 50  1  0
 19 51  1  0
 20 52  1  0
 20 53  1  0
 21 54  1  1
 22 55  1  0
 22 56  1  0
 22 57  1  0
 23 58  1  0
 26 59  1  0
 27 60  1  0
 28 61  1  0
 29 62  1  0
 30 63  1  0
M  END
>  <meeko>  (173) 
{"is_sidechain": false}

$$$$

     RDKit          3D

 57 62  0  0  0  0  0  0  0  0999 V2000
   11.4800   -4.6190  -57.8190 C   0  0  0  0  0  0  0  0  0  0  0  0
   10.7960   -5.0480  -56.6840 C   0  0  0  0  0  0  0  0  0  0  0  0
   10.5940   -4.1740  -55.6150 C   0  0  0  0  0  0  0  0  0  0  0  0
   11.0790   -2.8590  -55.6710 C   0  0  0  0  0  0  0  0  0  0  0  0
   10.8730   -1.9120  -54.5140 C   0  0  0  0  0  0  0  0  0  0  0  0
    9.7030   -1.0740  -54.7030 N   0  0  0  0  0  0  0  0  0  0  0  0
    9.7270   -0.0740  -55.6060 N   0  0  0  0  0  0  0  0  0  0  0  0
    8.5240    0.4700  -55.4420 C   0  0  0  0  0  0  0  0  0  0  0  0
    7.9850    1.5280  -56.0630 N   0  0  0  0  0  0  0  0  0  0  0  0
    8.7390    2.5120  -56.8320 C   0  0  2  0  0  0  0  0  0  0  0  0
    9.9140    3.1020  -56.0170 C   0  0  0  0  0  0  0  0  0  0  0  0
   10.6400    4.1870  -56.8320 C   0  0  1  0  0  0  0  0  0  0  0  0
   11.1630    3.5720  -58.1420 C   0  0  0  0  0  0  0  0  0  0  0  0
    9.9940    3.0200  -58.9760 C   0  0  2  0  0  0  0  0  0  0  0  0
    9.0140    4.1610  -59.2930 C   0  0  0  0  0  0  0  0  0  0  0  0
    8.4800    4.7700  -57.9880 C   0  0  2  0  0  0  0  0  0  0  0  0
    9.6550    5.3190  -57.1640 C   0  0  0  0  0  0  0  0  0  0  0  0
    7.7650    3.6760  -57.1770 C   0  0  0  0  0  0  0  0  0  0  0  0
    9.2640    1.9320  -58.1660 C   0  0  0  0  0  0  0  0  0  0  0  0
    7.7490   -0.1370  -54.5010 N   0  0  0  0  0  0  0  0  0  0  0  0
    8.4950   -1.1280  -54.0560 C   0  0  0  0  0  0  0  0  0  0  0  0
    8.1290   -2.0890  -53.0260 C   0  0  0  0  0  0  0  0  0  0  0  0
    8.1480   -1.7060  -51.6800 C   0  0  0  0  0  0  0  0  0  0  0  0
    7.8200   -2.6240  -50.6810 C   0  0  0  0  0  0  0  0  0  0  0  0
    7.4610   -3.9280  -51.0230 C   0  0  0  0  0  0  0  0  0  0  0  0
    7.4220   -4.3130  -52.3620 C   0  0  0  0  0  0  0  0  0  0  0  0
    7.7520   -3.3950  -53.3620 C   0  0  0  0  0  0  0  0  0  0  0  0
   11.7670   -2.4390  -56.8200 C   0  0  0  0  0  0  0  0  0  0  0  0
   11.9660   -3.3150  -57.8870 C   0  0  0  0  0  0  0  0  0  0  0  0
   11.6364   -5.3092  -58.6611 H   0  0  0  0  0  0  0  0  0  0  0  0
   10.4141   -6.0782  -56.6302 H   0  0  0  0  0  0  0  0  0  0  0  0
   10.0509   -4.5185  -54.7226 H   0  0  0  0  0  0  0  0  0  0  0  0
   10.7452   -2.4988  -53.5924 H   0  0  0  0  0  0  0  0  0  0  0  0
   11.7545   -1.2573  -54.4478 H   0  0  0  0  0  0  0  0  0  0  0  0
    7.1650    1.8870  -55.5870 H   0  0  0  0  0  0  0  0  0  0  0  0
    9.5247    3.5455  -55.0887 H   0  0  0  0  0  0  0  0  0  0  0  0
   10.6252    2.2965  -55.7815 H   0  0  0  0  0  0  0  0  0  0  0  0
   11.4809    4.5875  -56.2468 H   0  0  0  0  0  0  0  0  0  0  0  0
   11.6890    4.3451  -58.7213 H   0  0  0  0  0  0  0  0  0  0  0  0
   11.8513    2.7485  -57.9012 H   0  0  0  0  0  0  0  0  0  0  0  0
   10.3766    2.5905  -59.9136 H   0  0  0  0  0  0  0  0  0  0  0  0
    9.5343    4.9382  -59.8719 H   0  0  0  0  0  0  0  0  0  0  0  0
    8.1717    3.7626  -59.8777 H   0  0  0  0  0  0  0  0  0  0  0  0
    7.7776    5.5841  -58.2200 H   0  0  0  0  0  0  0  0  0  0  0  0
   10.1750    6.0956  -57.7441 H   0  0  0  0  0  0  0  0  0  0  0  0
    9.2693    5.7477  -56.2273 H   0  0  0  0  0  0  0  0  0  0  0  0
    7.3814    4.1130  -56.2432 H   0  0  0  0  0  0  0  0  0  0  0  0
    6.9388    3.2743  -57.7820 H   0  0  0  0  0  0  0  0  0  0  0  0
    8.4160    1.5506  -58.7538 H   0  0  0  0  0  0  0  0  0  0  0  0
    9.9698    1.1173  -57.9469 H   0  0  0  0  0  0  0  0  0  0  0  0
    8.4228   -0.6762  -51.4080 H   0  0  0  0  0  0  0  0  0  0  0  0
    7.8446   -2.3193  -49.6243 H   0  0  0  0  0  0  0  0  0  0  0  0
    7.2085   -4.6530  -50.2352 H   0  0  0  0  0  0  0  0  0  0  0  0
    7.1315   -5.3392  -52.6312 H   0  0  0  0  0  0  0  0  0  0  0  0
    7.7155   -3.6996  -54.4184 H   0  0  0  0  0  0  0  0  0  0  0  0
   12.1525   -1.4105  -56.8795 H   0  0  0  0  0  0  0  0  0  0  0  0
   12.5070   -2.9761  -58.7828 H   0  0  0  0  0  0  0  0  0  0  0  0
  1  2  2  0
  2  3  1  0
  3  4  2  0
  4  5  1  0
  5  6  1  0
  6  7  1  0
  7  8  2  0
  8  9  1  0
 10  9  1  1
 10 11  1  0
 11 12  1  0
 12 13  1  0
 13 14  1  0
 14 15  1  0
 15 16  1  0
 16 17  1  0
 16 18  1  0
 14 19  1  0
  8 20  1  0
 20 21  2  0
 21 22  1  0
 22 23  2  0
 23 24  1  0
 24 25  2  0
 25 26  1  0
 26 27  2  0
  4 28  1  0
 28 29  2  0
 29  1  1  0
 21  6  1  0
 27 22  1  0
 18 10  1  0
 19 10  1  0
 17 12  1  0
  1 30  1  0
  2 31  1  0
  3 32  1  0
  5 33  1  0
  5 34  1  0
  9 35  1  0
 11 36  1  0
 11 37  1  0
 12 38  1  1
 13 39  1  0
 13 40  1  0
 14 41  1  6
 15 42  1  0
 15 43  1  0
 16 44  1  6
 17 45  1  0
 17 46  1  0
 18 47  1  0
 18 48  1  0
 19 49  1  0
 19 50  1  0
 23 51  1  0
 24 52  1  0
 25 53  1  0
 26 54  1  0
 27 55  1  0
 28 56  1  0
 29 57  1  0
M  END
>  <meeko>  (174) 
{"is_sidechain": false}

$$$$

     RDKit          3D

 57 62  0  0  0  0  0  0  0  0999 V2000
   11.0970   -3.7130  -56.8590 C   0  0  0  0  0  0  0  0  0  0  0  0
   11.5370   -2.3910  -56.8320 C   0  0  0  0  0  0  0  0  0  0  0  0
   11.2830   -1.5920  -55.7170 C   0  0  0  0  0  0  0  0  0  0  0  0
   10.5890   -2.1100  -54.6120 C   0  0  0  0  0  0  0  0  0  0  0  0
   10.3460   -1.2590  -53.3830 C   0  0  0  0  0  0  0  0  0  0  0  0
    9.0850   -0.5100  -53.4480 N   0  0  0  0  0  0  0  0  0  0  0  0
    8.9360    0.4820  -54.4180 N   0  0  0  0  0  0  0  0  0  0  0  0
    7.6770    0.2980  -54.9630 C   0  0  0  0  0  0  0  0  0  0  0  0
    7.1100    0.7850  -55.9930 N   0  0  0  0  0  0  0  0  0  0  0  0
    7.7120    1.7610  -56.8960 C   0  0  2  0  0  0  0  0  0  0  0  0
    7.0450    1.5260  -58.2800 C   0  0  0  0  0  0  0  0  0  0  0  0
    7.6200    2.4850  -59.3350 C   0  0  1  0  0  0  0  0  0  0  0  0
    7.3630    3.9330  -58.8900 C   0  0  0  0  0  0  0  0  0  0  0  0
    8.0280    4.1870  -57.5290 C   0  0  2  0  0  0  0  0  0  0  0  0
    9.5430    3.9390  -57.6490 C   0  0  0  0  0  0  0  0  0  0  0  0
    9.8130    2.4920  -58.1000 C   0  0  2  0  0  0  0  0  0  0  0  0
    9.1340    2.2500  -59.4570 C   0  0  0  0  0  0  0  0  0  0  0  0
    9.2280    1.5190  -57.0600 C   0  0  0  0  0  0  0  0  0  0  0  0
    7.4380    3.2220  -56.4840 C   0  0  0  0  0  0  0  0  0  0  0  0
    6.9700   -0.6560  -54.2550 N   0  0  0  0  0  0  0  0  0  0  0  0
    7.8330   -1.1240  -53.3780 C   0  0  0  0  0  0  0  0  0  0  0  0
    7.4590   -2.1890  -52.4230 C   0  0  0  0  0  0  0  0  0  0  0  0
    7.7770   -2.0350  -51.0690 C   0  0  0  0  0  0  0  0  0  0  0  0
    7.4290   -3.0290  -50.1550 C   0  0  0  0  0  0  0  0  0  0  0  0
    6.7770   -4.1830  -50.5930 C   0  0  0  0  0  0  0  0  0  0  0  0
    6.4790   -4.3470  -51.9460 C   0  0  0  0  0  0  0  0  0  0  0  0
    6.8240   -3.3540  -52.8640 C   0  0  0  0  0  0  0  0  0  0  0  0
   10.1480   -3.4420  -54.6540 C   0  0  0  0  0  0  0  0  0  0  0  0
   10.4010   -4.2380  -55.7720 C   0  0  0  0  0  0  0  0  0  0  0  0
   11.2991   -4.3421  -57.7384 H   0  0  0  0  0  0  0  0  0  0  0  0
   12.0853   -1.9770  -57.6910 H   0  0  0  0  0  0  0  0  0  0  0  0
   11.6292   -0.5480  -55.7035 H   0  0  0  0  0  0  0  0  0  0  0  0
   10.3193   -1.9156  -52.5009 H   0  0  0  0  0  0  0  0  0  0  0  0
   11.1634   -0.5254  -53.3221 H   0  0  0  0  0  0  0  0  0  0  0  0
    9.6580    0.5670  -55.1230 H   0  0  0  0  0  0  0  0  0  0  0  0
    7.2291    0.4890  -58.5973 H   0  0  0  0  0  0  0  0  0  0  0  0
    5.9650    1.7126  -58.1863 H   0  0  0  0  0  0  0  0  0  0  0  0
    7.1386    2.3052  -60.3076 H   0  0  0  0  0  0  0  0  0  0  0  0
    7.7830    4.6239  -59.6359 H   0  0  0  0  0  0  0  0  0  0  0  0
    6.2791    4.0974  -58.8000 H   0  0  0  0  0  0  0  0  0  0  0  0
    7.8451    5.2261  -57.2178 H   0  0  0  0  0  0  0  0  0  0  0  0
    9.9673    4.6346  -58.3880 H   0  0  0  0  0  0  0  0  0  0  0  0
   10.0112    4.1012  -56.6669 H   0  0  0  0  0  0  0  0  0  0  0  0
   10.8968    2.3285  -58.1927 H   0  0  0  0  0  0  0  0  0  0  0  0
    9.5516    2.9430  -60.2023 H   0  0  0  0  0  0  0  0  0  0  0  0
    9.3146    1.2116  -59.7717 H   0  0  0  0  0  0  0  0  0  0  0  0
    9.3966    0.4849  -57.3949 H   0  0  0  0  0  0  0  0  0  0  0  0
    9.7246    1.6866  -56.0929 H   0  0  0  0  0  0  0  0  0  0  0  0
    7.9020    3.4172  -55.5059 H   0  0  0  0  0  0  0  0  0  0  0  0
    6.3512    3.3803  -56.4215 H   0  0  0  0  0  0  0  0  0  0  0  0
    8.3010   -1.1307  -50.7260 H   0  0  0  0  0  0  0  0  0  0  0  0
    7.6683   -2.9037  -49.0887 H   0  0  0  0  0  0  0  0  0  0  0  0
    6.4978   -4.9640  -49.8704 H   0  0  0  0  0  0  0  0  0  0  0  0
    5.9714   -5.2603  -52.2898 H   0  0  0  0  0  0  0  0  0  0  0  0
    6.5969   -3.4876  -53.9320 H   0  0  0  0  0  0  0  0  0  0  0  0
    9.5984   -3.8618  -53.7986 H   0  0  0  0  0  0  0  0  0  0  0  0
   10.0508   -5.2805  -55.7951 H   0  0  0  0  0  0  0  0  0  0  0  0
  1  2  2  0
  2  3  1  0
  3  4  2  0
  4  5  1  0
  5  6  1  0
  6  7  1  0
  7  8  1  0
  8  9  2  0
 10  9  1  1
 10 11  1  0
 11 12  1  0
 12 13  1  0
 13 14  1  0
 14 15  1  0
 15 16  1  0
 16 17  1  0
 16 18  1  0
 14 19  1  0
  8 20  1  0
 20 21  2  0
 21 22  1  0
 22 23  2  0
 23 24  1  0
 24 25  2  0
 25 26  1  0
 26 27  2  0
  4 28  1  0
 28 29  2  0
 29  1  1  0
 21  6  1  0
 27 22  1  0
 18 10  1  0
 19 10  1  0
 17 12  1  0
  1 30  1  0
  2 31  1  0
  3 32  1  0
  5 33  1  0
  5 34  1  0
  7 35  1  0
 11 36  1  0
 11 37  1  0
 12 38  1  6
 13 39  1  0
 13 40  1  0
 14 41  1  1
 15 42  1  0
 15 43  1  0
 16 44  1  6
 17 45  1  0
 17 46  1  0
 18 47  1  0
 18 48  1  0
 19 49  1  0
 19 50  1  0
 23 51  1  0
 24 52  1  0
 25 53  1  0
 26 54  1  0
 27 55  1  0
 28 56  1  0
 29 57  1  0
M  END
>  <meeko>  (175) 
{"is_sidechain": false}

$$$$

     RDKit          3D

 57 62  0  0  0  0  0  0  0  0999 V2000
    7.8350   -3.7950  -50.4600 C   0  0  0  0  0  0  0  0  0  0  0  0
    7.7960   -2.4030  -50.4280 C   0  0  0  0  0  0  0  0  0  0  0  0
    7.3780   -1.6870  -51.5510 C   0  0  0  0  0  0  0  0  0  0  0  0
    6.9950   -2.3580  -52.7240 C   0  0  0  0  0  0  0  0  0  0  0  0
    6.5470   -1.5800  -53.9430 C   0  0  0  0  0  0  0  0  0  0  0  0
    7.3800   -0.4070  -54.2350 N   0  0  0  0  0  0  0  0  0  0  0  0
    6.7860    0.6440  -54.9240 N   0  0  0  0  0  0  0  0  0  0  0  0
    7.7720    1.1880  -55.7210 C   0  0  0  0  0  0  0  0  0  0  0  0
    7.6490    2.2960  -56.3470 N   0  0  0  0  0  0  0  0  0  0  0  0
    8.7130    2.8750  -57.1720 C   0  0  2  0  0  0  0  0  0  0  0  0
    8.0930    4.1440  -57.8230 C   0  0  0  0  0  0  0  0  0  0  0  0
    9.1150    4.8550  -58.7240 C   0  0  1  0  0  0  0  0  0  0  0  0
   10.3320    5.2640  -57.8790 C   0  0  0  0  0  0  0  0  0  0  0  0
   10.9680    4.0190  -57.2400 C   0  0  2  0  0  0  0  0  0  0  0  0
   11.4050    3.0460  -58.3500 C   0  0  0  0  0  0  0  0  0  0  0  0
   10.1940    2.6350  -59.2080 C   0  0  2  0  0  0  0  0  0  0  0  0
    9.5660    3.8910  -59.8310 C   0  0  0  0  0  0  0  0  0  0  0  0
    9.1540    1.9340  -58.3150 C   0  0  0  0  0  0  0  0  0  0  0  0
    9.9300    3.3250  -56.3370 C   0  0  0  0  0  0  0  0  0  0  0  0
    8.9190    0.4250  -55.6880 N   0  0  0  0  0  0  0  0  0  0  0  0
    8.6620   -0.5050  -54.7910 C   0  0  0  0  0  0  0  0  0  0  0  0
    9.6690   -1.5250  -54.4360 C   0  0  0  0  0  0  0  0  0  0  0  0
    9.9320   -2.5640  -55.3330 C   0  0  0  0  0  0  0  0  0  0  0  0
   10.8760   -3.5390  -55.0080 C   0  0  0  0  0  0  0  0  0  0  0  0
   11.5640   -3.4680  -53.7970 C   0  0  0  0  0  0  0  0  0  0  0  0
   11.3160   -2.4200  -52.9100 C   0  0  0  0  0  0  0  0  0  0  0  0
   10.3710   -1.4430  -53.2290 C   0  0  0  0  0  0  0  0  0  0  0  0
    7.0390   -3.7610  -52.7410 C   0  0  0  0  0  0  0  0  0  0  0  0
    7.4580   -4.4730  -51.6170 C   0  0  0  0  0  0  0  0  0  0  0  0
    8.1628   -4.3577  -49.5735 H   0  0  0  0  0  0  0  0  0  0  0  0
    8.0953   -1.8666  -49.5155 H   0  0  0  0  0  0  0  0  0  0  0  0
    7.3483   -0.5879  -51.5170 H   0  0  0  0  0  0  0  0  0  0  0  0
    6.5763   -2.2518  -54.8135 H   0  0  0  0  0  0  0  0  0  0  0  0
    5.5331   -1.2091  -53.7321 H   0  0  0  0  0  0  0  0  0  0  0  0
    6.2970    1.3580  -54.3940 H   0  0  0  0  0  0  0  0  0  0  0  0
    7.2231    3.8495  -58.4284 H   0  0  0  0  0  0  0  0  0  0  0  0
    7.7892    4.8357  -57.0234 H   0  0  0  0  0  0  0  0  0  0  0  0
    8.6590    5.7490  -59.1743 H   0  0  0  0  0  0  0  0  0  0  0  0
   11.0721    5.7619  -58.5227 H   0  0  0  0  0  0  0  0  0  0  0  0
   10.0066    5.9522  -57.0850 H   0  0  0  0  0  0  0  0  0  0  0  0
   11.8418    4.3153  -56.6411 H   0  0  0  0  0  0  0  0  0  0  0  0
   12.1528    3.5375  -58.9897 H   0  0  0  0  0  0  0  0  0  0  0  0
   11.8374    2.1465  -57.8874 H   0  0  0  0  0  0  0  0  0  0  0  0
   10.5185    1.9497  -60.0049 H   0  0  0  0  0  0  0  0  0  0  0  0
   10.3086    4.3913  -60.4699 H   0  0  0  0  0  0  0  0  0  0  0  0
    8.6934    3.5984  -60.4335 H   0  0  0  0  0  0  0  0  0  0  0  0
    8.2773    1.6633  -58.9217 H   0  0  0  0  0  0  0  0  0  0  0  0
    9.6042    1.0287  -57.8817 H   0  0  0  0  0  0  0  0  0  0  0  0
   10.3907    2.4456  -55.8633 H   0  0  0  0  0  0  0  0  0  0  0  0
    9.5938    4.0341  -55.5662 H   0  0  0  0  0  0  0  0  0  0  0  0
    9.3964   -2.6131  -56.2925 H   0  0  0  0  0  0  0  0  0  0  0  0
   11.0775   -4.3639  -55.7073 H   0  0  0  0  0  0  0  0  0  0  0  0
   12.3041   -4.2403  -53.5405 H   0  0  0  0  0  0  0  0  0  0  0  0
   11.8654   -2.3634  -51.9587 H   0  0  0  0  0  0  0  0  0  0  0  0
   10.1793   -0.6122  -52.5340 H   0  0  0  0  0  0  0  0  0  0  0  0
    6.7401   -4.3043  -53.6496 H   0  0  0  0  0  0  0  0  0  0  0  0
    7.4908   -5.5722  -51.6444 H   0  0  0  0  0  0  0  0  0  0  0  0
  1  2  2  0
  2  3  1  0
  3  4  2  0
  4  5  1  0
  5  6  1  0
  6  7  1  0
  7  8  1  0
  8  9  2  0
 10  9  1  1
 10 11  1  0
 11 12  1  0
 12 13  1  0
 13 14  1  0
 14 15  1  0
 15 16  1  0
 16 17  1  0
 16 18  1  0
 14 19  1  0
  8 20  1  0
 20 21  2  0
 21 22  1  0
 22 23  2  0
 23 24  1  0
 24 25  2  0
 25 26  1  0
 26 27  2  0
  4 28  1  0
 28 29  2  0
 29  1  1  0
 21  6  1  0
 27 22  1  0
 18 10  1  0
 19 10  1  0
 17 12  1  0
  1 30  1  0
  2 31  1  0
  3 32  1  0
  5 33  1  0
  5 34  1  0
  7 35  1  0
 11 36  1  0
 11 37  1  0
 12 38  1  6
 13 39  1  0
 13 40  1  0
 14 41  1  1
 15 42  1  0
 15 43  1  0
 16 44  1  6
 17 45  1  0
 17 46  1  0
 18 47  1  0
 18 48  1  0
 19 49  1  0
 19 50  1  0
 23 51  1  0
 24 52  1  0
 25 53  1  0
 26 54  1  0
 27 55  1  0
 28 56  1  0
 29 57  1  0
M  END
>  <meeko>  (176) 
{"is_sidechain": false}

$$$$

     RDKit          3D

 60 64  0  0  0  0  0  0  0  0999 V2000
    7.1730    1.6710  -56.0130 O   0  0  0  0  0  0  0  0  0  0  0  0
    8.2760    1.1600  -55.8360 C   0  0  0  0  0  0  0  0  0  0  0  0
    9.4200    1.6080  -56.4800 N   0  0  0  0  0  0  0  0  0  0  0  0
    9.4710    2.7620  -57.3830 C   0  0  2  0  0  0  0  0  0  0  0  0
    8.4290    2.6520  -58.5260 C   0  0  0  0  0  0  0  0  0  0  0  0
    8.5470    3.8510  -59.4840 C   0  0  1  0  0  0  0  0  0  0  0  0
    8.3190    5.1520  -58.6950 C   0  0  0  0  0  0  0  0  0  0  0  0
    9.3720    5.2900  -57.5830 C   0  0  2  0  0  0  0  0  0  0  0  0
   10.7740    5.3020  -58.2120 C   0  0  0  0  0  0  0  0  0  0  0  0
   11.0100    3.9990  -58.9940 C   0  0  2  0  0  0  0  0  0  0  0  0
    9.9540    3.8720  -60.1020 C   0  0  0  0  0  0  0  0  0  0  0  0
   10.8810    2.8050  -58.0340 C   0  0  0  0  0  0  0  0  0  0  0  0
    9.2550    4.0940  -56.6230 C   0  0  0  0  0  0  0  0  0  0  0  0
    8.4970    0.0290  -54.9060 C   0  0  0  0  0  0  0  0  0  0  0  0
    7.6490   -0.4430  -53.8670 C   0  0  0  0  0  0  0  0  0  0  0  0
    8.3090   -1.5030  -53.2820 C   0  0  0  0  0  0  0  0  0  0  0  0
    7.8670   -2.3360  -52.2040 C   0  0  0  0  0  0  0  0  0  0  0  0
    8.1890   -2.1890  -50.8700 C   0  0  0  0  0  0  0  0  0  0  0  0
    7.6020   -3.2010  -50.0560 C   0  0  0  0  0  0  0  0  0  0  0  0
    6.8660   -4.0960  -50.8000 C   0  0  0  0  0  0  0  0  0  0  0  0
    6.8910   -3.7160  -52.4670 S   0  0  0  0  0  0  0  0  0  0  0  0
    9.4900   -1.6210  -53.9700 N   0  0  0  0  0  0  0  0  0  0  0  0
   10.5330   -2.6230  -53.8120 C   0  0  0  0  0  0  0  0  0  0  0  0
   10.2370   -3.9390  -54.5340 C   0  0  0  0  0  0  0  0  0  0  0  0
   11.3560   -4.4690  -55.4380 C   0  0  0  0  0  0  0  0  0  0  0  0
   11.0860   -4.4610  -56.9470 C   0  0  0  0  0  0  0  0  0  0  0  0
   11.7770   -3.3320  -57.7040 C   0  0  0  0  0  0  0  0  0  0  0  0
   11.7290   -2.1220  -56.9590 O   0  0  0  0  0  0  0  0  0  0  0  0
    9.6120   -0.7190  -54.9660 N   0  0  0  0  0  0  0  0  0  0  0  0
   10.3020    1.2700  -56.1220 H   0  0  0  0  0  0  0  0  0  0  0  0
    8.6047    1.7223  -59.0871 H   0  0  0  0  0  0  0  0  0  0  0  0
    7.4204    2.6468  -58.0871 H   0  0  0  0  0  0  0  0  0  0  0  0
    7.7951    3.7636  -60.2821 H   0  0  0  0  0  0  0  0  0  0  0  0
    8.3979    6.0101  -59.3786 H   0  0  0  0  0  0  0  0  0  0  0  0
    7.3179    5.1251  -58.2400 H   0  0  0  0  0  0  0  0  0  0  0  0
    9.2070    6.2261  -57.0294 H   0  0  0  0  0  0  0  0  0  0  0  0
   10.8588    6.1585  -58.8970 H   0  0  0  0  0  0  0  0  0  0  0  0
   11.5271    5.3864  -57.4147 H   0  0  0  0  0  0  0  0  0  0  0  0
   12.0150    4.0120  -59.4411 H   0  0  0  0  0  0  0  0  0  0  0  0
   10.0389    4.7288  -60.7866 H   0  0  0  0  0  0  0  0  0  0  0  0
   10.1205    2.9359  -60.6552 H   0  0  0  0  0  0  0  0  0  0  0  0
   11.0465    1.8733  -58.5948 H   0  0  0  0  0  0  0  0  0  0  0  0
   11.6312    2.9143  -57.2369 H   0  0  0  0  0  0  0  0  0  0  0  0
   10.0160    4.1877  -55.8343 H   0  0  0  0  0  0  0  0  0  0  0  0
    8.2476    4.0910  -56.1813 H   0  0  0  0  0  0  0  0  0  0  0  0
    6.6637   -0.0427  -53.5861 H   0  0  0  0  0  0  0  0  0  0  0  0
    8.8265   -1.3822  -50.4793 H   0  0  0  0  0  0  0  0  0  0  0  0
    7.7225   -3.2601  -48.9642 H   0  0  0  0  0  0  0  0  0  0  0  0
    6.3260   -4.9537  -50.3726 H   0  0  0  0  0  0  0  0  0  0  0  0
   11.4724   -2.2121  -54.2105 H   0  0  0  0  0  0  0  0  0  0  0  0
   10.5972   -2.8532  -52.7383 H   0  0  0  0  0  0  0  0  0  0  0  0
   10.0287   -4.7034  -53.7709 H   0  0  0  0  0  0  0  0  0  0  0  0
    9.3873   -3.7301  -55.2007 H   0  0  0  0  0  0  0  0  0  0  0  0
   12.2500   -3.8544  -55.2564 H   0  0  0  0  0  0  0  0  0  0  0  0
   11.4648   -5.5303  -55.1701 H   0  0  0  0  0  0  0  0  0  0  0  0
   11.4333   -5.4179  -57.3638 H   0  0  0  0  0  0  0  0  0  0  0  0
   10.0040   -4.3068  -57.0718 H   0  0  0  0  0  0  0  0  0  0  0  0
   12.8277   -3.6059  -57.8800 H   0  0  0  0  0  0  0  0  0  0  0  0
   11.2563   -3.1782  -58.6607 H   0  0  0  0  0  0  0  0  0  0  0  0
   12.5890   -1.6850  -57.0790 H   0  0  0  0  0  0  0  0  0  0  0  0
  1  2  2  0
  2  3  1  0
  4  3  1  1
  4  5  1  0
  5  6  1  0
  6  7  1  0
  7  8  1  0
  8  9  1  0
  9 10  1  0
 10 11  1  0
 10 12  1  0
  8 13  1  0
  2 14  1  0
 14 15  1  0
 15 16  2  0
 16 17  1  0
 17 18  2  0
 18 19  1  0
 19 20  2  0
 20 21  1  0
 16 22  1  0
 22 23  1  0
 23 24  1  0
 24 25  1  0
 25 26  1  0
 26 27  1  0
 27 28  1  0
 22 29  1  0
 12  4  1  0
 29 14  2  0
 13  4  1  0
 21 17  1  0
 11  6  1  0
  3 30  1  0
  5 31  1  0
  5 32  1  0
  6 33  1  6
  7 34  1  0
  7 35  1  0
  8 36  1  1
  9 37  1  0
  9 38  1  0
 10 39  1  6
 11 40  1  0
 11 41  1  0
 12 42  1  0
 12 43  1  0
 13 44  1  0
 13 45  1  0
 15 46  1  0
 18 47  1  0
 19 48  1  0
 20 49  1  0
 23 50  1  0
 23 51  1  0
 24 52  1  0
 24 53  1  0
 25 54  1  0
 25 55  1  0
 26 56  1  0
 26 57  1  0
 27 58  1  0
 27 59  1  0
 28 60  1  0
M  END
>  <meeko>  (177) 
{"is_sidechain": false}

$$$$

     RDKit          3D

 52 54  0  0  0  0  0  0  0  0999 V2000
    5.8860   -0.5640  -53.9210 C   0  0  0  0  0  0  0  0  0  0  0  0
    7.3560   -0.6790  -54.1140 C   0  0  0  0  0  0  0  0  0  0  0  0
    8.1810    0.0570  -55.0280 C   0  0  0  0  0  0  0  0  0  0  0  0
    7.7930    1.1340  -55.9620 C   0  0  0  0  0  0  0  0  0  0  0  0
    6.6960    1.1900  -56.5100 O   0  0  0  0  0  0  0  0  0  0  0  0
    8.7890    2.0660  -56.1980 N   0  0  0  0  0  0  0  0  0  0  0  0
    8.6500    3.0670  -57.2270 C   0  0  0  0  0  0  0  0  0  0  0  0
    9.9670    3.3130  -57.9150 C   0  0  0  0  0  0  0  0  0  0  0  0
   10.0110    3.7360  -59.2520 C   0  0  0  0  0  0  0  0  0  0  0  0
   11.2370    3.9820  -59.8760 C   0  0  0  0  0  0  0  0  0  0  0  0
   12.4270    3.8120  -59.1690 C   0  0  0  0  0  0  0  0  0  0  0  0
   12.3940    3.3980  -57.8390 C   0  0  0  0  0  0  0  0  0  0  0  0
   11.1700    3.1520  -57.2150 C   0  0  0  0  0  0  0  0  0  0  0  0
    9.4580   -0.3470  -54.9410 N   0  0  0  0  0  0  0  0  0  0  0  0
    9.4580   -1.3170  -54.0120 N   0  0  0  0  0  0  0  0  0  0  0  0
   10.7200   -1.9650  -53.6990 C   0  0  0  0  0  0  0  0  0  0  0  0
   10.8350   -3.3970  -54.2230 C   0  0  0  0  0  0  0  0  0  0  0  0
   10.4210   -3.5300  -55.6930 C   0  0  0  0  0  0  0  0  0  0  0  0
   11.4860   -2.9960  -56.6440 C   0  0  0  0  0  0  0  0  0  0  0  0
   11.4770   -3.7430  -57.8490 O   0  0  0  0  0  0  0  0  0  0  0  0
    8.2240   -1.5310  -53.4450 C   0  0  0  0  0  0  0  0  0  0  0  0
    7.9540   -2.4960  -52.3850 C   0  0  0  0  0  0  0  0  0  0  0  0
    7.4900   -3.7780  -52.6990 C   0  0  0  0  0  0  0  0  0  0  0  0
    7.2300   -4.7010  -51.6850 C   0  0  0  0  0  0  0  0  0  0  0  0
    7.4280   -4.3450  -50.3510 C   0  0  0  0  0  0  0  0  0  0  0  0
    7.8820   -3.0660  -50.0300 C   0  0  0  0  0  0  0  0  0  0  0  0
    8.1420   -2.1430  -51.0440 C   0  0  0  0  0  0  0  0  0  0  0  0
    5.6577   -0.5461  -52.8451 H   0  0  0  0  0  0  0  0  0  0  0  0
    5.5265    0.3650  -54.3876 H   0  0  0  0  0  0  0  0  0  0  0  0
    5.3864   -1.4258  -54.3876 H   0  0  0  0  0  0  0  0  0  0  0  0
    9.7290    1.8090  -55.9300 H   0  0  0  0  0  0  0  0  0  0  0  0
    7.9145    2.7221  -57.9687 H   0  0  0  0  0  0  0  0  0  0  0  0
    8.3139    4.0058  -56.7626 H   0  0  0  0  0  0  0  0  0  0  0  0
    9.0748    3.8749  -59.8125 H   0  0  0  0  0  0  0  0  0  0  0  0
   11.2634    4.3100  -60.9256 H   0  0  0  0  0  0  0  0  0  0  0  0
   13.3916    4.0047  -59.6613 H   0  0  0  0  0  0  0  0  0  0  0  0
   13.3325    3.2650  -57.2808 H   0  0  0  0  0  0  0  0  0  0  0  0
   11.1496    2.8287  -56.1638 H   0  0  0  0  0  0  0  0  0  0  0  0
   11.5326   -1.3695  -54.1406 H   0  0  0  0  0  0  0  0  0  0  0  0
   10.7825   -2.0232  -52.6023 H   0  0  0  0  0  0  0  0  0  0  0  0
   11.8801   -3.7248  -54.1218 H   0  0  0  0  0  0  0  0  0  0  0  0
   10.1506   -4.0213  -53.6298 H   0  0  0  0  0  0  0  0  0  0  0  0
   10.2475   -4.5929  -55.9170 H   0  0  0  0  0  0  0  0  0  0  0  0
    9.5082   -2.9343  -55.8410 H   0  0  0  0  0  0  0  0  0  0  0  0
   11.2775   -1.9395  -56.8685 H   0  0  0  0  0  0  0  0  0  0  0  0
   12.4739   -3.0879  -56.1689 H   0  0  0  0  0  0  0  0  0  0  0  0
   10.7120   -3.4470  -58.3700 H   0  0  0  0  0  0  0  0  0  0  0  0
    7.3294   -4.0598  -53.7501 H   0  0  0  0  0  0  0  0  0  0  0  0
    6.8691   -5.7089  -51.9377 H   0  0  0  0  0  0  0  0  0  0  0  0
    7.2260   -5.0733  -49.5518 H   0  0  0  0  0  0  0  0  0  0  0  0
    8.0351   -2.7847  -48.9777 H   0  0  0  0  0  0  0  0  0  0  0  0
    8.4963   -1.1336  -50.7880 H   0  0  0  0  0  0  0  0  0  0  0  0
  1  2  1  0
  2  3  1  0
  3  4  1  0
  4  5  2  0
  4  6  1  0
  6  7  1  0
  7  8  1  0
  8  9  2  0
  9 10  1  0
 10 11  2  0
 11 12  1  0
 12 13  2  0
  3 14  2  0
 14 15  1  0
 15 16  1  0
 16 17  1  0
 17 18  1  0
 18 19  1  0
 19 20  1  0
 15 21  1  0
 21 22  1  0
 22 23  2  0
 23 24  1  0
 24 25  2  0
 25 26  1  0
 26 27  2  0
 21  2  2  0
 27 22  1  0
 13  8  1  0
  1 28  1  0
  1 29  1  0
  1 30  1  0
  6 31  1  0
  7 32  1  0
  7 33  1  0
  9 34  1  0
 10 35  1  0
 11 36  1  0
 12 37  1  0
 13 38  1  0
 16 39  1  0
 16 40  1  0
 17 41  1  0
 17 42  1  0
 18 43  1  0
 18 44  1  0
 19 45  1  0
 19 46  1  0
 20 47  1  0
 23 48  1  0
 24 49  1  0
 25 50  1  0
 26 51  1  0
 27 52  1  0
M  END
>  <meeko>  (178) 
{"is_sidechain": false}

$$$$

     RDKit          3D

 57 62  0  0  0  0  0  0  0  0999 V2000
    6.0130    0.3290  -53.3880 C   0  0  0  0  0  0  0  0  0  0  0  0
    7.2110   -0.3230  -53.9810 C   0  0  0  0  0  0  0  0  0  0  0  0
    7.9400    0.1200  -55.1150 C   0  0  0  0  0  0  0  0  0  0  0  0
    7.6810    1.3100  -55.9520 C   0  0  0  0  0  0  0  0  0  0  0  0
    6.5900    1.8650  -56.0010 O   0  0  0  0  0  0  0  0  0  0  0  0
    8.7930    1.7120  -56.6590 N   0  0  0  0  0  0  0  0  0  0  0  0
    8.8710    2.8470  -57.5730 C   0  0  2  0  0  0  0  0  0  0  0  0
    8.7600    4.1950  -56.8190 C   0  0  0  0  0  0  0  0  0  0  0  0
    8.8930    5.3750  -57.7980 C   0  0  1  0  0  0  0  0  0  0  0  0
   10.2620    5.3060  -58.4930 C   0  0  0  0  0  0  0  0  0  0  0  0
   10.3930    3.9850  -59.2670 C   0  0  2  0  0  0  0  0  0  0  0  0
    9.2770    3.9010  -60.3220 C   0  0  0  0  0  0  0  0  0  0  0  0
    7.9030    3.9620  -59.6380 C   0  0  2  0  0  0  0  0  0  0  0  0
    7.7820    5.2820  -58.8580 C   0  0  0  0  0  0  0  0  0  0  0  0
    7.7690    2.7810  -58.6590 C   0  0  0  0  0  0  0  0  0  0  0  0
   10.2480    2.8100  -58.2860 C   0  0  0  0  0  0  0  0  0  0  0  0
    8.9690   -0.7000  -55.3850 N   0  0  0  0  0  0  0  0  0  0  0  0
    8.9230   -1.6790  -54.4360 N   0  0  0  0  0  0  0  0  0  0  0  0
    9.9310   -2.6500  -54.5460 C   0  0  0  0  0  0  0  0  0  0  0  0
   10.0400   -3.6090  -55.5360 C   0  0  0  0  0  0  0  0  0  0  0  0
   11.1850   -4.4420  -55.3510 C   0  0  0  0  0  0  0  0  0  0  0  0
   11.9010   -4.0860  -54.2310 C   0  0  0  0  0  0  0  0  0  0  0  0
   11.1920   -2.7600  -53.4170 S   0  0  0  0  0  0  0  0  0  0  0  0
    7.8570   -1.4790  -53.5580 C   0  0  0  0  0  0  0  0  0  0  0  0
    7.4990   -2.3240  -52.4240 C   0  0  0  0  0  0  0  0  0  0  0  0
    8.0740   -2.0980  -51.1670 C   0  0  0  0  0  0  0  0  0  0  0  0
    7.7520   -2.9240  -50.0890 C   0  0  0  0  0  0  0  0  0  0  0  0
    6.8650   -3.9860  -50.2630 C   0  0  0  0  0  0  0  0  0  0  0  0
    6.3010   -4.2260  -51.5170 C   0  0  0  0  0  0  0  0  0  0  0  0
    6.6210   -3.4010  -52.5970 C   0  0  0  0  0  0  0  0  0  0  0  0
    6.0809    0.2921  -52.2907 H   0  0  0  0  0  0  0  0  0  0  0  0
    5.9654    1.3775  -53.7173 H   0  0  0  0  0  0  0  0  0  0  0  0
    5.1067   -0.2003  -53.7173 H   0  0  0  0  0  0  0  0  0  0  0  0
    9.6140    1.1330  -56.4970 H   0  0  0  0  0  0  0  0  0  0  0  0
    7.7824    4.2495  -56.3176 H   0  0  0  0  0  0  0  0  0  0  0  0
    9.5710    4.2552  -56.0783 H   0  0  0  0  0  0  0  0  0  0  0  0
    8.8036    6.3237  -57.2485 H   0  0  0  0  0  0  0  0  0  0  0  0
   10.3581    6.1492  -59.1928 H   0  0  0  0  0  0  0  0  0  0  0  0
   11.0556    5.3593  -57.7331 H   0  0  0  0  0  0  0  0  0  0  0  0
   11.3747    3.9407  -59.7613 H   0  0  0  0  0  0  0  0  0  0  0  0
    9.3733    4.7439  -61.0222 H   0  0  0  0  0  0  0  0  0  0  0  0
    9.3669    2.9505  -60.8684 H   0  0  0  0  0  0  0  0  0  0  0  0
    7.1094    3.9058  -60.3976 H   0  0  0  0  0  0  0  0  0  0  0  0
    7.8742    6.1268  -59.5564 H   0  0  0  0  0  0  0  0  0  0  0  0
    6.8034    5.3150  -58.3568 H   0  0  0  0  0  0  0  0  0  0  0  0
    6.7818    2.8222  -58.1755 H   0  0  0  0  0  0  0  0  0  0  0  0
    7.8787    1.8409  -59.2195 H   0  0  0  0  0  0  0  0  0  0  0  0
   10.3403    1.8647  -58.8409 H   0  0  0  0  0  0  0  0  0  0  0  0
   11.0385    2.8894  -57.5252 H   0  0  0  0  0  0  0  0  0  0  0  0
    9.3286   -3.7175  -56.3680 H   0  0  0  0  0  0  0  0  0  0  0  0
   11.4613   -5.2683  -56.0225 H   0  0  0  0  0  0  0  0  0  0  0  0
   12.8189   -4.5934  -53.8994 H   0  0  0  0  0  0  0  0  0  0  0  0
    8.7815   -1.2671  -51.0290 H   0  0  0  0  0  0  0  0  0  0  0  0
    8.1983   -2.7371  -49.1011 H   0  0  0  0  0  0  0  0  0  0  0  0
    6.6098   -4.6345  -49.4120 H   0  0  0  0  0  0  0  0  0  0  0  0
    5.6039   -5.0657  -51.6545 H   0  0  0  0  0  0  0  0  0  0  0  0
    6.1822   -3.5976  -53.5864 H   0  0  0  0  0  0  0  0  0  0  0  0
  1  2  1  0
  2  3  1  0
  3  4  1  0
  4  5  2  0
  4  6  1  0
  7  6  1  1
  7  8  1  0
  8  9  1  0
  9 10  1  0
 10 11  1  0
 11 12  1  0
 12 13  1  0
 13 14  1  0
 13 15  1  0
 11 16  1  0
  3 17  2  0
 17 18  1  0
 18 19  1  0
 19 20  2  0
 20 21  1  0
 21 22  2  0
 22 23  1  0
 18 24  1  0
 24 25  1  0
 25 26  2  0
 26 27  1  0
 27 28  2  0
 28 29  1  0
 29 30  2  0
 24  2  2  0
 30 25  1  0
 15  7  1  0
 23 19  1  0
 16  7  1  0
 14  9  1  0
  1 31  1  0
  1 32  1  0
  1 33  1  0
  6 34  1  0
  8 35  1  0
  8 36  1  0
  9 37  1  1
 10 38  1  0
 10 39  1  0
 11 40  1  6
 12 41  1  0
 12 42  1  0
 13 43  1  6
 14 44  1  0
 14 45  1  0
 15 46  1  0
 15 47  1  0
 16 48  1  0
 16 49  1  0
 20 50  1  0
 21 51  1  0
 22 52  1  0
 26 53  1  0
 27 54  1  0
 28 55  1  0
 29 56  1  0
 30 57  1  0
M  END
>  <meeko>  (179) 
{"is_sidechain": false}

$$$$

     RDKit          3D

 49 52  0  0  0  0  0  0  0  0999 V2000
    8.0560    0.7800  -54.1510 C   0  0  0  0  0  0  0  0  0  0  0  0
    9.0950   -0.0090  -54.8680 C   0  0  0  0  0  0  0  0  0  0  0  0
    9.9440    0.4640  -55.9000 C   0  0  0  0  0  0  0  0  0  0  0  0
    9.9660    1.8070  -56.5130 C   0  0  0  0  0  0  0  0  0  0  0  0
    9.8710    2.8470  -55.8680 O   0  0  0  0  0  0  0  0  0  0  0  0
   10.0830    1.7690  -57.8870 N   0  0  0  0  0  0  0  0  0  0  0  0
    9.9250    2.9400  -58.7100 C   0  0  0  0  0  0  0  0  0  0  0  0
   11.2550    3.5900  -59.0690 C   0  0  0  0  0  0  0  0  0  0  0  0
   10.8910    4.4940  -60.2360 C   0  0  0  0  0  0  0  0  0  0  0  0
    9.7960    3.7490  -60.9970 C   0  0  0  0  0  0  0  0  0  0  0  0
    9.3160    2.6270  -60.0760 C   0  0  0  0  0  0  0  0  0  0  0  0
   10.8050   -0.4860  -56.2970 N   0  0  0  0  0  0  0  0  0  0  0  0
   10.4790   -1.6040  -55.5870 N   0  0  0  0  0  0  0  0  0  0  0  0
   11.1720   -2.8220  -55.8940 C   0  0  0  0  0  0  0  0  0  0  0  0
   11.6660   -3.0100  -57.1990 C   0  0  0  0  0  0  0  0  0  0  0  0
   12.3480   -4.1780  -57.5480 C   0  0  0  0  0  0  0  0  0  0  0  0
   12.5370   -5.1810  -56.6030 C   0  0  0  0  0  0  0  0  0  0  0  0
   12.0390   -5.0180  -55.3140 C   0  0  0  0  0  0  0  0  0  0  0  0
   11.3560   -3.8480  -54.9600 C   0  0  0  0  0  0  0  0  0  0  0  0
    9.4730   -1.3310  -54.6570 C   0  0  0  0  0  0  0  0  0  0  0  0
    8.9790   -2.2310  -53.6170 C   0  0  0  0  0  0  0  0  0  0  0  0
    7.8860   -3.0690  -53.8690 C   0  0  0  0  0  0  0  0  0  0  0  0
    7.4040   -3.9170  -52.8710 C   0  0  0  0  0  0  0  0  0  0  0  0
    8.0050   -3.9250  -51.6130 C   0  0  0  0  0  0  0  0  0  0  0  0
    9.0850   -3.0840  -51.3490 C   0  0  0  0  0  0  0  0  0  0  0  0
    9.5680   -2.2350  -52.3460 C   0  0  0  0  0  0  0  0  0  0  0  0
    8.1979    0.6722  -53.0655 H   0  0  0  0  0  0  0  0  0  0  0  0
    8.1444    1.8407  -54.4288 H   0  0  0  0  0  0  0  0  0  0  0  0
    7.0580    0.4101  -54.4288 H   0  0  0  0  0  0  0  0  0  0  0  0
   10.0140    0.8360  -58.2870 H   0  0  0  0  0  0  0  0  0  0  0  0
    9.2831    3.5896  -58.0969 H   0  0  0  0  0  0  0  0  0  0  0  0
   11.6500    4.1742  -58.2248 H   0  0  0  0  0  0  0  0  0  0  0  0
   12.0411    2.8608  -59.3148 H   0  0  0  0  0  0  0  0  0  0  0  0
   10.5165    5.4619  -59.8714 H   0  0  0  0  0  0  0  0  0  0  0  0
   11.7604    4.7092  -60.8746 H   0  0  0  0  0  0  0  0  0  0  0  0
    8.9649    4.4304  -61.2314 H   0  0  0  0  0  0  0  0  0  0  0  0
   10.1743    3.3485  -61.9491 H   0  0  0  0  0  0  0  0  0  0  0  0
    8.2176    2.6207  -60.0161 H   0  0  0  0  0  0  0  0  0  0  0  0
    9.6198    1.6358  -60.4436 H   0  0  0  0  0  0  0  0  0  0  0  0
   11.5126   -2.2256  -57.9548 H   0  0  0  0  0  0  0  0  0  0  0  0
   12.7354   -4.3045  -58.5697 H   0  0  0  0  0  0  0  0  0  0  0  0
   13.0781   -6.0996  -56.8737 H   0  0  0  0  0  0  0  0  0  0  0  0
   12.1828   -5.8136  -54.5681 H   0  0  0  0  0  0  0  0  0  0  0  0
   10.9609   -3.7343  -53.9397 H   0  0  0  0  0  0  0  0  0  0  0  0
    7.4050   -3.0589  -54.8582 H   0  0  0  0  0  0  0  0  0  0  0  0
    6.5500   -4.5790  -53.0768 H   0  0  0  0  0  0  0  0  0  0  0  0
    7.6265   -4.5958  -50.8277 H   0  0  0  0  0  0  0  0  0  0  0  0
    9.5564   -3.0895  -50.3552 H   0  0  0  0  0  0  0  0  0  0  0  0
   10.4148   -1.5661  -52.1328 H   0  0  0  0  0  0  0  0  0  0  0  0
  1  2  1  0
  2  3  1  0
  3  4  1  0
  4  5  2  0
  4  6  1  0
  6  7  1  0
  7  8  1  0
  8  9  1  0
  9 10  1  0
 10 11  1  0
  3 12  2  0
 12 13  1  0
 13 14  1  0
 14 15  2  0
 15 16  1  0
 16 17  2  0
 17 18  1  0
 18 19  2  0
 13 20  1  0
 20 21  1  0
 21 22  2  0
 22 23  1  0
 23 24  2  0
 24 25  1  0
 25 26  2  0
 20  2  2  0
 26 21  1  0
 11  7  1  0
 19 14  1  0
  1 27  1  0
  1 28  1  0
  1 29  1  0
  6 30  1  0
  7 31  1  0
  8 32  1  0
  8 33  1  0
  9 34  1  0
  9 35  1  0
 10 36  1  0
 10 37  1  0
 11 38  1  0
 11 39  1  0
 15 40  1  0
 16 41  1  0
 17 42  1  0
 18 43  1  0
 19 44  1  0
 22 45  1  0
 23 46  1  0
 24 47  1  0
 25 48  1  0
 26 49  1  0
M  END
>  <meeko>  (180) 
{"is_sidechain": false}

$$$$

     RDKit          3D

 59 63  0  0  0  0  0  0  0  0999 V2000
    5.8810   -0.1840  -53.8500 C   0  0  0  0  0  0  0  0  0  0  0  0
    7.3160   -0.4730  -54.1040 C   0  0  0  0  0  0  0  0  0  0  0  0
    8.1810    0.1720  -55.0460 C   0  0  0  0  0  0  0  0  0  0  0  0
    7.8440    1.2310  -56.0180 C   0  0  0  0  0  0  0  0  0  0  0  0
    6.7230    1.7160  -56.1130 O   0  0  0  0  0  0  0  0  0  0  0  0
    8.9250    1.6320  -56.7870 N   0  0  0  0  0  0  0  0  0  0  0  0
    8.9000    2.7460  -57.7380 C   0  0  2  0  0  0  0  0  0  0  0  0
    8.7140    4.1050  -57.0210 C   0  0  0  0  0  0  0  0  0  0  0  0
    8.7520    5.2610  -58.0360 C   0  0  1  0  0  0  0  0  0  0  0  0
   10.1110    5.2620  -58.7560 C   0  0  0  0  0  0  0  0  0  0  0  0
   10.3130    3.9310  -59.4960 C   0  0  2  0  0  0  0  0  0  0  0  0
    9.1880    3.7460  -60.5260 C   0  0  0  0  0  0  0  0  0  0  0  0
    7.8250    3.7340  -59.8170 C   0  0  2  0  0  0  0  0  0  0  0  0
    7.6310    5.0650  -59.0700 C   0  0  0  0  0  0  0  0  0  0  0  0
    7.7870    2.5760  -58.8040 C   0  0  0  0  0  0  0  0  0  0  0  0
   10.2630    2.7770  -58.4820 C   0  0  0  0  0  0  0  0  0  0  0  0
    9.4260   -0.3260  -54.9680 N   0  0  0  0  0  0  0  0  0  0  0  0
    9.3590   -1.2750  -54.0230 N   0  0  0  0  0  0  0  0  0  0  0  0
   10.5590   -2.0370  -53.7400 C   0  0  0  0  0  0  0  0  0  0  0  0
   11.2620   -2.5900  -54.9700 C   0  0  0  0  0  0  0  0  0  0  0  0
   10.8040   -3.9810  -55.3340 C   0  0  0  0  0  0  0  0  0  0  0  0
    9.6920   -4.3480  -54.6680 F   0  0  0  0  0  0  0  0  0  0  0  0
   10.5820   -4.1030  -56.6580 F   0  0  0  0  0  0  0  0  0  0  0  0
   11.7700   -4.8730  -55.0050 F   0  0  0  0  0  0  0  0  0  0  0  0
    8.1150   -1.4040  -53.4540 C   0  0  0  0  0  0  0  0  0  0  0  0
    7.7780   -2.3570  -52.4040 C   0  0  0  0  0  0  0  0  0  0  0  0
    7.1720   -3.5750  -52.7320 C   0  0  0  0  0  0  0  0  0  0  0  0
    6.8510   -4.4930  -51.7310 C   0  0  0  0  0  0  0  0  0  0  0  0
    7.1280   -4.1960  -50.3970 C   0  0  0  0  0  0  0  0  0  0  0  0
    7.7210   -2.9780  -50.0620 C   0  0  0  0  0  0  0  0  0  0  0  0
    8.0430   -2.0600  -51.0620 C   0  0  0  0  0  0  0  0  0  0  0  0
    5.7007   -0.1477  -52.7655 H   0  0  0  0  0  0  0  0  0  0  0  0
    5.6173    0.7853  -54.2982 H   0  0  0  0  0  0  0  0  0  0  0  0
    5.2626   -0.9756  -54.2982 H   0  0  0  0  0  0  0  0  0  0  0  0
    9.8290    1.3520  -56.4300 H   0  0  0  0  0  0  0  0  0  0  0  0
    7.7439    4.1106  -56.5024 H   0  0  0  0  0  0  0  0  0  0  0  0
    9.5320    4.2401  -56.2980 H   0  0  0  0  0  0  0  0  0  0  0  0
    8.6105    6.2177  -57.5119 H   0  0  0  0  0  0  0  0  0  0  0  0
   10.1393    6.0896  -59.4801 H   0  0  0  0  0  0  0  0  0  0  0  0
   10.9132    5.3887  -58.0141 H   0  0  0  0  0  0  0  0  0  0  0  0
   11.2867    3.9362  -60.0078 H   0  0  0  0  0  0  0  0  0  0  0  0
    9.2156    4.5748  -61.2488 H   0  0  0  0  0  0  0  0  0  0  0  0
    9.3314    2.7897  -61.0503 H   0  0  0  0  0  0  0  0  0  0  0  0
    7.0239    3.6029  -60.5593 H   0  0  0  0  0  0  0  0  0  0  0  0
    7.6540    5.8941  -59.7926 H   0  0  0  0  0  0  0  0  0  0  0  0
    6.6618    5.0472  -58.5501 H   0  0  0  0  0  0  0  0  0  0  0  0
    6.8070    2.5647  -58.3046 H   0  0  0  0  0  0  0  0  0  0  0  0
    7.9518    1.6301  -59.3407 H   0  0  0  0  0  0  0  0  0  0  0  0
   10.4037    1.8246  -59.0142 H   0  0  0  0  0  0  0  0  0  0  0  0
   11.0623    2.9274  -57.7414 H   0  0  0  0  0  0  0  0  0  0  0  0
   11.2640   -1.3818  -53.2073 H   0  0  0  0  0  0  0  0  0  0  0  0
   10.2434   -2.9060  -53.1439 H   0  0  0  0  0  0  0  0  0  0  0  0
   11.0607   -1.9209  -55.8196 H   0  0  0  0  0  0  0  0  0  0  0  0
   12.3358   -2.6467  -54.7382 H   0  0  0  0  0  0  0  0  0  0  0  0
    6.9478   -3.8098  -53.7830 H   0  0  0  0  0  0  0  0  0  0  0  0
    6.3793   -5.4512  -51.9944 H   0  0  0  0  0  0  0  0  0  0  0  0
    6.8791   -4.9218  -49.6088 H   0  0  0  0  0  0  0  0  0  0  0  0
    7.9346   -2.7416  -49.0091 H   0  0  0  0  0  0  0  0  0  0  0  0
    8.5069   -1.0991  -50.7948 H   0  0  0  0  0  0  0  0  0  0  0  0
  1  2  1  0
  2  3  1  0
  3  4  1  0
  4  5  2  0
  4  6  1  0
  7  6  1  1
  7  8  1  0
  8  9  1  0
  9 10  1  0
 10 11  1  0
 11 12  1  0
 12 13  1  0
 13 14  1  0
 13 15  1  0
 11 16  1  0
  3 17  2  0
 17 18  1  0
 18 19  1  0
 19 20  1  0
 20 21  1  0
 21 22  1  0
 21 23  1  0
 21 24  1  0
 18 25  1  0
 25 26  1  0
 26 27  2  0
 27 28  1  0
 28 29  2  0
 29 30  1  0
 30 31  2  0
 25  2  2  0
 31 26  1  0
 15  7  1  0
 16  7  1  0
 14  9  1  0
  1 32  1  0
  1 33  1  0
  1 34  1  0
  6 35  1  0
  8 36  1  0
  8 37  1  0
  9 38  1  1
 10 39  1  0
 10 40  1  0
 11 41  1  6
 12 42  1  0
 12 43  1  0
 13 44  1  6
 14 45  1  0
 14 46  1  0
 15 47  1  0
 15 48  1  0
 16 49  1  0
 16 50  1  0
 19 51  1  0
 19 52  1  0
 20 53  1  0
 20 54  1  0
 27 55  1  0
 28 56  1  0
 29 57  1  0
 30 58  1  0
 31 59  1  0
M  END
>  <meeko>  (181) 
{"is_sidechain": false}

$$$$

     RDKit          3D

 49 51  0  0  0  0  0  0  0  0999 V2000
    7.1330    0.1540  -53.4700 C   0  0  0  0  0  0  0  0  0  0  0  0
    8.3160   -0.6120  -53.9420 C   0  0  0  0  0  0  0  0  0  0  0  0
    9.2410   -0.2490  -54.9750 C   0  0  0  0  0  0  0  0  0  0  0  0
    9.2710    0.9900  -55.7830 C   0  0  0  0  0  0  0  0  0  0  0  0
    8.3400    1.7860  -55.7800 O   0  0  0  0  0  0  0  0  0  0  0  0
   10.4390    1.1070  -56.5250 N   0  0  0  0  0  0  0  0  0  0  0  0
   10.8250    2.1700  -57.3640 C   0  0  0  0  0  0  0  0  0  0  0  0
   11.9610    2.8980  -56.9890 C   0  0  0  0  0  0  0  0  0  0  0  0
   12.4100    3.9740  -57.7620 C   0  0  0  0  0  0  0  0  0  0  0  0
   11.7240    4.3490  -58.9250 C   0  0  0  0  0  0  0  0  0  0  0  0
   12.2180    5.4940  -59.7750 C   0  0  0  0  0  0  0  0  0  0  0  0
   11.5830    5.5860  -60.9770 F   0  0  0  0  0  0  0  0  0  0  0  0
   13.5460    5.3930  -60.0590 F   0  0  0  0  0  0  0  0  0  0  0  0
   12.0550    6.7070  -59.1760 F   0  0  0  0  0  0  0  0  0  0  0  0
   10.5910    3.6140  -59.3010 C   0  0  0  0  0  0  0  0  0  0  0  0
   10.1440    2.5380  -58.5250 C   0  0  0  0  0  0  0  0  0  0  0  0
   10.1610   -1.2120  -55.1510 N   0  0  0  0  0  0  0  0  0  0  0  0
    9.8320   -2.1680  -54.2670 N   0  0  0  0  0  0  0  0  0  0  0  0
   10.6400   -3.3770  -54.2260 C   0  0  0  0  0  0  0  0  0  0  0  0
   10.4410   -4.2330  -55.4690 C   0  0  0  0  0  0  0  0  0  0  0  0
   11.6570   -4.1680  -56.3790 C   0  0  0  0  0  0  0  0  0  0  0  0
   11.5670   -3.0260  -57.2200 O   0  0  0  0  0  0  0  0  0  0  0  0
    8.7430   -1.8540  -53.4940 C   0  0  0  0  0  0  0  0  0  0  0  0
    8.1920   -2.7170  -52.4580 C   0  0  0  0  0  0  0  0  0  0  0  0
    7.2020   -3.6520  -52.7780 C   0  0  0  0  0  0  0  0  0  0  0  0
    6.6680   -4.4760  -51.7860 C   0  0  0  0  0  0  0  0  0  0  0  0
    7.1250   -4.3730  -50.4730 C   0  0  0  0  0  0  0  0  0  0  0  0
    8.1160   -3.4480  -50.1500 C   0  0  0  0  0  0  0  0  0  0  0  0
    8.6520   -2.6220  -51.1410 C   0  0  0  0  0  0  0  0  0  0  0  0
    7.1176    0.1640  -52.3702 H   0  0  0  0  0  0  0  0  0  0  0  0
    7.1911    1.1864  -53.8453 H   0  0  0  0  0  0  0  0  0  0  0  0
    6.2148   -0.3214  -53.8453 H   0  0  0  0  0  0  0  0  0  0  0  0
   11.0510    0.3030  -56.5080 H   0  0  0  0  0  0  0  0  0  0  0  0
   12.5070    2.6203  -56.0753 H   0  0  0  0  0  0  0  0  0  0  0  0
   13.3081    4.5298  -57.4547 H   0  0  0  0  0  0  0  0  0  0  0  0
   10.0464    3.8861  -60.2172 H   0  0  0  0  0  0  0  0  0  0  0  0
    9.2487    1.9781  -58.8330 H   0  0  0  0  0  0  0  0  0  0  0  0
   11.7006   -3.0941  -54.1547 H   0  0  0  0  0  0  0  0  0  0  0  0
   10.3282   -3.9668  -53.3514 H   0  0  0  0  0  0  0  0  0  0  0  0
   10.2762   -5.2769  -55.1637 H   0  0  0  0  0  0  0  0  0  0  0  0
    9.5705   -3.8496  -56.0214 H   0  0  0  0  0  0  0  0  0  0  0  0
   12.5683   -4.1000  -55.7668 H   0  0  0  0  0  0  0  0  0  0  0  0
   11.6953   -5.0750  -57.0002 H   0  0  0  0  0  0  0  0  0  0  0  0
   10.6560   -2.6890  -57.1640 H   0  0  0  0  0  0  0  0  0  0  0  0
    6.8433   -3.7381  -53.8143 H   0  0  0  0  0  0  0  0  0  0  0  0
    5.8863   -5.2069  -52.0403 H   0  0  0  0  0  0  0  0  0  0  0  0
    6.7032   -5.0222  -49.6916 H   0  0  0  0  0  0  0  0  0  0  0  0
    8.4765   -3.3682  -49.1138 H   0  0  0  0  0  0  0  0  0  0  0  0
    9.4373   -1.8956  -50.8848 H   0  0  0  0  0  0  0  0  0  0  0  0
  1  2  1  0
  2  3  1  0
  3  4  1  0
  4  5  2  0
  4  6  1  0
  6  7  1  0
  7  8  1  0
  8  9  2  0
  9 10  1  0
 10 11  1  0
 11 12  1  0
 11 13  1  0
 11 14  1  0
 10 15  2  0
 15 16  1  0
  3 17  2  0
 17 18  1  0
 18 19  1  0
 19 20  1  0
 20 21  1  0
 21 22  1  0
 18 23  1  0
 23 24  1  0
 24 25  2  0
 25 26  1  0
 26 27  2  0
 27 28  1  0
 28 29  2  0
 23  2  2  0
 29 24  1  0
 16  7  2  0
  1 30  1  0
  1 31  1  0
  1 32  1  0
  6 33  1  0
  8 34  1  0
  9 35  1  0
 15 36  1  0
 16 37  1  0
 19 38  1  0
 19 39  1  0
 20 40  1  0
 20 41  1  0
 21 42  1  0
 21 43  1  0
 22 44  1  0
 25 45  1  0
 26 46  1  0
 27 47  1  0
 28 48  1  0
 29 49  1  0
M  END
>  <meeko>  (182) 
{"is_sidechain": false}

$$$$

     RDKit          3D

 60 64  0  0  0  0  0  0  0  0999 V2000
   11.9640   -3.6630  -58.0060 C   0  0  0  0  0  0  0  0  0  0  0  0
   11.2140   -3.2670  -56.8640 O   0  0  0  0  0  0  0  0  0  0  0  0
   11.6020   -3.9430  -55.6700 C   0  0  0  0  0  0  0  0  0  0  0  0
   10.5200   -3.8470  -54.6010 C   0  0  0  0  0  0  0  0  0  0  0  0
   10.6690   -2.5660  -53.7900 C   0  0  0  0  0  0  0  0  0  0  0  0
    9.5900   -1.6270  -54.0450 N   0  0  0  0  0  0  0  0  0  0  0  0
    9.7690   -0.6810  -54.9820 N   0  0  0  0  0  0  0  0  0  0  0  0
    8.6310    0.0370  -54.9790 C   0  0  0  0  0  0  0  0  0  0  0  0
    8.4360    1.1850  -55.8940 C   0  0  0  0  0  0  0  0  0  0  0  0
    7.3350    1.6730  -56.1240 O   0  0  0  0  0  0  0  0  0  0  0  0
    9.6020    1.6520  -56.4830 N   0  0  0  0  0  0  0  0  0  0  0  0
    9.6580    2.7200  -57.4850 C   0  0  2  0  0  0  0  0  0  0  0  0
    8.7530    2.4100  -58.7030 C   0  0  0  0  0  0  0  0  0  0  0  0
    8.8760    3.5170  -59.7650 C   0  0  1  0  0  0  0  0  0  0  0  0
    8.4660    4.8640  -59.1440 C   0  0  0  0  0  0  0  0  0  0  0  0
    9.3850    5.2020  -57.9570 C   0  0  2  0  0  0  0  0  0  0  0  0
   10.8400    5.2770  -58.4470 C   0  0  0  0  0  0  0  0  0  0  0  0
   11.2570    3.9310  -59.0590 C   0  0  2  0  0  0  0  0  0  0  0  0
   10.3340    3.6030  -60.2440 C   0  0  0  0  0  0  0  0  0  0  0  0
   11.1220    2.8310  -57.9950 C   0  0  0  0  0  0  0  0  0  0  0  0
    9.2630    4.0970  -56.8930 C   0  0  0  0  0  0  0  0  0  0  0  0
    7.7280   -0.4870  -54.0110 C   0  0  0  0  0  0  0  0  0  0  0  0
    8.3660   -1.5630  -53.4270 C   0  0  0  0  0  0  0  0  0  0  0  0
    7.9070   -2.4600  -52.3770 C   0  0  0  0  0  0  0  0  0  0  0  0
    7.1910   -3.6160  -52.7040 C   0  0  0  0  0  0  0  0  0  0  0  0
    6.7450   -4.4750  -51.6980 C   0  0  0  0  0  0  0  0  0  0  0  0
    7.0200   -4.1880  -50.3620 C   0  0  0  0  0  0  0  0  0  0  0  0
    7.7440   -3.0420  -50.0290 C   0  0  0  0  0  0  0  0  0  0  0  0
    8.1890   -2.1810  -51.0340 C   0  0  0  0  0  0  0  0  0  0  0  0
   12.8936   -4.1538  -57.6820 H   0  0  0  0  0  0  0  0  0  0  0  0
   11.3698   -4.3649  -58.6095 H   0  0  0  0  0  0  0  0  0  0  0  0
   12.2085   -2.7765  -58.6095 H   0  0  0  0  0  0  0  0  0  0  0  0
   11.7836   -5.0029  -55.9015 H   0  0  0  0  0  0  0  0  0  0  0  0
   12.5148   -3.4665  -55.2830 H   0  0  0  0  0  0  0  0  0  0  0  0
    9.5328   -3.8533  -55.0862 H   0  0  0  0  0  0  0  0  0  0  0  0
   10.6198   -4.7065  -53.9218 H   0  0  0  0  0  0  0  0  0  0  0  0
   10.6705   -2.8220  -52.7202 H   0  0  0  0  0  0  0  0  0  0  0  0
   11.6126   -2.0854  -54.0877 H   0  0  0  0  0  0  0  0  0  0  0  0
   10.4180    1.0630  -56.3990 H   0  0  0  0  0  0  0  0  0  0  0  0
    9.0578    1.4498  -59.1447 H   0  0  0  0  0  0  0  0  0  0  0  0
    7.7078    2.3583  -58.3641 H   0  0  0  0  0  0  0  0  0  0  0  0
    8.2198    3.2860  -60.6171 H   0  0  0  0  0  0  0  0  0  0  0  0
    8.5481    5.6548  -59.9041 H   0  0  0  0  0  0  0  0  0  0  0  0
    7.4281    4.7940  -58.7865 H   0  0  0  0  0  0  0  0  0  0  0  0
    9.0912    6.1692  -57.5232 H   0  0  0  0  0  0  0  0  0  0  0  0
   10.9281    6.0664  -59.2080 H   0  0  0  0  0  0  0  0  0  0  0  0
   11.4971    5.5060  -57.5951 H   0  0  0  0  0  0  0  0  0  0  0  0
   12.2990    3.9888  -59.4066 H   0  0  0  0  0  0  0  0  0  0  0  0
   10.4219    4.3932  -61.0041 H   0  0  0  0  0  0  0  0  0  0  0  0
   10.6303    2.6358  -60.6762 H   0  0  0  0  0  0  0  0  0  0  0  0
   11.4232    1.8683  -58.4338 H   0  0  0  0  0  0  0  0  0  0  0  0
   11.7692    3.0882  -57.1436 H   0  0  0  0  0  0  0  0  0  0  0  0
    9.9295    4.3322  -56.0501 H   0  0  0  0  0  0  0  0  0  0  0  0
    8.2184    4.0486  -56.5517 H   0  0  0  0  0  0  0  0  0  0  0  0
    6.7220   -0.1096  -53.7753 H   0  0  0  0  0  0  0  0  0  0  0  0
    6.9785   -3.8492  -53.7578 H   0  0  0  0  0  0  0  0  0  0  0  0
    6.1760   -5.3792  -51.9599 H   0  0  0  0  0  0  0  0  0  0  0  0
    6.6665   -4.8646  -49.5701 H   0  0  0  0  0  0  0  0  0  0  0  0
    7.9639   -2.8173  -48.9749 H   0  0  0  0  0  0  0  0  0  0  0  0
    8.7630   -1.2805  -50.7700 H   0  0  0  0  0  0  0  0  0  0  0  0
  1  2  1  0
  2  3  1  0
  3  4  1  0
  4  5  1  0
  5  6  1  0
  6  7  1  0
  7  8  2  0
  8  9  1  0
  9 10  2  0
  9 11  1  0
 12 11  1  1
 12 13  1  0
 13 14  1  0
 14 15  1  0
 15 16  1  0
 16 17  1  0
 17 18  1  0
 18 19  1  0
 18 20  1  0
 16 21  1  0
  8 22  1  0
 22 23  2  0
 23 24  1  0
 24 25  2  0
 25 26  1  0
 26 27  2  0
 27 28  1  0
 28 29  2  0
 23  6  1  0
 29 24  1  0
 20 12  1  0
 21 12  1  0
 19 14  1  0
  1 30  1  0
  1 31  1  0
  1 32  1  0
  3 33  1  0
  3 34  1  0
  4 35  1  0
  4 36  1  0
  5 37  1  0
  5 38  1  0
 11 39  1  0
 13 40  1  0
 13 41  1  0
 14 42  1  6
 15 43  1  0
 15 44  1  0
 16 45  1  1
 17 46  1  0
 17 47  1  0
 18 48  1  6
 19 49  1  0
 19 50  1  0
 20 51  1  0
 20 52  1  0
 21 53  1  0
 21 54  1  0
 22 55  1  0
 25 56  1  0
 26 57  1  0
 27 58  1  0
 28 59  1  0
 29 60  1  0
M  END
>  <meeko>  (183) 
{"is_sidechain": false}

$$$$

     RDKit          3D

 64 69  0  0  0  0  0  0  0  0999 V2000
    6.0260   -0.3100  -53.8340 C   0  0  0  0  0  0  0  0  0  0  0  0
    7.4690   -0.5810  -54.0610 C   0  0  0  0  0  0  0  0  0  0  0  0
    8.3280    0.0880  -54.9840 C   0  0  0  0  0  0  0  0  0  0  0  0
    7.9860    1.1840  -55.9140 C   0  0  0  0  0  0  0  0  0  0  0  0
    6.8350    1.5580  -56.1120 O   0  0  0  0  0  0  0  0  0  0  0  0
    9.0970    1.7250  -56.5230 N   0  0  0  0  0  0  0  0  0  0  0  0
    9.1080    2.8010  -57.5060 C   0  0  2  0  0  0  0  0  0  0  0  0
   10.5150    2.8590  -58.1590 C   0  0  0  0  0  0  0  0  0  0  0  0
   10.5890    3.9770  -59.2100 C   0  0  1  0  0  0  0  0  0  0  0  0
    9.5390    3.7150  -60.3010 C   0  0  0  0  0  0  0  0  0  0  0  0
    8.1340    3.6800  -59.6790 C   0  0  2  0  0  0  0  0  0  0  0  0
    7.8480    5.0280  -58.9960 C   0  0  0  0  0  0  0  0  0  0  0  0
    8.8940    5.2990  -57.9010 C   0  0  2  0  0  0  0  0  0  0  0  0
   10.2940    5.3250  -58.5330 C   0  0  0  0  0  0  0  0  0  0  0  0
    8.8300    4.1760  -56.8500 C   0  0  0  0  0  0  0  0  0  0  0  0
    8.0710    2.5570  -58.6290 C   0  0  0  0  0  0  0  0  0  0  0  0
    9.5810   -0.4100  -54.9310 N   0  0  0  0  0  0  0  0  0  0  0  0
    9.5160   -1.3760  -53.9960 N   0  0  0  0  0  0  0  0  0  0  0  0
   10.7250   -2.1270  -53.6870 C   0  0  0  0  0  0  0  0  0  0  0  0
   10.6620   -3.5570  -54.2180 C   0  0  0  0  0  0  0  0  0  0  0  0
   10.3940   -3.6200  -55.7220 C   0  0  0  0  0  0  0  0  0  0  0  0
   11.6250   -3.9070  -56.5230 C   0  0  1  0  0  0  0  0  0  0  0  0
   11.5330   -4.3050  -57.9740 C   0  0  0  0  0  0  0  0  0  0  0  0
   11.8820   -2.9710  -57.5750 O   0  0  0  0  0  0  0  0  0  0  0  0
    8.2710   -1.5240  -53.4370 C   0  0  0  0  0  0  0  0  0  0  0  0
    7.9450   -2.5010  -52.4080 C   0  0  0  0  0  0  0  0  0  0  0  0
    7.3720   -3.7290  -52.7580 C   0  0  0  0  0  0  0  0  0  0  0  0
    7.0660   -4.6680  -51.7710 C   0  0  0  0  0  0  0  0  0  0  0  0
    7.3270   -4.3820  -50.4310 C   0  0  0  0  0  0  0  0  0  0  0  0
    7.8910   -3.1570  -50.0760 C   0  0  0  0  0  0  0  0  0  0  0  0
    8.1960   -2.2170  -51.0610 C   0  0  0  0  0  0  0  0  0  0  0  0
    5.8256   -0.2724  -52.7531 H   0  0  0  0  0  0  0  0  0  0  0  0
    5.7578    0.6542  -54.2904 H   0  0  0  0  0  0  0  0  0  0  0  0
    5.4262   -1.1112  -54.2904 H   0  0  0  0  0  0  0  0  0  0  0  0
    9.9690    1.2760  -56.2470 H   0  0  0  0  0  0  0  0  0  0  0  0
   11.2663    3.0490  -57.3783 H   0  0  0  0  0  0  0  0  0  0  0  0
   10.7103    1.8974  -58.6562 H   0  0  0  0  0  0  0  0  0  0  0  0
   11.5923    4.0001  -59.6605 H   0  0  0  0  0  0  0  0  0  0  0  0
    9.5854    4.5176  -61.0518 H   0  0  0  0  0  0  0  0  0  0  0  0
    9.7474    2.7461  -60.7782 H   0  0  0  0  0  0  0  0  0  0  0  0
    7.3862    3.4957  -60.4644 H   0  0  0  0  0  0  0  0  0  0  0  0
    7.8898    5.8318  -59.7458 H   0  0  0  0  0  0  0  0  0  0  0  0
    6.8484    4.9944  -58.5382 H   0  0  0  0  0  0  0  0  0  0  0  0
    8.6873    6.2670  -57.4212 H   0  0  0  0  0  0  0  0  0  0  0  0
   10.3402    6.1277  -59.2837 H   0  0  0  0  0  0  0  0  0  0  0  0
   11.0421    5.5063  -57.7472 H   0  0  0  0  0  0  0  0  0  0  0  0
    9.5846    4.3650  -56.0723 H   0  0  0  0  0  0  0  0  0  0  0  0
    7.8233    4.1611  -56.4069 H   0  0  0  0  0  0  0  0  0  0  0  0
    7.0628    2.5290  -58.1900 H   0  0  0  0  0  0  0  0  0  0  0  0
    8.2994    1.5996  -59.1202 H   0  0  0  0  0  0  0  0  0  0  0  0
   11.5862   -1.6166  -54.1428 H   0  0  0  0  0  0  0  0  0  0  0  0
   10.8243   -2.1753  -52.5926 H   0  0  0  0  0  0  0  0  0  0  0  0
   11.6228   -4.0512  -54.0113 H   0  0  0  0  0  0  0  0  0  0  0  0
    9.8260   -4.0615  -53.7115 H   0  0  0  0  0  0  0  0  0  0  0  0
    9.6576   -4.4143  -55.9140 H   0  0  0  0  0  0  0  0  0  0  0  0
   10.0222   -2.6322  -56.0320 H   0  0  0  0  0  0  0  0  0  0  0  0
   12.1490   -4.3399  -55.6581 H   0  0  0  0  0  0  0  0  0  0  0  0
   12.2908   -4.9681  -58.4168 H   0  0  0  0  0  0  0  0  0  0  0  0
   10.7677   -4.7601  -58.6198 H   0  0  0  0  0  0  0  0  0  0  0  0
    7.1621   -3.9551  -53.8139 H   0  0  0  0  0  0  0  0  0  0  0  0
    6.6190   -5.6335  -52.0502 H   0  0  0  0  0  0  0  0  0  0  0  0
    7.0879   -5.1230  -49.6540 H   0  0  0  0  0  0  0  0  0  0  0  0
    8.0955   -2.9317  -49.0189 H   0  0  0  0  0  0  0  0  0  0  0  0
    8.6354   -1.2492  -50.7776 H   0  0  0  0  0  0  0  0  0  0  0  0
  1  2  1  0
  2  3  1  0
  3  4  1  0
  4  5  2  0
  4  6  1  0
  7  6  1  1
  7  8  1  0
  8  9  1  0
  9 10  1  0
 10 11  1  0
 11 12  1  0
 12 13  1  0
 13 14  1  0
 13 15  1  0
 11 16  1  0
  3 17  2  0
 17 18  1  0
 18 19  1  0
 19 20  1  0
 20 21  1  0
 21 22  1  0
 22 23  1  0
 23 24  1  0
 18 25  1  0
 25 26  1  0
 26 27  2  0
 27 28  1  0
 28 29  2  0
 29 30  1  0
 30 31  2  0
 25  2  2  0
 31 26  1  0
 15  7  1  0
 24 22  1  0
 16  7  1  0
 14  9  1  0
  1 32  1  0
  1 33  1  0
  1 34  1  0
  6 35  1  0
  8 36  1  0
  8 37  1  0
  9 38  1  6
 10 39  1  0
 10 40  1  0
 11 41  1  6
 12 42  1  0
 12 43  1  0
 13 44  1  1
 14 45  1  0
 14 46  1  0
 15 47  1  0
 15 48  1  0
 16 49  1  0
 16 50  1  0
 19 51  1  0
 19 52  1  0
 20 53  1  0
 20 54  1  0
 21 55  1  0
 21 56  1  0
 22 57  1  1
 23 58  1  0
 23 59  1  0
 27 60  1  0
 28 61  1  0
 29 62  1  0
 30 63  1  0
 31 64  1  0
M  END
>  <meeko>  (184) 
{"is_sidechain": false}

$$$$

     RDKit          3D

 64 69  0  0  0  0  0  0  0  0999 V2000
    6.3000    0.0920  -53.6450 C   0  0  0  0  0  0  0  0  0  0  0  0
    7.6460   -0.4330  -53.9930 C   0  0  0  0  0  0  0  0  0  0  0  0
    8.5480    0.0620  -54.9920 C   0  0  0  0  0  0  0  0  0  0  0  0
    8.3800    1.2330  -55.8760 C   0  0  0  0  0  0  0  0  0  0  0  0
    7.2850    1.7250  -56.1310 O   0  0  0  0  0  0  0  0  0  0  0  0
    9.5710    1.7010  -56.4070 N   0  0  0  0  0  0  0  0  0  0  0  0
    9.6760    2.7750  -57.3970 C   0  0  2  0  0  0  0  0  0  0  0  0
    9.3170    4.1580  -56.7970 C   0  0  0  0  0  0  0  0  0  0  0  0
    9.4910    5.2670  -57.8490 C   0  0  1  0  0  0  0  0  0  0  0  0
   10.9540    5.3000  -58.3160 C   0  0  0  0  0  0  0  0  0  0  0  0
   11.3370    3.9470  -58.9340 C   0  0  2  0  0  0  0  0  0  0  0  0
   10.4230    3.6580  -60.1360 C   0  0  0  0  0  0  0  0  0  0  0  0
    8.9550    3.6160  -59.6810 C   0  0  2  0  0  0  0  0  0  0  0  0
    8.5800    4.9700  -59.0540 C   0  0  0  0  0  0  0  0  0  0  0  0
    8.7800    2.5040  -58.6300 C   0  0  0  0  0  0  0  0  0  0  0  0
   11.1510    2.8430  -57.8820 C   0  0  0  0  0  0  0  0  0  0  0  0
    9.6560   -0.6950  -55.0510 N   0  0  0  0  0  0  0  0  0  0  0  0
    9.4780   -1.6410  -54.1140 N   0  0  0  0  0  0  0  0  0  0  0  0
   10.5150   -2.6480  -53.9380 C   0  0  0  0  0  0  0  0  0  0  0  0
   10.2770   -3.8630  -54.8350 C   0  0  0  0  0  0  0  0  0  0  0  0
   11.4680   -4.1660  -55.7430 C   0  0  0  0  0  0  0  0  0  0  0  0
   11.1060   -4.1420  -57.1930 C   0  0  2  0  0  0  0  0  0  0  0  0
   12.0590   -4.6690  -58.2330 C   0  0  0  0  0  0  0  0  0  0  0  0
   11.9050   -3.2630  -57.9910 O   0  0  0  0  0  0  0  0  0  0  0  0
    8.2890   -1.5290  -53.4360 C   0  0  0  0  0  0  0  0  0  0  0  0
    7.8520   -2.4410  -52.3880 C   0  0  0  0  0  0  0  0  0  0  0  0
    7.0850   -3.5660  -52.7080 C   0  0  0  0  0  0  0  0  0  0  0  0
    6.6700   -4.4420  -51.7030 C   0  0  0  0  0  0  0  0  0  0  0  0
    7.0180   -4.1940  -50.3750 C   0  0  0  0  0  0  0  0  0  0  0  0
    7.7780   -3.0700  -50.0500 C   0  0  0  0  0  0  0  0  0  0  0  0
    8.1930   -2.1940  -51.0540 C   0  0  0  0  0  0  0  0  0  0  0  0
    6.1942    0.1333  -52.5509 H   0  0  0  0  0  0  0  0  0  0  0  0
    6.1811    1.1024  -54.0633 H   0  0  0  0  0  0  0  0  0  0  0  0
    5.5284   -0.5711  -54.0633 H   0  0  0  0  0  0  0  0  0  0  0  0
   10.3520    1.0640  -56.3330 H   0  0  0  0  0  0  0  0  0  0  0  0
    8.2711    4.1437  -56.4565 H   0  0  0  0  0  0  0  0  0  0  0  0
    9.9900    4.3629  -55.9514 H   0  0  0  0  0  0  0  0  0  0  0  0
    9.2213    6.2389  -57.4101 H   0  0  0  0  0  0  0  0  0  0  0  0
   11.0788    6.0928  -59.0683 H   0  0  0  0  0  0  0  0  0  0  0  0
   11.6050    5.5005  -57.4523 H   0  0  0  0  0  0  0  0  0  0  0  0
   12.3854    3.9750  -59.2657 H   0  0  0  0  0  0  0  0  0  0  0  0
   10.5488    4.4505  -60.8884 H   0  0  0  0  0  0  0  0  0  0  0  0
   10.6946    2.6848  -60.5709 H   0  0  0  0  0  0  0  0  0  0  0  0
    8.3049    3.4143  -60.5451 H   0  0  0  0  0  0  0  0  0  0  0  0
    8.7004    5.7644  -59.8053 H   0  0  0  0  0  0  0  0  0  0  0  0
    7.5348    4.9313  -58.7135 H   0  0  0  0  0  0  0  0  0  0  0  0
    7.7276    2.4695  -58.3118 H   0  0  0  0  0  0  0  0  0  0  0  0
    9.0734    1.5430  -59.0777 H   0  0  0  0  0  0  0  0  0  0  0  0
   11.4287    1.8749  -58.3243 H   0  0  0  0  0  0  0  0  0  0  0  0
   11.7926    3.0718  -57.0183 H   0  0  0  0  0  0  0  0  0  0  0  0
   11.4898   -2.2044  -54.1890 H   0  0  0  0  0  0  0  0  0  0  0  0
   10.4945   -2.9839  -52.8908 H   0  0  0  0  0  0  0  0  0  0  0  0
   10.0879   -4.7395  -54.1979 H   0  0  0  0  0  0  0  0  0  0  0  0
    9.4154   -3.6367  -55.4804 H   0  0  0  0  0  0  0  0  0  0  0  0
   12.2493   -3.4130  -55.5624 H   0  0  0  0  0  0  0  0  0  0  0  0
   11.8195   -5.1806  -55.5041 H   0  0  0  0  0  0  0  0  0  0  0  0
   10.0414   -4.3263  -56.9864 H   0  0  0  0  0  0  0  0  0  0  0  0
   12.9809   -5.1867  -57.9295 H   0  0  0  0  0  0  0  0  0  0  0  0
   11.9835   -5.3313  -59.1081 H   0  0  0  0  0  0  0  0  0  0  0  0
    6.8079   -3.7612  -53.7545 H   0  0  0  0  0  0  0  0  0  0  0  0
    6.0690   -5.3272  -51.9583 H   0  0  0  0  0  0  0  0  0  0  0  0
    6.6929   -4.8852  -49.5834 H   0  0  0  0  0  0  0  0  0  0  0  0
    8.0501   -2.8743  -49.0023 H   0  0  0  0  0  0  0  0  0  0  0  0
    8.7899   -1.3069  -50.7957 H   0  0  0  0  0  0  0  0  0  0  0  0
  1  2  1  0
  2  3  1  0
  3  4  1  0
  4  5  2  0
  4  6  1  0
  7  6  1  1
  7  8  1  0
  8  9  1  0
  9 10  1  0
 10 11  1  0
 11 12  1  0
 12 13  1  0
 13 14  1  0
 13 15  1  0
 11 16  1  0
  3 17  2  0
 17 18  1  0
 18 19  1  0
 19 20  1  0
 20 21  1  0
 21 22  1  0
 22 23  1  0
 23 24  1  0
 18 25  1  0
 25 26  1  0
 26 27  2  0
 27 28  1  0
 28 29  2  0
 29 30  1  0
 30 31  2  0
 25  2  2  0
 31 26  1  0
 15  7  1  0
 24 22  1  0
 16  7  1  0
 14  9  1  0
  1 32  1  0
  1 33  1  0
  1 34  1  0
  6 35  1  0
  8 36  1  0
  8 37  1  0
  9 38  1  1
 10 39  1  0
 10 40  1  0
 11 41  1  6
 12 42  1  0
 12 43  1  0
 13 44  1  6
 14 45  1  0
 14 46  1  0
 15 47  1  0
 15 48  1  0
 16 49  1  0
 16 50  1  0
 19 51  1  0
 19 52  1  0
 20 53  1  0
 20 54  1  0
 21 55  1  0
 21 56  1  0
 22 57  1  1
 23 58  1  0
 23 59  1  0
 27 60  1  0
 28 61  1  0
 29 62  1  0
 30 63  1  0
 31 64  1  0
M  END
>  <meeko>  (185) 
{"is_sidechain": false}

$$$$

     RDKit          3D

 67 71  0  0  0  0  0  0  0  0999 V2000
    6.2100   -0.2330  -53.8760 C   0  0  0  0  0  0  0  0  0  0  0  0
    7.6500   -0.5580  -54.0470 C   0  0  0  0  0  0  0  0  0  0  0  0
    8.5640    0.0710  -54.9430 C   0  0  0  0  0  0  0  0  0  0  0  0
    8.2960    1.1630  -55.9010 C   0  0  0  0  0  0  0  0  0  0  0  0
    7.1670    1.5530  -56.1780 O   0  0  0  0  0  0  0  0  0  0  0  0
    9.4540    1.6760  -56.4470 N   0  0  0  0  0  0  0  0  0  0  0  0
    9.5460    2.7250  -57.4570 C   0  0  1  0  0  0  0  0  0  0  0  0
    9.1050    4.0990  -56.8930 C   0  0  0  0  0  0  0  0  0  0  0  0
    9.2540    5.1970  -57.9610 C   0  0  2  0  0  0  0  0  0  0  0  0
    8.3870    4.8370  -59.1810 C   0  0  0  0  0  0  0  0  0  0  0  0
    8.8360    3.4880  -59.7710 C   0  0  1  0  0  0  0  0  0  0  0  0
   10.3080    3.5850  -60.1950 C   0  0  0  0  0  0  0  0  0  0  0  0
   11.1780    3.9370  -58.9780 C   0  0  1  0  0  0  0  0  0  0  0  0
   12.5440    4.0130  -59.3640 O   0  0  0  0  0  0  0  0  0  0  0  0
   10.7250    5.2850  -58.3940 C   0  0  0  0  0  0  0  0  0  0  0  0
   11.0220    2.8450  -57.9100 C   0  0  0  0  0  0  0  0  0  0  0  0
    8.6880    2.3910  -58.7020 C   0  0  0  0  0  0  0  0  0  0  0  0
    9.7980   -0.4650  -54.8360 N   0  0  0  0  0  0  0  0  0  0  0  0
    9.6600   -1.4350  -53.9110 N   0  0  0  0  0  0  0  0  0  0  0  0
   10.8200   -2.2460  -53.5850 C   0  0  0  0  0  0  0  0  0  0  0  0
   11.3150   -3.1180  -54.7430 C   0  0  0  0  0  0  0  0  0  0  0  0
   10.2790   -4.0760  -55.3420 C   0  0  0  0  0  0  0  0  0  0  0  0
   10.7520   -4.7720  -56.6230 C   0  0  0  0  0  0  0  0  0  0  0  0
   11.4510   -3.8030  -57.5710 C   0  0  0  0  0  0  0  0  0  0  0  0
   11.7990   -4.4510  -58.7860 O   0  0  0  0  0  0  0  0  0  0  0  0
    8.3940   -1.5230  -53.3870 C   0  0  0  0  0  0  0  0  0  0  0  0
    7.9910   -2.4840  -52.3670 C   0  0  0  0  0  0  0  0  0  0  0  0
    8.1500   -2.1840  -51.0100 C   0  0  0  0  0  0  0  0  0  0  0  0
    7.7620   -3.1060  -50.0360 C   0  0  0  0  0  0  0  0  0  0  0  0
    7.2110   -4.3290  -50.4150 C   0  0  0  0  0  0  0  0  0  0  0  0
    7.0400   -4.6310  -51.7660 C   0  0  0  0  0  0  0  0  0  0  0  0
    7.4260   -3.7090  -52.7400 C   0  0  0  0  0  0  0  0  0  0  0  0
    5.9711   -0.1791  -52.8036 H   0  0  0  0  0  0  0  0  0  0  0  0
    5.9942    0.7364  -54.3489 H   0  0  0  0  0  0  0  0  0  0  0  0
    5.5988   -1.0158  -54.3489 H   0  0  0  0  0  0  0  0  0  0  0  0
   10.2970    1.2180  -56.1080 H   0  0  0  0  0  0  0  0  0  0  0  0
    8.0522    4.0400  -56.5798 H   0  0  0  0  0  0  0  0  0  0  0  0
    9.7444    4.3511  -56.0341 H   0  0  0  0  0  0  0  0  0  0  0  0
    8.9306    6.1638  -57.5477 H   0  0  0  0  0  0  0  0  0  0  0  0
    7.3341    4.7657  -58.8705 H   0  0  0  0  0  0  0  0  0  0  0  0
    8.5001    5.6194  -59.9459 H   0  0  0  0  0  0  0  0  0  0  0  0
    8.2140    3.2411  -60.6441 H   0  0  0  0  0  0  0  0  0  0  0  0
   10.6331    2.6193  -60.6093 H   0  0  0  0  0  0  0  0  0  0  0  0
   10.4154    4.3704  -60.9577 H   0  0  0  0  0  0  0  0  0  0  0  0
   12.8580    3.1080  -59.5350 H   0  0  0  0  0  0  0  0  0  0  0  0
   11.3480    5.5330  -57.5220 H   0  0  0  0  0  0  0  0  0  0  0  0
   10.8316    6.0668  -59.1604 H   0  0  0  0  0  0  0  0  0  0  0  0
   11.3502    1.8820  -58.3283 H   0  0  0  0  0  0  0  0  0  0  0  0
   11.6373    3.1138  -57.0387 H   0  0  0  0  0  0  0  0  0  0  0  0
    7.6318    2.3166  -58.4039 H   0  0  0  0  0  0  0  0  0  0  0  0
    9.0320    1.4353  -59.1242 H   0  0  0  0  0  0  0  0  0  0  0  0
   11.6376   -1.5749  -53.2831 H   0  0  0  0  0  0  0  0  0  0  0  0
   10.5144   -2.9298  -52.7793 H   0  0  0  0  0  0  0  0  0  0  0  0
   11.6616   -2.4500  -55.5453 H   0  0  0  0  0  0  0  0  0  0  0  0
   12.1060   -3.7560  -54.3219 H   0  0  0  0  0  0  0  0  0  0  0  0
   10.0457   -4.8475  -54.5934 H   0  0  0  0  0  0  0  0  0  0  0  0
    9.3996   -3.4720  -55.6101 H   0  0  0  0  0  0  0  0  0  0  0  0
   11.4542   -5.5746  -56.3533 H   0  0  0  0  0  0  0  0  0  0  0  0
    9.8680   -5.1756  -57.1384 H   0  0  0  0  0  0  0  0  0  0  0  0
   10.7759   -2.9628  -57.7906 H   0  0  0  0  0  0  0  0  0  0  0  0
   12.3703   -3.4387  -57.0891 H   0  0  0  0  0  0  0  0  0  0  0  0
   10.9910   -4.5180  -59.3230 H   0  0  0  0  0  0  0  0  0  0  0  0
    8.5823   -1.2182  -50.7092 H   0  0  0  0  0  0  0  0  0  0  0  0
    7.8911   -2.8674  -48.9700 H   0  0  0  0  0  0  0  0  0  0  0  0
    6.9105   -5.0573  -49.6473 H   0  0  0  0  0  0  0  0  0  0  0  0
    6.6013   -5.5949  -52.0634 H   0  0  0  0  0  0  0  0  0  0  0  0
    7.2856   -3.9460  -53.8050 H   0  0  0  0  0  0  0  0  0  0  0  0
  1  2  1  0
  2  3  1  0
  3  4  1  0
  4  5  2  0
  4  6  1  0
  7  6  1  1
  7  8  1  0
  8  9  1  0
  9 10  1  0
 10 11  1  0
 11 12  1  0
 12 13  1  0
 13 14  1  6
 13 15  1  0
 13 16  1  0
 11 17  1  0
  3 18  2  0
 18 19  1  0
 19 20  1  0
 20 21  1  0
 21 22  1  0
 22 23  1  0
 23 24  1  0
 24 25  1  0
 19 26  1  0
 26 27  1  0
 27 28  2  0
 28 29  1  0
 29 30  2  0
 30 31  1  0
 31 32  2  0
 26  2  2  0
 32 27  1  0
 16  7  1  0
 17  7  1  0
 15  9  1  0
  1 33  1  0
  1 34  1  0
  1 35  1  0
  6 36  1  0
  8 37  1  0
  8 38  1  0
  9 39  1  1
 10 40  1  0
 10 41  1  0
 11 42  1  6
 12 43  1  0
 12 44  1  0
 14 45  1  0
 15 46  1  0
 15 47  1  0
 16 48  1  0
 16 49  1  0
 17 50  1  0
 17 51  1  0
 20 52  1  0
 20 53  1  0
 21 54  1  0
 21 55  1  0
 22 56  1  0
 22 57  1  0
 23 58  1  0
 23 59  1  0
 24 60  1  0
 24 61  1  0
 25 62  1  0
 28 63  1  0
 29 64  1  0
 30 65  1  0
 31 66  1  0
 32 67  1  0
M  END
>  <meeko>  (186) 
{"is_sidechain": false}

$$$$

     RDKit          3D

 56 58  0  0  0  0  0  0  0  0999 V2000
    9.5110    3.2150  -61.3840 C   0  0  0  0  0  0  0  0  0  0  0  0
   10.3200    3.9540  -60.4800 O   0  0  0  0  0  0  0  0  0  0  0  0
    9.9230    3.9860  -59.1710 C   0  0  0  0  0  0  0  0  0  0  0  0
    9.6280    5.2600  -58.6860 C   0  0  0  0  0  0  0  0  0  0  0  0
    9.2120    5.4330  -57.3670 C   0  0  0  0  0  0  0  0  0  0  0  0
    9.0870    4.3310  -56.5210 C   0  0  0  0  0  0  0  0  0  0  0  0
    9.3770    3.0480  -56.9890 C   0  0  0  0  0  0  0  0  0  0  0  0
    9.2880    1.8840  -56.1980 N   0  0  0  0  0  0  0  0  0  0  0  0
    8.1520    1.1510  -55.8850 C   0  0  0  0  0  0  0  0  0  0  0  0
    7.0190    1.3660  -56.2990 O   0  0  0  0  0  0  0  0  0  0  0  0
    8.4480    0.0270  -54.9730 C   0  0  0  0  0  0  0  0  0  0  0  0
    9.6630   -0.5440  -54.9450 N   0  0  0  0  0  0  0  0  0  0  0  0
    9.5700   -1.5090  -54.0150 N   0  0  0  0  0  0  0  0  0  0  0  0
   10.7300   -2.3500  -53.7680 C   0  0  0  0  0  0  0  0  0  0  0  0
   11.2290   -3.0220  -55.0460 C   0  0  0  0  0  0  0  0  0  0  0  0
   10.4530   -4.3080  -55.3330 C   0  0  0  0  0  0  0  0  0  0  0  0
   10.7210   -4.8120  -56.7550 C   0  0  0  0  0  0  0  0  0  0  0  0
   11.5420   -3.8210  -57.5710 C   0  0  0  0  0  0  0  0  0  0  0  0
   11.8120   -4.3330  -58.8680 O   0  0  0  0  0  0  0  0  0  0  0  0
    8.3400   -1.5700  -53.4080 C   0  0  0  0  0  0  0  0  0  0  0  0
    7.9830   -2.5270  -52.3680 C   0  0  0  0  0  0  0  0  0  0  0  0
    8.1620   -2.2010  -51.0200 C   0  0  0  0  0  0  0  0  0  0  0  0
    7.8240   -3.1210  -50.0250 C   0  0  0  0  0  0  0  0  0  0  0  0
    7.3020   -4.3670  -50.3750 C   0  0  0  0  0  0  0  0  0  0  0  0
    7.1150   -4.6940  -51.7170 C   0  0  0  0  0  0  0  0  0  0  0  0
    7.4540   -3.7750  -52.7130 C   0  0  0  0  0  0  0  0  0  0  0  0
    7.5720   -0.5920  -54.0230 C   0  0  0  0  0  0  0  0  0  0  0  0
    6.1420   -0.2750  -53.7680 C   0  0  0  0  0  0  0  0  0  0  0  0
    9.7970    2.8850  -58.3200 C   0  0  0  0  0  0  0  0  0  0  0  0
    8.8149    2.5791  -60.8174 H   0  0  0  0  0  0  0  0  0  0  0  0
    8.9401    3.9099  -62.0173 H   0  0  0  0  0  0  0  0  0  0  0  0
   10.1516    2.5837  -62.0173 H   0  0  0  0  0  0  0  0  0  0  0  0
    9.7242    6.1331  -59.3481 H   0  0  0  0  0  0  0  0  0  0  0  0
    8.9817    6.4412  -56.9922 H   0  0  0  0  0  0  0  0  0  0  0  0
    8.7586    4.4734  -55.4809 H   0  0  0  0  0  0  0  0  0  0  0  0
   10.1610    1.4970  -55.8670 H   0  0  0  0  0  0  0  0  0  0  0  0
   11.5379   -1.7288  -53.3541 H   0  0  0  0  0  0  0  0  0  0  0  0
   10.4346   -3.1391  -53.0609 H   0  0  0  0  0  0  0  0  0  0  0  0
   11.0996   -2.3287  -55.8901 H   0  0  0  0  0  0  0  0  0  0  0  0
   12.2907   -3.2776  -54.9138 H   0  0  0  0  0  0  0  0  0  0  0  0
   10.7618   -5.0813  -54.6142 H   0  0  0  0  0  0  0  0  0  0  0  0
    9.3782   -4.0949  -55.2360 H   0  0  0  0  0  0  0  0  0  0  0  0
   11.2701   -5.7634  -56.6962 H   0  0  0  0  0  0  0  0  0  0  0  0
    9.7505   -4.9406  -57.2565 H   0  0  0  0  0  0  0  0  0  0  0  0
   10.9806   -2.8797  -57.6651 H   0  0  0  0  0  0  0  0  0  0  0  0
   12.4982   -3.6483  -57.0554 H   0  0  0  0  0  0  0  0  0  0  0  0
   11.3800   -5.2020  -58.9350 H   0  0  0  0  0  0  0  0  0  0  0  0
    8.5699   -1.2178  -50.7427 H   0  0  0  0  0  0  0  0  0  0  0  0
    7.9692   -2.8635  -48.9655 H   0  0  0  0  0  0  0  0  0  0  0  0
    7.0378   -5.0919  -49.5909 H   0  0  0  0  0  0  0  0  0  0  0  0
    6.7007   -5.6753  -51.9917 H   0  0  0  0  0  0  0  0  0  0  0  0
    7.3045   -4.0336  -53.7717 H   0  0  0  0  0  0  0  0  0  0  0  0
    5.9630   -0.2353  -52.6834 H   0  0  0  0  0  0  0  0  0  0  0  0
    5.8969    0.6993  -54.2160 H   0  0  0  0  0  0  0  0  0  0  0  0
    5.5081   -1.0544  -54.2160 H   0  0  0  0  0  0  0  0  0  0  0  0
   10.0295    1.8780  -58.6967 H   0  0  0  0  0  0  0  0  0  0  0  0
  1  2  1  0
  2  3  1  0
  3  4  1  0
  4  5  2  0
  5  6  1  0
  6  7  2  0
  7  8  1  0
  8  9  1  0
  9 10  2  0
  9 11  1  0
 11 12  2  0
 12 13  1  0
 13 14  1  0
 14 15  1  0
 15 16  1  0
 16 17  1  0
 17 18  1  0
 18 19  1  0
 13 20  1  0
 20 21  1  0
 21 22  2  0
 22 23  1  0
 23 24  2  0
 24 25  1  0
 25 26  2  0
 20 27  2  0
 27 28  1  0
  7 29  1  0
 29  3  2  0
 27 11  1  0
 26 21  1  0
  1 30  1  0
  1 31  1  0
  1 32  1  0
  4 33  1  0
  5 34  1  0
  6 35  1  0
  8 36  1  0
 14 37  1  0
 14 38  1  0
 15 39  1  0
 15 40  1  0
 16 41  1  0
 16 42  1  0
 17 43  1  0
 17 44  1  0
 18 45  1  0
 18 46  1  0
 19 47  1  0
 22 48  1  0
 23 49  1  0
 24 50  1  0
 25 51  1  0
 26 52  1  0
 28 53  1  0
 28 54  1  0
 28 55  1  0
 29 56  1  0
M  END
>  <meeko>  (187) 
{"is_sidechain": false}

$$$$

     RDKit          3D

 58 62  0  0  0  0  0  0  0  0999 V2000
    7.6690   -2.5420  -49.7140 O   0  0  0  0  0  0  0  0  0  0  0  0
    8.5480   -3.0930  -50.4370 C   0  0  0  0  0  0  0  0  0  0  0  0
    9.5610   -3.7640  -50.0950 O   0  0  0  0  0  0  0  0  0  0  0  0
    8.3390   -2.8980  -51.9430 C   0  0  0  0  0  0  0  0  0  0  0  0
    7.4460   -1.7310  -52.3560 C   0  0  0  0  0  0  0  0  0  0  0  0
    8.2300   -0.6470  -53.1040 C   0  0  0  0  0  0  0  0  0  0  0  0
    8.3010   -0.8990  -54.6100 C   0  0  0  0  0  0  0  0  0  0  0  0
    9.3680   -0.1770  -55.2720 N   0  0  0  0  0  0  0  0  0  0  0  0
    9.2080    1.1300  -55.5620 N   0  0  0  0  0  0  0  0  0  0  0  0
   10.3070    1.3980  -56.2580 C   0  0  0  0  0  0  0  0  0  0  0  0
   10.5850    2.6190  -56.7420 N   0  0  0  0  0  0  0  0  0  0  0  0
    9.8970    3.2340  -57.8710 C   0  0  2  0  0  0  0  0  0  0  0  0
    9.7520    2.2630  -59.0660 C   0  0  0  0  0  0  0  0  0  0  0  0
    9.0880    2.9740  -60.2580 C   0  0  1  0  0  0  0  0  0  0  0  0
    7.7050    3.4970  -59.8330 C   0  0  0  0  0  0  0  0  0  0  0  0
    7.8490    4.4980  -58.6730 C   0  0  2  0  0  0  0  0  0  0  0  0
    8.7330    5.6710  -59.1210 C   0  0  0  0  0  0  0  0  0  0  0  0
   10.1190    5.1540  -59.5350 C   0  0  2  0  0  0  0  0  0  0  0  0
    9.9640    4.1580  -60.6960 C   0  0  0  0  0  0  0  0  0  0  0  0
   10.7670    4.4370  -58.3400 C   0  0  0  0  0  0  0  0  0  0  0  0
    8.5090    3.7920  -57.4740 C   0  0  0  0  0  0  0  0  0  0  0  0
   11.1310    0.3350  -56.4490 N   0  0  0  0  0  0  0  0  0  0  0  0
   10.5400   -0.6590  -55.8120 C   0  0  0  0  0  0  0  0  0  0  0  0
   11.0310   -2.0360  -55.7720 C   0  0  0  0  0  0  0  0  0  0  0  0
   11.5320   -2.6120  -56.9490 C   0  0  0  0  0  0  0  0  0  0  0  0
   12.0110   -3.9240  -56.9550 C   0  0  0  0  0  0  0  0  0  0  0  0
   12.0060   -4.6720  -55.7810 C   0  0  0  0  0  0  0  0  0  0  0  0
   11.5320   -4.1050  -54.5990 C   0  0  0  0  0  0  0  0  0  0  0  0
   11.0530   -2.7920  -54.5930 C   0  0  0  0  0  0  0  0  0  0  0  0
    9.3269   -2.7426  -52.4012 H   0  0  0  0  0  0  0  0  0  0  0  0
    7.8166   -3.8031  -52.2864 H   0  0  0  0  0  0  0  0  0  0  0  0
    6.6479   -2.1089  -53.0119 H   0  0  0  0  0  0  0  0  0  0  0  0
    7.0296   -1.2811  -51.4427 H   0  0  0  0  0  0  0  0  0  0  0  0
    7.7396    0.3226  -52.9328 H   0  0  0  0  0  0  0  0  0  0  0  0
    9.2599   -0.6576  -52.7178 H   0  0  0  0  0  0  0  0  0  0  0  0
    8.4558   -1.9755  -54.7750 H   0  0  0  0  0  0  0  0  0  0  0  0
    7.3547   -0.5399  -55.0408 H   0  0  0  0  0  0  0  0  0  0  0  0
   11.5750    2.8280  -56.6800 H   0  0  0  0  0  0  0  0  0  0  0  0
   10.7484    1.9063  -59.3661 H   0  0  0  0  0  0  0  0  0  0  0  0
    9.1223    1.4141  -58.7613 H   0  0  0  0  0  0  0  0  0  0  0  0
    8.9760    2.2670  -61.0932 H   0  0  0  0  0  0  0  0  0  0  0  0
    7.2274    3.9979  -60.6880 H   0  0  0  0  0  0  0  0  0  0  0  0
    7.0871    2.6495  -59.5013 H   0  0  0  0  0  0  0  0  0  0  0  0
    6.8569    4.8739  -58.3822 H   0  0  0  0  0  0  0  0  0  0  0  0
    8.2618    6.1765  -59.9769 H   0  0  0  0  0  0  0  0  0  0  0  0
    8.8453    6.3787  -58.2864 H   0  0  0  0  0  0  0  0  0  0  0  0
   10.7498    5.9977  -59.8517 H   0  0  0  0  0  0  0  0  0  0  0  0
    9.4912    4.6647  -61.5502 H   0  0  0  0  0  0  0  0  0  0  0  0
   10.9570    3.7848  -60.9871 H   0  0  0  0  0  0  0  0  0  0  0  0
   11.7599    4.0684  -58.6372 H   0  0  0  0  0  0  0  0  0  0  0  0
   10.8537    5.1515  -57.5082 H   0  0  0  0  0  0  0  0  0  0  0  0
    8.6301    4.5123  -56.6515 H   0  0  0  0  0  0  0  0  0  0  0  0
    7.8676    2.9571  -57.1553 H   0  0  0  0  0  0  0  0  0  0  0  0
   11.5478   -2.0234  -57.8781 H   0  0  0  0  0  0  0  0  0  0  0  0
   12.3921   -4.3662  -57.8873 H   0  0  0  0  0  0  0  0  0  0  0  0
   12.3752   -5.7082  -55.7860 H   0  0  0  0  0  0  0  0  0  0  0  0
   11.5350   -4.6923  -53.6689 H   0  0  0  0  0  0  0  0  0  0  0  0
   10.6901   -2.3484  -53.6541 H   0  0  0  0  0  0  0  0  0  0  0  0
  1  2  2  0
  2  3  1  0
  2  4  1  0
  4  5  1  0
  5  6  1  0
  6  7  1  0
  7  8  1  0
  8  9  1  0
  9 10  2  0
 10 11  1  0
 12 11  1  1
 12 13  1  0
 13 14  1  0
 14 15  1  0
 15 16  1  0
 16 17  1  0
 17 18  1  0
 18 19  1  0
 18 20  1  0
 16 21  1  0
 10 22  1  0
 22 23  2  0
 23 24  1  0
 24 25  2  0
 25 26  1  0
 26 27  2  0
 27 28  1  0
 28 29  2  0
 23  8  1  0
 29 24  1  0
 20 12  1  0
 21 12  1  0
 19 14  1  0
  4 30  1  0
  4 31  1  0
  5 32  1  0
  5 33  1  0
  6 34  1  0
  6 35  1  0
  7 36  1  0
  7 37  1  0
 11 38  1  0
 13 39  1  0
 13 40  1  0
 14 41  1  6
 15 42  1  0
 15 43  1  0
 16 44  1  1
 17 45  1  0
 17 46  1  0
 18 47  1  6
 19 48  1  0
 19 49  1  0
 20 50  1  0
 20 51  1  0
 21 52  1  0
 21 53  1  0
 25 54  1  0
 26 55  1  0
 27 56  1  0
 28 57  1  0
 29 58  1  0
M  CHG  1   3  -1
M  END
>  <meeko>  (188) 
{"is_sidechain": false}

$$$$

     RDKit          3D

 58 62  0  0  0  0  0  0  0  0999 V2000
   12.9940   -5.3670  -55.9700 O   0  0  0  0  0  0  0  0  0  0  0  0
   11.9290   -5.6880  -56.5690 C   0  0  0  0  0  0  0  0  0  0  0  0
   11.4970   -6.8300  -56.8870 O   0  0  0  0  0  0  0  0  0  0  0  0
   11.0550   -4.4940  -56.9700 C   0  0  0  0  0  0  0  0  0  0  0  0
   11.8360   -3.2470  -57.3670 C   0  0  0  0  0  0  0  0  0  0  0  0
   11.5250   -2.0350  -56.4880 C   0  0  0  0  0  0  0  0  0  0  0  0
   10.6740   -2.3790  -55.2650 C   0  0  0  0  0  0  0  0  0  0  0  0
   10.0620   -1.1490  -54.7410 N   0  0  0  0  0  0  0  0  0  0  0  0
   10.0150   -0.0780  -55.6260 N   0  0  0  0  0  0  0  0  0  0  0  0
    8.8230    0.5760  -55.3960 C   0  0  0  0  0  0  0  0  0  0  0  0
    8.3530    1.6810  -55.8210 N   0  0  0  0  0  0  0  0  0  0  0  0
    9.0280    2.5590  -56.7720 C   0  0  2  0  0  0  0  0  0  0  0  0
   10.1480    3.3780  -56.0970 C   0  0  0  0  0  0  0  0  0  0  0  0
   10.7620    4.3680  -57.1040 C   0  0  1  0  0  0  0  0  0  0  0  0
   11.3170    3.5890  -58.3100 C   0  0  0  0  0  0  0  0  0  0  0  0
   10.1880    2.8070  -59.0050 C   0  0  2  0  0  0  0  0  0  0  0  0
    9.1040    3.7920  -59.4730 C   0  0  0  0  0  0  0  0  0  0  0  0
    8.5400    4.5610  -58.2690 C   0  0  2  0  0  0  0  0  0  0  0  0
    9.6750    5.3400  -57.5860 C   0  0  0  0  0  0  0  0  0  0  0  0
    7.9460    3.5580  -57.2670 C   0  0  0  0  0  0  0  0  0  0  0  0
    9.5740    1.8100  -58.0060 C   0  0  0  0  0  0  0  0  0  0  0  0
    8.0460   -0.1280  -54.4960 N   0  0  0  0  0  0  0  0  0  0  0  0
    8.8080   -1.1380  -54.1230 C   0  0  0  0  0  0  0  0  0  0  0  0
    8.3400   -2.1210  -53.1180 C   0  0  0  0  0  0  0  0  0  0  0  0
    7.1710   -2.8590  -53.3260 C   0  0  0  0  0  0  0  0  0  0  0  0
    6.7510   -3.7850  -52.3680 C   0  0  0  0  0  0  0  0  0  0  0  0
    7.5050   -3.9830  -51.2110 C   0  0  0  0  0  0  0  0  0  0  0  0
    8.6830   -3.2630  -51.0110 C   0  0  0  0  0  0  0  0  0  0  0  0
    9.1050   -2.3360  -51.9660 C   0  0  0  0  0  0  0  0  0  0  0  0
   10.4313   -4.7958  -57.8244 H   0  0  0  0  0  0  0  0  0  0  0  0
   10.4646   -4.2249  -56.0818 H   0  0  0  0  0  0  0  0  0  0  0  0
   12.9107   -3.4684  -57.2894 H   0  0  0  0  0  0  0  0  0  0  0  0
   11.5397   -2.9896  -58.3946 H   0  0  0  0  0  0  0  0  0  0  0  0
   12.4749   -1.6014  -56.1420 H   0  0  0  0  0  0  0  0  0  0  0  0
   10.9460   -1.3278  -57.1001 H   0  0  0  0  0  0  0  0  0  0  0  0
    9.8847   -3.0887  -55.5537 H   0  0  0  0  0  0  0  0  0  0  0  0
   11.3074   -2.8359  -54.4904 H   0  0  0  0  0  0  0  0  0  0  0  0
   10.8320    0.5170  -55.6670 H   0  0  0  0  0  0  0  0  0  0  0  0
    9.7283    3.9368  -55.2476 H   0  0  0  0  0  0  0  0  0  0  0  0
   10.9320    2.6919  -55.7439 H   0  0  0  0  0  0  0  0  0  0  0  0
   11.5747    4.9303  -56.6209 H   0  0  0  0  0  0  0  0  0  0  0  0
   11.7624    4.2962  -59.0252 H   0  0  0  0  0  0  0  0  0  0  0  0
   12.0800    2.8793  -57.9577 H   0  0  0  0  0  0  0  0  0  0  0  0
   10.5910    2.2620  -59.8713 H   0  0  0  0  0  0  0  0  0  0  0  0
    9.5425    4.5042  -60.1875 H   0  0  0  0  0  0  0  0  0  0  0  0
    8.2908    3.2316  -59.9574 H   0  0  0  0  0  0  0  0  0  0  0  0
    7.7613    5.2605  -58.6072 H   0  0  0  0  0  0  0  0  0  0  0  0
   10.1129    6.0498  -58.3032 H   0  0  0  0  0  0  0  0  0  0  0  0
    9.2694    5.8862  -56.7216 H   0  0  0  0  0  0  0  0  0  0  0  0
    7.5422    4.1078  -56.4040 H   0  0  0  0  0  0  0  0  0  0  0  0
    7.1488    2.9907  -57.7696 H   0  0  0  0  0  0  0  0  0  0  0  0
    8.7517    1.2664  -58.4942 H   0  0  0  0  0  0  0  0  0  0  0  0
   10.3515    1.1028  -57.6813 H   0  0  0  0  0  0  0  0  0  0  0  0
    6.5823   -2.7107  -54.2433 H   0  0  0  0  0  0  0  0  0  0  0  0
    5.8255   -4.3582  -52.5260 H   0  0  0  0  0  0  0  0  0  0  0  0
    7.1699   -4.7083  -50.4549 H   0  0  0  0  0  0  0  0  0  0  0  0
    9.2793   -3.4256  -50.1011 H   0  0  0  0  0  0  0  0  0  0  0  0
   10.0386   -1.7748  -51.8129 H   0  0  0  0  0  0  0  0  0  0  0  0
  1  2  2  0
  2  3  1  0
  2  4  1  0
  4  5  1  0
  5  6  1  0
  6  7  1  0
  7  8  1  0
  8  9  1  0
  9 10  1  0
 10 11  2  0
 12 11  1  1
 12 13  1  0
 13 14  1  0
 14 15  1  0
 15 16  1  0
 16 17  1  0
 17 18  1  0
 18 19  1  0
 18 20  1  0
 16 21  1  0
 10 22  1  0
 22 23  2  0
 23 24  1  0
 24 25  2  0
 25 26  1  0
 26 27  2  0
 27 28  1  0
 28 29  2  0
 23  8  1  0
 29 24  1  0
 20 12  1  0
 21 12  1  0
 19 14  1  0
  4 30  1  0
  4 31  1  0
  5 32  1  0
  5 33  1  0
  6 34  1  0
  6 35  1  0
  7 36  1  0
  7 37  1  0
  9 38  1  0
 13 39  1  0
 13 40  1  0
 14 41  1  1
 15 42  1  0
 15 43  1  0
 16 44  1  6
 17 45  1  0
 17 46  1  0
 18 47  1  6
 19 48  1  0
 19 49  1  0
 20 50  1  0
 20 51  1  0
 21 52  1  0
 21 53  1  0
 25 54  1  0
 26 55  1  0
 27 56  1  0
 28 57  1  0
 29 58  1  0
M  CHG  1   3  -1
M  END
>  <meeko>  (189) 
{"is_sidechain": false}

$$$$

     RDKit          3D

 58 62  0  0  0  0  0  0  0  0999 V2000
   10.0930    2.2650  -60.8320 O   0  0  0  0  0  0  0  0  0  0  0  0
    9.5380    3.3830  -60.6360 C   0  0  0  0  0  0  0  0  0  0  0  0
   10.0470    4.5360  -60.5960 O   0  0  0  0  0  0  0  0  0  0  0  0
    8.0260    3.2960  -60.4010 C   0  0  0  0  0  0  0  0  0  0  0  0
    7.5170    1.8920  -60.0940 C   0  0  0  0  0  0  0  0  0  0  0  0
    6.3250    1.8720  -59.1350 C   0  0  0  0  0  0  0  0  0  0  0  0
    6.3500    3.0190  -58.1230 C   0  0  0  0  0  0  0  0  0  0  0  0
    6.7000    2.4900  -56.7970 N   0  0  0  0  0  0  0  0  0  0  0  0
    5.8780    1.4800  -56.3150 N   0  0  0  0  0  0  0  0  0  0  0  0
    6.6870    0.6230  -55.6020 C   0  0  0  0  0  0  0  0  0  0  0  0
    6.2550   -0.2980  -54.8260 N   0  0  0  0  0  0  0  0  0  0  0  0
    7.1370   -1.1810  -54.0580 C   0  0  2  0  0  0  0  0  0  0  0  0
    6.5300   -2.6060  -54.2040 C   0  0  0  0  0  0  0  0  0  0  0  0
    7.3650   -3.6420  -53.4370 C   0  0  1  0  0  0  0  0  0  0  0  0
    8.7970   -3.6450  -53.9930 C   0  0  0  0  0  0  0  0  0  0  0  0
    9.4200   -2.2490  -53.8450 C   0  0  2  0  0  0  0  0  0  0  0  0
    9.4410   -1.8580  -52.3560 C   0  0  0  0  0  0  0  0  0  0  0  0
    8.0110   -1.8580  -51.7840 C   0  0  2  0  0  0  0  0  0  0  0  0
    7.3990   -3.2580  -51.9500 C   0  0  0  0  0  0  0  0  0  0  0  0
    7.1560   -0.8350  -52.5540 C   0  0  0  0  0  0  0  0  0  0  0  0
    8.5730   -1.2270  -54.6250 C   0  0  0  0  0  0  0  0  0  0  0  0
    8.0170    0.9380  -55.7780 N   0  0  0  0  0  0  0  0  0  0  0  0
    7.9930    2.0570  -56.4800 C   0  0  0  0  0  0  0  0  0  0  0  0
    9.2470    2.7580  -56.8390 C   0  0  0  0  0  0  0  0  0  0  0  0
    9.3210    4.1540  -56.8080 C   0  0  0  0  0  0  0  0  0  0  0  0
   10.5150    4.7940  -57.1430 C   0  0  0  0  0  0  0  0  0  0  0  0
   11.6370    4.0430  -57.4950 C   0  0  0  0  0  0  0  0  0  0  0  0
   11.5700    2.6500  -57.5070 C   0  0  0  0  0  0  0  0  0  0  0  0
   10.3780    2.0060  -57.1740 C   0  0  0  0  0  0  0  0  0  0  0  0
    7.7715    3.9477  -59.5521 H   0  0  0  0  0  0  0  0  0  0  0  0
    7.5436    3.6070  -61.3394 H   0  0  0  0  0  0  0  0  0  0  0  0
    7.2122    1.4177  -61.0385 H   0  0  0  0  0  0  0  0  0  0  0  0
    8.3380    1.3503  -59.6016 H   0  0  0  0  0  0  0  0  0  0  0  0
    5.3996    1.9458  -59.7251 H   0  0  0  0  0  0  0  0  0  0  0  0
    6.3770    0.9317  -58.5666 H   0  0  0  0  0  0  0  0  0  0  0  0
    7.0985    3.7640  -58.4306 H   0  0  0  0  0  0  0  0  0  0  0  0
    5.3588    3.4940  -58.0801 H   0  0  0  0  0  0  0  0  0  0  0  0
    5.0290    1.7340  -55.8220 H   0  0  0  0  0  0  0  0  0  0  0  0
    5.5052   -2.6030  -53.8043 H   0  0  0  0  0  0  0  0  0  0  0  0
    6.5276   -2.8780  -55.2698 H   0  0  0  0  0  0  0  0  0  0  0  0
    6.9202   -4.6414  -53.5525 H   0  0  0  0  0  0  0  0  0  0  0  0
    9.4026   -4.3752  -53.4362 H   0  0  0  0  0  0  0  0  0  0  0  0
    8.7705   -3.9179  -55.0583 H   0  0  0  0  0  0  0  0  0  0  0  0
   10.4460   -2.2586  -54.2415 H   0  0  0  0  0  0  0  0  0  0  0  0
   10.0547   -2.5815  -51.7993 H   0  0  0  0  0  0  0  0  0  0  0  0
    9.8665   -0.8485  -52.2567 H   0  0  0  0  0  0  0  0  0  0  0  0
    8.0383   -1.5897  -50.7176 H   0  0  0  0  0  0  0  0  0  0  0  0
    8.0076   -3.9896  -51.3984 H   0  0  0  0  0  0  0  0  0  0  0  0
    6.3727   -3.2534  -51.5541 H   0  0  0  0  0  0  0  0  0  0  0  0
    6.1277   -0.8538  -52.1638 H   0  0  0  0  0  0  0  0  0  0  0  0
    7.5895    0.1673  -52.4216 H   0  0  0  0  0  0  0  0  0  0  0  0
    9.0313   -0.2311  -54.5350 H   0  0  0  0  0  0  0  0  0  0  0  0
    8.5320   -1.5273  -55.6824 H   0  0  0  0  0  0  0  0  0  0  0  0
    8.4400    4.7464  -56.5202 H   0  0  0  0  0  0  0  0  0  0  0  0
   10.5717    5.8925  -57.1295 H   0  0  0  0  0  0  0  0  0  0  0  0
   12.5755    4.5502  -57.7633 H   0  0  0  0  0  0  0  0  0  0  0  0
   12.4570    2.0590  -57.7790 H   0  0  0  0  0  0  0  0  0  0  0  0
   10.3275    0.9072  -57.1749 H   0  0  0  0  0  0  0  0  0  0  0  0
  1  2  2  0
  2  3  1  0
  2  4  1  0
  4  5  1  0
  5  6  1  0
  6  7  1  0
  7  8  1  0
  8  9  1  0
  9 10  1  0
 10 11  2  0
 12 11  1  6
 12 13  1  0
 13 14  1  0
 14 15  1  0
 15 16  1  0
 16 17  1  0
 17 18  1  0
 18 19  1  0
 18 20  1  0
 16 21  1  0
 10 22  1  0
 22 23  2  0
 23 24  1  0
 24 25  2  0
 25 26  1  0
 26 27  2  0
 27 28  1  0
 28 29  2  0
 23  8  1  0
 29 24  1  0
 20 12  1  0
 21 12  1  0
 19 14  1  0
  4 30  1  0
  4 31  1  0
  5 32  1  0
  5 33  1  0
  6 34  1  0
  6 35  1  0
  7 36  1  0
  7 37  1  0
  9 38  1  0
 13 39  1  0
 13 40  1  0
 14 41  1  1
 15 42  1  0
 15 43  1  0
 16 44  1  6
 17 45  1  0
 17 46  1  0
 18 47  1  1
 19 48  1  0
 19 49  1  0
 20 50  1  0
 20 51  1  0
 21 52  1  0
 21 53  1  0
 25 54  1  0
 26 55  1  0
 27 56  1  0
 28 57  1  0
 29 58  1  0
M  CHG  1   3  -1
M  END
>  <meeko>  (190) 
{"is_sidechain": false}

$$$$

     RDKit          3D

 59 63  0  0  0  0  0  0  0  0999 V2000
   10.7180   -4.1110  -55.0140 C   0  0  0  0  0  0  0  0  0  0  0  0
   11.2450   -2.8230  -54.3860 C   0  0  0  0  0  0  0  0  0  0  0  0
   11.4710   -2.9710  -52.8820 C   0  0  0  0  0  0  0  0  0  0  0  0
   10.4450   -1.6540  -54.7450 N   0  0  0  0  0  0  0  0  0  0  0  0
   10.9950   -0.7800  -55.6140 N   0  0  0  0  0  0  0  0  0  0  0  0
   10.0890    0.1990  -55.7680 C   0  0  0  0  0  0  0  0  0  0  0  0
   10.3450    1.3610  -56.6490 C   0  0  0  0  0  0  0  0  0  0  0  0
   11.4670    1.8240  -56.8310 O   0  0  0  0  0  0  0  0  0  0  0  0
    9.2120    1.8750  -57.2640 N   0  0  0  0  0  0  0  0  0  0  0  0
    9.2190    2.9690  -58.2400 C   0  0  2  0  0  0  0  0  0  0  0  0
    9.5040    4.3400  -57.5770 C   0  0  0  0  0  0  0  0  0  0  0  0
    9.4500    5.4690  -58.6210 C   0  0  1  0  0  0  0  0  0  0  0  0
   10.4930    5.1960  -59.7180 C   0  0  0  0  0  0  0  0  0  0  0  0
   10.1960    3.8540  -60.4090 C   0  0  2  0  0  0  0  0  0  0  0  0
    8.7910    3.9050  -61.0300 C   0  0  0  0  0  0  0  0  0  0  0  0
    7.7430    4.1700  -59.9370 C   0  0  2  0  0  0  0  0  0  0  0  0
    8.0490    5.5110  -59.2530 C   0  0  0  0  0  0  0  0  0  0  0  0
    7.8110    3.0450  -58.8920 C   0  0  0  0  0  0  0  0  0  0  0  0
   10.2530    2.7230  -59.3680 C   0  0  0  0  0  0  0  0  0  0  0  0
    8.9420   -0.0790  -54.9810 C   0  0  0  0  0  0  0  0  0  0  0  0
    9.1840   -1.2790  -54.3390 C   0  0  0  0  0  0  0  0  0  0  0  0
    8.3180   -1.9910  -53.4120 C   0  0  0  0  0  0  0  0  0  0  0  0
    7.4280   -2.9600  -53.8870 C   0  0  0  0  0  0  0  0  0  0  0  0
    6.6140   -3.6680  -52.9980 C   0  0  0  0  0  0  0  0  0  0  0  0
    6.6840   -3.4220  -51.6170 C   0  0  0  0  0  0  0  0  0  0  0  0
    5.8240   -4.2020  -50.6540 C   0  0  0  0  0  0  0  0  0  0  0  0
    6.5260   -5.1670  -49.9980 F   0  0  0  0  0  0  0  0  0  0  0  0
    5.2640   -3.4230  -49.6870 F   0  0  0  0  0  0  0  0  0  0  0  0
    4.7860   -4.8430  -51.2620 F   0  0  0  0  0  0  0  0  0  0  0  0
    7.6000   -2.4690  -51.1460 C   0  0  0  0  0  0  0  0  0  0  0  0
    8.4130   -1.7630  -52.0370 C   0  0  0  0  0  0  0  0  0  0  0  0
   10.4299   -4.8151  -54.2195 H   0  0  0  0  0  0  0  0  0  0  0  0
    9.8410   -3.8828  -55.6375 H   0  0  0  0  0  0  0  0  0  0  0  0
   11.5035   -4.5630  -55.6375 H   0  0  0  0  0  0  0  0  0  0  0  0
   12.2374   -2.6358  -54.8221 H   0  0  0  0  0  0  0  0  0  0  0  0
   10.6713   -2.4473  -52.3378 H   0  0  0  0  0  0  0  0  0  0  0  0
   11.4602   -4.0375  -52.6128 H   0  0  0  0  0  0  0  0  0  0  0  0
   12.4442   -2.5348  -52.6128 H   0  0  0  0  0  0  0  0  0  0  0  0
    8.3790    1.3070  -57.2230 H   0  0  0  0  0  0  0  0  0  0  0  0
    8.7487    4.5297  -56.8002 H   0  0  0  0  0  0  0  0  0  0  0  0
   10.5099    4.3163  -57.1325 H   0  0  0  0  0  0  0  0  0  0  0  0
    9.6657    6.4321  -58.1353 H   0  0  0  0  0  0  0  0  0  0  0  0
   10.4572    6.0044  -60.4631 H   0  0  0  0  0  0  0  0  0  0  0  0
   11.4925    5.1517  -59.2609 H   0  0  0  0  0  0  0  0  0  0  0  0
   10.9417    3.6684  -61.1960 H   0  0  0  0  0  0  0  0  0  0  0  0
    8.7515    4.7123  -61.7761 H   0  0  0  0  0  0  0  0  0  0  0  0
    8.5740    2.9406  -61.5124 H   0  0  0  0  0  0  0  0  0  0  0  0
    6.7395    4.2040  -60.3862 H   0  0  0  0  0  0  0  0  0  0  0  0
    8.0096    6.3183  -59.9992 H   0  0  0  0  0  0  0  0  0  0  0  0
    7.3024    5.6947  -58.4663 H   0  0  0  0  0  0  0  0  0  0  0  0
    7.0627    3.2369  -58.1089 H   0  0  0  0  0  0  0  0  0  0  0  0
    7.6081    2.0885  -59.3959 H   0  0  0  0  0  0  0  0  0  0  0  0
   10.0292    1.7656  -59.8614 H   0  0  0  0  0  0  0  0  0  0  0  0
   11.2603    2.6967  -58.9269 H   0  0  0  0  0  0  0  0  0  0  0  0
    8.0364    0.5398  -54.8978 H   0  0  0  0  0  0  0  0  0  0  0  0
    7.3683   -3.1660  -54.9659 H   0  0  0  0  0  0  0  0  0  0  0  0
    5.9133   -4.4235  -53.3830 H   0  0  0  0  0  0  0  0  0  0  0  0
    7.6789   -2.2759  -50.0660 H   0  0  0  0  0  0  0  0  0  0  0  0
    9.1316   -1.0237  -51.6535 H   0  0  0  0  0  0  0  0  0  0  0  0
  1  2  1  0
  2  3  1  0
  2  4  1  0
  4  5  1  0
  5  6  2  0
  6  7  1  0
  7  8  2  0
  7  9  1  0
 10  9  1  1
 10 11  1  0
 11 12  1  0
 12 13  1  0
 13 14  1  0
 14 15  1  0
 15 16  1  0
 16 17  1  0
 16 18  1  0
 14 19  1  0
  6 20  1  0
 20 21  2  0
 21 22  1  0
 22 23  1  0
 23 24  2  0
 24 25  1  0
 25 26  1  0
 26 27  1  0
 26 28  1  0
 26 29  1  0
 25 30  2  0
 30 31  1  0
 21  4  1  0
 31 22  2  0
 18 10  1  0
 19 10  1  0
 17 12  1  0
  1 32  1  0
  1 33  1  0
  1 34  1  0
  2 35  1  0
  3 36  1  0
  3 37  1  0
  3 38  1  0
  9 39  1  0
 11 40  1  0
 11 41  1  0
 12 42  1  1
 13 43  1  0
 13 44  1  0
 14 45  1  6
 15 46  1  0
 15 47  1  0
 16 48  1  6
 17 49  1  0
 17 50  1  0
 18 51  1  0
 18 52  1  0
 19 53  1  0
 19 54  1  0
 20 55  1  0
 23 56  1  0
 24 57  1  0
 30 58  1  0
 31 59  1  0
M  END
>  <meeko>  (191) 
{"is_sidechain": false}

$$$$

     RDKit          3D

 59 62  0  0  0  0  0  0  0  0999 V2000
    5.5880   -0.0670  -55.3270 C   0  0  0  0  0  0  0  0  0  0  0  0
    6.8050    0.6370  -55.8100 C   0  0  0  0  0  0  0  0  0  0  0  0
    8.0900    0.7040  -55.1780 C   0  0  0  0  0  0  0  0  0  0  0  0
    8.5350    0.0640  -53.9250 C   0  0  0  0  0  0  0  0  0  0  0  0
    9.2340    0.6360  -53.0930 O   0  0  0  0  0  0  0  0  0  0  0  0
    8.1110   -1.2440  -53.7710 N   0  0  0  0  0  0  0  0  0  0  0  0
    8.3860   -2.0090  -52.5660 C   0  0  0  0  0  0  0  0  0  0  0  0
    7.4770   -1.5640  -51.4170 C   0  0  0  0  0  0  0  0  0  0  0  0
    7.8180   -2.2830  -50.1100 C   0  0  0  0  0  0  0  0  0  0  0  0
    8.4280   -3.6710  -50.3150 C   0  0  0  0  0  0  0  0  0  0  0  0
    7.9100   -4.3340  -51.5820 C   0  0  0  0  0  0  0  0  0  0  0  0
    8.2360   -3.5150  -52.8350 C   0  0  0  0  0  0  0  0  0  0  0  0
    8.9290    1.4770  -55.8880 N   0  0  0  0  0  0  0  0  0  0  0  0
    8.2130    1.8820  -56.9540 N   0  0  0  0  0  0  0  0  0  0  0  0
    8.8460    2.7600  -57.9390 C   0  0  2  0  0  0  0  0  0  0  0  0
   10.2870    2.3120  -58.2410 C   0  0  0  0  0  0  0  0  0  0  0  0
   11.1490    3.4260  -58.8430 C   0  0  0  0  0  0  0  0  0  0  0  0
   10.3160    4.4660  -59.5830 C   0  0  0  0  0  0  0  0  0  0  0  0
    9.2720    5.1400  -58.6800 C   0  0  0  0  0  0  0  0  0  0  0  0
    8.7870    4.2450  -57.5310 C   0  0  2  0  0  0  0  0  0  0  0  0
    9.6240    4.5090  -56.3970 O   0  0  0  0  0  0  0  0  0  0  0  0
    6.9310    1.3900  -56.9680 C   0  0  0  0  0  0  0  0  0  0  0  0
    5.9530    1.6690  -58.0120 C   0  0  0  0  0  0  0  0  0  0  0  0
    4.8570    2.4970  -57.7460 C   0  0  0  0  0  0  0  0  0  0  0  0
    3.9160    2.7560  -58.7450 C   0  0  0  0  0  0  0  0  0  0  0  0
    4.0690    2.1930  -60.0110 C   0  0  0  0  0  0  0  0  0  0  0  0
    5.1630    1.3730  -60.2830 C   0  0  0  0  0  0  0  0  0  0  0  0
    6.1050    1.1120  -59.2860 C   0  0  0  0  0  0  0  0  0  0  0  0
    5.5795   -0.0719  -54.2270 H   0  0  0  0  0  0  0  0  0  0  0  0
    4.6923    0.4524  -55.6983 H   0  0  0  0  0  0  0  0  0  0  0  0
    5.5917   -1.1024  -55.6983 H   0  0  0  0  0  0  0  0  0  0  0  0
    7.5730   -1.6670  -54.5150 H   0  0  0  0  0  0  0  0  0  0  0  0
    9.4267   -1.8166  -52.2662 H   0  0  0  0  0  0  0  0  0  0  0  0
    7.5956   -0.4805  -51.2685 H   0  0  0  0  0  0  0  0  0  0  0  0
    6.4402   -1.8158  -51.6847 H   0  0  0  0  0  0  0  0  0  0  0  0
    8.5373   -1.6662  -49.5513 H   0  0  0  0  0  0  0  0  0  0  0  0
    6.8737   -2.4234  -49.5635 H   0  0  0  0  0  0  0  0  0  0  0  0
    9.5213   -3.5725  -50.3861 H   0  0  0  0  0  0  0  0  0  0  0  0
    8.1426   -4.2998  -49.4588 H   0  0  0  0  0  0  0  0  0  0  0  0
    8.3726   -5.3274  -51.6772 H   0  0  0  0  0  0  0  0  0  0  0  0
    6.8155   -4.4097  -51.5018 H   0  0  0  0  0  0  0  0  0  0  0  0
    9.1804   -3.8881  -53.2580 H   0  0  0  0  0  0  0  0  0  0  0  0
    7.3899   -3.6356  -53.5275 H   0  0  0  0  0  0  0  0  0  0  0  0
    8.2631    2.6692  -58.8674 H   0  0  0  0  0  0  0  0  0  0  0  0
   10.7533    1.9768  -57.3028 H   0  0  0  0  0  0  0  0  0  0  0  0
   10.2300    1.5033  -58.9845 H   0  0  0  0  0  0  0  0  0  0  0  0
   11.6989    3.9253  -58.0317 H   0  0  0  0  0  0  0  0  0  0  0  0
   11.8350    2.9655  -59.5692 H   0  0  0  0  0  0  0  0  0  0  0  0
   10.9900    5.2394  -59.9799 H   0  0  0  0  0  0  0  0  0  0  0  0
    9.7744    3.9471  -60.3876 H   0  0  0  0  0  0  0  0  0  0  0  0
    9.7187    6.0482  -58.2492 H   0  0  0  0  0  0  0  0  0  0  0  0
    8.3968    5.3630  -59.3079 H   0  0  0  0  0  0  0  0  0  0  0  0
    7.7382    4.4646  -57.2823 H   0  0  0  0  0  0  0  0  0  0  0  0
   10.3000    5.1540  -56.7090 H   0  0  0  0  0  0  0  0  0  0  0  0
    4.7363    2.9447  -56.7485 H   0  0  0  0  0  0  0  0  0  0  0  0
    3.0534    3.4048  -58.5326 H   0  0  0  0  0  0  0  0  0  0  0  0
    3.3258    2.3960  -60.7961 H   0  0  0  0  0  0  0  0  0  0  0  0
    5.2842    0.9315  -61.2832 H   0  0  0  0  0  0  0  0  0  0  0  0
    6.9689    0.4666  -59.5030 H   0  0  0  0  0  0  0  0  0  0  0  0
  1  2  1  0
  2  3  1  0
  3  4  1  0
  4  5  2  0
  4  6  1  0
  6  7  1  0
  7  8  1  0
  8  9  1  0
  9 10  1  0
 10 11  1  0
 11 12  1  0
  3 13  2  0
 13 14  1  0
 14 15  1  0
 15 16  1  0
 16 17  1  0
 17 18  1  0
 18 19  1  0
 19 20  1  0
 20 21  1  0
 14 22  1  0
 22 23  1  0
 23 24  2  0
 24 25  1  0
 25 26  2  0
 26 27  1  0
 27 28  2  0
 22  2  2  0
 28 23  1  0
 12  7  1  0
 20 15  1  0
  1 29  1  0
  1 30  1  0
  1 31  1  0
  6 32  1  0
  7 33  1  0
  8 34  1  0
  8 35  1  0
  9 36  1  0
  9 37  1  0
 10 38  1  0
 10 39  1  0
 11 40  1  0
 11 41  1  0
 12 42  1  0
 12 43  1  0
 15 44  1  6
 16 45  1  0
 16 46  1  0
 17 47  1  0
 17 48  1  0
 18 49  1  0
 18 50  1  0
 19 51  1  0
 19 52  1  0
 20 53  1  1
 21 54  1  0
 24 55  1  0
 25 56  1  0
 26 57  1  0
 27 58  1  0
 28 59  1  0
M  END
>  <meeko>  (192) 
{"is_sidechain": false}

$$$$

     RDKit          3D

 59 62  0  0  0  0  0  0  0  0999 V2000
    9.5040    1.7820  -55.7570 C   0  0  0  0  0  0  0  0  0  0  0  0
    8.2090    1.7800  -56.4850 C   0  0  0  0  0  0  0  0  0  0  0  0
    6.9960    1.1090  -56.1200 C   0  0  0  0  0  0  0  0  0  0  0  0
    6.7210    0.2980  -54.9190 C   0  0  0  0  0  0  0  0  0  0  0  0
    5.8690    0.5970  -54.0860 O   0  0  0  0  0  0  0  0  0  0  0  0
    7.5180   -0.8280  -54.7990 N   0  0  0  0  0  0  0  0  0  0  0  0
    7.3200   -1.8100  -53.7430 C   0  0  0  0  0  0  0  0  0  0  0  0
    8.1560   -3.0760  -54.0120 C   0  0  0  0  0  0  0  0  0  0  0  0
    9.5120   -3.0150  -53.3170 C   0  0  0  0  0  0  0  0  0  0  0  0
    9.3680   -2.9050  -51.7980 C   0  0  0  0  0  0  0  0  0  0  0  0
    8.0770   -2.2120  -51.3560 C   0  0  0  0  0  0  0  0  0  0  0  0
    7.6210   -1.1760  -52.3740 C   0  0  0  0  0  0  0  0  0  0  0  0
    6.0470    1.3020  -57.0520 N   0  0  0  0  0  0  0  0  0  0  0  0
    6.6270    2.0740  -57.9880 N   0  0  0  0  0  0  0  0  0  0  0  0
    5.8620    2.4480  -59.1810 C   0  0  1  0  0  0  0  0  0  0  0  0
    6.5200    1.8750  -60.4440 C   0  0  0  0  0  0  0  0  0  0  0  0
    5.7530    2.2660  -61.7040 C   0  0  0  0  0  0  0  0  0  0  0  0
    4.2830    1.8690  -61.6180 C   0  0  0  0  0  0  0  0  0  0  0  0
    3.6240    2.4310  -60.3630 C   0  0  0  0  0  0  0  0  0  0  0  0
    4.3790    2.0240  -59.0960 C   0  0  2  0  0  0  0  0  0  0  0  0
    3.7330    2.6530  -57.9860 O   0  0  0  0  0  0  0  0  0  0  0  0
    7.9230    2.4180  -57.6840 C   0  0  0  0  0  0  0  0  0  0  0  0
    8.7720    3.2550  -58.5230 C   0  0  0  0  0  0  0  0  0  0  0  0
    8.6800    4.6490  -58.4530 C   0  0  0  0  0  0  0  0  0  0  0  0
    9.4910    5.4490  -59.2600 C   0  0  0  0  0  0  0  0  0  0  0  0
   10.4010    4.8580  -60.1370 C   0  0  0  0  0  0  0  0  0  0  0  0
   10.5030    3.4690  -60.2070 C   0  0  0  0  0  0  0  0  0  0  0  0
    9.6920    2.6680  -59.4010 C   0  0  0  0  0  0  0  0  0  0  0  0
    9.3154    1.7817  -54.6733 H   0  0  0  0  0  0  0  0  0  0  0  0
   10.0791    0.8847  -56.0293 H   0  0  0  0  0  0  0  0  0  0  0  0
   10.0763    2.6810  -56.0293 H   0  0  0  0  0  0  0  0  0  0  0  0
    8.2100   -1.0050  -55.5130 H   0  0  0  0  0  0  0  0  0  0  0  0
    6.2674   -2.1292  -53.7307 H   0  0  0  0  0  0  0  0  0  0  0  0
    7.6046   -3.9527  -53.6413 H   0  0  0  0  0  0  0  0  0  0  0  0
    8.3293   -3.1485  -55.0958 H   0  0  0  0  0  0  0  0  0  0  0  0
   10.0758   -3.9288  -53.5559 H   0  0  0  0  0  0  0  0  0  0  0  0
   10.0399   -2.1192  -53.6759 H   0  0  0  0  0  0  0  0  0  0  0  0
    9.3820   -3.9193  -51.3725 H   0  0  0  0  0  0  0  0  0  0  0  0
   10.2055   -2.2898  -51.4372 H   0  0  0  0  0  0  0  0  0  0  0  0
    7.2875   -2.9689  -51.2387 H   0  0  0  0  0  0  0  0  0  0  0  0
    8.2714   -1.6967  -50.4038 H   0  0  0  0  0  0  0  0  0  0  0  0
    6.7090   -0.6876  -52.0001 H   0  0  0  0  0  0  0  0  0  0  0  0
    8.4348   -0.4481  -52.5072 H   0  0  0  0  0  0  0  0  0  0  0  0
    5.8735    3.5465  -59.2372 H   0  0  0  0  0  0  0  0  0  0  0  0
    7.5475    2.2607  -60.5175 H   0  0  0  0  0  0  0  0  0  0  0  0
    6.5168    0.7778  -60.3659 H   0  0  0  0  0  0  0  0  0  0  0  0
    5.8203    3.3557  -61.8381 H   0  0  0  0  0  0  0  0  0  0  0  0
    6.2015    1.7345  -62.5562 H   0  0  0  0  0  0  0  0  0  0  0  0
    3.7560    2.2565  -62.5024 H   0  0  0  0  0  0  0  0  0  0  0  0
    4.2242    0.7714  -61.5762 H   0  0  0  0  0  0  0  0  0  0  0  0
    3.6070    3.5288  -60.4306 H   0  0  0  0  0  0  0  0  0  0  0  0
    2.6041    2.0238  -60.2999 H   0  0  0  0  0  0  0  0  0  0  0  0
    4.3625    0.9306  -58.9767 H   0  0  0  0  0  0  0  0  0  0  0  0
    3.1380    3.3230  -58.3790 H   0  0  0  0  0  0  0  0  0  0  0  0
    7.9658    5.1167  -57.7593 H   0  0  0  0  0  0  0  0  0  0  0  0
    9.4126    6.5448  -59.2044 H   0  0  0  0  0  0  0  0  0  0  0  0
   11.0388    5.4885  -60.7740 H   0  0  0  0  0  0  0  0  0  0  0  0
   11.2225    3.0045  -60.8973 H   0  0  0  0  0  0  0  0  0  0  0  0
    9.7758    1.5726  -59.4556 H   0  0  0  0  0  0  0  0  0  0  0  0
  1  2  1  0
  2  3  1  0
  3  4  1  0
  4  5  2  0
  4  6  1  0
  6  7  1  0
  7  8  1  0
  8  9  1  0
  9 10  1  0
 10 11  1  0
 11 12  1  0
  3 13  2  0
 13 14  1  0
 14 15  1  0
 15 16  1  0
 16 17  1  0
 17 18  1  0
 18 19  1  0
 19 20  1  0
 20 21  1  0
 14 22  1  0
 22 23  1  0
 23 24  2  0
 24 25  1  0
 25 26  2  0
 26 27  1  0
 27 28  2  0
 22  2  2  0
 28 23  1  0
 12  7  1  0
 20 15  1  0
  1 29  1  0
  1 30  1  0
  1 31  1  0
  6 32  1  0
  7 33  1  0
  8 34  1  0
  8 35  1  0
  9 36  1  0
  9 37  1  0
 10 38  1  0
 10 39  1  0
 11 40  1  0
 11 41  1  0
 12 42  1  0
 12 43  1  0
 15 44  1  6
 16 45  1  0
 16 46  1  0
 17 47  1  0
 17 48  1  0
 18 49  1  0
 18 50  1  0
 19 51  1  0
 19 52  1  0
 20 53  1  1
 21 54  1  0
 24 55  1  0
 25 56  1  0
 26 57  1  0
 27 58  1  0
 28 59  1  0
M  END
>  <meeko>  (193) 
{"is_sidechain": false}

$$$$

     RDKit          3D

 59 62  0  0  0  0  0  0  0  0999 V2000
    5.8530    0.2490  -53.2220 C   0  0  0  0  0  0  0  0  0  0  0  0
    7.0900   -0.2470  -53.8820 C   0  0  0  0  0  0  0  0  0  0  0  0
    7.7550    0.3120  -55.0210 C   0  0  0  0  0  0  0  0  0  0  0  0
    7.3560    1.4720  -55.8420 C   0  0  0  0  0  0  0  0  0  0  0  0
    6.1850    1.7790  -56.0530 O   0  0  0  0  0  0  0  0  0  0  0  0
    8.4190    2.2080  -56.3350 N   0  0  0  0  0  0  0  0  0  0  0  0
    8.2260    3.4090  -57.1360 C   0  0  0  0  0  0  0  0  0  0  0  0
    8.3470    3.1060  -58.6360 C   0  0  0  0  0  0  0  0  0  0  0  0
    9.7850    2.8090  -59.0610 C   0  0  0  0  0  0  0  0  0  0  0  0
   10.7380    3.9250  -58.6450 C   0  0  0  0  0  0  0  0  0  0  0  0
   10.6470    4.2150  -57.1500 C   0  0  0  0  0  0  0  0  0  0  0  0
    9.2110    4.5090  -56.7160 C   0  0  0  0  0  0  0  0  0  0  0  0
    8.8700   -0.3780  -55.3060 N   0  0  0  0  0  0  0  0  0  0  0  0
    8.9140   -1.3700  -54.3960 N   0  0  0  0  0  0  0  0  0  0  0  0
   10.0560   -2.2930  -54.4120 C   0  0  2  0  0  0  0  0  0  0  0  0
   11.3160   -1.6110  -54.9860 C   0  0  0  0  0  0  0  0  0  0  0  0
   11.5320   -1.9240  -56.4640 C   0  0  0  0  0  0  0  0  0  0  0  0
   11.6640   -3.4240  -56.7230 C   0  0  0  0  0  0  0  0  0  0  0  0
   10.9260   -4.2910  -55.7070 C   0  0  0  0  0  0  0  0  0  0  0  0
    9.6840   -3.6000  -55.1460 C   0  0  1  0  0  0  0  0  0  0  0  0
    9.0410   -4.5000  -54.2350 O   0  0  0  0  0  0  0  0  0  0  0  0
    7.8590   -1.3430  -53.5130 C   0  0  0  0  0  0  0  0  0  0  0  0
    7.6700   -2.2900  -52.4180 C   0  0  0  0  0  0  0  0  0  0  0  0
    8.5280   -2.2740  -51.3130 C   0  0  0  0  0  0  0  0  0  0  0  0
    8.3450   -3.1800  -50.2670 C   0  0  0  0  0  0  0  0  0  0  0  0
    7.3060   -4.1080  -50.3220 C   0  0  0  0  0  0  0  0  0  0  0  0
    6.4480   -4.1310  -51.4210 C   0  0  0  0  0  0  0  0  0  0  0  0
    6.6300   -3.2240  -52.4670 C   0  0  0  0  0  0  0  0  0  0  0  0
    5.9752    0.2000  -52.1299 H   0  0  0  0  0  0  0  0  0  0  0  0
    5.6687    1.2906  -53.5240 H   0  0  0  0  0  0  0  0  0  0  0  0
    5.0002   -0.3767  -53.5240 H   0  0  0  0  0  0  0  0  0  0  0  0
    9.3460    1.9770  -56.0050 H   0  0  0  0  0  0  0  0  0  0  0  0
    7.2050    3.7746  -56.9521 H   0  0  0  0  0  0  0  0  0  0  0  0
    7.7225    2.2313  -58.8703 H   0  0  0  0  0  0  0  0  0  0  0  0
    8.0151    3.9998  -59.1845 H   0  0  0  0  0  0  0  0  0  0  0  0
   10.1091    1.8693  -58.5899 H   0  0  0  0  0  0  0  0  0  0  0  0
    9.8088    2.7287  -60.1578 H   0  0  0  0  0  0  0  0  0  0  0  0
   11.7677    3.6238  -58.8879 H   0  0  0  0  0  0  0  0  0  0  0  0
   10.4562    4.8381  -59.1897 H   0  0  0  0  0  0  0  0  0  0  0  0
   11.0150    3.3399  -56.5943 H   0  0  0  0  0  0  0  0  0  0  0  0
   11.2581    5.1042  -56.9360 H   0  0  0  0  0  0  0  0  0  0  0  0
    9.1871    4.6026  -55.6202 H   0  0  0  0  0  0  0  0  0  0  0  0
    8.8990    5.4401  -57.2118 H   0  0  0  0  0  0  0  0  0  0  0  0
   10.3062   -2.5704  -53.3774 H   0  0  0  0  0  0  0  0  0  0  0  0
   11.2118   -0.5223  -54.8682 H   0  0  0  0  0  0  0  0  0  0  0  0
   12.1849   -1.9980  -54.4334 H   0  0  0  0  0  0  0  0  0  0  0  0
   10.6749   -1.5398  -57.0364 H   0  0  0  0  0  0  0  0  0  0  0  0
   12.4705   -1.4433  -56.7773 H   0  0  0  0  0  0  0  0  0  0  0  0
   11.2593   -3.6404  -57.7227 H   0  0  0  0  0  0  0  0  0  0  0  0
   12.7326   -3.6711  -56.6393 H   0  0  0  0  0  0  0  0  0  0  0  0
   10.6188   -5.2264  -56.1975 H   0  0  0  0  0  0  0  0  0  0  0  0
   11.6114   -4.4825  -54.8682 H   0  0  0  0  0  0  0  0  0  0  0  0
    9.0097   -3.3391  -55.9750 H   0  0  0  0  0  0  0  0  0  0  0  0
    9.1850   -5.4010  -54.5750 H   0  0  0  0  0  0  0  0  0  0  0  0
    9.3501   -1.5445  -51.2683 H   0  0  0  0  0  0  0  0  0  0  0  0
    9.0207   -3.1618  -49.3992 H   0  0  0  0  0  0  0  0  0  0  0  0
    7.1630   -4.8225  -49.4980 H   0  0  0  0  0  0  0  0  0  0  0  0
    5.6283   -4.8632  -51.4639 H   0  0  0  0  0  0  0  0  0  0  0  0
    5.9525   -3.2441  -53.3333 H   0  0  0  0  0  0  0  0  0  0  0  0
  1  2  1  0
  2  3  1  0
  3  4  1  0
  4  5  2  0
  4  6  1  0
  6  7  1  0
  7  8  1  0
  8  9  1  0
  9 10  1  0
 10 11  1  0
 11 12  1  0
  3 13  2  0
 13 14  1  0
 14 15  1  0
 15 16  1  0
 16 17  1  0
 17 18  1  0
 18 19  1  0
 19 20  1  0
 20 21  1  0
 14 22  1  0
 22 23  1  0
 23 24  2  0
 24 25  1  0
 25 26  2  0
 26 27  1  0
 27 28  2  0
 22  2  2  0
 28 23  1  0
 12  7  1  0
 20 15  1  0
  1 29  1  0
  1 30  1  0
  1 31  1  0
  6 32  1  0
  7 33  1  0
  8 34  1  0
  8 35  1  0
  9 36  1  0
  9 37  1  0
 10 38  1  0
 10 39  1  0
 11 40  1  0
 11 41  1  0
 12 42  1  0
 12 43  1  0
 15 44  1  1
 16 45  1  0
 16 46  1  0
 17 47  1  0
 17 48  1  0
 18 49  1  0
 18 50  1  0
 19 51  1  0
 19 52  1  0
 20 53  1  6
 21 54  1  0
 24 55  1  0
 25 56  1  0
 26 57  1  0
 27 58  1  0
 28 59  1  0
M  END
>  <meeko>  (194) 
{"is_sidechain": false}

$$$$

     RDKit          3D

 59 62  0  0  0  0  0  0  0  0999 V2000
    8.6070    0.7820  -54.4930 C   0  0  0  0  0  0  0  0  0  0  0  0
    9.5980   -0.1360  -55.1170 C   0  0  0  0  0  0  0  0  0  0  0  0
   10.5030    0.1520  -56.1830 C   0  0  0  0  0  0  0  0  0  0  0  0
   10.7240    1.4300  -56.8900 C   0  0  0  0  0  0  0  0  0  0  0  0
   11.7950    2.0320  -56.8750 O   0  0  0  0  0  0  0  0  0  0  0  0
    9.6080    1.9160  -57.5480 N   0  0  0  0  0  0  0  0  0  0  0  0
    9.6240    3.1800  -58.2720 C   0  0  0  0  0  0  0  0  0  0  0  0
    8.2660    3.8860  -58.1670 C   0  0  0  0  0  0  0  0  0  0  0  0
    7.1760    3.2040  -58.9950 C   0  0  0  0  0  0  0  0  0  0  0  0
    7.6020    3.0250  -60.4480 C   0  0  0  0  0  0  0  0  0  0  0  0
    8.9340    2.2920  -60.5600 C   0  0  0  0  0  0  0  0  0  0  0  0
   10.0260    2.9780  -59.7400 C   0  0  0  0  0  0  0  0  0  0  0  0
   11.2050   -0.9420  -56.5110 N   0  0  0  0  0  0  0  0  0  0  0  0
   10.7680   -1.9180  -55.6860 N   0  0  0  0  0  0  0  0  0  0  0  0
   11.3800   -3.2310  -55.8810 C   0  0  1  0  0  0  0  0  0  0  0  0
   10.4270   -4.4310  -56.0120 C   0  0  0  0  0  0  0  0  0  0  0  0
   11.1540   -5.7270  -56.3970 C   0  0  0  0  0  0  0  0  0  0  0  0
   12.6540   -5.6730  -56.1420 C   0  0  0  0  0  0  0  0  0  0  0  0
   13.3400   -4.5070  -56.8670 C   0  0  0  0  0  0  0  0  0  0  0  0
   12.4760   -3.2360  -56.9630 C   0  0  1  0  0  0  0  0  0  0  0  0
   11.9440   -3.1650  -58.2900 O   0  0  0  0  0  0  0  0  0  0  0  0
    9.8150   -1.4720  -54.7970 C   0  0  0  0  0  0  0  0  0  0  0  0
    9.1610   -2.2550  -53.7560 C   0  0  0  0  0  0  0  0  0  0  0  0
    7.9310   -2.8750  -53.9970 C   0  0  0  0  0  0  0  0  0  0  0  0
    7.2950   -3.5960  -52.9850 C   0  0  0  0  0  0  0  0  0  0  0  0
    7.8770   -3.6880  -51.7210 C   0  0  0  0  0  0  0  0  0  0  0  0
    9.0910   -3.0520  -51.4650 C   0  0  0  0  0  0  0  0  0  0  0  0
    9.7280   -2.3320  -52.4770 C   0  0  0  0  0  0  0  0  0  0  0  0
    8.6819    0.7127  -53.3977 H   0  0  0  0  0  0  0  0  0  0  0  0
    8.8136    1.8149  -54.8100 H   0  0  0  0  0  0  0  0  0  0  0  0
    7.5929    0.4971  -54.8100 H   0  0  0  0  0  0  0  0  0  0  0  0
    8.7290    1.4380  -57.4070 H   0  0  0  0  0  0  0  0  0  0  0  0
   10.3828    3.8248  -57.8047 H   0  0  0  0  0  0  0  0  0  0  0  0
    7.9538    3.8917  -57.1122 H   0  0  0  0  0  0  0  0  0  0  0  0
    8.3919    4.9050  -58.5617 H   0  0  0  0  0  0  0  0  0  0  0  0
    6.9643    2.2156  -58.5610 H   0  0  0  0  0  0  0  0  0  0  0  0
    6.2804    3.8423  -58.9759 H   0  0  0  0  0  0  0  0  0  0  0  0
    6.8308    2.4454  -60.9766 H   0  0  0  0  0  0  0  0  0  0  0  0
    7.7216    4.0229  -60.8952 H   0  0  0  0  0  0  0  0  0  0  0  0
    8.8065    1.2626  -60.1939 H   0  0  0  0  0  0  0  0  0  0  0  0
    9.2420    2.2989  -61.6160 H   0  0  0  0  0  0  0  0  0  0  0  0
   10.9341    2.3581  -59.7744 H   0  0  0  0  0  0  0  0  0  0  0  0
   10.1963    3.9724  -60.1783 H   0  0  0  0  0  0  0  0  0  0  0  0
   11.8654   -3.4016  -54.9088 H   0  0  0  0  0  0  0  0  0  0  0  0
    9.9207   -4.5849  -55.0477 H   0  0  0  0  0  0  0  0  0  0  0  0
    9.7118   -4.2006  -56.8154 H   0  0  0  0  0  0  0  0  0  0  0  0
   10.7292   -6.5539  -55.8089 H   0  0  0  0  0  0  0  0  0  0  0  0
   11.0117   -5.8723  -57.4780 H   0  0  0  0  0  0  0  0  0  0  0  0
   12.8227   -5.5623  -55.0607 H   0  0  0  0  0  0  0  0  0  0  0  0
   13.0892   -6.6057  -56.5301 H   0  0  0  0  0  0  0  0  0  0  0  0
   14.2638   -4.2575  -56.3245 H   0  0  0  0  0  0  0  0  0  0  0  0
   13.5319   -4.8408  -57.8974 H   0  0  0  0  0  0  0  0  0  0  0  0
   13.0829   -2.3381  -56.7745 H   0  0  0  0  0  0  0  0  0  0  0  0
   11.3460   -2.4010  -58.3570 H   0  0  0  0  0  0  0  0  0  0  0  0
    7.4623   -2.7942  -54.9889 H   0  0  0  0  0  0  0  0  0  0  0  0
    6.3338   -4.0921  -53.1847 H   0  0  0  0  0  0  0  0  0  0  0  0
    7.3784   -4.2622  -50.9262 H   0  0  0  0  0  0  0  0  0  0  0  0
    9.5466   -3.1176  -50.4659 H   0  0  0  0  0  0  0  0  0  0  0  0
   10.6804   -1.8222  -52.2693 H   0  0  0  0  0  0  0  0  0  0  0  0
  1  2  1  0
  2  3  1  0
  3  4  1  0
  4  5  2  0
  4  6  1  0
  6  7  1  0
  7  8  1  0
  8  9  1  0
  9 10  1  0
 10 11  1  0
 11 12  1  0
  3 13  2  0
 13 14  1  0
 14 15  1  0
 15 16  1  0
 16 17  1  0
 17 18  1  0
 18 19  1  0
 19 20  1  0
 20 21  1  0
 14 22  1  0
 22 23  1  0
 23 24  2  0
 24 25  1  0
 25 26  2  0
 26 27  1  0
 27 28  2  0
 22  2  2  0
 28 23  1  0
 12  7  1  0
 20 15  1  0
  1 29  1  0
  1 30  1  0
  1 31  1  0
  6 32  1  0
  7 33  1  0
  8 34  1  0
  8 35  1  0
  9 36  1  0
  9 37  1  0
 10 38  1  0
 10 39  1  0
 11 40  1  0
 11 41  1  0
 12 42  1  0
 12 43  1  0
 15 44  1  1
 16 45  1  0
 16 46  1  0
 17 47  1  0
 17 48  1  0
 18 49  1  0
 18 50  1  0
 19 51  1  0
 19 52  1  0
 20 53  1  1
 21 54  1  0
 24 55  1  0
 25 56  1  0
 26 57  1  0
 27 58  1  0
 28 59  1  0
M  END
>  <meeko>  (195) 
{"is_sidechain": false}

$$$$

     RDKit          3D

 60 64  0  0  0  0  0  0  0  0999 V2000
    6.6710    1.7130  -56.1550 C   0  0  0  0  0  0  0  0  0  0  0  0
    8.0870    1.2620  -56.1600 C   0  0  0  0  0  0  0  0  0  0  0  0
    8.6230    0.2570  -55.3650 C   0  0  0  0  0  0  0  0  0  0  0  0
    7.9810   -0.5910  -54.3680 C   0  0  0  0  0  0  0  0  0  0  0  0
    8.0060   -0.2350  -53.0150 C   0  0  0  0  0  0  0  0  0  0  0  0
    7.3890   -1.0460  -52.0620 C   0  0  0  0  0  0  0  0  0  0  0  0
    6.7400   -2.2150  -52.4580 C   0  0  0  0  0  0  0  0  0  0  0  0
    6.7050   -2.5730  -53.8050 C   0  0  0  0  0  0  0  0  0  0  0  0
    7.3210   -1.7610  -54.7600 C   0  0  0  0  0  0  0  0  0  0  0  0
    9.9450    0.1720  -55.7200 N   0  0  0  0  0  0  0  0  0  0  0  0
   10.9510   -0.7410  -55.2020 C   0  0  0  0  0  0  0  0  0  0  0  0
   10.8080   -2.1700  -55.7320 C   0  0  0  0  0  0  0  0  0  0  0  0
   10.7330   -3.2190  -54.6150 C   0  0  1  0  0  0  0  0  0  0  0  0
   11.5510   -4.3420  -54.9590 O   0  0  0  0  0  0  0  0  0  0  0  0
   11.1990   -2.6590  -53.2630 C   0  0  0  0  0  0  0  0  0  0  0  0
   10.2560   -2.9260  -52.2350 O   0  0  0  0  0  0  0  0  0  0  0  0
   10.3060    1.0680  -56.6490 N   0  0  0  0  0  0  0  0  0  0  0  0
    9.1810    1.7260  -56.9590 C   0  0  0  0  0  0  0  0  0  0  0  0
    9.2260    2.8150  -58.0280 C   0  0  2  0  0  0  0  0  0  0  0  0
    8.9630    4.2110  -57.3980 C   0  0  0  0  0  0  0  0  0  0  0  0
    8.9970    5.3170  -58.4680 C   0  0  1  0  0  0  0  0  0  0  0  0
   10.3830    5.3430  -59.1290 C   0  0  0  0  0  0  0  0  0  0  0  0
   10.6690    3.9890  -59.7950 C   0  0  2  0  0  0  0  0  0  0  0  0
    9.6010    3.7070  -60.8610 C   0  0  0  0  0  0  0  0  0  0  0  0
    8.2130    3.6740  -60.2100 C   0  0  2  0  0  0  0  0  0  0  0  0
    7.9300    5.0260  -59.5360 C   0  0  0  0  0  0  0  0  0  0  0  0
    8.1750    2.5610  -59.1460 C   0  0  0  0  0  0  0  0  0  0  0  0
   10.6230    2.8820  -58.7280 C   0  0  0  0  0  0  0  0  0  0  0  0
    6.3250    1.8232  -55.1167 H   0  0  0  0  0  0  0  0  0  0  0  0
    6.5925    2.6806  -56.6723 H   0  0  0  0  0  0  0  0  0  0  0  0
    6.0474    0.9690  -56.6723 H   0  0  0  0  0  0  0  0  0  0  0  0
    8.5145    0.6886  -52.7013 H   0  0  0  0  0  0  0  0  0  0  0  0
    7.4145   -0.7635  -50.9992 H   0  0  0  0  0  0  0  0  0  0  0  0
    6.2550   -2.8555  -51.7066 H   0  0  0  0  0  0  0  0  0  0  0  0
    6.1921   -3.4952  -54.1157 H   0  0  0  0  0  0  0  0  0  0  0  0
    7.2872   -2.0419  -55.8230 H   0  0  0  0  0  0  0  0  0  0  0  0
   11.9441   -0.3622  -55.4852 H   0  0  0  0  0  0  0  0  0  0  0  0
   10.8175   -0.7852  -54.1110 H   0  0  0  0  0  0  0  0  0  0  0  0
    9.8882   -2.2308  -56.3323 H   0  0  0  0  0  0  0  0  0  0  0  0
   11.7043   -2.3902  -56.3305 H   0  0  0  0  0  0  0  0  0  0  0  0
    9.6797   -3.5197  -54.5146 H   0  0  0  0  0  0  0  0  0  0  0  0
   11.1140   -5.1470  -54.6360 H   0  0  0  0  0  0  0  0  0  0  0  0
   12.1597   -3.1235  -52.9959 H   0  0  0  0  0  0  0  0  0  0  0  0
   11.3042   -1.5683  -53.3595 H   0  0  0  0  0  0  0  0  0  0  0  0
   10.3190   -3.8750  -52.0310 H   0  0  0  0  0  0  0  0  0  0  0  0
    7.9740    4.2073  -56.9164 H   0  0  0  0  0  0  0  0  0  0  0  0
    9.7520    4.4152  -56.6592 H   0  0  0  0  0  0  0  0  0  0  0  0
    8.7933    6.2905  -57.9982 H   0  0  0  0  0  0  0  0  0  0  0  0
   10.4095    6.1368  -59.8900 H   0  0  0  0  0  0  0  0  0  0  0  0
   11.1469    5.5382  -58.3619 H   0  0  0  0  0  0  0  0  0  0  0  0
   11.6625    4.0127  -60.2666 H   0  0  0  0  0  0  0  0  0  0  0  0
    9.6280    4.4994  -61.6234 H   0  0  0  0  0  0  0  0  0  0  0  0
    9.8050    2.7335  -61.3307 H   0  0  0  0  0  0  0  0  0  0  0  0
    7.4521    3.4789  -60.9801 H   0  0  0  0  0  0  0  0  0  0  0  0
    7.9483    5.8219  -60.2950 H   0  0  0  0  0  0  0  0  0  0  0  0
    6.9408    4.9893  -59.0563 H   0  0  0  0  0  0  0  0  0  0  0  0
    7.1721    2.5298  -58.6952 H   0  0  0  0  0  0  0  0  0  0  0  0
    8.4108    1.6041  -59.6346 H   0  0  0  0  0  0  0  0  0  0  0  0
   10.8282    1.9141  -59.2087 H   0  0  0  0  0  0  0  0  0  0  0  0
   11.3805    3.1093  -57.9634 H   0  0  0  0  0  0  0  0  0  0  0  0
  1  2  1  0
  2  3  2  0
  3  4  1  0
  4  5  2  0
  5  6  1  0
  6  7  2  0
  7  8  1  0
  8  9  2  0
  3 10  1  0
 10 11  1  0
 11 12  1  0
 12 13  1  0
 13 14  1  0
 13 15  1  0
 15 16  1  0
 10 17  1  0
 17 18  2  0
 19 18  1  1
 19 20  1  0
 20 21  1  0
 21 22  1  0
 22 23  1  0
 23 24  1  0
 24 25  1  0
 25 26  1  0
 25 27  1  0
 23 28  1  0
 18  2  1  0
 27 19  1  0
  9  4  1  0
 28 19  1  0
 26 21  1  0
  1 29  1  0
  1 30  1  0
  1 31  1  0
  5 32  1  0
  6 33  1  0
  7 34  1  0
  8 35  1  0
  9 36  1  0
 11 37  1  0
 11 38  1  0
 12 39  1  0
 12 40  1  0
 13 41  1  1
 14 42  1  0
 15 43  1  0
 15 44  1  0
 16 45  1  0
 20 46  1  0
 20 47  1  0
 21 48  1  1
 22 49  1  0
 22 50  1  0
 23 51  1  6
 24 52  1  0
 24 53  1  0
 25 54  1  6
 26 55  1  0
 26 56  1  0
 27 57  1  0
 27 58  1  0
 28 59  1  0
 28 60  1  0
M  END
>  <meeko>  (196) 
{"is_sidechain": false}

$$$$

     RDKit          3D

 60 64  0  0  0  0  0  0  0  0999 V2000
    6.7480    1.7080  -55.9410 C   0  0  0  0  0  0  0  0  0  0  0  0
    8.1440    1.2040  -56.0040 C   0  0  0  0  0  0  0  0  0  0  0  0
    8.6480    0.1190  -55.3010 C   0  0  0  0  0  0  0  0  0  0  0  0
    7.9960   -0.7770  -54.3560 C   0  0  0  0  0  0  0  0  0  0  0  0
    7.3090   -1.9080  -54.8130 C   0  0  0  0  0  0  0  0  0  0  0  0
    6.6890   -2.7670  -53.9060 C   0  0  0  0  0  0  0  0  0  0  0  0
    6.7500   -2.4990  -52.5380 C   0  0  0  0  0  0  0  0  0  0  0  0
    7.4290   -1.3720  -52.0770 C   0  0  0  0  0  0  0  0  0  0  0  0
    8.0490   -0.5100  -52.9840 C   0  0  0  0  0  0  0  0  0  0  0  0
    9.9700    0.0250  -55.6560 N   0  0  0  0  0  0  0  0  0  0  0  0
   10.9300   -0.9600  -55.1770 C   0  0  0  0  0  0  0  0  0  0  0  0
   11.3600   -2.0290  -56.1890 C   0  0  0  0  0  0  0  0  0  0  0  0
   10.8350   -3.4380  -55.8670 C   0  0  2  0  0  0  0  0  0  0  0  0
   11.4850   -4.0260  -54.7460 O   0  0  0  0  0  0  0  0  0  0  0  0
   10.9690   -4.3870  -57.0650 C   0  0  0  0  0  0  0  0  0  0  0  0
   11.8040   -3.8500  -58.0840 O   0  0  0  0  0  0  0  0  0  0  0  0
   10.3520    0.9680  -56.5380 N   0  0  0  0  0  0  0  0  0  0  0  0
    9.2550    1.7080  -56.7560 C   0  0  0  0  0  0  0  0  0  0  0  0
    9.3330    2.8920  -57.7190 C   0  0  2  0  0  0  0  0  0  0  0  0
    8.2720    2.7510  -58.8440 C   0  0  0  0  0  0  0  0  0  0  0  0
    8.3350    3.9420  -59.8180 C   0  0  1  0  0  0  0  0  0  0  0  0
    8.0930    5.2470  -59.0420 C   0  0  0  0  0  0  0  0  0  0  0  0
    9.1710    5.4280  -57.9630 C   0  0  2  0  0  0  0  0  0  0  0  0
   10.5550    5.4700  -58.6260 C   0  0  0  0  0  0  0  0  0  0  0  0
   10.8030    4.1640  -59.3930 C   0  0  2  0  0  0  0  0  0  0  0  0
    9.7230    3.9910  -60.4720 C   0  0  0  0  0  0  0  0  0  0  0  0
   10.7330    2.9810  -58.4140 C   0  0  0  0  0  0  0  0  0  0  0  0
    9.1100    4.2440  -56.9830 C   0  0  0  0  0  0  0  0  0  0  0  0
    6.4448    1.8175  -54.8893 H   0  0  0  0  0  0  0  0  0  0  0  0
    6.6877    2.6846  -56.4435 H   0  0  0  0  0  0  0  0  0  0  0  0
    6.0778    0.9951  -56.4435 H   0  0  0  0  0  0  0  0  0  0  0  0
    7.2581   -2.1198  -55.8912 H   0  0  0  0  0  0  0  0  0  0  0  0
    6.1519   -3.6557  -54.2690 H   0  0  0  0  0  0  0  0  0  0  0  0
    6.2620   -3.1774  -51.8228 H   0  0  0  0  0  0  0  0  0  0  0  0
    7.4764   -1.1617  -50.9983 H   0  0  0  0  0  0  0  0  0  0  0  0
    8.5804    0.3811  -52.6186 H   0  0  0  0  0  0  0  0  0  0  0  0
   11.8325   -0.4205  -54.8538 H   0  0  0  0  0  0  0  0  0  0  0  0
   10.4175   -1.5050  -54.3706 H   0  0  0  0  0  0  0  0  0  0  0  0
   10.9847   -1.7378  -57.1811 H   0  0  0  0  0  0  0  0  0  0  0  0
   12.4581   -2.0809  -56.1518 H   0  0  0  0  0  0  0  0  0  0  0  0
    9.7712   -3.2993  -55.6238 H   0  0  0  0  0  0  0  0  0  0  0  0
   12.4520   -3.8650  -54.8280 H   0  0  0  0  0  0  0  0  0  0  0  0
   11.4002   -5.3375  -56.7177 H   0  0  0  0  0  0  0  0  0  0  0  0
    9.9664   -4.5354  -57.4926 H   0  0  0  0  0  0  0  0  0  0  0  0
   11.2210   -3.5070  -58.7820 H   0  0  0  0  0  0  0  0  0  0  0  0
    8.4602    1.8212  -59.4008 H   0  0  0  0  0  0  0  0  0  0  0  0
    7.2739    2.7298  -58.3822 H   0  0  0  0  0  0  0  0  0  0  0  0
    7.5646    3.8249  -60.5943 H   0  0  0  0  0  0  0  0  0  0  0  0
    8.1300    6.0970  -59.7393 H   0  0  0  0  0  0  0  0  0  0  0  0
    7.1055    5.2008  -58.5597 H   0  0  0  0  0  0  0  0  0  0  0  0
    8.9961    6.3682  -57.4195 H   0  0  0  0  0  0  0  0  0  0  0  0
   10.5997    6.3183  -59.3249 H   0  0  0  0  0  0  0  0  0  0  0  0
   11.3261    5.5882  -57.8505 H   0  0  0  0  0  0  0  0  0  0  0  0
   11.7952    4.1981  -59.8666 H   0  0  0  0  0  0  0  0  0  0  0  0
    9.7670    4.8388  -61.1715 H   0  0  0  0  0  0  0  0  0  0  0  0
    9.9009    3.0513  -61.0155 H   0  0  0  0  0  0  0  0  0  0  0  0
   10.9172    2.0482  -58.9671 H   0  0  0  0  0  0  0  0  0  0  0  0
   11.4953    3.1323  -57.6355 H   0  0  0  0  0  0  0  0  0  0  0  0
    9.8916    4.3698  -56.2193 H   0  0  0  0  0  0  0  0  0  0  0  0
    8.1129    4.2273  -56.5188 H   0  0  0  0  0  0  0  0  0  0  0  0
  1  2  1  0
  2  3  2  0
  3  4  1  0
  4  5  2  0
  5  6  1  0
  6  7  2  0
  7  8  1  0
  8  9  2  0
  3 10  1  0
 10 11  1  0
 11 12  1  0
 12 13  1  0
 13 14  1  0
 13 15  1  0
 15 16  1  0
 10 17  1  0
 17 18  2  0
 19 18  1  1
 19 20  1  0
 20 21  1  0
 21 22  1  0
 22 23  1  0
 23 24  1  0
 24 25  1  0
 25 26  1  0
 25 27  1  0
 23 28  1  0
 18  2  1  0
 27 19  1  0
  9  4  1  0
 28 19  1  0
 26 21  1  0
  1 29  1  0
  1 30  1  0
  1 31  1  0
  5 32  1  0
  6 33  1  0
  7 34  1  0
  8 35  1  0
  9 36  1  0
 11 37  1  0
 11 38  1  0
 12 39  1  0
 12 40  1  0
 13 41  1  1
 14 42  1  0
 15 43  1  0
 15 44  1  0
 16 45  1  0
 20 46  1  0
 20 47  1  0
 21 48  1  6
 22 49  1  0
 22 50  1  0
 23 51  1  1
 24 52  1  0
 24 53  1  0
 25 54  1  6
 26 55  1  0
 26 56  1  0
 27 57  1  0
 27 58  1  0
 28 59  1  0
 28 60  1  0
M  END
>  <meeko>  (197) 
{"is_sidechain": false}

$$$$
