
     RDKit          3D

 55 57  0  0  0  0  0  0  0  0999 V2000
    5.9190    0.0340  -53.4960 C   0  0  0  0  0  0  0  0  0  0  0  0
    7.2520   -0.4210  -53.9900 C   0  0  0  0  0  0  0  0  0  0  0  0
    8.0320    0.1690  -55.0440 C   0  0  0  0  0  0  0  0  0  0  0  0
    7.7480    1.2970  -55.9350 C   0  0  0  0  0  0  0  0  0  0  0  0
    6.6290    1.7870  -56.0230 O   0  0  0  0  0  0  0  0  0  0  0  0
    8.8550    1.7770  -56.6020 N   0  0  0  0  0  0  0  0  0  0  0  0
    8.8650    2.9700  -57.4580 C   0  0  0  0  0  0  0  0  0  0  0  0
   10.2130    3.0040  -58.2010 C   0  0  0  0  0  0  0  0  0  0  0  0
    8.7380    4.2480  -56.6150 C   0  0  0  0  0  0  0  0  0  0  0  0
    7.7430    2.9150  -58.5090 C   0  0  0  0  0  0  0  0  0  0  0  0
    9.2220   -0.5330  -55.0810 C   0  0  0  0  0  0  0  0  0  0  0  0
    9.1850   -1.5460  -54.1560 N   0  0  0  0  0  0  0  0  0  0  0  0
   10.2780   -2.5070  -53.9310 C   0  0  2  0  0  0  0  0  0  0  0  0
   11.3960   -1.8910  -53.0780 C   0  0  0  0  0  0  0  0  0  0  0  0
   10.7310   -3.1270  -55.2480 C   0  0  0  0  0  0  0  0  0  0  0  0
   10.3810   -4.4600  -55.5320 C   0  0  0  0  0  0  0  0  0  0  0  0
   10.7640   -5.0640  -56.7330 C   0  0  0  0  0  0  0  0  0  0  0  0
   11.4970   -4.3400  -57.6660 C   0  0  0  0  0  0  0  0  0  0  0  0
   11.9690   -5.0810  -59.1460 Cl  0  0  0  0  0  0  0  0  0  0  0  0
   11.8490   -3.0170  -57.4110 C   0  0  0  0  0  0  0  0  0  0  0  0
   11.4660   -2.4130  -56.2090 C   0  0  0  0  0  0  0  0  0  0  0  0
    7.9830   -1.4920  -53.4740 C   0  0  0  0  0  0  0  0  0  0  0  0
    7.6110   -2.4120  -52.4020 C   0  0  0  0  0  0  0  0  0  0  0  0
    6.8340   -3.5400  -52.6840 C   0  0  0  0  0  0  0  0  0  0  0  0
    6.4810   -4.4230  -51.6610 C   0  0  0  0  0  0  0  0  0  0  0  0
    6.8990   -4.1780  -50.3530 C   0  0  0  0  0  0  0  0  0  0  0  0
    7.6660   -3.0490  -50.0650 C   0  0  0  0  0  0  0  0  0  0  0  0
    8.0210   -2.1660  -51.0860 C   0  0  0  0  0  0  0  0  0  0  0  0
    5.9164    0.0349  -52.3960 H   0  0  0  0  0  0  0  0  0  0  0  0
    5.7193    1.0512  -53.8640 H   0  0  0  0  0  0  0  0  0  0  0  0
    5.1390   -0.6488  -53.8640 H   0  0  0  0  0  0  0  0  0  0  0  0
    9.7430    1.4680  -56.2340 H   0  0  0  0  0  0  0  0  0  0  0  0
   11.0344    3.0247  -57.4696 H   0  0  0  0  0  0  0  0  0  0  0  0
   10.3065    2.1079  -58.8321 H   0  0  0  0  0  0  0  0  0  0  0  0
   10.2612    3.9036  -58.8321 H   0  0  0  0  0  0  0  0  0  0  0  0
    8.7640    3.9867  -55.5468 H   0  0  0  0  0  0  0  0  0  0  0  0
    9.5733    4.9250  -56.8473 H   0  0  0  0  0  0  0  0  0  0  0  0
    7.7858    4.7474  -56.8473 H   0  0  0  0  0  0  0  0  0  0  0  0
    6.7679    2.8672  -58.0022 H   0  0  0  0  0  0  0  0  0  0  0  0
    7.7854    3.8163  -59.1382 H   0  0  0  0  0  0  0  0  0  0  0  0
    7.8734    2.0222  -59.1382 H   0  0  0  0  0  0  0  0  0  0  0  0
   10.0681   -0.3136  -55.7488 H   0  0  0  0  0  0  0  0  0  0  0  0
    9.9087   -3.3509  -53.3297 H   0  0  0  0  0  0  0  0  0  0  0  0
   11.1583   -2.0220  -52.0120 H   0  0  0  0  0  0  0  0  0  0  0  0
   12.3488   -2.3915  -53.3054 H   0  0  0  0  0  0  0  0  0  0  0  0
   11.4819   -0.8182  -53.3054 H   0  0  0  0  0  0  0  0  0  0  0  0
    9.7974   -5.0352  -54.7981 H   0  0  0  0  0  0  0  0  0  0  0  0
   10.4864   -6.1083  -56.9390 H   0  0  0  0  0  0  0  0  0  0  0  0
   12.4273   -2.4479  -58.1537 H   0  0  0  0  0  0  0  0  0  0  0  0
   11.7436   -1.3666  -56.0139 H   0  0  0  0  0  0  0  0  0  0  0  0
    6.4999   -3.7324  -53.7142 H   0  0  0  0  0  0  0  0  0  0  0  0
    5.8733   -5.3117  -51.8868 H   0  0  0  0  0  0  0  0  0  0  0  0
    6.6237   -4.8754  -49.5482 H   0  0  0  0  0  0  0  0  0  0  0  0
    7.9913   -2.8544  -49.0324 H   0  0  0  0  0  0  0  0  0  0  0  0
    8.6240   -1.2752  -50.8563 H   0  0  0  0  0  0  0  0  0  0  0  0
  1  2  1  0
  2  3  1  0
  3  4  1  0
  4  5  2  0
  4  6  1  0
  6  7  1  0
  7  8  1  0
  7  9  1  0
  7 10  1  0
  3 11  2  0
 11 12  1  0
 12 13  1  0
 13 14  1  0
 13 15  1  0
 15 16  1  0
 16 17  2  0
 17 18  1  0
 18 19  1  0
 18 20  2  0
 20 21  1  0
 12 22  1  0
 22 23  1  0
 23 24  2  0
 24 25  1  0
 25 26  2  0
 26 27  1  0
 27 28  2  0
 22  2  2  0
 28 23  1  0
 21 15  2  0
  1 29  1  0
  1 30  1  0
  1 31  1  0
  6 32  1  0
  8 33  1  0
  8 34  1  0
  8 35  1  0
  9 36  1  0
  9 37  1  0
  9 38  1  0
 10 39  1  0
 10 40  1  0
 10 41  1  0
 11 42  1  0
 13 43  1  1
 14 44  1  0
 14 45  1  0
 14 46  1  0
 16 47  1  0
 17 48  1  0
 20 49  1  0
 21 50  1  0
 24 51  1  0
 25 52  1  0
 26 53  1  0
 27 54  1  0
 28 55  1  0
M  END
>  <meeko>  (1) 
{"is_sidechain": false}

$$$$

     RDKit          3D

 70 75  0  0  0  0  0  0  0  0999 V2000
    5.2580   -4.9890  -51.5580 C   0  0  0  0  0  0  0  0  0  0  0  0
    6.2810   -3.9090  -51.3620 C   0  0  0  0  0  0  0  0  0  0  0  0
    6.7850   -3.6330  -50.0860 C   0  0  0  0  0  0  0  0  0  0  0  0
    7.7030   -2.5980  -49.8980 C   0  0  0  0  0  0  0  0  0  0  0  0
    8.1210   -1.8300  -50.9850 C   0  0  0  0  0  0  0  0  0  0  0  0
    7.6340   -2.0990  -52.2670 C   0  0  0  0  0  0  0  0  0  0  0  0
    8.0510   -1.2720  -53.4000 C   0  0  0  0  0  0  0  0  0  0  0  0
    7.3270   -0.2500  -54.0160 C   0  0  0  0  0  0  0  0  0  0  0  0
    5.9400    0.1690  -53.6560 C   0  0  0  0  0  0  0  0  0  0  0  0
    8.1490    0.3000  -55.0580 C   0  0  0  0  0  0  0  0  0  0  0  0
    7.9120    1.4050  -55.9920 C   0  0  0  0  0  0  0  0  0  0  0  0
    6.7800    1.7640  -56.2930 O   0  0  0  0  0  0  0  0  0  0  0  0
    9.0620    1.9460  -56.5260 N   0  0  0  0  0  0  0  0  0  0  0  0
    9.0700    2.8750  -57.6580 C   0  0  1  0  0  0  0  0  0  0  0  0
    8.6080    4.2690  -57.1540 C   0  0  0  0  0  0  0  0  0  0  0  0
    8.6710    5.3170  -58.2840 C   0  0  2  0  0  0  0  0  0  0  0  0
    7.7660    4.8680  -59.4400 C   0  0  0  0  0  0  0  0  0  0  0  0
    8.2330    3.5060  -59.9710 C   0  0  1  0  0  0  0  0  0  0  0  0
    9.6890    3.6070  -60.4630 C   0  0  0  0  0  0  0  0  0  0  0  0
   10.6040    4.0860  -59.3300 C   0  0  1  0  0  0  0  0  0  0  0  0
   10.1220    5.4380  -58.7890 C   0  0  0  0  0  0  0  0  0  0  0  0
   10.5100    3.1000  -58.1730 C   0  0  0  0  0  0  0  0  0  0  0  0
   11.5120    2.6380  -57.6300 O   0  0  0  0  0  0  0  0  0  0  0  0
    8.1690    2.4600  -58.8430 C   0  0  0  0  0  0  0  0  0  0  0  0
    9.3080   -0.4510  -55.0680 C   0  0  0  0  0  0  0  0  0  0  0  0
    9.2650   -1.3780  -54.0540 N   0  0  0  0  0  0  0  0  0  0  0  0
   10.3830   -2.3070  -53.7950 C   0  0  2  0  0  0  0  0  0  0  0  0
   11.4820   -1.6470  -52.9560 C   0  0  0  0  0  0  0  0  0  0  0  0
   10.8200   -3.0530  -55.0510 C   0  0  0  0  0  0  0  0  0  0  0  0
   11.4870   -2.4250  -56.1150 C   0  0  0  0  0  0  0  0  0  0  0  0
   11.8670   -3.1480  -57.2500 C   0  0  0  0  0  0  0  0  0  0  0  0
   11.5900   -4.5150  -57.3410 C   0  0  0  0  0  0  0  0  0  0  0  0
   11.9710   -5.2500  -58.5100 C   0  0  0  0  0  0  0  0  0  0  0  0
   12.2780   -5.8440  -59.4600 N   0  0  0  0  0  0  0  0  0  0  0  0
   10.9360   -5.1570  -56.2890 C   0  0  0  0  0  0  0  0  0  0  0  0
   10.5560   -4.4330  -55.1550 C   0  0  0  0  0  0  0  0  0  0  0  0
    6.6960   -3.1230  -52.4450 C   0  0  0  0  0  0  0  0  0  0  0  0
    4.9148   -5.3513  -50.5777 H   0  0  0  0  0  0  0  0  0  0  0  0
    4.4025   -4.5861  -52.1200 H   0  0  0  0  0  0  0  0  0  0  0  0
    5.7066   -5.8214  -52.1200 H   0  0  0  0  0  0  0  0  0  0  0  0
    6.4560   -4.2350  -49.2261 H   0  0  0  0  0  0  0  0  0  0  0  0
    8.0967   -2.3881  -48.8926 H   0  0  0  0  0  0  0  0  0  0  0  0
    8.8371   -1.0091  -50.8324 H   0  0  0  0  0  0  0  0  0  0  0  0
    5.8388    0.1996  -52.5611 H   0  0  0  0  0  0  0  0  0  0  0  0
    5.7394    1.1678  -54.0708 H   0  0  0  0  0  0  0  0  0  0  0  0
    5.2199   -0.5517  -54.0708 H   0  0  0  0  0  0  0  0  0  0  0  0
    9.8350    1.2920  -56.5060 H   0  0  0  0  0  0  0  0  0  0  0  0
    7.5725    4.1945  -56.7905 H   0  0  0  0  0  0  0  0  0  0  0  0
    9.2802    4.5880  -56.3438 H   0  0  0  0  0  0  0  0  0  0  0  0
    8.3314    6.2919  -57.9042 H   0  0  0  0  0  0  0  0  0  0  0  0
    6.7299    4.7834  -59.0803 H   0  0  0  0  0  0  0  0  0  0  0  0
    7.8191    5.6099  -60.2504 H   0  0  0  0  0  0  0  0  0  0  0  0
    7.5771    3.2065  -60.8017 H   0  0  0  0  0  0  0  0  0  0  0  0
   10.0250    2.6175  -60.8064 H   0  0  0  0  0  0  0  0  0  0  0  0
    9.7367    4.3305  -61.2902 H   0  0  0  0  0  0  0  0  0  0  0  0
   11.6281    4.1686  -59.7230 H   0  0  0  0  0  0  0  0  0  0  0  0
   10.7719    5.7505  -57.9583 H   0  0  0  0  0  0  0  0  0  0  0  0
   10.1623    6.1847  -59.5957 H   0  0  0  0  0  0  0  0  0  0  0  0
    7.1302    2.3709  -58.4923 H   0  0  0  0  0  0  0  0  0  0  0  0
    8.5246    1.4959  -59.2356 H   0  0  0  0  0  0  0  0  0  0  0  0
   10.1384   -0.3264  -55.7786 H   0  0  0  0  0  0  0  0  0  0  0  0
   10.0298   -3.1240  -53.1486 H   0  0  0  0  0  0  0  0  0  0  0  0
   11.2581   -1.7814  -51.8874 H   0  0  0  0  0  0  0  0  0  0  0  0
   12.4509   -2.1128  -53.1891 H   0  0  0  0  0  0  0  0  0  0  0  0
   11.5261   -0.5729  -53.1891 H   0  0  0  0  0  0  0  0  0  0  0  0
   11.7136   -1.3503  -56.0550 H   0  0  0  0  0  0  0  0  0  0  0  0
   12.3863   -2.6386  -58.0751 H   0  0  0  0  0  0  0  0  0  0  0  0
   10.7192   -6.2336  -56.3519 H   0  0  0  0  0  0  0  0  0  0  0  0
   10.0425   -4.9492  -54.3305 H   0  0  0  0  0  0  0  0  0  0  0  0
    6.2805   -3.3124  -53.4457 H   0  0  0  0  0  0  0  0  0  0  0  0
  1  2  1  0
  2  3  2  0
  3  4  1  0
  4  5  2  0
  5  6  1  0
  6  7  1  0
  7  8  2  0
  8  9  1  0
  8 10  1  0
 10 11  1  0
 11 12  2  0
 11 13  1  0
 14 13  1  1
 14 15  1  0
 15 16  1  0
 16 17  1  0
 17 18  1  0
 18 19  1  0
 19 20  1  0
 20 21  1  0
 20 22  1  0
 22 23  2  0
 18 24  1  0
 10 25  2  0
 25 26  1  0
 26 27  1  0
 27 28  1  0
 27 29  1  0
 29 30  1  0
 30 31  2  0
 31 32  1  0
 32 33  1  0
 33 34  3  0
 32 35  2  0
 35 36  1  0
  6 37  2  0
 37  2  1  0
 26  7  1  0
 36 29  2  0
 22 14  1  0
 24 14  1  0
 21 16  1  0
  1 38  1  0
  1 39  1  0
  1 40  1  0
  3 41  1  0
  4 42  1  0
  5 43  1  0
  9 44  1  0
  9 45  1  0
  9 46  1  0
 13 47  1  0
 15 48  1  0
 15 49  1  0
 16 50  1  1
 17 51  1  0
 17 52  1  0
 18 53  1  6
 19 54  1  0
 19 55  1  0
 20 56  1  6
 21 57  1  0
 21 58  1  0
 24 59  1  0
 24 60  1  0
 25 61  1  0
 27 62  1  1
 28 63  1  0
 28 64  1  0
 28 65  1  0
 30 66  1  0
 31 67  1  0
 35 68  1  0
 36 69  1  0
 37 70  1  0
M  END
>  <meeko>  (2) 
{"is_sidechain": false}

$$$$

     RDKit          3D

 65 68  0  0  0  0  0  0  0  0999 V2000
    5.6610   -0.3830  -53.7900 C   0  0  0  0  0  0  0  0  0  0  0  0
    7.1090   -0.5550  -54.1140 C   0  0  0  0  0  0  0  0  0  0  0  0
    7.8240    0.1710  -55.1240 C   0  0  0  0  0  0  0  0  0  0  0  0
    7.2930    1.2040  -56.0200 C   0  0  0  0  0  0  0  0  0  0  0  0
    6.2920    1.8610  -55.7510 O   0  0  0  0  0  0  0  0  0  0  0  0
    8.0320    1.4020  -57.1710 N   0  0  0  0  0  0  0  0  0  0  0  0
    7.7440    2.5010  -58.0790 C   0  0  2  0  0  0  0  0  0  0  0  0
    6.8630    2.0140  -59.2410 C   0  0  0  0  0  0  0  0  0  0  0  0
    7.0010    2.8620  -60.5070 C   0  0  0  0  0  0  0  0  0  0  0  0
    7.3850    4.3020  -60.1860 C   0  0  0  0  0  0  0  0  0  0  0  0
    8.7570    4.3970  -59.4680 C   0  0  0  0  0  0  0  0  0  0  0  0
    9.8850    4.5450  -60.5060 C   0  0  0  0  0  0  0  0  0  0  0  0
    8.7610    5.6540  -58.5770 C   0  0  0  0  0  0  0  0  0  0  0  0
    9.0360    3.1380  -58.6050 C   0  0  0  0  0  0  0  0  0  0  0  0
    9.1180   -0.3220  -55.1050 C   0  0  0  0  0  0  0  0  0  0  0  0
    9.2370   -1.2610  -54.1070 N   0  0  0  0  0  0  0  0  0  0  0  0
   10.4600   -2.0230  -53.7880 C   0  0  1  0  0  0  0  0  0  0  0  0
   10.4170   -2.8310  -52.4830 C   0  0  0  0  0  0  0  0  0  0  0  0
   10.9560   -2.8650  -54.9620 C   0  0  0  0  0  0  0  0  0  0  0  0
   10.7040   -4.2550  -54.9130 C   0  0  0  0  0  0  0  0  0  0  0  0
   11.1280   -5.1090  -55.9330 C   0  0  0  0  0  0  0  0  0  0  0  0
   11.8050   -4.5880  -57.0270 C   0  0  0  0  0  0  0  0  0  0  0  0
   12.3340   -5.6370  -58.2840 Cl  0  0  0  0  0  0  0  0  0  0  0  0
   12.0550   -3.2230  -57.1130 C   0  0  0  0  0  0  0  0  0  0  0  0
   11.6320   -2.3640  -56.0900 C   0  0  0  0  0  0  0  0  0  0  0  0
   11.9760   -0.6870  -56.3180 Cl  0  0  0  0  0  0  0  0  0  0  0  0
    8.0010   -1.4330  -53.5050 C   0  0  0  0  0  0  0  0  0  0  0  0
    7.7420   -2.3780  -52.4200 C   0  0  0  0  0  0  0  0  0  0  0  0
    7.3550   -3.6920  -52.7010 C   0  0  0  0  0  0  0  0  0  0  0  0
    7.1130   -4.5920  -51.6620 C   0  0  0  0  0  0  0  0  0  0  0  0
    7.2500   -4.1790  -50.3370 C   0  0  0  0  0  0  0  0  0  0  0  0
    7.6200   -2.8670  -50.0490 C   0  0  0  0  0  0  0  0  0  0  0  0
    7.8610   -1.9660  -51.0870 C   0  0  0  0  0  0  0  0  0  0  0  0
    5.5289   -0.3673  -52.6981 H   0  0  0  0  0  0  0  0  0  0  0  0
    5.2998    0.5644  -54.2167 H   0  0  0  0  0  0  0  0  0  0  0  0
    5.0879   -1.2194  -54.2167 H   0  0  0  0  0  0  0  0  0  0  0  0
    8.9610    1.0060  -57.1850 H   0  0  0  0  0  0  0  0  0  0  0  0
    7.1944    3.2735  -57.5211 H   0  0  0  0  0  0  0  0  0  0  0  0
    7.1459    0.9788  -59.4825 H   0  0  0  0  0  0  0  0  0  0  0  0
    5.8170    2.0936  -58.9101 H   0  0  0  0  0  0  0  0  0  0  0  0
    7.7786    2.4208  -61.1479 H   0  0  0  0  0  0  0  0  0  0  0  0
    6.0268    2.8741  -61.0178 H   0  0  0  0  0  0  0  0  0  0  0  0
    7.4364    4.8726  -61.1251 H   0  0  0  0  0  0  0  0  0  0  0  0
    6.6209    4.7122  -59.5094 H   0  0  0  0  0  0  0  0  0  0  0  0
   10.8466    4.6712  -59.9870 H   0  0  0  0  0  0  0  0  0  0  0  0
    9.9239    3.6443  -61.1362 H   0  0  0  0  0  0  0  0  0  0  0  0
    9.6902    5.4253  -61.1362 H   0  0  0  0  0  0  0  0  0  0  0  0
    8.7600    5.3534  -57.5189 H   0  0  0  0  0  0  0  0  0  0  0  0
    9.6610    6.2501  -58.7880 H   0  0  0  0  0  0  0  0  0  0  0  0
    7.8648    6.2559  -58.7880 H   0  0  0  0  0  0  0  0  0  0  0  0
    9.5715    2.3988  -59.2189 H   0  0  0  0  0  0  0  0  0  0  0  0
    9.6379    3.4482  -57.7381 H   0  0  0  0  0  0  0  0  0  0  0  0
    9.9260   -0.0107  -55.7834 H   0  0  0  0  0  0  0  0  0  0  0  0
   11.2055   -1.2366  -53.5990 H   0  0  0  0  0  0  0  0  0  0  0  0
   10.4536   -2.1438  -51.6249 H   0  0  0  0  0  0  0  0  0  0  0  0
    9.4864   -3.4163  -52.4446 H   0  0  0  0  0  0  0  0  0  0  0  0
   11.2802   -3.5118  -52.4446 H   0  0  0  0  0  0  0  0  0  0  0  0
   10.1618   -4.6732  -54.0521 H   0  0  0  0  0  0  0  0  0  0  0  0
   10.9267   -6.1886  -55.8700 H   0  0  0  0  0  0  0  0  0  0  0  0
   12.5862   -2.8164  -57.9863 H   0  0  0  0  0  0  0  0  0  0  0  0
    7.2408   -4.0178  -53.7454 H   0  0  0  0  0  0  0  0  0  0  0  0
    6.8144   -5.6263  -51.8881 H   0  0  0  0  0  0  0  0  0  0  0  0
    7.0657   -4.8900  -49.5182 H   0  0  0  0  0  0  0  0  0  0  0  0
    7.7222   -2.5414  -49.0033 H   0  0  0  0  0  0  0  0  0  0  0  0
    8.1454   -0.9285  -50.8573 H   0  0  0  0  0  0  0  0  0  0  0  0
  1  2  1  0
  2  3  1  0
  3  4  1  0
  4  5  2  0
  4  6  1  0
  6  7  1  0
  7  8  1  0
  8  9  1  0
  9 10  1  0
 10 11  1  0
 11 12  1  0
 11 13  1  0
 11 14  1  0
  3 15  2  0
 15 16  1  0
 16 17  1  0
 17 18  1  0
 17 19  1  0
 19 20  1  0
 20 21  2  0
 21 22  1  0
 22 23  1  0
 22 24  2  0
 24 25  1  0
 25 26  1  0
 16 27  1  0
 27 28  1  0
 28 29  2  0
 29 30  1  0
 30 31  2  0
 31 32  1  0
 32 33  2  0
 27  2  2  0
 33 28  1  0
 14  7  1  0
 25 19  2  0
  1 34  1  0
  1 35  1  0
  1 36  1  0
  6 37  1  0
  7 38  1  1
  8 39  1  0
  8 40  1  0
  9 41  1  0
  9 42  1  0
 10 43  1  0
 10 44  1  0
 12 45  1  0
 12 46  1  0
 12 47  1  0
 13 48  1  0
 13 49  1  0
 13 50  1  0
 14 51  1  0
 14 52  1  0
 15 53  1  0
 17 54  1  1
 18 55  1  0
 18 56  1  0
 18 57  1  0
 20 58  1  0
 21 59  1  0
 24 60  1  0
 29 61  1  0
 30 62  1  0
 31 63  1  0
 32 64  1  0
 33 65  1  0
M  END
>  <meeko>  (3) 
{"is_sidechain": false}

$$$$

     RDKit          3D

 65 68  0  0  0  0  0  0  0  0999 V2000
    5.7760   -0.3010  -53.6550 C   0  0  0  0  0  0  0  0  0  0  0  0
    7.2110   -0.5140  -54.0170 C   0  0  0  0  0  0  0  0  0  0  0  0
    7.9360    0.2320  -55.0080 C   0  0  0  0  0  0  0  0  0  0  0  0
    7.4260    1.3340  -55.8350 C   0  0  0  0  0  0  0  0  0  0  0  0
    6.2270    1.5600  -55.9650 O   0  0  0  0  0  0  0  0  0  0  0  0
    8.3950    2.0800  -56.4750 N   0  0  0  0  0  0  0  0  0  0  0  0
    8.0500    3.1080  -57.4460 C   0  0  1  0  0  0  0  0  0  0  0  0
    8.9520    4.3260  -57.2690 C   0  0  0  0  0  0  0  0  0  0  0  0
    8.5860    5.4640  -58.2210 C   0  0  0  0  0  0  0  0  0  0  0  0
    7.7810    5.0120  -59.4400 C   0  0  0  0  0  0  0  0  0  0  0  0
    8.2110    3.6360  -59.9880 C   0  0  0  0  0  0  0  0  0  0  0  0
    9.6470    3.7120  -60.5470 C   0  0  0  0  0  0  0  0  0  0  0  0
    7.2790    3.2500  -61.1520 C   0  0  0  0  0  0  0  0  0  0  0  0
    8.1270    2.5510  -58.8800 C   0  0  0  0  0  0  0  0  0  0  0  0
    9.2200   -0.2840  -55.0040 C   0  0  0  0  0  0  0  0  0  0  0  0
    9.3020   -1.3050  -54.0780 N   0  0  0  0  0  0  0  0  0  0  0  0
   10.5640   -2.0440  -53.8270 C   0  0  1  0  0  0  0  0  0  0  0  0
   10.5360   -2.6620  -52.4280 C   0  0  0  0  0  0  0  0  0  0  0  0
   11.0290   -2.8290  -55.0540 C   0  0  0  0  0  0  0  0  0  0  0  0
   10.7940   -4.2280  -55.0180 C   0  0  0  0  0  0  0  0  0  0  0  0
   11.1770   -5.0720  -56.0630 C   0  0  0  0  0  0  0  0  0  0  0  0
   11.8010   -4.5360  -57.1780 C   0  0  0  0  0  0  0  0  0  0  0  0
   12.2840   -5.5650  -58.4680 Cl  0  0  0  0  0  0  0  0  0  0  0  0
   12.0380   -3.1680  -57.2560 C   0  0  0  0  0  0  0  0  0  0  0  0
   11.6540   -2.3160  -56.2060 C   0  0  0  0  0  0  0  0  0  0  0  0
   12.0160   -0.6480  -56.4640 Cl  0  0  0  0  0  0  0  0  0  0  0  0
    8.0760   -1.4560  -53.4600 C   0  0  0  0  0  0  0  0  0  0  0  0
    7.7750   -2.4380  -52.4210 C   0  0  0  0  0  0  0  0  0  0  0  0
    7.3780   -3.7330  -52.7730 C   0  0  0  0  0  0  0  0  0  0  0  0
    7.0700   -4.6700  -51.7850 C   0  0  0  0  0  0  0  0  0  0  0  0
    7.1420   -4.3120  -50.4400 C   0  0  0  0  0  0  0  0  0  0  0  0
    7.5130   -3.0160  -50.0820 C   0  0  0  0  0  0  0  0  0  0  0  0
    7.8220   -2.0790  -51.0700 C   0  0  0  0  0  0  0  0  0  0  0  0
    5.6725   -0.2856  -52.5600 H   0  0  0  0  0  0  0  0  0  0  0  0
    5.4318    0.6581  -54.0693 H   0  0  0  0  0  0  0  0  0  0  0  0
    5.1680   -1.1187  -54.0693 H   0  0  0  0  0  0  0  0  0  0  0  0
    9.3300    1.7030  -56.4980 H   0  0  0  0  0  0  0  0  0  0  0  0
    7.0118    3.4268  -57.2712 H   0  0  0  0  0  0  0  0  0  0  0  0
    8.8591    4.6872  -56.2342 H   0  0  0  0  0  0  0  0  0  0  0  0
    9.9828    4.0164  -57.4963 H   0  0  0  0  0  0  0  0  0  0  0  0
    7.9896    6.2028  -57.6657 H   0  0  0  0  0  0  0  0  0  0  0  0
    9.5304    5.8838  -58.5976 H   0  0  0  0  0  0  0  0  0  0  0  0
    6.7200    4.9568  -59.1551 H   0  0  0  0  0  0  0  0  0  0  0  0
    7.9623    5.7478  -60.2373 H   0  0  0  0  0  0  0  0  0  0  0  0
   10.3635    3.7499  -59.7132 H   0  0  0  0  0  0  0  0  0  0  0  0
    9.8481    2.8232  -61.1632 H   0  0  0  0  0  0  0  0  0  0  0  0
    9.7532    4.6170  -61.1632 H   0  0  0  0  0  0  0  0  0  0  0  0
    6.3331    2.8582  -60.7499 H   0  0  0  0  0  0  0  0  0  0  0  0
    7.0755    4.1378  -61.7687 H   0  0  0  0  0  0  0  0  0  0  0  0
    7.7628    2.4783  -61.7687 H   0  0  0  0  0  0  0  0  0  0  0  0
    7.2282    1.9434  -59.0614 H   0  0  0  0  0  0  0  0  0  0  0  0
    9.0585    1.9691  -58.9403 H   0  0  0  0  0  0  0  0  0  0  0  0
   10.0470    0.0650  -55.6398 H   0  0  0  0  0  0  0  0  0  0  0  0
   11.4442   -1.3903  -53.7381 H   0  0  0  0  0  0  0  0  0  0  0  0
   10.5722   -1.8626  -51.6732 H   0  0  0  0  0  0  0  0  0  0  0  0
    9.6106   -3.2432  -52.3024 H   0  0  0  0  0  0  0  0  0  0  0  0
   11.4050   -3.3245  -52.3024 H   0  0  0  0  0  0  0  0  0  0  0  0
   10.2943   -4.6616  -54.1392 H   0  0  0  0  0  0  0  0  0  0  0  0
   10.9848   -6.1533  -56.0013 H   0  0  0  0  0  0  0  0  0  0  0  0
   12.5298   -2.7493  -58.1464 H   0  0  0  0  0  0  0  0  0  0  0  0
    7.3082   -4.0142  -53.8342 H   0  0  0  0  0  0  0  0  0  0  0  0
    6.7707   -5.6900  -52.0679 H   0  0  0  0  0  0  0  0  0  0  0  0
    6.9062   -5.0516  -49.6607 H   0  0  0  0  0  0  0  0  0  0  0  0
    7.5622   -2.7319  -49.0205 H   0  0  0  0  0  0  0  0  0  0  0  0
    8.1035   -1.0546  -50.7848 H   0  0  0  0  0  0  0  0  0  0  0  0
  1  2  1  0
  2  3  1  0
  3  4  1  0
  4  5  2  0
  4  6  1  0
  6  7  1  0
  7  8  1  0
  8  9  1  0
  9 10  1  0
 10 11  1  0
 11 12  1  0
 11 13  1  0
 11 14  1  0
  3 15  2  0
 15 16  1  0
 16 17  1  0
 17 18  1  0
 17 19  1  0
 19 20  1  0
 20 21  2  0
 21 22  1  0
 22 23  1  0
 22 24  2  0
 24 25  1  0
 25 26  1  0
 16 27  1  0
 27 28  1  0
 28 29  2  0
 29 30  1  0
 30 31  2  0
 31 32  1  0
 32 33  2  0
 27  2  2  0
 33 28  1  0
 14  7  1  0
 25 19  2  0
  1 34  1  0
  1 35  1  0
  1 36  1  0
  6 37  1  0
  7 38  1  1
  8 39  1  0
  8 40  1  0
  9 41  1  0
  9 42  1  0
 10 43  1  0
 10 44  1  0
 12 45  1  0
 12 46  1  0
 12 47  1  0
 13 48  1  0
 13 49  1  0
 13 50  1  0
 14 51  1  0
 14 52  1  0
 15 53  1  0
 17 54  1  1
 18 55  1  0
 18 56  1  0
 18 57  1  0
 20 58  1  0
 21 59  1  0
 24 60  1  0
 29 61  1  0
 30 62  1  0
 31 63  1  0
 32 64  1  0
 33 65  1  0
M  END
>  <meeko>  (4) 
{"is_sidechain": false}

$$$$

     RDKit          3D

 62 66  0  0  0  0  0  0  0  0999 V2000
   12.6880    7.6940  -61.0010 C   0  0  0  0  0  0  0  0  0  0  0  0
   13.4510    6.7540  -60.0800 C   0  0  0  0  0  0  0  0  0  0  0  0
   12.5790    5.6820  -59.5150 C   0  0  0  0  0  0  0  0  0  0  0  0
   11.2900    5.2950  -59.9890 C   0  0  0  0  0  0  0  0  0  0  0  0
   10.8500    4.2720  -59.1800 C   0  0  0  0  0  0  0  0  0  0  0  0
    9.6540    3.4800  -59.1490 C   0  0  0  0  0  0  0  0  0  0  0  0
    9.4620    2.5450  -58.2610 N   0  0  0  0  0  0  0  0  0  0  0  0
   10.4560    2.3260  -57.3210 C   0  0  0  0  0  0  0  0  0  0  0  0
   10.1270    1.3210  -56.4540 N   0  0  0  0  0  0  0  0  0  0  0  0
    8.9430    1.0890  -55.7840 C   0  0  0  0  0  0  0  0  0  0  0  0
    7.9350    1.7800  -55.8950 O   0  0  0  0  0  0  0  0  0  0  0  0
    8.9640   -0.0960  -54.9070 C   0  0  0  0  0  0  0  0  0  0  0  0
    9.9660   -1.0470  -54.8050 C   0  0  0  0  0  0  0  0  0  0  0  0
    9.6130   -1.9860  -53.8550 N   0  0  0  0  0  0  0  0  0  0  0  0
   10.4820   -3.1350  -53.5250 C   0  0  2  0  0  0  0  0  0  0  0  0
   11.5690   -2.7440  -52.5190 C   0  0  0  0  0  0  0  0  0  0  0  0
   10.9220   -3.9080  -54.7620 C   0  0  0  0  0  0  0  0  0  0  0  0
   12.1970   -4.5050  -54.7830 C   0  0  0  0  0  0  0  0  0  0  0  0
   12.6420   -5.2200  -55.8980 C   0  0  0  0  0  0  0  0  0  0  0  0
   11.8170   -5.3430  -57.0120 C   0  0  0  0  0  0  0  0  0  0  0  0
   12.3580   -6.2280  -58.3840 Cl  0  0  0  0  0  0  0  0  0  0  0  0
   10.5560   -4.7550  -57.0200 C   0  0  0  0  0  0  0  0  0  0  0  0
   10.1120   -4.0390  -55.9030 C   0  0  0  0  0  0  0  0  0  0  0  0
    8.3730   -1.6630  -53.3380 C   0  0  0  0  0  0  0  0  0  0  0  0
    7.6680   -2.4260  -52.3090 C   0  0  0  0  0  0  0  0  0  0  0  0
    7.9060   -2.1730  -50.9540 C   0  0  0  0  0  0  0  0  0  0  0  0
    7.2500   -2.9190  -49.9720 C   0  0  0  0  0  0  0  0  0  0  0  0
    6.3650   -3.9310  -50.3410 C   0  0  0  0  0  0  0  0  0  0  0  0
    6.1410   -4.2060  -51.6890 C   0  0  0  0  0  0  0  0  0  0  0  0
    6.7980   -3.4600  -52.6710 C   0  0  0  0  0  0  0  0  0  0  0  0
    7.9530   -0.4900  -53.9640 C   0  0  0  0  0  0  0  0  0  0  0  0
    6.6750    0.2420  -53.7100 C   0  0  0  0  0  0  0  0  0  0  0  0
   11.6040    3.0280  -57.2890 C   0  0  0  0  0  0  0  0  0  0  0  0
   11.8050    4.0170  -58.2320 N   0  0  0  0  0  0  0  0  0  0  0  0
   12.8610    4.8710  -58.4270 C   0  0  0  0  0  0  0  0  0  0  0  0
   12.1084    8.4081  -60.3976 H   0  0  0  0  0  0  0  0  0  0  0  0
   13.3993    8.2428  -61.6357 H   0  0  0  0  0  0  0  0  0  0  0  0
   12.0046    7.1108  -61.6357 H   0  0  0  0  0  0  0  0  0  0  0  0
   14.2652    6.2834  -60.6507 H   0  0  0  0  0  0  0  0  0  0  0  0
   13.8401    7.3484  -59.2402 H   0  0  0  0  0  0  0  0  0  0  0  0
   10.7492    5.7323  -60.8413 H   0  0  0  0  0  0  0  0  0  0  0  0
    8.8726    3.6681  -59.9000 H   0  0  0  0  0  0  0  0  0  0  0  0
   10.8770    0.6560  -56.3410 H   0  0  0  0  0  0  0  0  0  0  0  0
   10.8978   -1.0536  -55.3895 H   0  0  0  0  0  0  0  0  0  0  0  0
    9.8931   -3.8888  -52.9819 H   0  0  0  0  0  0  0  0  0  0  0  0
   11.1883   -2.8809  -51.4961 H   0  0  0  0  0  0  0  0  0  0  0  0
   12.4536   -3.3803  -52.6692 H   0  0  0  0  0  0  0  0  0  0  0  0
   11.8456   -1.6900  -52.6692 H   0  0  0  0  0  0  0  0  0  0  0  0
   12.8542   -4.4068  -53.9064 H   0  0  0  0  0  0  0  0  0  0  0  0
   13.6396   -5.6834  -55.8952 H   0  0  0  0  0  0  0  0  0  0  0  0
    9.9086   -4.8530  -57.9039 H   0  0  0  0  0  0  0  0  0  0  0  0
    9.1159   -3.5725  -55.9180 H   0  0  0  0  0  0  0  0  0  0  0  0
    8.6129   -1.3830  -50.6604 H   0  0  0  0  0  0  0  0  0  0  0  0
    7.4317   -2.7080  -48.9078 H   0  0  0  0  0  0  0  0  0  0  0  0
    5.8428   -4.5132  -49.5674 H   0  0  0  0  0  0  0  0  0  0  0  0
    5.4479   -5.0093  -51.9794 H   0  0  0  0  0  0  0  0  0  0  0  0
    6.6303   -3.6869  -53.7342 H   0  0  0  0  0  0  0  0  0  0  0  0
    6.5144    0.3340  -52.6257 H   0  0  0  0  0  0  0  0  0  0  0  0
    6.7314    1.2447  -54.1587 H   0  0  0  0  0  0  0  0  0  0  0  0
    5.8386   -0.3140  -54.1587 H   0  0  0  0  0  0  0  0  0  0  0  0
   12.3680    2.8179  -56.5260 H   0  0  0  0  0  0  0  0  0  0  0  0
   13.7783    4.9062  -57.8210 H   0  0  0  0  0  0  0  0  0  0  0  0
  1  2  1  0
  2  3  1  0
  3  4  1  0
  4  5  2  0
  5  6  1  0
  6  7  2  0
  7  8  1  0
  8  9  1  0
  9 10  1  0
 10 11  2  0
 10 12  1  0
 12 13  2  0
 13 14  1  0
 14 15  1  0
 15 16  1  0
 15 17  1  0
 17 18  1  0
 18 19  2  0
 19 20  1  0
 20 21  1  0
 20 22  2  0
 22 23  1  0
 14 24  1  0
 24 25  1  0
 25 26  2  0
 26 27  1  0
 27 28  2  0
 28 29  1  0
 29 30  2  0
 24 31  2  0
 31 32  1  0
  8 33  2  0
 33 34  1  0
 34 35  1  0
 35  3  2  0
 34  5  1  0
 31 12  1  0
 23 17  2  0
 30 25  1  0
  1 36  1  0
  1 37  1  0
  1 38  1  0
  2 39  1  0
  2 40  1  0
  4 41  1  0
  6 42  1  0
  9 43  1  0
 13 44  1  0
 15 45  1  1
 16 46  1  0
 16 47  1  0
 16 48  1  0
 18 49  1  0
 19 50  1  0
 22 51  1  0
 23 52  1  0
 26 53  1  0
 27 54  1  0
 28 55  1  0
 29 56  1  0
 30 57  1  0
 32 58  1  0
 32 59  1  0
 32 60  1  0
 33 61  1  0
 35 62  1  0
M  END
>  <meeko>  (5) 
{"is_sidechain": false}

$$$$

     RDKit          3D

 52 55  0  0  0  0  0  0  0  0999 V2000
    6.4050   -2.5960  -54.8490 O   0  0  0  0  0  0  0  0  0  0  0  0
    7.1820   -1.8080  -54.3180 C   0  0  0  0  0  0  0  0  0  0  0  0
    7.3090   -0.4970  -54.7170 N   0  0  0  0  0  0  0  0  0  0  0  0
    6.5770    0.0240  -55.8540 C   0  0  0  0  0  0  0  0  0  0  0  0
    6.3570    1.5380  -55.7700 C   0  0  0  0  0  0  0  0  0  0  0  0
    7.1220    2.2460  -56.7720 N   0  0  0  0  0  0  0  0  0  0  0  0
    6.6600    2.9380  -57.8260 C   0  0  0  0  0  0  0  0  0  0  0  0
    7.5600    3.5580  -58.5160 N   0  0  0  0  0  0  0  0  0  0  0  0
    8.7430    3.2730  -57.8570 N   0  0  0  0  0  0  0  0  0  0  0  0
    9.9630    3.8060  -58.3190 C   0  0  0  0  0  0  0  0  0  0  0  0
   11.1850    3.1610  -58.0840 C   0  0  0  0  0  0  0  0  0  0  0  0
   12.3860    3.7080  -58.5520 C   0  0  0  0  0  0  0  0  0  0  0  0
   12.3770    4.9070  -59.2600 C   0  0  0  0  0  0  0  0  0  0  0  0
   13.8530    5.5770  -59.8330 Cl  0  0  0  0  0  0  0  0  0  0  0  0
   11.1750    5.5630  -59.5050 C   0  0  0  0  0  0  0  0  0  0  0  0
    9.9770    5.0150  -59.0360 C   0  0  0  0  0  0  0  0  0  0  0  0
    8.4800    2.4620  -56.7360 C   0  0  0  0  0  0  0  0  0  0  0  0
    9.2380    2.0370  -55.8760 O   0  0  0  0  0  0  0  0  0  0  0  0
    8.0040   -2.2390  -53.1670 C   0  0  0  0  0  0  0  0  0  0  0  0
    7.3680   -2.2670  -51.9300 C   0  0  0  0  0  0  0  0  0  0  0  0
    7.9760   -2.6100  -50.7690 N   0  0  0  0  0  0  0  0  0  0  0  0
    9.2730   -2.9630  -50.8510 C   0  0  0  0  0  0  0  0  0  0  0  0
    9.9900   -2.9910  -52.0380 C   0  0  0  0  0  0  0  0  0  0  0  0
    9.3530   -2.6260  -53.2320 C   0  0  0  0  0  0  0  0  0  0  0  0
   10.1230   -2.7370  -54.4890 C   0  0  0  0  0  0  0  0  0  0  0  0
   10.6660   -1.6330  -55.0370 C   0  0  0  0  0  0  0  0  0  0  0  0
   11.4740   -1.6520  -56.3030 C   0  0  0  0  0  0  0  0  0  0  0  0
   11.8890   -3.0600  -56.7290 C   0  0  0  0  0  0  0  0  0  0  0  0
   10.7280   -4.0390  -56.5840 C   0  0  0  0  0  0  0  0  0  0  0  0
   10.2270   -4.0980  -55.1370 C   0  0  0  0  0  0  0  0  0  0  0  0
    7.9640    0.1120  -54.2440 H   0  0  0  0  0  0  0  0  0  0  0  0
    7.1436   -0.1993  -56.7700 H   0  0  0  0  0  0  0  0  0  0  0  0
    5.5875   -0.4564  -55.8615 H   0  0  0  0  0  0  0  0  0  0  0  0
    5.2885    1.7518  -55.9203 H   0  0  0  0  0  0  0  0  0  0  0  0
    6.6916    1.8786  -54.7791 H   0  0  0  0  0  0  0  0  0  0  0  0
    5.5913    2.9746  -58.0839 H   0  0  0  0  0  0  0  0  0  0  0  0
   11.2007    2.2137  -57.5252 H   0  0  0  0  0  0  0  0  0  0  0  0
   13.3373    3.1901  -58.3602 H   0  0  0  0  0  0  0  0  0  0  0  0
   11.1669    6.5094  -60.0656 H   0  0  0  0  0  0  0  0  0  0  0  0
    9.0297    5.5388  -59.2314 H   0  0  0  0  0  0  0  0  0  0  0  0
    6.3033   -1.9931  -51.8922 H   0  0  0  0  0  0  0  0  0  0  0  0
    9.7934   -3.2452  -49.9239 H   0  0  0  0  0  0  0  0  0  0  0  0
   11.0468   -3.2963  -52.0423 H   0  0  0  0  0  0  0  0  0  0  0  0
   10.5098   -0.6685  -54.5318 H   0  0  0  0  0  0  0  0  0  0  0  0
   10.8727   -1.2055  -57.1087 H   0  0  0  0  0  0  0  0  0  0  0  0
   12.3955   -1.0823  -56.1123 H   0  0  0  0  0  0  0  0  0  0  0  0
   12.2115   -3.0374  -57.7804 H   0  0  0  0  0  0  0  0  0  0  0  0
   12.7125   -3.3941  -56.0807 H   0  0  0  0  0  0  0  0  0  0  0  0
    9.9031   -3.7157  -57.2359 H   0  0  0  0  0  0  0  0  0  0  0  0
   11.0807   -5.0408  -56.8705 H   0  0  0  0  0  0  0  0  0  0  0  0
    9.2315   -4.5658  -55.1302 H   0  0  0  0  0  0  0  0  0  0  0  0
   10.9602   -4.6805  -54.5599 H   0  0  0  0  0  0  0  0  0  0  0  0
  1  2  2  0
  2  3  1  0
  3  4  1  0
  4  5  1  0
  5  6  1  0
  6  7  1  0
  7  8  2  0
  8  9  1  0
  9 10  1  0
 10 11  1  0
 11 12  2  0
 12 13  1  0
 13 14  1  0
 13 15  2  0
 15 16  1  0
  9 17  1  0
 17 18  2  0
  2 19  1  0
 19 20  2  0
 20 21  1  0
 21 22  2  0
 22 23  1  0
 23 24  2  0
 24 25  1  0
 25 26  2  0
 26 27  1  0
 27 28  1  0
 28 29  1  0
 29 30  1  0
 17  6  1  0
 24 19  1  0
 30 25  1  0
 16 10  2  0
  3 31  1  0
  4 32  1  0
  4 33  1  0
  5 34  1  0
  5 35  1  0
  7 36  1  0
 11 37  1  0
 12 38  1  0
 15 39  1  0
 16 40  1  0
 20 41  1  0
 22 42  1  0
 23 43  1  0
 26 44  1  0
 27 45  1  0
 27 46  1  0
 28 47  1  0
 28 48  1  0
 29 49  1  0
 29 50  1  0
 30 51  1  0
 30 52  1  0
M  END
>  <meeko>  (6) 
{"is_sidechain": false}

$$$$

     RDKit          3D

 60 65  0  0  0  0  0  0  0  0999 V2000
    9.3690    1.6960  -55.4350 C   0  0  0  0  0  0  0  0  0  0  0  0
    8.0450    1.4510  -56.0860 C   0  0  0  0  0  0  0  0  0  0  0  0
    6.9560    0.7400  -55.4890 C   0  0  0  0  0  0  0  0  0  0  0  0
    6.9400    0.0640  -54.1850 C   0  0  0  0  0  0  0  0  0  0  0  0
    6.3430    0.5300  -53.2220 O   0  0  0  0  0  0  0  0  0  0  0  0
    7.6380   -1.1290  -54.1530 N   0  0  0  0  0  0  0  0  0  0  0  0
    7.5670   -2.0760  -53.0370 C   0  0  1  0  0  0  0  0  0  0  0  0
    6.2480   -2.8740  -52.9420 C   0  0  0  0  0  0  0  0  0  0  0  0
    6.2700   -3.8260  -51.7320 C   0  0  2  0  0  0  0  0  0  0  0  0
    6.4610   -3.0180  -50.4410 C   0  0  0  0  0  0  0  0  0  0  0  0
    7.7850   -2.2450  -50.4990 C   0  0  1  0  0  0  0  0  0  0  0  0
    8.9520   -3.2420  -50.6530 C   0  0  0  0  0  0  0  0  0  0  0  0
    8.7730   -4.0640  -51.9360 C   0  0  1  0  0  0  0  0  0  0  0  0
    7.4370   -4.8140  -51.9090 C   0  0  0  0  0  0  0  0  0  0  0  0
    8.7540   -3.0650  -53.0860 C   0  0  0  0  0  0  0  0  0  0  0  0
    9.6770   -2.9860  -53.8940 O   0  0  0  0  0  0  0  0  0  0  0  0
    7.7640   -1.2920  -51.7120 C   0  0  0  0  0  0  0  0  0  0  0  0
    5.9210    0.7950  -56.4040 C   0  0  0  0  0  0  0  0  0  0  0  0
    6.3210    1.4650  -57.5490 N   0  0  0  0  0  0  0  0  0  0  0  0
    5.4870    1.6200  -58.7040 C   0  0  0  0  0  0  0  0  0  0  0  0
    5.7650    0.9500  -59.9030 C   0  0  0  0  0  0  0  0  0  0  0  0
    4.9320    1.1110  -61.0170 C   0  0  0  0  0  0  0  0  0  0  0  0
    3.8150    1.9360  -60.9390 C   0  0  0  0  0  0  0  0  0  0  0  0
    2.7950    2.1320  -62.3090 Cl  0  0  0  0  0  0  0  0  0  0  0  0
    3.5170    2.5990  -59.7520 C   0  0  0  0  0  0  0  0  0  0  0  0
    4.3470    2.4400  -58.6360 C   0  0  0  0  0  0  0  0  0  0  0  0
    7.6350    1.8960  -57.3450 C   0  0  0  0  0  0  0  0  0  0  0  0
    8.3950    2.7660  -58.2510 C   0  0  0  0  0  0  0  0  0  0  0  0
    9.3280    2.2220  -59.1420 C   0  0  0  0  0  0  0  0  0  0  0  0
   10.0430    3.0520  -60.0080 C   0  0  0  0  0  0  0  0  0  0  0  0
    9.8230    4.4290  -59.9950 C   0  0  0  0  0  0  0  0  0  0  0  0
    8.8870    4.9780  -59.1200 C   0  0  0  0  0  0  0  0  0  0  0  0
    8.1720    4.1480  -58.2530 C   0  0  0  0  0  0  0  0  0  0  0  0
    9.2497    1.6739  -54.3417 H   0  0  0  0  0  0  0  0  0  0  0  0
   10.0790    0.9140  -55.7422 H   0  0  0  0  0  0  0  0  0  0  0  0
    9.7521    2.6803  -55.7422 H   0  0  0  0  0  0  0  0  0  0  0  0
    7.7240   -1.5540  -55.0650 H   0  0  0  0  0  0  0  0  0  0  0  0
    5.4087   -2.1714  -52.8327 H   0  0  0  0  0  0  0  0  0  0  0  0
    6.1309   -3.4714  -53.8582 H   0  0  0  0  0  0  0  0  0  0  0  0
    5.3198   -4.3763  -51.6666 H   0  0  0  0  0  0  0  0  0  0  0  0
    5.6287   -2.3076  -50.3290 H   0  0  0  0  0  0  0  0  0  0  0  0
    6.4810   -3.7061  -49.5831 H   0  0  0  0  0  0  0  0  0  0  0  0
    7.9159   -1.6644  -49.5739 H   0  0  0  0  0  0  0  0  0  0  0  0
    9.9006   -2.6875  -50.7048 H   0  0  0  0  0  0  0  0  0  0  0  0
    8.9640   -3.9209  -49.7876 H   0  0  0  0  0  0  0  0  0  0  0  0
    9.5811   -4.8030  -52.0402 H   0  0  0  0  0  0  0  0  0  0  0  0
    7.3089   -5.3603  -52.8551 H   0  0  0  0  0  0  0  0  0  0  0  0
    7.4400   -5.5176  -51.0634 H   0  0  0  0  0  0  0  0  0  0  0  0
    6.9373   -0.5763  -51.5920 H   0  0  0  0  0  0  0  0  0  0  0  0
    8.7286   -0.7653  -51.7585 H   0  0  0  0  0  0  0  0  0  0  0  0
    4.9202    0.3669  -56.2453 H   0  0  0  0  0  0  0  0  0  0  0  0
    6.6444    0.2925  -59.9696 H   0  0  0  0  0  0  0  0  0  0  0  0
    5.1614    0.5843  -61.9551 H   0  0  0  0  0  0  0  0  0  0  0  0
    2.6303    3.2471  -59.6909 H   0  0  0  0  0  0  0  0  0  0  0  0
    4.1052    2.9611  -57.6979 H   0  0  0  0  0  0  0  0  0  0  0  0
    9.4986    1.1355  -59.1599 H   0  0  0  0  0  0  0  0  0  0  0  0
   10.7800    2.6195  -60.7006 H   0  0  0  0  0  0  0  0  0  0  0  0
   10.3885    5.0824  -60.6757 H   0  0  0  0  0  0  0  0  0  0  0  0
    8.7115    6.0639  -59.1122 H   0  0  0  0  0  0  0  0  0  0  0  0
    7.4294    4.5830  -57.5679 H   0  0  0  0  0  0  0  0  0  0  0  0
  1  2  1  0
  2  3  1  0
  3  4  1  0
  4  5  2  0
  4  6  1  0
  7  6  1  6
  7  8  1  0
  8  9  1  0
  9 10  1  0
 10 11  1  0
 11 12  1  0
 12 13  1  0
 13 14  1  0
 13 15  1  0
 15 16  2  0
 11 17  1  0
  3 18  2  0
 18 19  1  0
 19 20  1  0
 20 21  1  0
 21 22  2  0
 22 23  1  0
 23 24  1  0
 23 25  2  0
 25 26  1  0
 19 27  1  0
 27 28  1  0
 28 29  2  0
 29 30  1  0
 30 31  2  0
 31 32  1  0
 32 33  2  0
 27  2  2  0
 33 28  1  0
 15  7  1  0
 26 20  2  0
 17  7  1  0
 14  9  1  0
  1 34  1  0
  1 35  1  0
  1 36  1  0
  6 37  1  0
  8 38  1  0
  8 39  1  0
  9 40  1  1
 10 41  1  0
 10 42  1  0
 11 43  1  1
 12 44  1  0
 12 45  1  0
 13 46  1  6
 14 47  1  0
 14 48  1  0
 17 49  1  0
 17 50  1  0
 18 51  1  0
 21 52  1  0
 22 53  1  0
 25 54  1  0
 26 55  1  0
 29 56  1  0
 30 57  1  0
 31 58  1  0
 32 59  1  0
 33 60  1  0
M  END
>  <meeko>  (7) 
{"is_sidechain": false}

$$$$

     RDKit          3D

 66 71  0  0  0  0  0  0  0  0999 V2000
    6.0490    0.2710  -53.7370 C   0  0  0  0  0  0  0  0  0  0  0  0
    7.3960   -0.2590  -54.1040 C   0  0  0  0  0  0  0  0  0  0  0  0
    8.2420    0.2630  -55.1420 C   0  0  0  0  0  0  0  0  0  0  0  0
    7.9660    1.4110  -56.0170 C   0  0  0  0  0  0  0  0  0  0  0  0
    6.8250    1.7960  -56.2430 O   0  0  0  0  0  0  0  0  0  0  0  0
    9.0940    1.9970  -56.5610 N   0  0  0  0  0  0  0  0  0  0  0  0
    9.0520    2.9990  -57.6300 C   0  0  1  0  0  0  0  0  0  0  0  0
    8.7910    4.3880  -56.9900 C   0  0  0  0  0  0  0  0  0  0  0  0
    8.8170    5.5050  -58.0540 C   0  0  2  0  0  0  0  0  0  0  0  0
    7.7420    5.2210  -59.1120 C   0  0  0  0  0  0  0  0  0  0  0  0
    8.0070    3.8640  -59.7770 C   0  0  1  0  0  0  0  0  0  0  0  0
    9.3960    3.8690  -60.4420 C   0  0  0  0  0  0  0  0  0  0  0  0
   10.4820    4.1850  -59.4080 C   0  0  1  0  0  0  0  0  0  0  0  0
   10.2020    5.5330  -58.7310 C   0  0  0  0  0  0  0  0  0  0  0  0
   10.4340    3.1340  -58.3070 C   0  0  0  0  0  0  0  0  0  0  0  0
   11.4470    2.5550  -57.9170 O   0  0  0  0  0  0  0  0  0  0  0  0
    7.9800    2.7500  -58.7140 C   0  0  0  0  0  0  0  0  0  0  0  0
    9.3830   -0.5220  -55.1360 C   0  0  0  0  0  0  0  0  0  0  0  0
    9.2690   -1.4870  -54.1620 N   0  0  0  0  0  0  0  0  0  0  0  0
   10.2900   -2.4960  -53.8290 C   0  0  2  0  0  0  0  0  0  0  0  0
   11.4570   -1.9570  -52.9910 C   0  0  0  0  0  0  0  0  0  0  0  0
   10.7940   -3.2120  -55.0760 C   0  0  0  0  0  0  0  0  0  0  0  0
   10.5540   -4.5890  -55.2300 C   0  0  0  0  0  0  0  0  0  0  0  0
   11.0090   -5.2730  -56.3600 C   0  0  0  0  0  0  0  0  0  0  0  0
   11.7120   -4.5870  -57.3460 C   0  0  0  0  0  0  0  0  0  0  0  0
   12.3250   -5.5100  -58.8760 Br  0  0  0  0  0  0  0  0  0  0  0  0
   11.9680   -3.2250  -57.2110 C   0  0  0  0  0  0  0  0  0  0  0  0
   11.5120   -2.5410  -56.0800 C   0  0  0  0  0  0  0  0  0  0  0  0
    8.0510   -1.3380  -53.5190 C   0  0  0  0  0  0  0  0  0  0  0  0
    7.5930   -2.2020  -52.4340 C   0  0  0  0  0  0  0  0  0  0  0  0
    6.7930   -3.3160  -52.7110 C   0  0  0  0  0  0  0  0  0  0  0  0
    6.3610   -4.1470  -51.6750 C   0  0  0  0  0  0  0  0  0  0  0  0
    6.7200   -3.8620  -50.3580 C   0  0  0  0  0  0  0  0  0  0  0  0
    7.5080   -2.7460  -50.0750 C   0  0  0  0  0  0  0  0  0  0  0  0
    7.9410   -1.9160  -51.1100 C   0  0  0  0  0  0  0  0  0  0  0  0
    5.9554    0.3078  -52.6416 H   0  0  0  0  0  0  0  0  0  0  0  0
    5.9285    1.2836  -54.1495 H   0  0  0  0  0  0  0  0  0  0  0  0
    5.2708   -0.3880  -54.1495 H   0  0  0  0  0  0  0  0  0  0  0  0
    9.8760    1.3590  -56.6090 H   0  0  0  0  0  0  0  0  0  0  0  0
    7.8048    4.3792  -56.5027 H   0  0  0  0  0  0  0  0  0  0  0  0
    9.5844    4.5880  -56.2548 H   0  0  0  0  0  0  0  0  0  0  0  0
    8.6198    6.4758  -57.5758 H   0  0  0  0  0  0  0  0  0  0  0  0
    6.7528    5.2042  -58.6311 H   0  0  0  0  0  0  0  0  0  0  0  0
    7.7708    6.0104  -59.8775 H   0  0  0  0  0  0  0  0  0  0  0  0
    7.2289    3.6843  -60.5334 H   0  0  0  0  0  0  0  0  0  0  0  0
    9.5910    2.8797  -60.8816 H   0  0  0  0  0  0  0  0  0  0  0  0
    9.4138    4.6409  -61.2255 H   0  0  0  0  0  0  0  0  0  0  0  0
   11.4536    4.2037  -59.9234 H   0  0  0  0  0  0  0  0  0  0  0  0
   10.9745    5.7271  -57.9724 H   0  0  0  0  0  0  0  0  0  0  0  0
   10.2169    6.3287  -59.4904 H   0  0  0  0  0  0  0  0  0  0  0  0
    6.9873    2.7273  -58.2408 H   0  0  0  0  0  0  0  0  0  0  0  0
    8.1924    1.7890  -59.2053 H   0  0  0  0  0  0  0  0  0  0  0  0
   10.2461   -0.3939  -55.8058 H   0  0  0  0  0  0  0  0  0  0  0  0
    9.7762   -3.2261  -53.1864 H   0  0  0  0  0  0  0  0  0  0  0  0
   11.2217   -2.0657  -51.9220 H   0  0  0  0  0  0  0  0  0  0  0  0
   12.3695   -2.5248  -53.2252 H   0  0  0  0  0  0  0  0  0  0  0  0
   11.6163   -0.8941  -53.2252 H   0  0  0  0  0  0  0  0  0  0  0  0
   10.0011   -5.1344  -54.4510 H   0  0  0  0  0  0  0  0  0  0  0  0
   10.8124   -6.3497  -56.4700 H   0  0  0  0  0  0  0  0  0  0  0  0
   12.5273   -2.6888  -57.9918 H   0  0  0  0  0  0  0  0  0  0  0  0
   11.7177   -1.4655  -55.9751 H   0  0  0  0  0  0  0  0  0  0  0  0
    6.5032   -3.5381  -53.7486 H   0  0  0  0  0  0  0  0  0  0  0  0
    5.7380   -5.0258  -51.8977 H   0  0  0  0  0  0  0  0  0  0  0  0
    6.3817   -4.5174  -49.5419 H   0  0  0  0  0  0  0  0  0  0  0  0
    7.7881   -2.5202  -49.0355 H   0  0  0  0  0  0  0  0  0  0  0  0
    8.5580   -1.0339  -50.8837 H   0  0  0  0  0  0  0  0  0  0  0  0
  1  2  1  0
  2  3  1  0
  3  4  1  0
  4  5  2  0
  4  6  1  0
  7  6  1  1
  7  8  1  0
  8  9  1  0
  9 10  1  0
 10 11  1  0
 11 12  1  0
 12 13  1  0
 13 14  1  0
 13 15  1  0
 15 16  2  0
 11 17  1  0
  3 18  2  0
 18 19  1  0
 19 20  1  0
 20 21  1  0
 20 22  1  0
 22 23  1  0
 23 24  2  0
 24 25  1  0
 25 26  1  0
 25 27  2  0
 27 28  1  0
 19 29  1  0
 29 30  1  0
 30 31  2  0
 31 32  1  0
 32 33  2  0
 33 34  1  0
 34 35  2  0
 29  2  2  0
 35 30  1  0
 15  7  1  0
 28 22  2  0
 17  7  1  0
 14  9  1  0
  1 36  1  0
  1 37  1  0
  1 38  1  0
  6 39  1  0
  8 40  1  0
  8 41  1  0
  9 42  1  1
 10 43  1  0
 10 44  1  0
 11 45  1  6
 12 46  1  0
 12 47  1  0
 13 48  1  6
 14 49  1  0
 14 50  1  0
 17 51  1  0
 17 52  1  0
 18 53  1  0
 20 54  1  1
 21 55  1  0
 21 56  1  0
 21 57  1  0
 23 58  1  0
 24 59  1  0
 27 60  1  0
 28 61  1  0
 31 62  1  0
 32 63  1  0
 33 64  1  0
 34 65  1  0
 35 66  1  0
M  END
>  <meeko>  (8) 
{"is_sidechain": false}

$$$$

     RDKit          3D

 60 65  0  0  0  0  0  0  0  0999 V2000
    8.3840    0.4030  -54.1240 C   0  0  0  0  0  0  0  0  0  0  0  0
    9.4340   -0.5340  -54.6250 C   0  0  0  0  0  0  0  0  0  0  0  0
   10.3780   -0.2460  -55.6710 C   0  0  0  0  0  0  0  0  0  0  0  0
   10.4830    0.9940  -56.4550 C   0  0  0  0  0  0  0  0  0  0  0  0
   11.5650    1.4950  -56.7370 O   0  0  0  0  0  0  0  0  0  0  0  0
    9.2700    1.5240  -56.8520 N   0  0  0  0  0  0  0  0  0  0  0  0
    9.1380    2.6180  -57.8190 C   0  0  1  0  0  0  0  0  0  0  0  0
    9.7220    2.3200  -59.2180 C   0  0  0  0  0  0  0  0  0  0  0  0
    9.5500    3.5330  -60.1520 C   0  0  2  0  0  0  0  0  0  0  0  0
   10.2700    4.7500  -59.5570 C   0  0  0  0  0  0  0  0  0  0  0  0
    9.6800    5.0860  -58.1800 C   0  0  1  0  0  0  0  0  0  0  0  0
    8.1790    5.4060  -58.3320 C   0  0  0  0  0  0  0  0  0  0  0  0
    7.4440    4.2010  -58.9330 C   0  0  1  0  0  0  0  0  0  0  0  0
    8.0460    3.8320  -60.2930 C   0  0  0  0  0  0  0  0  0  0  0  0
    7.6580    3.0430  -57.9680 C   0  0  0  0  0  0  0  0  0  0  0  0
    6.7420    2.5910  -57.2820 O   0  0  0  0  0  0  0  0  0  0  0  0
    9.8500    3.8710  -57.2450 C   0  0  0  0  0  0  0  0  0  0  0  0
   11.1560   -1.3840  -55.8070 C   0  0  0  0  0  0  0  0  0  0  0  0
   10.7260   -2.3320  -54.9090 N   0  0  0  0  0  0  0  0  0  0  0  0
   11.3480   -3.6490  -54.7630 C   0  0  0  0  0  0  0  0  0  0  0  0
   11.6850   -4.2580  -56.0910 C   0  0  0  0  0  0  0  0  0  0  0  0
   11.1370   -3.9700  -57.3280 C   0  0  0  0  0  0  0  0  0  0  0  0
   11.7000   -4.7610  -58.3700 C   0  0  0  0  0  0  0  0  0  0  0  0
   12.6500   -5.6370  -57.8960 C   0  0  0  0  0  0  0  0  0  0  0  0
   12.8540   -5.5080  -56.2040 S   0  0  0  0  0  0  0  0  0  0  0  0
    9.6790   -1.8260  -54.1670 C   0  0  0  0  0  0  0  0  0  0  0  0
    8.9790   -2.5770  -53.1270 C   0  0  0  0  0  0  0  0  0  0  0  0
    9.4790   -2.5950  -51.8210 C   0  0  0  0  0  0  0  0  0  0  0  0
    8.8150   -3.3100  -50.8230 C   0  0  0  0  0  0  0  0  0  0  0  0
    7.6510   -4.0160  -51.1290 C   0  0  0  0  0  0  0  0  0  0  0  0
    7.1540   -4.0120  -52.4310 C   0  0  0  0  0  0  0  0  0  0  0  0
    7.8180   -3.2960  -53.4310 C   0  0  0  0  0  0  0  0  0  0  0  0
    8.3858    0.4014  -53.0240 H   0  0  0  0  0  0  0  0  0  0  0  0
    8.5945    1.4189  -54.4895 H   0  0  0  0  0  0  0  0  0  0  0  0
    7.3985    0.0787  -54.4895 H   0  0  0  0  0  0  0  0  0  0  0  0
    8.5320    0.8350  -56.8850 H   0  0  0  0  0  0  0  0  0  0  0  0
   10.7930    2.0892  -59.1201 H   0  0  0  0  0  0  0  0  0  0  0  0
    9.1838    1.4633  -59.6497 H   0  0  0  0  0  0  0  0  0  0  0  0
    9.9829    3.3141  -61.1393 H   0  0  0  0  0  0  0  0  0  0  0  0
   11.3410    4.5232  -59.4492 H   0  0  0  0  0  0  0  0  0  0  0  0
   10.1375    5.6120  -60.2273 H   0  0  0  0  0  0  0  0  0  0  0  0
   10.2016    5.9566  -57.7558 H   0  0  0  0  0  0  0  0  0  0  0  0
    7.7538    5.6364  -57.3440 H   0  0  0  0  0  0  0  0  0  0  0  0
    8.0602    6.2716  -59.0003 H   0  0  0  0  0  0  0  0  0  0  0  0
    6.3776    4.4284  -59.0784 H   0  0  0  0  0  0  0  0  0  0  0  0
    7.5347    2.9407  -60.6857 H   0  0  0  0  0  0  0  0  0  0  0  0
    7.9140    4.6787  -60.9827 H   0  0  0  0  0  0  0  0  0  0  0  0
   10.9222    3.6536  -57.1304 H   0  0  0  0  0  0  0  0  0  0  0  0
    9.3976    4.1139  -56.2722 H   0  0  0  0  0  0  0  0  0  0  0  0
   11.9849   -1.5091  -56.5192 H   0  0  0  0  0  0  0  0  0  0  0  0
   12.2720   -3.5429  -54.1756 H   0  0  0  0  0  0  0  0  0  0  0  0
   10.6302   -4.3110  -54.2565 H   0  0  0  0  0  0  0  0  0  0  0  0
   10.3539   -3.2145  -57.4889 H   0  0  0  0  0  0  0  0  0  0  0  0
   11.4100   -4.6813  -59.4281 H   0  0  0  0  0  0  0  0  0  0  0  0
   13.2117   -6.3376  -58.5313 H   0  0  0  0  0  0  0  0  0  0  0  0
   10.3995   -2.0433  -51.5793 H   0  0  0  0  0  0  0  0  0  0  0  0
    9.2090   -3.3169  -49.7960 H   0  0  0  0  0  0  0  0  0  0  0  0
    7.1252   -4.5762  -50.3418 H   0  0  0  0  0  0  0  0  0  0  0  0
    6.2387   -4.5726  -52.6718 H   0  0  0  0  0  0  0  0  0  0  0  0
    7.4269   -3.2978  -54.4591 H   0  0  0  0  0  0  0  0  0  0  0  0
  1  2  1  0
  2  3  1  0
  3  4  1  0
  4  5  2  0
  4  6  1  0
  7  6  1  1
  7  8  1  0
  8  9  1  0
  9 10  1  0
 10 11  1  0
 11 12  1  0
 12 13  1  0
 13 14  1  0
 13 15  1  0
 15 16  2  0
 11 17  1  0
  3 18  2  0
 18 19  1  0
 19 20  1  0
 20 21  1  0
 21 22  2  0
 22 23  1  0
 23 24  2  0
 24 25  1  0
 19 26  1  0
 26 27  1  0
 27 28  2  0
 28 29  1  0
 29 30  2  0
 30 31  1  0
 31 32  2  0
 26  2  2  0
 32 27  1  0
 15  7  1  0
 25 21  1  0
 17  7  1  0
 14  9  1  0
  1 33  1  0
  1 34  1  0
  1 35  1  0
  6 36  1  0
  8 37  1  0
  8 38  1  0
  9 39  1  6
 10 40  1  0
 10 41  1  0
 11 42  1  1
 12 43  1  0
 12 44  1  0
 13 45  1  6
 14 46  1  0
 14 47  1  0
 17 48  1  0
 17 49  1  0
 18 50  1  0
 20 51  1  0
 20 52  1  0
 22 53  1  0
 23 54  1  0
 24 55  1  0
 28 56  1  0
 29 57  1  0
 30 58  1  0
 31 59  1  0
 32 60  1  0
M  END
>  <meeko>  (9) 
{"is_sidechain": false}

$$$$

     RDKit          3D

 64 69  0  0  0  0  0  0  0  0999 V2000
   11.4240   -1.7700  -52.8920 C   0  0  0  0  0  0  0  0  0  0  0  0
   10.2650   -2.3790  -53.6910 C   0  0  2  0  0  0  0  0  0  0  0  0
   10.7610   -3.1160  -54.9290 C   0  0  0  0  0  0  0  0  0  0  0  0
   10.5640   -4.5030  -55.0390 C   0  0  0  0  0  0  0  0  0  0  0  0
   11.0070   -5.2020  -56.1660 C   0  0  0  0  0  0  0  0  0  0  0  0
   11.6580   -4.5260  -57.1990 C   0  0  0  0  0  0  0  0  0  0  0  0
   12.1100   -5.2420  -58.3560 C   0  0  0  0  0  0  0  0  0  0  0  0
   12.4750   -5.8250  -59.2910 N   0  0  0  0  0  0  0  0  0  0  0  0
   11.8650   -3.1470  -57.1000 C   0  0  0  0  0  0  0  0  0  0  0  0
   11.4200   -2.4490  -55.9740 C   0  0  0  0  0  0  0  0  0  0  0  0
    9.2020   -1.4220  -54.0370 N   0  0  0  0  0  0  0  0  0  0  0  0
    9.2880   -0.4470  -55.0030 C   0  0  0  0  0  0  0  0  0  0  0  0
    8.1040    0.2700  -55.0450 C   0  0  0  0  0  0  0  0  0  0  0  0
    7.8530    1.3820  -55.9650 C   0  0  0  0  0  0  0  0  0  0  0  0
    6.7170    1.7550  -56.2300 O   0  0  0  0  0  0  0  0  0  0  0  0
    8.9950    1.9460  -56.4960 N   0  0  0  0  0  0  0  0  0  0  0  0
    8.9850    2.9090  -57.6010 C   0  0  1  0  0  0  0  0  0  0  0  0
    8.6000    4.3030  -57.0370 C   0  0  0  0  0  0  0  0  0  0  0  0
    8.6490    5.3820  -58.1370 C   0  0  2  0  0  0  0  0  0  0  0  0
    7.6770    5.0010  -59.2620 C   0  0  0  0  0  0  0  0  0  0  0  0
    8.0650    3.6400  -59.8540 C   0  0  1  0  0  0  0  0  0  0  0  0
    9.5000    3.7030  -60.4100 C   0  0  0  0  0  0  0  0  0  0  0  0
   10.4840    4.1120  -59.3100 C   0  0  1  0  0  0  0  0  0  0  0  0
   10.0790    5.4640  -58.7070 C   0  0  0  0  0  0  0  0  0  0  0  0
   10.4070    3.0970  -58.1770 C   0  0  0  0  0  0  0  0  0  0  0  0
   11.4150    2.5810  -57.6980 O   0  0  0  0  0  0  0  0  0  0  0  0
    8.0150    2.5630  -58.7540 C   0  0  0  0  0  0  0  0  0  0  0  0
    7.2640   -0.3230  -54.0610 C   0  0  0  0  0  0  0  0  0  0  0  0
    7.9520   -1.3550  -53.4470 C   0  0  0  0  0  0  0  0  0  0  0  0
    7.4810   -2.2500  -52.3950 C   0  0  0  0  0  0  0  0  0  0  0  0
    6.6830   -3.3530  -52.7170 C   0  0  0  0  0  0  0  0  0  0  0  0
    6.2360   -4.2140  -51.7140 C   0  0  0  0  0  0  0  0  0  0  0  0
    6.5800   -3.9720  -50.3840 C   0  0  0  0  0  0  0  0  0  0  0  0
    7.3660   -2.8680  -50.0560 C   0  0  0  0  0  0  0  0  0  0  0  0
    7.8140   -2.0060  -51.0580 C   0  0  0  0  0  0  0  0  0  0  0  0
   11.2228   -1.8757  -51.8157 H   0  0  0  0  0  0  0  0  0  0  0  0
   12.3580   -2.2938  -53.1436 H   0  0  0  0  0  0  0  0  0  0  0  0
   11.5224   -0.7037  -53.1436 H   0  0  0  0  0  0  0  0  0  0  0  0
    9.8011   -3.1078  -53.0101 H   0  0  0  0  0  0  0  0  0  0  0  0
   10.0551   -5.0454  -54.2286 H   0  0  0  0  0  0  0  0  0  0  0  0
   10.8421   -6.2871  -56.2386 H   0  0  0  0  0  0  0  0  0  0  0  0
   12.3795   -2.6099  -57.9105 H   0  0  0  0  0  0  0  0  0  0  0  0
   11.5881   -1.3641  -55.9056 H   0  0  0  0  0  0  0  0  0  0  0  0
   10.1631   -0.2646  -55.6440 H   0  0  0  0  0  0  0  0  0  0  0  0
    9.7890    1.3210  -56.4850 H   0  0  0  0  0  0  0  0  0  0  0  0
    7.5806    4.2550  -56.6265 H   0  0  0  0  0  0  0  0  0  0  0  0
    9.3217    4.5727  -56.2519 H   0  0  0  0  0  0  0  0  0  0  0  0
    8.3633    6.3561  -57.7134 H   0  0  0  0  0  0  0  0  0  0  0  0
    6.6558    4.9440  -58.8570 H   0  0  0  0  0  0  0  0  0  0  0  0
    7.7235    5.7645  -60.0526 H   0  0  0  0  0  0  0  0  0  0  0  0
    7.3598    3.3903  -60.6604 H   0  0  0  0  0  0  0  0  0  0  0  0
    9.7817    2.7130  -60.7979 H   0  0  0  0  0  0  0  0  0  0  0  0
    9.5367    4.4506  -61.2161 H   0  0  0  0  0  0  0  0  0  0  0  0
   11.4906    4.1673  -59.7502 H   0  0  0  0  0  0  0  0  0  0  0  0
   10.7782    5.7264  -57.8994 H   0  0  0  0  0  0  0  0  0  0  0  0
   10.1100    6.2329  -59.4930 H   0  0  0  0  0  0  0  0  0  0  0  0
    6.9910    2.5005  -58.3571 H   0  0  0  0  0  0  0  0  0  0  0  0
    8.3165    1.5994  -59.1906 H   0  0  0  0  0  0  0  0  0  0  0  0
    6.2353   -0.0117  -53.8266 H   0  0  0  0  0  0  0  0  0  0  0  0
    6.4069   -3.5423  -53.7648 H   0  0  0  0  0  0  0  0  0  0  0  0
    5.6128   -5.0830  -51.9720 H   0  0  0  0  0  0  0  0  0  0  0  0
    6.2310   -4.6526  -49.5934 H   0  0  0  0  0  0  0  0  0  0  0  0
    7.6333   -2.6763  -49.0063 H   0  0  0  0  0  0  0  0  0  0  0  0
    8.4301   -1.1331  -50.7962 H   0  0  0  0  0  0  0  0  0  0  0  0
  1  2  1  0
  2  3  1  0
  3  4  1  0
  4  5  2  0
  5  6  1  0
  6  7  1  0
  7  8  3  0
  6  9  2  0
  9 10  1  0
  2 11  1  0
 11 12  1  0
 12 13  2  0
 13 14  1  0
 14 15  2  0
 14 16  1  0
 17 16  1  1
 17 18  1  0
 18 19  1  0
 19 20  1  0
 20 21  1  0
 21 22  1  0
 22 23  1  0
 23 24  1  0
 23 25  1  0
 25 26  2  0
 21 27  1  0
 13 28  1  0
 28 29  2  0
 29 30  1  0
 30 31  2  0
 31 32  1  0
 32 33  2  0
 33 34  1  0
 34 35  2  0
 10  3  2  0
 29 11  1  0
 35 30  1  0
 25 17  1  0
 27 17  1  0
 24 19  1  0
  1 36  1  0
  1 37  1  0
  1 38  1  0
  2 39  1  1
  4 40  1  0
  5 41  1  0
  9 42  1  0
 10 43  1  0
 12 44  1  0
 16 45  1  0
 18 46  1  0
 18 47  1  0
 19 48  1  1
 20 49  1  0
 20 50  1  0
 21 51  1  6
 22 52  1  0
 22 53  1  0
 23 54  1  6
 24 55  1  0
 24 56  1  0
 27 57  1  0
 27 58  1  0
 28 59  1  0
 31 60  1  0
 32 61  1  0
 33 62  1  0
 34 63  1  0
 35 64  1  0
M  END
>  <meeko>  (10) 
{"is_sidechain": false}

$$$$

     RDKit          3D

 66 71  0  0  0  0  0  0  0  0999 V2000
    6.2640   -0.0920  -53.7940 C   0  0  0  0  0  0  0  0  0  0  0  0
    7.6590   -0.4590  -54.1800 C   0  0  0  0  0  0  0  0  0  0  0  0
    8.4540    0.1460  -55.2100 C   0  0  0  0  0  0  0  0  0  0  0  0
    8.1730    1.2720  -56.0990 C   0  0  0  0  0  0  0  0  0  0  0  0
    7.0470    1.7410  -56.2260 O   0  0  0  0  0  0  0  0  0  0  0  0
    9.2640    1.7230  -56.8100 N   0  0  0  0  0  0  0  0  0  0  0  0
    9.2480    2.9600  -57.5430 C   0  0  1  0  0  0  0  0  0  0  0  0
    9.0020    2.7800  -59.0560 C   0  0  0  0  0  0  0  0  0  0  0  0
    8.5710    4.2040  -59.4620 C   0  0  2  0  0  0  0  0  0  0  0  0
    9.7350    5.2230  -59.2290 C   0  0  0  0  0  0  0  0  0  0  0  0
   10.2660    5.1650  -57.7720 C   0  0  1  0  0  0  0  0  0  0  0  0
    9.1200    5.2860  -56.7640 C   0  0  0  0  0  0  0  0  0  0  0  0
    8.2270    4.0820  -57.1240 C   0  0  1  0  0  0  0  0  0  0  0  0
    7.4800    4.4360  -58.4210 C   0  0  0  0  0  0  0  0  0  0  0  0
   10.5780    3.7140  -57.5240 C   0  0  0  0  0  0  0  0  0  0  0  0
   11.6950    3.2220  -57.4600 O   0  0  0  0  0  0  0  0  0  0  0  0
    9.6230   -0.5840  -55.2720 C   0  0  0  0  0  0  0  0  0  0  0  0
    9.6100   -1.5570  -54.3000 N   0  0  0  0  0  0  0  0  0  0  0  0
   10.7360   -2.4850  -54.1160 C   0  0  1  0  0  0  0  0  0  0  0  0
   11.2870   -2.4590  -52.6880 C   0  0  0  0  0  0  0  0  0  0  0  0
   10.4180   -3.9050  -54.6220 C   0  0  0  0  0  0  0  0  0  0  0  0
   11.1060   -4.2360  -55.9260 C   0  0  0  0  0  0  0  0  0  0  0  0
   11.4580   -5.5600  -56.2250 C   0  0  0  0  0  0  0  0  0  0  0  0
   12.0800   -5.8700  -57.4360 C   0  0  0  0  0  0  0  0  0  0  0  0
   12.3560   -4.8610  -58.3570 C   0  0  0  0  0  0  0  0  0  0  0  0
   12.0110   -3.5420  -58.0690 C   0  0  0  0  0  0  0  0  0  0  0  0
   11.3890   -3.2290  -56.8600 C   0  0  0  0  0  0  0  0  0  0  0  0
    8.4130   -1.4890  -53.6130 C   0  0  0  0  0  0  0  0  0  0  0  0
    8.0190   -2.3700  -52.5150 C   0  0  0  0  0  0  0  0  0  0  0  0
    8.1490   -1.9450  -51.1880 C   0  0  0  0  0  0  0  0  0  0  0  0
    7.7460   -2.7740  -50.1400 C   0  0  0  0  0  0  0  0  0  0  0  0
    7.1960   -4.0260  -50.4140 C   0  0  0  0  0  0  0  0  0  0  0  0
    7.0420   -4.4480  -51.7340 C   0  0  0  0  0  0  0  0  0  0  0  0
    7.4450   -3.6190  -52.7820 C   0  0  0  0  0  0  0  0  0  0  0  0
    6.1807   -0.0701  -52.6974 H   0  0  0  0  0  0  0  0  0  0  0  0
    6.0203    0.9008  -54.2001 H   0  0  0  0  0  0  0  0  0  0  0  0
    5.5633   -0.8364  -54.2001 H   0  0  0  0  0  0  0  0  0  0  0  0
   10.1620    1.3580  -56.5320 H   0  0  0  0  0  0  0  0  0  0  0  0
    9.9191    2.4719  -59.5795 H   0  0  0  0  0  0  0  0  0  0  0  0
    8.2684    1.9988  -59.3039 H   0  0  0  0  0  0  0  0  0  0  0  0
    8.2743    4.3194  -60.5149 H   0  0  0  0  0  0  0  0  0  0  0  0
   10.5590    4.9866  -59.9183 H   0  0  0  0  0  0  0  0  0  0  0  0
    9.3459    6.2355  -59.4120 H   0  0  0  0  0  0  0  0  0  0  0  0
   11.0561    5.9233  -57.6685 H   0  0  0  0  0  0  0  0  0  0  0  0
    9.4903    5.2109  -55.7309 H   0  0  0  0  0  0  0  0  0  0  0  0
    8.5942    6.2509  -56.8131 H   0  0  0  0  0  0  0  0  0  0  0  0
    7.5387    3.8055  -56.3117 H   0  0  0  0  0  0  0  0  0  0  0  0
    6.6186    3.7718  -58.5845 H   0  0  0  0  0  0  0  0  0  0  0  0
    7.0510    5.4488  -58.4337 H   0  0  0  0  0  0  0  0  0  0  0  0
   10.4400   -0.4140  -55.9887 H   0  0  0  0  0  0  0  0  0  0  0  0
   11.5529   -2.1197  -54.7557 H   0  0  0  0  0  0  0  0  0  0  0  0
   10.4526   -2.4984  -51.9723 H   0  0  0  0  0  0  0  0  0  0  0  0
   11.9445   -3.3271  -52.5328 H   0  0  0  0  0  0  0  0  0  0  0  0
   11.8598   -1.5328  -52.5328 H   0  0  0  0  0  0  0  0  0  0  0  0
   10.7432   -4.6293  -53.8606 H   0  0  0  0  0  0  0  0  0  0  0  0
    9.3337   -3.9551  -54.8005 H   0  0  0  0  0  0  0  0  0  0  0  0
   11.2427   -6.3595  -55.5008 H   0  0  0  0  0  0  0  0  0  0  0  0
   12.3524   -6.9112  -57.6633 H   0  0  0  0  0  0  0  0  0  0  0  0
   12.8460   -5.1058  -59.3109 H   0  0  0  0  0  0  0  0  0  0  0  0
   12.2295   -2.7461  -58.7962 H   0  0  0  0  0  0  0  0  0  0  0  0
   11.1190   -2.1860  -56.6381 H   0  0  0  0  0  0  0  0  0  0  0  0
    8.5708   -0.9528  -50.9699 H   0  0  0  0  0  0  0  0  0  0  0  0
    7.8621   -2.4400  -49.0984 H   0  0  0  0  0  0  0  0  0  0  0  0
    6.8833   -4.6814  -49.5877 H   0  0  0  0  0  0  0  0  0  0  0  0
    6.6032   -5.4335  -51.9492 H   0  0  0  0  0  0  0  0  0  0  0  0
    7.3110   -3.9484  -53.8229 H   0  0  0  0  0  0  0  0  0  0  0  0
  1  2  1  0
  2  3  1  0
  3  4  1  0
  4  5  2  0
  4  6  1  0
  7  6  1  1
  7  8  1  0
  8  9  1  0
  9 10  1  0
 10 11  1  0
 11 12  1  0
 12 13  1  0
 13 14  1  0
 11 15  1  0
 15 16  2  0
  3 17  2  0
 17 18  1  0
 18 19  1  0
 19 20  1  0
 19 21  1  0
 21 22  1  0
 22 23  2  0
 23 24  1  0
 24 25  2  0
 25 26  1  0
 26 27  2  0
 18 28  1  0
 28 29  1  0
 29 30  2  0
 30 31  1  0
 31 32  2  0
 32 33  1  0
 33 34  2  0
 28  2  2  0
 34 29  1  0
 13  7  1  0
 27 22  1  0
 15  7  1  0
 14  9  1  0
  1 35  1  0
  1 36  1  0
  1 37  1  0
  6 38  1  0
  8 39  1  0
  8 40  1  0
  9 41  1  6
 10 42  1  0
 10 43  1  0
 11 44  1  1
 12 45  1  0
 12 46  1  0
 13 47  1  1
 14 48  1  0
 14 49  1  0
 17 50  1  0
 19 51  1  6
 20 52  1  0
 20 53  1  0
 20 54  1  0
 21 55  1  0
 21 56  1  0
 23 57  1  0
 24 58  1  0
 25 59  1  0
 26 60  1  0
 27 61  1  0
 30 62  1  0
 31 63  1  0
 32 64  1  0
 33 65  1  0
 34 66  1  0
M  END
>  <meeko>  (11) 
{"is_sidechain": false}

$$$$

     RDKit          3D

 59 64  0  0  0  0  0  0  0  0999 V2000
    8.0320   -4.8790  -50.1980 C   0  0  0  0  0  0  0  0  0  0  0  0
    7.8330   -3.4990  -49.9230 O   0  0  0  0  0  0  0  0  0  0  0  0
    8.2350   -2.6590  -51.0170 C   0  0  1  0  0  0  0  0  0  0  0  0
    9.2540   -3.3550  -51.7740 O   0  0  0  0  0  0  0  0  0  0  0  0
    9.5720   -2.9640  -53.1100 C   0  0  1  0  0  0  0  0  0  0  0  0
    8.6360   -3.6580  -54.1250 C   0  0  0  0  0  0  0  0  0  0  0  0
    7.4120   -2.8110  -53.9040 C   0  0  0  0  0  0  0  0  0  0  0  0
    6.6090   -3.2060  -52.8940 C   0  0  0  0  0  0  0  0  0  0  0  0
    6.8980   -2.2440  -51.7590 C   0  0  2  0  0  0  0  0  0  0  0  0
    7.0630   -0.9180  -52.5210 C   0  0  0  0  0  0  0  0  0  0  0  0
    7.8080   -1.3490  -53.7710 C   0  0  2  0  0  0  0  0  0  0  0  0
    7.6140   -0.5870  -54.9690 N   0  0  0  0  0  0  0  0  0  0  0  0
    6.7490    0.4720  -55.1130 C   0  0  0  0  0  0  0  0  0  0  0  0
    5.9760    0.8410  -54.2370 O   0  0  0  0  0  0  0  0  0  0  0  0
    6.8660    1.1060  -56.4200 C   0  0  0  0  0  0  0  0  0  0  0  0
    5.8980    1.0560  -57.3190 N   0  0  0  0  0  0  0  0  0  0  0  0
    6.3430    1.7850  -58.3980 C   0  0  0  0  0  0  0  0  0  0  0  0
    5.5250    1.9450  -59.5910 C   0  0  0  0  0  0  0  0  0  0  0  0
    4.1290    2.0080  -59.4560 C   0  0  0  0  0  0  0  0  0  0  0  0
    3.3080    2.1660  -60.5770 C   0  0  0  0  0  0  0  0  0  0  0  0
    3.8810    2.2710  -61.8420 C   0  0  0  0  0  0  0  0  0  0  0  0
    2.8750    2.4650  -63.2230 Cl  0  0  0  0  0  0  0  0  0  0  0  0
    5.2650    2.2250  -61.9940 C   0  0  0  0  0  0  0  0  0  0  0  0
    6.0840    2.0680  -60.8710 C   0  0  0  0  0  0  0  0  0  0  0  0
    7.6220    2.2780  -58.1710 C   0  0  0  0  0  0  0  0  0  0  0  0
    8.5250    3.0530  -59.0160 C   0  0  0  0  0  0  0  0  0  0  0  0
    8.5820    4.4470  -58.8940 C   0  0  0  0  0  0  0  0  0  0  0  0
    9.4530    5.1880  -59.6950 C   0  0  0  0  0  0  0  0  0  0  0  0
   10.2710    4.5430  -60.6200 C   0  0  0  0  0  0  0  0  0  0  0  0
   10.2250    3.1550  -60.7440 C   0  0  0  0  0  0  0  0  0  0  0  0
    9.3560    2.4120  -59.9440 C   0  0  0  0  0  0  0  0  0  0  0  0
    7.9440    1.8100  -56.9090 N   0  0  0  0  0  0  0  0  0  0  0  0
    9.2000    1.9740  -56.2130 C   0  0  0  0  0  0  0  0  0  0  0  0
    9.2880   -1.5130  -53.4430 C   0  0  0  0  0  0  0  0  0  0  0  0
   10.1080   -0.6040  -53.4030 O   0  0  0  0  0  0  0  0  0  0  0  0
    8.1120   -5.4337  -49.2515 H   0  0  0  0  0  0  0  0  0  0  0  0
    7.1801   -5.2639  -50.7777 H   0  0  0  0  0  0  0  0  0  0  0  0
    8.9580   -5.0076  -50.7777 H   0  0  0  0  0  0  0  0  0  0  0  0
    8.7287   -1.7139  -50.7468 H   0  0  0  0  0  0  0  0  0  0  0  0
   10.6421   -3.2110  -53.1722 H   0  0  0  0  0  0  0  0  0  0  0  0
    9.0124   -3.5834  -55.1559 H   0  0  0  0  0  0  0  0  0  0  0  0
    8.5010   -4.7414  -53.9911 H   0  0  0  0  0  0  0  0  0  0  0  0
    5.8979   -4.0453  -52.8944 H   0  0  0  0  0  0  0  0  0  0  0  0
    6.1284   -2.2090  -50.9738 H   0  0  0  0  0  0  0  0  0  0  0  0
    6.0860   -0.4792  -52.7718 H   0  0  0  0  0  0  0  0  0  0  0  0
    7.5869   -0.1422  -51.9434 H   0  0  0  0  0  0  0  0  0  0  0  0
    8.2680   -0.7120  -55.7410 H   0  0  0  0  0  0  0  0  0  0  0  0
    3.6756    1.9322  -58.4566 H   0  0  0  0  0  0  0  0  0  0  0  0
    2.2150    2.2071  -60.4602 H   0  0  0  0  0  0  0  0  0  0  0  0
    5.7128    2.3120  -62.9950 H   0  0  0  0  0  0  0  0  0  0  0  0
    7.1769    2.0408  -60.9932 H   0  0  0  0  0  0  0  0  0  0  0  0
    7.9382    4.9600  -58.1644 H   0  0  0  0  0  0  0  0  0  0  0  0
    9.4934    6.2828  -59.5956 H   0  0  0  0  0  0  0  0  0  0  0  0
   10.9536    5.1291  -61.2529 H   0  0  0  0  0  0  0  0  0  0  0  0
   10.8735    2.6459  -61.4722 H   0  0  0  0  0  0  0  0  0  0  0  0
    9.3233    1.3169  -60.0426 H   0  0  0  0  0  0  0  0  0  0  0  0
    9.0234    1.9509  -55.1275 H   0  0  0  0  0  0  0  0  0  0  0  0
    9.8825    1.1574  -56.4909 H   0  0  0  0  0  0  0  0  0  0  0  0
    9.6500    2.9385  -56.4909 H   0  0  0  0  0  0  0  0  0  0  0  0
  1  2  1  0
  2  3  1  0
  3  4  1  0
  4  5  1  0
  5  6  1  0
  6  7  1  0
  7  8  2  0
  8  9  1  0
  9 10  1  0
 10 11  1  0
 11 12  1  6
 12 13  1  0
 13 14  2  0
 13 15  1  0
 15 16  2  0
 16 17  1  0
 17 18  1  0
 18 19  1  0
 19 20  2  0
 20 21  1  0
 21 22  1  0
 21 23  2  0
 23 24  1  0
 17 25  2  0
 25 26  1  0
 26 27  2  0
 27 28  1  0
 28 29  2  0
 29 30  1  0
 30 31  2  0
 25 32  1  0
 32 33  1  0
 11 34  1  0
 34 35  2  0
  9  3  1  0
 32 15  1  0
 34  5  1  0
 11  7  1  0
 24 18  2  0
 31 26  1  0
  1 36  1  0
  1 37  1  0
  1 38  1  0
  3 39  1  1
  5 40  1  6
  6 41  1  0
  6 42  1  0
  8 43  1  0
  9 44  1  1
 10 45  1  0
 10 46  1  0
 12 47  1  0
 19 48  1  0
 20 49  1  0
 23 50  1  0
 24 51  1  0
 27 52  1  0
 28 53  1  0
 29 54  1  0
 30 55  1  0
 31 56  1  0
 33 57  1  0
 33 58  1  0
 33 59  1  0
M  END
>  <meeko>  (12) 
{"is_sidechain": false}

$$$$

     RDKit          3D

 60 65  0  0  0  0  0  0  0  0999 V2000
    7.7630   -4.8300  -50.1060 C   0  0  0  0  0  0  0  0  0  0  0  0
    7.0430   -3.6020  -50.1010 O   0  0  0  0  0  0  0  0  0  0  0  0
    7.8120   -2.5150  -50.6270 C   0  0  1  0  0  0  0  0  0  0  0  0
    9.0670   -2.9910  -51.1370 O   0  0  0  0  0  0  0  0  0  0  0  0
    9.3010   -3.2950  -52.5140 C   0  0  1  0  0  0  0  0  0  0  0  0
    8.1370   -3.8780  -53.3330 C   0  0  0  0  0  0  0  0  0  0  0  0
    7.2720   -2.6430  -53.5370 C   0  0  0  0  0  0  0  0  0  0  0  0
    6.2790   -2.5210  -52.6380 C   0  0  0  0  0  0  0  0  0  0  0  0
    6.8720   -1.6440  -51.5500 C   0  0  2  0  0  0  0  0  0  0  0  0
    7.6190   -0.5980  -52.3850 C   0  0  0  0  0  0  0  0  0  0  0  0
    8.1520   -1.4060  -53.5770 C   0  0  2  0  0  0  0  0  0  0  0  0
    8.0790   -0.6990  -54.8400 N   0  0  0  0  0  0  0  0  0  0  0  0
    7.1210    0.2840  -55.0520 C   0  0  0  0  0  0  0  0  0  0  0  0
    6.2700    0.6030  -54.2310 O   0  0  0  0  0  0  0  0  0  0  0  0
    7.1910    0.9200  -56.3270 C   0  0  0  0  0  0  0  0  0  0  0  0
    6.2940    0.7930  -57.3210 N   0  0  0  0  0  0  0  0  0  0  0  0
    6.5480    1.6560  -58.3760 C   0  0  0  0  0  0  0  0  0  0  0  0
    5.5200    1.8960  -59.5490 C   0  0  0  0  0  0  0  0  0  0  0  0
    4.1590    2.0940  -59.3100 C   0  0  0  0  0  0  0  0  0  0  0  0
    3.2760    2.2770  -60.3800 C   0  0  0  0  0  0  0  0  0  0  0  0
    3.7510    2.2500  -61.6880 C   0  0  0  0  0  0  0  0  0  0  0  0
    2.6650    2.4760  -63.0000 Cl  0  0  0  0  0  0  0  0  0  0  0  0
    5.1030    2.0290  -61.9370 C   0  0  0  0  0  0  0  0  0  0  0  0
    5.9880    1.8440  -60.8700 C   0  0  0  0  0  0  0  0  0  0  0  0
    7.7760    2.2480  -58.0810 C   0  0  0  0  0  0  0  0  0  0  0  0
    8.6460    3.2050  -58.9860 C   0  0  0  0  0  0  0  0  0  0  0  0
    9.2420    2.7210  -60.1550 C   0  0  0  0  0  0  0  0  0  0  0  0
   10.0250    3.5680  -60.9420 C   0  0  0  0  0  0  0  0  0  0  0  0
   10.2170    4.8940  -60.5620 C   0  0  0  0  0  0  0  0  0  0  0  0
    9.6290    5.3770  -59.3940 C   0  0  0  0  0  0  0  0  0  0  0  0
    8.8480    4.5330  -58.6020 C   0  0  0  0  0  0  0  0  0  0  0  0
    8.1360    1.7640  -56.8030 N   0  0  0  0  0  0  0  0  0  0  0  0
    9.3950    2.0190  -56.0920 C   0  0  0  0  0  0  0  0  0  0  0  0
    9.5090   -1.9730  -53.2060 C   0  0  0  0  0  0  0  0  0  0  0  0
   10.5750   -1.3950  -53.3850 O   0  0  0  0  0  0  0  0  0  0  0  0
    7.9503   -5.1494  -49.0702 H   0  0  0  0  0  0  0  0  0  0  0  0
    7.1727   -5.5990  -50.6258 H   0  0  0  0  0  0  0  0  0  0  0  0
    8.7223   -4.6905  -50.6258 H   0  0  0  0  0  0  0  0  0  0  0  0
    8.1553   -1.7983  -49.8665 H   0  0  0  0  0  0  0  0  0  0  0  0
   10.1148   -4.0345  -52.4844 H   0  0  0  0  0  0  0  0  0  0  0  0
    8.4850   -4.2893  -54.2920 H   0  0  0  0  0  0  0  0  0  0  0  0
    7.6184   -4.7173  -52.8466 H   0  0  0  0  0  0  0  0  0  0  0  0
    5.2698   -2.9564  -52.6812 H   0  0  0  0  0  0  0  0  0  0  0  0
    6.1581   -1.1830  -50.8515 H   0  0  0  0  0  0  0  0  0  0  0  0
    6.9369    0.1965  -52.7219 H   0  0  0  0  0  0  0  0  0  0  0  0
    8.4150   -0.0888  -51.8219 H   0  0  0  0  0  0  0  0  0  0  0  0
    8.9470   -0.6270  -55.3510 H   0  0  0  0  0  0  0  0  0  0  0  0
    5.4220    0.2900  -57.1980 H   0  0  0  0  0  0  0  0  0  0  0  0
    3.7796    2.1062  -58.2776 H   0  0  0  0  0  0  0  0  0  0  0  0
    2.2057    2.4423  -60.1873 H   0  0  0  0  0  0  0  0  0  0  0  0
    5.4746    1.9999  -62.9719 H   0  0  0  0  0  0  0  0  0  0  0  0
    7.0539    1.6572  -61.0674 H   0  0  0  0  0  0  0  0  0  0  0  0
    9.0939    1.6730  -60.4545 H   0  0  0  0  0  0  0  0  0  0  0  0
   10.4906    3.1875  -61.8631 H   0  0  0  0  0  0  0  0  0  0  0  0
   10.8329    5.5604  -61.1837 H   0  0  0  0  0  0  0  0  0  0  0  0
    9.7806    6.4249  -59.0958 H   0  0  0  0  0  0  0  0  0  0  0  0
    8.3920    4.9135  -57.6761 H   0  0  0  0  0  0  0  0  0  0  0  0
    9.2172    1.9830  -55.0071 H   0  0  0  0  0  0  0  0  0  0  0  0
   10.1338    1.2523  -56.3681 H   0  0  0  0  0  0  0  0  0  0  0  0
    9.7772    3.0128  -56.3681 H   0  0  0  0  0  0  0  0  0  0  0  0
  1  2  1  0
  2  3  1  0
  3  4  1  0
  4  5  1  0
  5  6  1  0
  6  7  1  0
  7  8  2  0
  8  9  1  0
  9 10  1  0
 10 11  1  0
 11 12  1  6
 12 13  1  0
 13 14  2  0
 13 15  1  0
 15 16  2  0
 16 17  1  0
 17 18  1  0
 18 19  1  0
 19 20  2  0
 20 21  1  0
 21 22  1  0
 21 23  2  0
 23 24  1  0
 17 25  2  0
 25 26  1  0
 26 27  2  0
 27 28  1  0
 28 29  2  0
 29 30  1  0
 30 31  2  0
 25 32  1  0
 32 33  1  0
 11 34  1  0
 34 35  2  0
  9  3  1  0
 32 15  1  0
 34  5  1  0
 11  7  1  0
 24 18  2  0
 31 26  1  0
  1 36  1  0
  1 37  1  0
  1 38  1  0
  3 39  1  1
  5 40  1  1
  6 41  1  0
  6 42  1  0
  8 43  1  0
  9 44  1  1
 10 45  1  0
 10 46  1  0
 12 47  1  0
 16 48  1  0
 19 49  1  0
 20 50  1  0
 23 51  1  0
 24 52  1  0
 27 53  1  0
 28 54  1  0
 29 55  1  0
 30 56  1  0
 31 57  1  0
 33 58  1  0
 33 59  1  0
 33 60  1  0
M  CHG  1  16   1
M  END
>  <meeko>  (13) 
{"is_sidechain": false}

$$$$

     RDKit          3D

 66 71  0  0  0  0  0  0  0  0999 V2000
    5.9530    0.0330  -53.5950 C   0  0  0  0  0  0  0  0  0  0  0  0
    7.3030   -0.4260  -54.0360 C   0  0  0  0  0  0  0  0  0  0  0  0
    8.1210    0.1600  -55.0640 C   0  0  0  0  0  0  0  0  0  0  0  0
    7.9050    1.3380  -55.9100 C   0  0  0  0  0  0  0  0  0  0  0  0
    6.7850    1.7830  -56.1290 O   0  0  0  0  0  0  0  0  0  0  0  0
    9.0610    1.8540  -56.4590 N   0  0  0  0  0  0  0  0  0  0  0  0
    9.0750    2.8700  -57.5150 C   0  0  1  0  0  0  0  0  0  0  0  0
    8.6600    4.2300  -56.8910 C   0  0  0  0  0  0  0  0  0  0  0  0
    8.7320    5.3650  -57.9340 C   0  0  2  0  0  0  0  0  0  0  0  0
    7.7950    5.0340  -59.1050 C   0  0  0  0  0  0  0  0  0  0  0  0
    8.2150    3.7080  -59.7520 C   0  0  1  0  0  0  0  0  0  0  0  0
    9.6640    3.8090  -60.2630 C   0  0  0  0  0  0  0  0  0  0  0  0
   10.6110    4.1710  -59.1140 C   0  0  1  0  0  0  0  0  0  0  0  0
   10.1760    5.4880  -58.4560 C   0  0  0  0  0  0  0  0  0  0  0  0
   10.5120    3.1000  -58.0360 C   0  0  0  0  0  0  0  0  0  0  0  0
   11.5100    2.5790  -57.5440 O   0  0  0  0  0  0  0  0  0  0  0  0
    8.1420    2.5760  -58.7110 C   0  0  0  0  0  0  0  0  0  0  0  0
    9.2450   -0.6380  -55.1630 C   0  0  0  0  0  0  0  0  0  0  0  0
    9.1770   -1.6440  -54.2350 N   0  0  0  0  0  0  0  0  0  0  0  0
   10.2200   -2.6700  -54.0330 C   0  0  2  0  0  0  0  0  0  0  0  0
   11.2130   -2.2380  -52.9500 C   0  0  0  0  0  0  0  0  0  0  0  0
   10.7510   -3.1870  -55.3690 C   0  0  0  0  0  0  0  0  0  0  0  0
   10.3950   -4.5170  -55.7070 C   0  0  0  0  0  0  0  0  0  0  0  0
   10.8040   -5.1120  -56.9020 C   0  0  0  0  0  0  0  0  0  0  0  0
   11.5790   -4.3930  -57.8000 C   0  0  0  0  0  0  0  0  0  0  0  0
   11.9370   -3.0810  -57.4990 C   0  0  0  0  0  0  0  0  0  0  0  0
   11.5280   -2.4760  -56.2990 C   0  0  0  0  0  0  0  0  0  0  0  0
   12.0410   -0.8430  -56.0850 Cl  0  0  0  0  0  0  0  0  0  0  0  0
    7.9980   -1.5190  -53.5180 C   0  0  0  0  0  0  0  0  0  0  0  0
    7.6020   -2.4190  -52.4370 C   0  0  0  0  0  0  0  0  0  0  0  0
    6.8340   -3.5550  -52.7130 C   0  0  0  0  0  0  0  0  0  0  0  0
    6.4500   -4.4100  -51.6800 C   0  0  0  0  0  0  0  0  0  0  0  0
    6.8350   -4.1360  -50.3670 C   0  0  0  0  0  0  0  0  0  0  0  0
    7.6080   -3.0090  -50.0870 C   0  0  0  0  0  0  0  0  0  0  0  0
    7.9930   -2.1540  -51.1200 C   0  0  0  0  0  0  0  0  0  0  0  0
    5.9115    0.0471  -52.4959 H   0  0  0  0  0  0  0  0  0  0  0  0
    5.7654    1.0454  -53.9821 H   0  0  0  0  0  0  0  0  0  0  0  0
    5.1872   -0.6553  -53.9821 H   0  0  0  0  0  0  0  0  0  0  0  0
    9.7870    1.1540  -56.5350 H   0  0  0  0  0  0  0  0  0  0  0  0
    7.6293    4.1529  -56.5145 H   0  0  0  0  0  0  0  0  0  0  0  0
    9.3547    4.4646  -56.0710 H   0  0  0  0  0  0  0  0  0  0  0  0
    8.4261    6.3144  -57.4703 H   0  0  0  0  0  0  0  0  0  0  0  0
    6.7633    4.9476  -58.7333 H   0  0  0  0  0  0  0  0  0  0  0  0
    7.8546    5.8371  -59.8543 H   0  0  0  0  0  0  0  0  0  0  0  0
    7.5362    3.4947  -60.5909 H   0  0  0  0  0  0  0  0  0  0  0  0
    9.9659    2.8415  -60.6905 H   0  0  0  0  0  0  0  0  0  0  0  0
    9.7178    4.5946  -61.0310 H   0  0  0  0  0  0  0  0  0  0  0  0
   11.6291    4.2570  -59.5214 H   0  0  0  0  0  0  0  0  0  0  0  0
   10.8488    5.7150  -57.6159 H   0  0  0  0  0  0  0  0  0  0  0  0
   10.2229    6.2962  -59.2008 H   0  0  0  0  0  0  0  0  0  0  0  0
    7.1076    2.4860  -58.3479 H   0  0  0  0  0  0  0  0  0  0  0  0
    8.4635    1.6378  -59.1869 H   0  0  0  0  0  0  0  0  0  0  0  0
   10.0681   -0.4885  -55.8773 H   0  0  0  0  0  0  0  0  0  0  0  0
    9.8029   -3.5889  -53.5953 H   0  0  0  0  0  0  0  0  0  0  0  0
   10.7782   -2.4271  -51.9574 H   0  0  0  0  0  0  0  0  0  0  0  0
   12.1453   -2.8119  -53.0574 H   0  0  0  0  0  0  0  0  0  0  0  0
   11.4287   -1.1647  -53.0574 H   0  0  0  0  0  0  0  0  0  0  0  0
    9.7775   -5.0981  -55.0062 H   0  0  0  0  0  0  0  0  0  0  0  0
   10.5125   -6.1477  -57.1306 H   0  0  0  0  0  0  0  0  0  0  0  0
   11.9082   -4.8552  -58.7423 H   0  0  0  0  0  0  0  0  0  0  0  0
   12.5495   -2.5097  -58.2121 H   0  0  0  0  0  0  0  0  0  0  0  0
    6.5320   -3.7747  -53.7477 H   0  0  0  0  0  0  0  0  0  0  0  0
    5.8434   -5.3007  -51.9005 H   0  0  0  0  0  0  0  0  0  0  0  0
    6.5288   -4.8089  -49.5525 H   0  0  0  0  0  0  0  0  0  0  0  0
    7.9138   -2.7946  -49.0523 H   0  0  0  0  0  0  0  0  0  0  0  0
    8.6063   -1.2682  -50.8982 H   0  0  0  0  0  0  0  0  0  0  0  0
  1  2  1  0
  2  3  1  0
  3  4  1  0
  4  5  2  0
  4  6  1  0
  7  6  1  1
  7  8  1  0
  8  9  1  0
  9 10  1  0
 10 11  1  0
 11 12  1  0
 12 13  1  0
 13 14  1  0
 13 15  1  0
 15 16  2  0
 11 17  1  0
  3 18  2  0
 18 19  1  0
 19 20  1  0
 20 21  1  0
 20 22  1  0
 22 23  2  0
 23 24  1  0
 24 25  2  0
 25 26  1  0
 26 27  2  0
 27 28  1  0
 19 29  1  0
 29 30  1  0
 30 31  2  0
 31 32  1  0
 32 33  2  0
 33 34  1  0
 34 35  2  0
 29  2  2  0
 35 30  1  0
 15  7  1  0
 27 22  1  0
 17  7  1  0
 14  9  1  0
  1 36  1  0
  1 37  1  0
  1 38  1  0
  6 39  1  0
  8 40  1  0
  8 41  1  0
  9 42  1  1
 10 43  1  0
 10 44  1  0
 11 45  1  6
 12 46  1  0
 12 47  1  0
 13 48  1  6
 14 49  1  0
 14 50  1  0
 17 51  1  0
 17 52  1  0
 18 53  1  0
 20 54  1  1
 21 55  1  0
 21 56  1  0
 21 57  1  0
 23 58  1  0
 24 59  1  0
 25 60  1  0
 26 61  1  0
 31 62  1  0
 32 63  1  0
 33 64  1  0
 34 65  1  0
 35 66  1  0
M  END
>  <meeko>  (14) 
{"is_sidechain": false}

$$$$

     RDKit          3D

 66 71  0  0  0  0  0  0  0  0999 V2000
    9.6080    1.7110  -55.9650 C   0  0  0  0  0  0  0  0  0  0  0  0
    8.2070    1.7200  -56.4830 C   0  0  0  0  0  0  0  0  0  0  0  0
    7.0530    1.0920  -55.8960 C   0  0  0  0  0  0  0  0  0  0  0  0
    6.8710    0.3200  -54.6600 C   0  0  0  0  0  0  0  0  0  0  0  0
    5.9170    0.5370  -53.9220 O   0  0  0  0  0  0  0  0  0  0  0  0
    7.8650   -0.5900  -54.3840 N   0  0  0  0  0  0  0  0  0  0  0  0
    7.7430   -1.6730  -53.4030 C   0  0  1  0  0  0  0  0  0  0  0  0
    6.5330   -2.6090  -53.6080 C   0  0  0  0  0  0  0  0  0  0  0  0
    6.4950   -3.7000  -52.5210 C   0  0  2  0  0  0  0  0  0  0  0  0
    6.3990   -3.0470  -51.1350 C   0  0  0  0  0  0  0  0  0  0  0  0
    7.6150   -2.1400  -50.8990 C   0  0  1  0  0  0  0  0  0  0  0  0
    8.9040   -2.9810  -50.9780 C   0  0  0  0  0  0  0  0  0  0  0  0
    9.0120   -3.6500  -52.3530 C   0  0  1  0  0  0  0  0  0  0  0  0
    7.7870   -4.5330  -52.6160 C   0  0  0  0  0  0  0  0  0  0  0  0
    9.0320   -2.5280  -53.3830 C   0  0  0  0  0  0  0  0  0  0  0  0
   10.0280   -2.2790  -54.0600 O   0  0  0  0  0  0  0  0  0  0  0  0
    7.6530   -1.0490  -51.9860 C   0  0  0  0  0  0  0  0  0  0  0  0
    6.0150    1.2880  -56.7910 C   0  0  0  0  0  0  0  0  0  0  0  0
    6.4620    2.0240  -57.8510 N   0  0  0  0  0  0  0  0  0  0  0  0
    5.6460    2.3740  -59.0130 C   0  0  0  0  0  0  0  0  0  0  0  0
    6.0280    1.5250  -60.2330 C   0  0  0  0  0  0  0  0  0  0  0  0
    5.1880    1.9010  -61.4390 C   0  0  0  0  0  0  0  0  0  0  0  0
    3.7400    1.7930  -61.0880 N   0  0  0  0  0  0  0  0  0  0  0  0
    3.3270    2.6560  -59.9410 C   0  0  0  0  0  0  0  0  0  0  0  0
    4.1420    2.2870  -58.7140 C   0  0  0  0  0  0  0  0  0  0  0  0
    7.7960    2.3180  -57.6750 C   0  0  0  0  0  0  0  0  0  0  0  0
    8.5910    3.0780  -58.6380 C   0  0  0  0  0  0  0  0  0  0  0  0
    8.6410    4.4750  -58.5630 C   0  0  0  0  0  0  0  0  0  0  0  0
    9.4150    5.1980  -59.4720 C   0  0  0  0  0  0  0  0  0  0  0  0
   10.1380    4.5290  -60.4580 C   0  0  0  0  0  0  0  0  0  0  0  0
   10.0840    3.1380  -60.5430 C   0  0  0  0  0  0  0  0  0  0  0  0
    9.3110    2.4130  -59.6360 C   0  0  0  0  0  0  0  0  0  0  0  0
    9.5923    1.7111  -54.8651 H   0  0  0  0  0  0  0  0  0  0  0  0
   10.1260    0.8095  -56.3242 H   0  0  0  0  0  0  0  0  0  0  0  0
   10.1375    2.6058  -56.3242 H   0  0  0  0  0  0  0  0  0  0  0  0
    8.5260   -0.7480  -55.1280 H   0  0  0  0  0  0  0  0  0  0  0  0
    5.6069   -2.0175  -53.5578 H   0  0  0  0  0  0  0  0  0  0  0  0
    6.6248   -3.0938  -54.5911 H   0  0  0  0  0  0  0  0  0  0  0  0
    5.6188   -4.3483  -52.6693 H   0  0  0  0  0  0  0  0  0  0  0  0
    5.4794   -2.4462  -51.0779 H   0  0  0  0  0  0  0  0  0  0  0  0
    6.3785   -3.8326  -50.3653 H   0  0  0  0  0  0  0  0  0  0  0  0
    7.5397   -1.6729  -49.9059 H   0  0  0  0  0  0  0  0  0  0  0  0
    9.7750   -2.3276  -50.8217 H   0  0  0  0  0  0  0  0  0  0  0  0
    8.8754   -3.7584  -50.2002 H   0  0  0  0  0  0  0  0  0  0  0  0
    9.9134   -4.2783  -52.4048 H   0  0  0  0  0  0  0  0  0  0  0  0
    7.8639   -4.9692  -53.6229 H   0  0  0  0  0  0  0  0  0  0  0  0
    7.7535   -5.3314  -51.8601 H   0  0  0  0  0  0  0  0  0  0  0  0
    6.7376   -0.4428  -51.9182 H   0  0  0  0  0  0  0  0  0  0  0  0
    8.5440   -0.4250  -51.8226 H   0  0  0  0  0  0  0  0  0  0  0  0
    4.9895    0.9097  -56.6675 H   0  0  0  0  0  0  0  0  0  0  0  0
    5.8595    3.4259  -59.2537 H   0  0  0  0  0  0  0  0  0  0  0  0
    7.0898    1.6899  -60.4682 H   0  0  0  0  0  0  0  0  0  0  0  0
    5.8469    0.4664  -59.9950 H   0  0  0  0  0  0  0  0  0  0  0  0
    5.4171    2.9345  -61.7380 H   0  0  0  0  0  0  0  0  0  0  0  0
    5.4159    1.2201  -62.2723 H   0  0  0  0  0  0  0  0  0  0  0  0
    3.5050    0.8090  -60.8880 H   0  0  0  0  0  0  0  0  0  0  0  0
    3.1770    2.0410  -61.9140 H   0  0  0  0  0  0  0  0  0  0  0  0
    3.5024    3.7120  -60.1943 H   0  0  0  0  0  0  0  0  0  0  0  0
    2.2579    2.5030  -59.7320 H   0  0  0  0  0  0  0  0  0  0  0  0
    3.8961    2.9799  -57.8958 H   0  0  0  0  0  0  0  0  0  0  0  0
    3.8985    1.2536  -58.4262 H   0  0  0  0  0  0  0  0  0  0  0  0
    8.0692    5.0039  -57.7862 H   0  0  0  0  0  0  0  0  0  0  0  0
    9.4544    6.2956  -59.4102 H   0  0  0  0  0  0  0  0  0  0  0  0
   10.7523    5.0991  -61.1704 H   0  0  0  0  0  0  0  0  0  0  0  0
   10.6511    2.6125  -61.3254 H   0  0  0  0  0  0  0  0  0  0  0  0
    9.2675    1.3161  -59.7057 H   0  0  0  0  0  0  0  0  0  0  0  0
  1  2  1  0
  2  3  1  0
  3  4  1  0
  4  5  2  0
  4  6  1  0
  7  6  1  6
  7  8  1  0
  8  9  1  0
  9 10  1  0
 10 11  1  0
 11 12  1  0
 12 13  1  0
 13 14  1  0
 13 15  1  0
 15 16  2  0
 11 17  1  0
  3 18  2  0
 18 19  1  0
 19 20  1  0
 20 21  1  0
 21 22  1  0
 22 23  1  0
 23 24  1  0
 24 25  1  0
 19 26  1  0
 26 27  1  0
 27 28  2  0
 28 29  1  0
 29 30  2  0
 30 31  1  0
 31 32  2  0
 26  2  2  0
 32 27  1  0
 15  7  1  0
 25 20  1  0
 17  7  1  0
 14  9  1  0
  1 33  1  0
  1 34  1  0
  1 35  1  0
  6 36  1  0
  8 37  1  0
  8 38  1  0
  9 39  1  6
 10 40  1  0
 10 41  1  0
 11 42  1  1
 12 43  1  0
 12 44  1  0
 13 45  1  1
 14 46  1  0
 14 47  1  0
 17 48  1  0
 17 49  1  0
 18 50  1  0
 20 51  1  0
 21 52  1  0
 21 53  1  0
 22 54  1  0
 22 55  1  0
 23 56  1  0
 23 57  1  0
 24 58  1  0
 24 59  1  0
 25 60  1  0
 25 61  1  0
 28 62  1  0
 29 63  1  0
 30 64  1  0
 31 65  1  0
 32 66  1  0
M  CHG  1  23   1
M  END
>  <meeko>  (15) 
{"is_sidechain": false}

$$$$

     RDKit          3D

 64 69  0  0  0  0  0  0  0  0999 V2000
    6.1690    0.3850  -53.6250 C   0  0  0  0  0  0  0  0  0  0  0  0
    7.4740   -0.1890  -54.0670 C   0  0  0  0  0  0  0  0  0  0  0  0
    8.2950    0.3240  -55.1280 C   0  0  0  0  0  0  0  0  0  0  0  0
    8.0260    1.5040  -55.9620 C   0  0  0  0  0  0  0  0  0  0  0  0
    6.8880    1.8980  -56.1910 O   0  0  0  0  0  0  0  0  0  0  0  0
    9.1530    2.1100  -56.4820 N   0  0  0  0  0  0  0  0  0  0  0  0
    9.1020    3.2010  -57.4330 C   0  0  2  0  0  0  0  0  0  0  0  0
    8.3670    2.8270  -58.7660 C   0  0  0  0  0  0  0  0  0  0  0  0
    8.3850    4.0070  -59.7810 C   0  0  2  0  0  0  0  0  0  0  0  0
    9.8240    4.4670  -60.0140 C   0  0  0  0  0  0  0  0  0  0  0  0
   10.2050    4.9500  -58.6080 C   0  0  2  0  0  0  0  0  0  0  0  0
   10.5190    3.7040  -57.7710 C   0  0  0  0  0  0  0  0  0  0  0  0
    8.8620    5.4930  -58.0040 C   0  0  1  0  0  0  0  0  0  0  0  0
    7.8280    5.2680  -59.1170 C   0  0  0  0  0  0  0  0  0  0  0  0
    8.5290    4.5120  -56.8690 C   0  0  0  0  0  0  0  0  0  0  0  0
    9.4040   -0.5040  -55.1890 C   0  0  0  0  0  0  0  0  0  0  0  0
    9.2940   -1.4850  -54.2310 N   0  0  0  0  0  0  0  0  0  0  0  0
   10.2960   -2.5310  -53.9590 C   0  0  2  0  0  0  0  0  0  0  0  0
   11.4730   -2.0610  -53.0930 C   0  0  0  0  0  0  0  0  0  0  0  0
   10.7760   -3.1850  -55.2490 C   0  0  0  0  0  0  0  0  0  0  0  0
   11.5380   -2.4850  -56.1990 C   0  0  0  0  0  0  0  0  0  0  0  0
   11.9680   -3.1120  -57.3720 C   0  0  0  0  0  0  0  0  0  0  0  0
   11.6430   -4.4450  -57.6050 C   0  0  0  0  0  0  0  0  0  0  0  0
   12.1710   -5.2160  -59.0490 Cl  0  0  0  0  0  0  0  0  0  0  0  0
   10.8920   -5.1580  -56.6740 C   0  0  0  0  0  0  0  0  0  0  0  0
   10.4640   -4.5330  -55.5020 C   0  0  0  0  0  0  0  0  0  0  0  0
    8.1090   -1.3090  -53.5390 C   0  0  0  0  0  0  0  0  0  0  0  0
    7.6600   -2.1840  -52.4570 C   0  0  0  0  0  0  0  0  0  0  0  0
    8.0280   -1.9140  -51.1340 C   0  0  0  0  0  0  0  0  0  0  0  0
    7.6030   -2.7540  -50.1030 C   0  0  0  0  0  0  0  0  0  0  0  0
    6.8040   -3.8610  -50.3890 C   0  0  0  0  0  0  0  0  0  0  0  0
    6.4250   -4.1280  -51.7040 C   0  0  0  0  0  0  0  0  0  0  0  0
    6.8490   -3.2890  -52.7360 C   0  0  0  0  0  0  0  0  0  0  0  0
    6.1295    0.4024  -52.5258 H   0  0  0  0  0  0  0  0  0  0  0  0
    6.0695    1.4100  -54.0117 H   0  0  0  0  0  0  0  0  0  0  0  0
    5.3462   -0.2343  -54.0117 H   0  0  0  0  0  0  0  0  0  0  0  0
   10.0100    1.5800  -56.4300 H   0  0  0  0  0  0  0  0  0  0  0  0
    8.8686    1.9590  -59.2188 H   0  0  0  0  0  0  0  0  0  0  0  0
    7.3187    2.5946  -58.5272 H   0  0  0  0  0  0  0  0  0  0  0  0
    7.8446    3.6565  -60.6727 H   0  0  0  0  0  0  0  0  0  0  0  0
   10.4656    3.6367  -60.3441 H   0  0  0  0  0  0  0  0  0  0  0  0
    9.9366    5.2265  -60.8017 H   0  0  0  0  0  0  0  0  0  0  0  0
   11.0353    5.6714  -58.6214 H   0  0  0  0  0  0  0  0  0  0  0  0
   11.0822    2.9596  -58.3530 H   0  0  0  0  0  0  0  0  0  0  0  0
   11.1489    3.9001  -56.8908 H   0  0  0  0  0  0  0  0  0  0  0  0
    8.8937    6.5378  -57.6613 H   0  0  0  0  0  0  0  0  0  0  0  0
    6.8221    5.0975  -58.7057 H   0  0  0  0  0  0  0  0  0  0  0  0
    7.7020    6.1220  -59.7988 H   0  0  0  0  0  0  0  0  0  0  0  0
    9.0251    4.7981  -55.9298 H   0  0  0  0  0  0  0  0  0  0  0  0
    7.4608    4.4647  -56.6107 H   0  0  0  0  0  0  0  0  0  0  0  0
   10.2417   -0.3941  -55.8935 H   0  0  0  0  0  0  0  0  0  0  0  0
    9.7764   -3.2896  -53.3553 H   0  0  0  0  0  0  0  0  0  0  0  0
   11.2108   -2.1657  -52.0299 H   0  0  0  0  0  0  0  0  0  0  0  0
   12.3589   -2.6743  -53.3143 H   0  0  0  0  0  0  0  0  0  0  0  0
   11.6928   -1.0061  -53.3143 H   0  0  0  0  0  0  0  0  0  0  0  0
   11.7992   -1.4319  -56.0179 H   0  0  0  0  0  0  0  0  0  0  0  0
   12.5622   -2.5528  -58.1096 H   0  0  0  0  0  0  0  0  0  0  0  0
   10.6368   -6.2113  -56.8620 H   0  0  0  0  0  0  0  0  0  0  0  0
    9.8754   -5.1015  -54.7670 H   0  0  0  0  0  0  0  0  0  0  0  0
    8.6533   -1.0382  -50.9060 H   0  0  0  0  0  0  0  0  0  0  0  0
    7.8984   -2.5427  -49.0647 H   0  0  0  0  0  0  0  0  0  0  0  0
    6.4726   -4.5240  -49.5763 H   0  0  0  0  0  0  0  0  0  0  0  0
    5.7922   -4.9994  -51.9281 H   0  0  0  0  0  0  0  0  0  0  0  0
    6.5443   -3.4976  -53.7722 H   0  0  0  0  0  0  0  0  0  0  0  0
  1  2  1  0
  2  3  1  0
  3  4  1  0
  4  5  2  0
  4  6  1  0
  7  6  1  1
  7  8  1  0
  8  9  1  0
  9 10  1  0
 10 11  1  0
 11 12  1  0
 11 13  1  0
 13 14  1  0
 13 15  1  0
  3 16  2  0
 16 17  1  0
 17 18  1  0
 18 19  1  0
 18 20  1  0
 20 21  1  0
 21 22  2  0
 22 23  1  0
 23 24  1  0
 23 25  2  0
 25 26  1  0
 17 27  1  0
 27 28  1  0
 28 29  2  0
 29 30  1  0
 30 31  2  0
 31 32  1  0
 32 33  2  0
 27  2  2  0
 33 28  1  0
 12  7  1  0
 26 20  2  0
 15  7  1  0
 14  9  1  0
  1 34  1  0
  1 35  1  0
  1 36  1  0
  6 37  1  0
  8 38  1  0
  8 39  1  0
  9 40  1  6
 10 41  1  0
 10 42  1  0
 11 43  1  6
 12 44  1  0
 12 45  1  0
 13 46  1  1
 14 47  1  0
 14 48  1  0
 15 49  1  0
 15 50  1  0
 16 51  1  0
 18 52  1  1
 19 53  1  0
 19 54  1  0
 19 55  1  0
 21 56  1  0
 22 57  1  0
 25 58  1  0
 26 59  1  0
 29 60  1  0
 30 61  1  0
 31 62  1  0
 32 63  1  0
 33 64  1  0
M  END
>  <meeko>  (16) 
{"is_sidechain": false}

$$$$

     RDKit          3D

 54 59  0  0  0  0  0  0  0  0999 V2000
   10.0310    0.9160  -56.1430 O   0  0  0  0  0  0  0  0  0  0  0  0
    8.8710    1.1180  -55.8010 C   0  0  0  0  0  0  0  0  0  0  0  0
    8.0590    2.0310  -56.4230 N   0  0  0  0  0  0  0  0  0  0  0  0
    8.4800    2.9460  -57.4750 C   0  0  1  0  0  0  0  0  0  0  0  0
    9.3450    2.2710  -58.5570 C   0  0  0  0  0  0  0  0  0  0  0  0
    9.6550    3.2660  -59.6930 C   0  0  2  0  0  0  0  0  0  0  0  0
   10.3760    4.4950  -59.1140 C   0  0  0  0  0  0  0  0  0  0  0  0
    9.4900    5.1910  -58.0670 C   0  0  1  0  0  0  0  0  0  0  0  0
    8.1670    5.6300  -58.7230 C   0  0  0  0  0  0  0  0  0  0  0  0
    7.4450    4.4170  -59.3190 C   0  0  1  0  0  0  0  0  0  0  0  0
    8.3330    3.7110  -60.3480 C   0  0  0  0  0  0  0  0  0  0  0  0
    7.1960    3.4320  -58.1870 C   0  0  0  0  0  0  0  0  0  0  0  0
    6.0670    3.0450  -57.8820 O   0  0  0  0  0  0  0  0  0  0  0  0
    9.1780    4.2050  -56.9230 C   0  0  0  0  0  0  0  0  0  0  0  0
    8.2440    0.3390  -54.7310 C   0  0  0  0  0  0  0  0  0  0  0  0
    7.0990    0.7670  -54.0080 C   0  0  0  0  0  0  0  0  0  0  0  0
    6.8270   -0.1770  -53.0510 C   0  0  0  0  0  0  0  0  0  0  0  0
    7.7080   -1.2360  -53.1860 N   0  0  0  0  0  0  0  0  0  0  0  0
    7.6350   -2.4220  -52.3840 C   0  0  0  0  0  0  0  0  0  0  0  0
    6.6740   -3.4130  -52.6230 C   0  0  0  0  0  0  0  0  0  0  0  0
    6.6220   -4.5590  -51.8220 C   0  0  0  0  0  0  0  0  0  0  0  0
    7.5230   -4.7170  -50.7730 C   0  0  0  0  0  0  0  0  0  0  0  0
    7.4580   -6.1280  -49.7920 Cl  0  0  0  0  0  0  0  0  0  0  0  0
    8.4740   -3.7350  -50.5120 C   0  0  0  0  0  0  0  0  0  0  0  0
    8.5270   -2.5880  -51.3100 C   0  0  0  0  0  0  0  0  0  0  0  0
    8.6000   -0.9150  -54.2190 C   0  0  0  0  0  0  0  0  0  0  0  0
    9.7210   -1.7280  -54.6150 C   0  0  0  0  0  0  0  0  0  0  0  0
   11.0460   -1.3410  -54.6900 C   0  0  0  0  0  0  0  0  0  0  0  0
   11.8870   -2.3870  -55.1790 C   0  0  0  0  0  0  0  0  0  0  0  0
   11.1630   -3.5190  -55.4510 C   0  0  0  0  0  0  0  0  0  0  0  0
   11.9340   -5.1250  -56.1420 Br  0  0  0  0  0  0  0  0  0  0  0  0
    9.5100   -3.3560  -55.1200 S   0  0  0  0  0  0  0  0  0  0  0  0
    7.0840    2.0930  -56.1470 H   0  0  0  0  0  0  0  0  0  0  0  0
   10.2886    1.9296  -58.1063 H   0  0  0  0  0  0  0  0  0  0  0  0
    8.7938    1.4145  -58.9725 H   0  0  0  0  0  0  0  0  0  0  0  0
   10.2985    2.7836  -60.4435 H   0  0  0  0  0  0  0  0  0  0  0  0
   11.3149    4.1743  -58.6390 H   0  0  0  0  0  0  0  0  0  0  0  0
   10.5880    5.2021  -59.9296 H   0  0  0  0  0  0  0  0  0  0  0  0
   10.0184    6.0701  -57.6696 H   0  0  0  0  0  0  0  0  0  0  0  0
    7.5234    6.0996  -57.9645 H   0  0  0  0  0  0  0  0  0  0  0  0
    8.3855    6.3487  -59.5266 H   0  0  0  0  0  0  0  0  0  0  0  0
    6.5146    4.7493  -59.8027 H   0  0  0  0  0  0  0  0  0  0  0  0
    7.8056    2.8282  -60.7384 H   0  0  0  0  0  0  0  0  0  0  0  0
    8.5558    4.4085  -61.1689 H   0  0  0  0  0  0  0  0  0  0  0  0
   10.1170    3.9124  -56.4303 H   0  0  0  0  0  0  0  0  0  0  0  0
    8.5096    4.6962  -56.2005 H   0  0  0  0  0  0  0  0  0  0  0  0
    6.5307    1.6922  -54.1844 H   0  0  0  0  0  0  0  0  0  0  0  0
    6.0323   -0.1039  -52.2939 H   0  0  0  0  0  0  0  0  0  0  0  0
    5.9551   -3.2892  -53.4464 H   0  0  0  0  0  0  0  0  0  0  0  0
    5.8687   -5.3354  -52.0214 H   0  0  0  0  0  0  0  0  0  0  0  0
    9.1823   -3.8609  -49.6799 H   0  0  0  0  0  0  0  0  0  0  0  0
    9.2731   -1.8087  -51.0956 H   0  0  0  0  0  0  0  0  0  0  0  0
   11.4106   -0.3428  -54.4059 H   0  0  0  0  0  0  0  0  0  0  0  0
   12.9742   -2.2960  -55.3191 H   0  0  0  0  0  0  0  0  0  0  0  0
  1  2  2  0
  2  3  1  0
  4  3  1  1
  4  5  1  0
  5  6  1  0
  6  7  1  0
  7  8  1  0
  8  9  1  0
  9 10  1  0
 10 11  1  0
 10 12  1  0
 12 13  2  0
  8 14  1  0
  2 15  1  0
 15 16  1  0
 16 17  2  0
 17 18  1  0
 18 19  1  0
 19 20  1  0
 20 21  2  0
 21 22  1  0
 22 23  1  0
 22 24  2  0
 24 25  1  0
 18 26  1  0
 26 27  1  0
 27 28  2  0
 28 29  1  0
 29 30  2  0
 30 31  1  0
 30 32  1  0
 12  4  1  0
 26 15  2  0
 32 27  1  0
 14  4  1  0
 25 19  2  0
 11  6  1  0
  3 33  1  0
  5 34  1  0
  5 35  1  0
  6 36  1  6
  7 37  1  0
  7 38  1  0
  8 39  1  1
  9 40  1  0
  9 41  1  0
 10 42  1  6
 11 43  1  0
 11 44  1  0
 14 45  1  0
 14 46  1  0
 16 47  1  0
 17 48  1  0
 20 49  1  0
 21 50  1  0
 24 51  1  0
 25 52  1  0
 28 53  1  0
 29 54  1  0
M  END
>  <meeko>  (17) 
{"is_sidechain": false}

$$$$

     RDKit          3D

 64 69  0  0  0  0  0  0  0  0999 V2000
    6.3880    0.2940  -54.0040 C   0  0  0  0  0  0  0  0  0  0  0  0
    7.7480   -0.2040  -54.3660 C   0  0  0  0  0  0  0  0  0  0  0  0
    8.6150    0.3890  -55.3510 C   0  0  0  0  0  0  0  0  0  0  0  0
    8.3280    1.5560  -56.1960 C   0  0  0  0  0  0  0  0  0  0  0  0
    7.2790    2.1820  -56.1020 O   0  0  0  0  0  0  0  0  0  0  0  0
    9.3410    1.8900  -57.0710 N   0  0  0  0  0  0  0  0  0  0  0  0
    9.3370    3.0650  -57.9460 C   0  0  2  0  0  0  0  0  0  0  0  0
   10.6860    3.1030  -58.7150 C   0  0  0  0  0  0  0  0  0  0  0  0
   10.7540    4.3210  -59.6500 C   0  0  1  0  0  0  0  0  0  0  0  0
    9.6040    4.2410  -60.6660 C   0  0  0  0  0  0  0  0  0  0  0  0
    8.2560    4.2260  -59.9290 C   0  0  2  0  0  0  0  0  0  0  0  0
    8.1210    5.5090  -59.0920 C   0  0  0  0  0  0  0  0  0  0  0  0
    9.2670    5.5990  -58.0720 C   0  0  2  0  0  0  0  0  0  0  0  0
   10.6110    5.6050  -58.8190 C   0  0  0  0  0  0  0  0  0  0  0  0
    9.2110    4.3790  -57.1350 C   0  0  0  0  0  0  0  0  0  0  0  0
    8.1980    3.0040  -58.9960 C   0  0  0  0  0  0  0  0  0  0  0  0
    9.7660   -0.3810  -55.3620 C   0  0  0  0  0  0  0  0  0  0  0  0
    9.6310   -1.4010  -54.4520 N   0  0  0  0  0  0  0  0  0  0  0  0
   10.6510   -2.4290  -54.2320 C   0  0  0  0  0  0  0  0  0  0  0  0
   10.9640   -3.2130  -55.4810 C   0  0  0  0  0  0  0  0  0  0  0  0
   10.4530   -4.5050  -55.6900 C   0  0  0  0  0  0  0  0  0  0  0  0
   10.7640   -5.2020  -56.8590 C   0  0  0  0  0  0  0  0  0  0  0  0
   11.5740   -4.6100  -57.8230 C   0  0  0  0  0  0  0  0  0  0  0  0
   11.8680   -5.2840  -58.9420 F   0  0  0  0  0  0  0  0  0  0  0  0
   12.0760   -3.3290  -57.6450 C   0  0  0  0  0  0  0  0  0  0  0  0
   11.7630   -2.6410  -56.4790 C   0  0  0  0  0  0  0  0  0  0  0  0
   12.2460   -1.4010  -56.3180 F   0  0  0  0  0  0  0  0  0  0  0  0
    8.4090   -1.3000  -53.8160 C   0  0  0  0  0  0  0  0  0  0  0  0
    7.9400   -2.2400  -52.7950 C   0  0  0  0  0  0  0  0  0  0  0  0
    8.5400   -2.2420  -51.5280 C   0  0  0  0  0  0  0  0  0  0  0  0
    8.0940   -3.1250  -50.5420 C   0  0  0  0  0  0  0  0  0  0  0  0
    7.0550   -4.0050  -50.8260 C   0  0  0  0  0  0  0  0  0  0  0  0
    6.6290   -4.8480  -49.8760 F   0  0  0  0  0  0  0  0  0  0  0  0
    6.4520   -4.0250  -52.0750 C   0  0  0  0  0  0  0  0  0  0  0  0
    6.9010   -3.1420  -53.0520 C   0  0  0  0  0  0  0  0  0  0  0  0
    6.3040   -3.1620  -54.2550 F   0  0  0  0  0  0  0  0  0  0  0  0
    6.2901    0.3298  -52.9090 H   0  0  0  0  0  0  0  0  0  0  0  0
    6.2447    1.3029  -54.4182 H   0  0  0  0  0  0  0  0  0  0  0  0
    5.6271   -0.3838  -54.4182 H   0  0  0  0  0  0  0  0  0  0  0  0
   10.2320    1.4430  -56.9060 H   0  0  0  0  0  0  0  0  0  0  0  0
   11.5115    3.1596  -57.9902 H   0  0  0  0  0  0  0  0  0  0  0  0
   10.7682    2.1900  -59.3230 H   0  0  0  0  0  0  0  0  0  0  0  0
   11.7174    4.3304  -60.1809 H   0  0  0  0  0  0  0  0  0  0  0  0
    9.6453    5.1145  -61.3333 H   0  0  0  0  0  0  0  0  0  0  0  0
    9.7049    3.3179  -61.2557 H   0  0  0  0  0  0  0  0  0  0  0  0
    7.4363    4.1717  -60.6605 H   0  0  0  0  0  0  0  0  0  0  0  0
    8.1579    6.3834  -59.7584 H   0  0  0  0  0  0  0  0  0  0  0  0
    7.1618    5.4878  -58.5539 H   0  0  0  0  0  0  0  0  0  0  0  0
    9.1668    6.5223  -57.4826 H   0  0  0  0  0  0  0  0  0  0  0  0
   10.6530    6.4781  -59.4868 H   0  0  0  0  0  0  0  0  0  0  0  0
   11.4311    5.6559  -58.0877 H   0  0  0  0  0  0  0  0  0  0  0  0
   10.0384    4.4392  -56.4127 H   0  0  0  0  0  0  0  0  0  0  0  0
    8.2458    4.3800  -56.6074 H   0  0  0  0  0  0  0  0  0  0  0  0
    7.2282    2.9910  -58.4771 H   0  0  0  0  0  0  0  0  0  0  0  0
    8.3193    2.0916  -59.5984 H   0  0  0  0  0  0  0  0  0  0  0  0
   10.6465   -0.2042  -55.9972 H   0  0  0  0  0  0  0  0  0  0  0  0
   11.5728   -1.9413  -53.8821 H   0  0  0  0  0  0  0  0  0  0  0  0
   10.2567   -3.1348  -53.4861 H   0  0  0  0  0  0  0  0  0  0  0  0
    9.8062   -4.9686  -54.9306 H   0  0  0  0  0  0  0  0  0  0  0  0
   10.3697   -6.2166  -57.0175 H   0  0  0  0  0  0  0  0  0  0  0  0
   12.7113   -2.8656  -58.4142 H   0  0  0  0  0  0  0  0  0  0  0  0
    9.3639   -1.5466  -51.3099 H   0  0  0  0  0  0  0  0  0  0  0  0
    8.5618   -3.1245  -49.5464 H   0  0  0  0  0  0  0  0  0  0  0  0
    5.6327   -4.7270  -52.2894 H   0  0  0  0  0  0  0  0  0  0  0  0
  1  2  1  0
  2  3  1  0
  3  4  1  0
  4  5  2  0
  4  6  1  0
  7  6  1  1
  7  8  1  0
  8  9  1  0
  9 10  1  0
 10 11  1  0
 11 12  1  0
 12 13  1  0
 13 14  1  0
 13 15  1  0
 11 16  1  0
  3 17  2  0
 17 18  1  0
 18 19  1  0
 19 20  1  0
 20 21  1  0
 21 22  2  0
 22 23  1  0
 23 24  1  0
 23 25  2  0
 25 26  1  0
 26 27  1  0
 18 28  1  0
 28 29  1  0
 29 30  1  0
 30 31  2  0
 31 32  1  0
 32 33  1  0
 32 34  2  0
 34 35  1  0
 35 36  1  0
 28  2  2  0
 35 29  2  0
 15  7  1  0
 26 20  2  0
 16  7  1  0
 14  9  1  0
  1 37  1  0
  1 38  1  0
  1 39  1  0
  6 40  1  0
  8 41  1  0
  8 42  1  0
  9 43  1  6
 10 44  1  0
 10 45  1  0
 11 46  1  6
 12 47  1  0
 12 48  1  0
 13 49  1  1
 14 50  1  0
 14 51  1  0
 15 52  1  0
 15 53  1  0
 16 54  1  0
 16 55  1  0
 17 56  1  0
 19 57  1  0
 19 58  1  0
 21 59  1  0
 22 60  1  0
 25 61  1  0
 30 62  1  0
 31 63  1  0
 34 64  1  0
M  END
>  <meeko>  (18) 
{"is_sidechain": false}

$$$$

     RDKit          3D

 54 58  0  0  0  0  0  0  0  0999 V2000
   11.4140   -0.4440  -56.1750 C   0  0  0  0  0  0  0  0  0  0  0  0
   10.2000   -0.7190  -55.3480 C   0  0  0  0  0  0  0  0  0  0  0  0
    9.0130    0.0790  -55.3260 C   0  0  0  0  0  0  0  0  0  0  0  0
    8.7470    1.3000  -56.0980 C   0  0  0  0  0  0  0  0  0  0  0  0
    7.6440    1.8320  -56.1100 O   0  0  0  0  0  0  0  0  0  0  0  0
    9.8280    1.7680  -56.8180 N   0  0  0  0  0  0  0  0  0  0  0  0
    9.7890    2.9090  -57.7360 C   0  0  2  0  0  0  0  0  0  0  0  0
   11.1790    3.0290  -58.4210 C   0  0  0  0  0  0  0  0  0  0  0  0
   11.2080    4.2070  -59.4070 C   0  0  1  0  0  0  0  0  0  0  0  0
   10.1330    3.9920  -60.4830 C   0  0  0  0  0  0  0  0  0  0  0  0
    8.7460    3.8980  -59.8280 C   0  0  2  0  0  0  0  0  0  0  0  0
    8.4600    5.2000  -59.0600 C   0  0  0  0  0  0  0  0  0  0  0  0
    9.5320    5.4250  -57.9790 C   0  0  2  0  0  0  0  0  0  0  0  0
   10.9140    5.5090  -58.6470 C   0  0  0  0  0  0  0  0  0  0  0  0
    9.5140    4.2420  -56.9940 C   0  0  0  0  0  0  0  0  0  0  0  0
    8.7250    2.7150  -58.8450 C   0  0  0  0  0  0  0  0  0  0  0  0
    8.1480   -0.5570  -54.4530 C   0  0  0  0  0  0  0  0  0  0  0  0
    8.7650   -1.6570  -53.8840 N   0  0  0  0  0  0  0  0  0  0  0  0
    8.1630   -2.4640  -52.8740 C   0  0  0  0  0  0  0  0  0  0  0  0
    8.8430   -2.6750  -51.6600 C   0  0  0  0  0  0  0  0  0  0  0  0
    8.2670   -3.4660  -50.6630 C   0  0  0  0  0  0  0  0  0  0  0  0
    7.0290   -4.0560  -50.8810 C   0  0  0  0  0  0  0  0  0  0  0  0
    6.4830   -4.8170  -49.9240 F   0  0  0  0  0  0  0  0  0  0  0  0
    6.3540   -3.8780  -52.0800 C   0  0  0  0  0  0  0  0  0  0  0  0
    6.9270   -3.0880  -53.0740 C   0  0  0  0  0  0  0  0  0  0  0  0
    6.2860   -3.0190  -54.2480 F   0  0  0  0  0  0  0  0  0  0  0  0
   10.0010   -1.8060  -54.5010 C   0  0  0  0  0  0  0  0  0  0  0  0
   10.8970   -2.9900  -54.3300 C   0  0  0  0  0  0  0  0  0  0  0  0
   12.2716   -0.2497  -55.5141 H   0  0  0  0  0  0  0  0  0  0  0  0
   11.6304   -1.3159  -56.8098 H   0  0  0  0  0  0  0  0  0  0  0  0
   11.2336    0.4360  -56.8098 H   0  0  0  0  0  0  0  0  0  0  0  0
   10.6090    1.1340  -56.9070 H   0  0  0  0  0  0  0  0  0  0  0  0
   11.9475    3.1865  -57.6499 H   0  0  0  0  0  0  0  0  0  0  0  0
   11.3760    2.1012  -58.9781 H   0  0  0  0  0  0  0  0  0  0  0  0
   12.1983    4.2712  -59.8815 H   0  0  0  0  0  0  0  0  0  0  0  0
   10.1472    4.8376  -61.1864 H   0  0  0  0  0  0  0  0  0  0  0  0
   10.3426    3.0558  -61.0212 H   0  0  0  0  0  0  0  0  0  0  0  0
    7.9804    3.7473  -60.6034 H   0  0  0  0  0  0  0  0  0  0  0  0
    8.4694    6.0461  -59.7628 H   0  0  0  0  0  0  0  0  0  0  0  0
    7.4742    5.1236  -58.5779 H   0  0  0  0  0  0  0  0  0  0  0  0
    9.3246    6.3602  -57.4384 H   0  0  0  0  0  0  0  0  0  0  0  0
   10.9276    6.3536  -59.3517 H   0  0  0  0  0  0  0  0  0  0  0  0
   11.6815    5.6575  -57.8732 H   0  0  0  0  0  0  0  0  0  0  0  0
   10.2895    4.3966  -56.2293 H   0  0  0  0  0  0  0  0  0  0  0  0
    8.5210    4.1875  -56.5238 H   0  0  0  0  0  0  0  0  0  0  0  0
    7.7292    2.6467  -58.3827 H   0  0  0  0  0  0  0  0  0  0  0  0
    8.9523    1.7911  -59.3970 H   0  0  0  0  0  0  0  0  0  0  0  0
    7.1178   -0.2344  -54.2417 H   0  0  0  0  0  0  0  0  0  0  0  0
    9.8293   -2.2165  -51.4960 H   0  0  0  0  0  0  0  0  0  0  0  0
    8.7921   -3.6209  -49.7089 H   0  0  0  0  0  0  0  0  0  0  0  0
    5.3768   -4.3556  -52.2440 H   0  0  0  0  0  0  0  0  0  0  0  0
   11.0452   -3.1858  -53.2578 H   0  0  0  0  0  0  0  0  0  0  0  0
   10.4364   -3.8697  -54.8032 H   0  0  0  0  0  0  0  0  0  0  0  0
   11.8688   -2.7858  -54.8032 H   0  0  0  0  0  0  0  0  0  0  0  0
  1  2  1  0
  2  3  1  0
  3  4  1  0
  4  5  2  0
  4  6  1  0
  7  6  1  1
  7  8  1  0
  8  9  1  0
  9 10  1  0
 10 11  1  0
 11 12  1  0
 12 13  1  0
 13 14  1  0
 13 15  1  0
 11 16  1  0
  3 17  2  0
 17 18  1  0
 18 19  1  0
 19 20  1  0
 20 21  2  0
 21 22  1  0
 22 23  1  0
 22 24  2  0
 24 25  1  0
 25 26  1  0
 18 27  1  0
 27 28  1  0
 27  2  2  0
 15  7  1  0
 25 19  2  0
 16  7  1  0
 14  9  1  0
  1 29  1  0
  1 30  1  0
  1 31  1  0
  6 32  1  0
  8 33  1  0
  8 34  1  0
  9 35  1  6
 10 36  1  0
 10 37  1  0
 11 38  1  6
 12 39  1  0
 12 40  1  0
 13 41  1  1
 14 42  1  0
 14 43  1  0
 15 44  1  0
 15 45  1  0
 16 46  1  0
 16 47  1  0
 17 48  1  0
 20 49  1  0
 21 50  1  0
 24 51  1  0
 28 52  1  0
 28 53  1  0
 28 54  1  0
M  END
>  <meeko>  (19) 
{"is_sidechain": false}

$$$$

     RDKit          3D

 47 50  0  0  0  0  0  0  0  0999 V2000
    9.8800    1.4440  -55.7760 C   0  0  0  0  0  0  0  0  0  0  0  0
    8.4520    1.3350  -56.1980 C   0  0  0  0  0  0  0  0  0  0  0  0
    7.3860    0.7610  -55.4320 C   0  0  0  0  0  0  0  0  0  0  0  0
    7.3820    0.1530  -54.0960 C   0  0  0  0  0  0  0  0  0  0  0  0
    6.8030    0.6900  -53.1620 O   0  0  0  0  0  0  0  0  0  0  0  0
    8.1650   -0.9780  -54.0200 N   0  0  0  0  0  0  0  0  0  0  0  0
    8.3310   -1.8360  -52.9090 C   0  0  0  0  0  0  0  0  0  0  0  0
    9.6430   -2.2080  -52.5940 C   0  0  0  0  0  0  0  0  0  0  0  0
   10.6570   -1.7450  -53.3450 F   0  0  0  0  0  0  0  0  0  0  0  0
    9.9380   -3.0420  -51.5160 C   0  0  0  0  0  0  0  0  0  0  0  0
    8.9020   -3.5380  -50.7290 C   0  0  0  0  0  0  0  0  0  0  0  0
    7.5840   -3.2060  -51.0430 C   0  0  0  0  0  0  0  0  0  0  0  0
    7.3030   -2.3690  -52.1280 C   0  0  0  0  0  0  0  0  0  0  0  0
    6.0140   -2.1750  -52.4280 F   0  0  0  0  0  0  0  0  0  0  0  0
    6.2520    0.8610  -56.2140 C   0  0  0  0  0  0  0  0  0  0  0  0
    6.5420    1.4760  -57.4120 N   0  0  0  0  0  0  0  0  0  0  0  0
    5.5890    1.6750  -58.4590 C   0  0  0  0  0  0  0  0  0  0  0  0
    4.5540    2.6110  -58.3230 C   0  0  0  0  0  0  0  0  0  0  0  0
    3.6370    2.8030  -59.3620 C   0  0  0  0  0  0  0  0  0  0  0  0
    3.7580    2.0670  -60.5340 C   0  0  0  0  0  0  0  0  0  0  0  0
    2.8770    2.2550  -61.5250 F   0  0  0  0  0  0  0  0  0  0  0  0
    4.7800    1.1440  -60.6930 C   0  0  0  0  0  0  0  0  0  0  0  0
    5.6930    0.9550  -59.6590 C   0  0  0  0  0  0  0  0  0  0  0  0
    6.6350    0.0170  -59.8350 F   0  0  0  0  0  0  0  0  0  0  0  0
    7.9050    1.7970  -57.4000 C   0  0  0  0  0  0  0  0  0  0  0  0
    8.5820    2.6090  -58.4210 C   0  0  0  0  0  0  0  0  0  0  0  0
    9.2640    1.9900  -59.4790 C   0  0  0  0  0  0  0  0  0  0  0  0
    9.9120    2.7630  -60.4440 C   0  0  0  0  0  0  0  0  0  0  0  0
    9.8810    4.1520  -60.3510 C   0  0  0  0  0  0  0  0  0  0  0  0
   10.5030    4.8870  -61.2810 F   0  0  0  0  0  0  0  0  0  0  0  0
    9.2170    4.7850  -59.3100 C   0  0  0  0  0  0  0  0  0  0  0  0
    8.5740    4.0110  -58.3510 C   0  0  0  0  0  0  0  0  0  0  0  0
    7.9390    4.6330  -57.3470 F   0  0  0  0  0  0  0  0  0  0  0  0
    9.9384    1.4485  -54.6776 H   0  0  0  0  0  0  0  0  0  0  0  0
   10.4452    0.5864  -56.1698 H   0  0  0  0  0  0  0  0  0  0  0  0
   10.3085    2.3775  -56.1698 H   0  0  0  0  0  0  0  0  0  0  0  0
    8.8410   -1.0980  -54.7660 H   0  0  0  0  0  0  0  0  0  0  0  0
   10.9814   -3.3061  -51.2891 H   0  0  0  0  0  0  0  0  0  0  0  0
    9.1209   -4.1858  -49.8674 H   0  0  0  0  0  0  0  0  0  0  0  0
    6.7600   -3.6051  -50.4332 H   0  0  0  0  0  0  0  0  0  0  0  0
    5.2553    0.4996  -55.9208 H   0  0  0  0  0  0  0  0  0  0  0  0
    4.4627    3.1964  -57.3962 H   0  0  0  0  0  0  0  0  0  0  0  0
    2.8228    3.5344  -59.2513 H   0  0  0  0  0  0  0  0  0  0  0  0
    4.8686    0.5674  -61.6256 H   0  0  0  0  0  0  0  0  0  0  0  0
    9.2883    0.8925  -59.5484 H   0  0  0  0  0  0  0  0  0  0  0  0
   10.4449    2.2769  -61.2745 H   0  0  0  0  0  0  0  0  0  0  0  0
    9.1997    5.8829  -59.2446 H   0  0  0  0  0  0  0  0  0  0  0  0
  1  2  1  0
  2  3  1  0
  3  4  1  0
  4  5  2  0
  4  6  1  0
  6  7  1  0
  7  8  2  0
  8  9  1  0
  8 10  1  0
 10 11  2  0
 11 12  1  0
 12 13  2  0
 13 14  1  0
  3 15  2  0
 15 16  1  0
 16 17  1  0
 17 18  1  0
 18 19  2  0
 19 20  1  0
 20 21  1  0
 20 22  2  0
 22 23  1  0
 23 24  1  0
 16 25  1  0
 25 26  1  0
 26 27  1  0
 27 28  2  0
 28 29  1  0
 29 30  1  0
 29 31  2  0
 31 32  1  0
 32 33  1  0
 25  2  2  0
 32 26  2  0
 13  7  1  0
 23 17  2  0
  1 34  1  0
  1 35  1  0
  1 36  1  0
  6 37  1  0
 10 38  1  0
 11 39  1  0
 12 40  1  0
 15 41  1  0
 18 42  1  0
 19 43  1  0
 22 44  1  0
 27 45  1  0
 28 46  1  0
 31 47  1  0
M  END
>  <meeko>  (20) 
{"is_sidechain": false}

$$$$

     RDKit          3D

 35 38  0  0  0  0  0  0  0  0999 V2000
    6.4360    2.6770  -57.4000 O   0  0  0  0  0  0  0  0  0  0  0  0
    6.3770    2.5170  -58.6070 C   0  0  0  0  0  0  0  0  0  0  0  0
    5.2160    2.1680  -59.2490 O   0  0  0  0  0  0  0  0  0  0  0  0
    5.5200    1.9620  -60.6280 C   0  0  0  0  0  0  0  0  0  0  0  0
    6.8140    2.7030  -60.8380 C   0  0  0  0  0  0  0  0  0  0  0  0
    7.4000    2.6820  -59.5280 N   0  0  0  0  0  0  0  0  0  0  0  0
    8.7020    3.3100  -59.2160 C   0  0  2  0  0  0  0  0  0  0  0  0
    9.6110    2.3390  -58.4160 C   0  0  0  0  0  0  0  0  0  0  0  0
   10.9690    2.9900  -58.1010 C   0  0  1  0  0  0  0  0  0  0  0  0
   11.6670    3.3710  -59.4170 C   0  0  0  0  0  0  0  0  0  0  0  0
   10.8030    4.3700  -60.2040 C   0  0  2  0  0  0  0  0  0  0  0  0
   10.5820    5.6310  -59.3560 C   0  0  0  0  0  0  0  0  0  0  0  0
    9.8770    5.2580  -58.0450 C   0  0  2  0  0  0  0  0  0  0  0  0
   10.7450    4.2590  -57.2630 C   0  0  0  0  0  0  0  0  0  0  0  0
    8.5230    4.6040  -58.3650 C   0  0  0  0  0  0  0  0  0  0  0  0
    9.4430    3.7230  -60.5200 C   0  0  0  0  0  0  0  0  0  0  0  0
    5.6450    0.8906  -60.8437 H   0  0  0  0  0  0  0  0  0  0  0  0
    4.7191    2.3178  -61.2928 H   0  0  0  0  0  0  0  0  0  0  0  0
    7.4541    2.1861  -61.5682 H   0  0  0  0  0  0  0  0  0  0  0  0
    6.6781    3.7173  -61.2414 H   0  0  0  0  0  0  0  0  0  0  0  0
    9.1116    2.0736  -57.4725 H   0  0  0  0  0  0  0  0  0  0  0  0
    9.7858    1.4399  -59.0252 H   0  0  0  0  0  0  0  0  0  0  0  0
   11.5951    2.2812  -57.5392 H   0  0  0  0  0  0  0  0  0  0  0  0
   12.6409    3.8304  -59.1924 H   0  0  0  0  0  0  0  0  0  0  0  0
   11.8114    2.4646  -60.0232 H   0  0  0  0  0  0  0  0  0  0  0  0
   11.3112    4.6417  -61.1410 H   0  0  0  0  0  0  0  0  0  0  0  0
   11.5538    6.0937  -59.1293 H   0  0  0  0  0  0  0  0  0  0  0  0
    9.9556    6.3407  -59.9164 H   0  0  0  0  0  0  0  0  0  0  0  0
    9.7209    6.1645  -57.4418 H   0  0  0  0  0  0  0  0  0  0  0  0
   11.7167    4.7212  -57.0348 H   0  0  0  0  0  0  0  0  0  0  0  0
   10.2320    3.9889  -56.3282 H   0  0  0  0  0  0  0  0  0  0  0  0
    8.0191    4.3452  -57.4221 H   0  0  0  0  0  0  0  0  0  0  0  0
    7.9222    5.3194  -58.9458 H   0  0  0  0  0  0  0  0  0  0  0  0
    8.8224    4.4435  -61.0729 H   0  0  0  0  0  0  0  0  0  0  0  0
    9.6178    2.8199  -61.1232 H   0  0  0  0  0  0  0  0  0  0  0  0
  1  2  2  0
  2  3  1  0
  3  4  1  0
  4  5  1  0
  5  6  1  0
  7  6  1  6
  7  8  1  0
  8  9  1  0
  9 10  1  0
 10 11  1  0
 11 12  1  0
 12 13  1  0
 13 14  1  0
 13 15  1  0
 11 16  1  0
  6  2  1  0
 15  7  1  0
 16  7  1  0
 14  9  1  0
  4 17  1  0
  4 18  1  0
  5 19  1  0
  5 20  1  0
  8 21  1  0
  8 22  1  0
  9 23  1  1
 10 24  1  0
 10 25  1  0
 11 26  1  6
 12 27  1  0
 12 28  1  0
 13 29  1  1
 14 30  1  0
 14 31  1  0
 15 32  1  0
 15 33  1  0
 16 34  1  0
 16 35  1  0
M  END
>  <meeko>  (21) 
{"is_sidechain": false}

$$$$

     RDKit          3D

 64 69  0  0  0  0  0  0  0  0999 V2000
    7.5330    1.7300  -56.4160 O   0  0  0  0  0  0  0  0  0  0  0  0
    8.6310    1.5200  -55.9100 C   0  0  0  0  0  0  0  0  0  0  0  0
    9.6580    2.4420  -55.9390 N   0  0  0  0  0  0  0  0  0  0  0  0
    9.4440    3.7740  -56.4630 C   0  0  0  0  0  0  0  0  0  0  0  0
   10.3140    4.1110  -57.6910 C   0  0  2  0  0  0  0  0  0  0  0  0
   10.2100    2.9460  -58.7120 C   0  0  0  0  0  0  0  0  0  0  0  0
   11.0670    3.2300  -59.9570 C   0  0  1  0  0  0  0  0  0  0  0  0
   10.5780    4.5240  -60.6230 C   0  0  0  0  0  0  0  0  0  0  0  0
   10.6970    5.6980  -59.6390 C   0  0  2  0  0  0  0  0  0  0  0  0
   12.1660    5.8590  -59.2130 C   0  0  0  0  0  0  0  0  0  0  0  0
   12.6640    4.5680  -58.5420 C   0  0  2  0  0  0  0  0  0  0  0  0
   12.5350    3.3990  -59.5320 C   0  0  0  0  0  0  0  0  0  0  0  0
   11.8050    4.2790  -57.2980 C   0  0  0  0  0  0  0  0  0  0  0  0
    9.8390    5.4090  -58.3940 C   0  0  0  0  0  0  0  0  0  0  0  0
    8.9340    0.2730  -55.2070 C   0  0  0  0  0  0  0  0  0  0  0  0
    8.1100   -0.3520  -54.2260 C   0  0  0  0  0  0  0  0  0  0  0  0
    8.7160   -1.5230  -53.7990 C   0  0  0  0  0  0  0  0  0  0  0  0
    8.2400   -2.4720  -52.7950 C   0  0  0  0  0  0  0  0  0  0  0  0
    8.9590   -2.6340  -51.6010 C   0  0  0  0  0  0  0  0  0  0  0  0
    8.5200   -3.5390  -50.6320 C   0  0  0  0  0  0  0  0  0  0  0  0
    7.3590   -4.2740  -50.8530 C   0  0  0  0  0  0  0  0  0  0  0  0
    6.9430   -5.1430  -49.9220 F   0  0  0  0  0  0  0  0  0  0  0  0
    6.6270   -4.1240  -52.0220 C   0  0  0  0  0  0  0  0  0  0  0  0
    7.0720   -3.2230  -52.9840 C   0  0  0  0  0  0  0  0  0  0  0  0
    6.3580   -3.0940  -54.1130 F   0  0  0  0  0  0  0  0  0  0  0  0
    9.9140   -1.6170  -54.4800 N   0  0  0  0  0  0  0  0  0  0  0  0
   10.9220   -2.6700  -54.3440 C   0  0  0  0  0  0  0  0  0  0  0  0
   11.1690   -3.4130  -55.6350 C   0  0  0  0  0  0  0  0  0  0  0  0
   10.9150   -4.7890  -55.7430 C   0  0  0  0  0  0  0  0  0  0  0  0
   11.1540   -5.4650  -56.9410 C   0  0  0  0  0  0  0  0  0  0  0  0
   11.6550   -4.7740  -58.0430 C   0  0  0  0  0  0  0  0  0  0  0  0
   11.9210   -3.4110  -57.9470 C   0  0  0  0  0  0  0  0  0  0  0  0
   11.6840   -2.7340  -56.7510 C   0  0  0  0  0  0  0  0  0  0  0  0
   10.0390   -0.5510  -55.3450 C   0  0  0  0  0  0  0  0  0  0  0  0
   10.4220    2.2910  -55.2980 H   0  0  0  0  0  0  0  0  0  0  0  0
    8.3867    3.8665  -56.7520 H   0  0  0  0  0  0  0  0  0  0  0  0
    9.7283    4.4788  -55.6678 H   0  0  0  0  0  0  0  0  0  0  0  0
   10.5612    2.0182  -58.2369 H   0  0  0  0  0  0  0  0  0  0  0  0
    9.1600    2.8441  -59.0236 H   0  0  0  0  0  0  0  0  0  0  0  0
   10.9810    2.3940  -60.6668 H   0  0  0  0  0  0  0  0  0  0  0  0
   11.1914    4.7304  -61.5124 H   0  0  0  0  0  0  0  0  0  0  0  0
    9.5247    4.4037  -60.9164 H   0  0  0  0  0  0  0  0  0  0  0  0
   10.3479    6.6213  -60.1244 H   0  0  0  0  0  0  0  0  0  0  0  0
   12.7815    6.0692  -60.1001 H   0  0  0  0  0  0  0  0  0  0  0  0
   12.2453    6.6911  -58.4980 H   0  0  0  0  0  0  0  0  0  0  0  0
   13.7166    4.6865  -58.2455 H   0  0  0  0  0  0  0  0  0  0  0  0
   13.1502    3.6044  -60.4205 H   0  0  0  0  0  0  0  0  0  0  0  0
   12.8791    2.4742  -59.0459 H   0  0  0  0  0  0  0  0  0  0  0  0
   12.1596    3.3534  -56.8209 H   0  0  0  0  0  0  0  0  0  0  0  0
   11.8947    5.1251  -56.6008 H   0  0  0  0  0  0  0  0  0  0  0  0
    9.9250    6.2519  -57.6925 H   0  0  0  0  0  0  0  0  0  0  0  0
    8.7927    5.2791  -58.7076 H   0  0  0  0  0  0  0  0  0  0  0  0
    7.1454    0.0342  -53.8649 H   0  0  0  0  0  0  0  0  0  0  0  0
    9.8722   -2.0458  -51.4274 H   0  0  0  0  0  0  0  0  0  0  0  0
    9.0886   -3.6701  -49.6995 H   0  0  0  0  0  0  0  0  0  0  0  0
    5.7094   -4.7082  -52.1856 H   0  0  0  0  0  0  0  0  0  0  0  0
   11.8667   -2.2120  -54.0157 H   0  0  0  0  0  0  0  0  0  0  0  0
   10.5446   -3.3972  -53.6100 H   0  0  0  0  0  0  0  0  0  0  0  0
   10.5238   -5.3403  -54.8753 H   0  0  0  0  0  0  0  0  0  0  0  0
   10.9470   -6.5428  -57.0152 H   0  0  0  0  0  0  0  0  0  0  0  0
   11.8401   -5.3055  -58.9881 H   0  0  0  0  0  0  0  0  0  0  0  0
   12.3189   -2.8668  -58.8162 H   0  0  0  0  0  0  0  0  0  0  0  0
   11.9025   -1.6582  -56.6813 H   0  0  0  0  0  0  0  0  0  0  0  0
   10.8801   -0.3820  -56.0335 H   0  0  0  0  0  0  0  0  0  0  0  0
  1  2  2  0
  2  3  1  0
  3  4  1  0
  5  4  1  1
  5  6  1  0
  6  7  1  0
  7  8  1  0
  8  9  1  0
  9 10  1  0
 10 11  1  0
 11 12  1  0
 11 13  1  0
  9 14  1  0
  2 15  1  0
 15 16  1  0
 16 17  2  0
 17 18  1  0
 18 19  1  0
 19 20  2  0
 20 21  1  0
 21 22  1  0
 21 23  2  0
 23 24  1  0
 24 25  1  0
 17 26  1  0
 26 27  1  0
 27 28  1  0
 28 29  2  0
 29 30  1  0
 30 31  2  0
 31 32  1  0
 32 33  2  0
 26 34  1  0
 13  5  1  0
 34 15  2  0
 14  5  1  0
 24 18  2  0
 33 28  1  0
 12  7  1  0
  3 35  1  0
  4 36  1  0
  4 37  1  0
  6 38  1  0
  6 39  1  0
  7 40  1  6
  8 41  1  0
  8 42  1  0
  9 43  1  6
 10 44  1  0
 10 45  1  0
 11 46  1  1
 12 47  1  0
 12 48  1  0
 13 49  1  0
 13 50  1  0
 14 51  1  0
 14 52  1  0
 16 53  1  0
 19 54  1  0
 20 55  1  0
 23 56  1  0
 27 57  1  0
 27 58  1  0
 29 59  1  0
 30 60  1  0
 31 61  1  0
 32 62  1  0
 33 63  1  0
 34 64  1  0
M  END
>  <meeko>  (22) 
{"is_sidechain": false}

$$$$

     RDKit          3D

 55 60  0  0  0  0  0  0  0  0999 V2000
   10.9070    1.0040  -56.8030 O   0  0  0  0  0  0  0  0  0  0  0  0
    9.7680    1.0110  -56.3590 C   0  0  0  0  0  0  0  0  0  0  0  0
    8.7900    1.8980  -56.7550 N   0  0  0  0  0  0  0  0  0  0  0  0
    8.9620    2.9120  -57.8010 C   0  0  2  0  0  0  0  0  0  0  0  0
    9.8260    4.1040  -57.3140 C   0  0  0  0  0  0  0  0  0  0  0  0
    9.9410    5.1740  -58.4140 C   0  0  1  0  0  0  0  0  0  0  0  0
   10.5800    4.5460  -59.6650 C   0  0  0  0  0  0  0  0  0  0  0  0
    9.7100    3.3870  -60.1790 C   0  0  2  0  0  0  0  0  0  0  0  0
    8.3080    3.9170  -60.5200 C   0  0  0  0  0  0  0  0  0  0  0  0
    7.6630    4.5380  -59.2710 C   0  0  2  0  0  0  0  0  0  0  0  0
    8.5390    5.6950  -58.7670 C   0  0  0  0  0  0  0  0  0  0  0  0
    7.5600    3.4690  -58.1720 C   0  0  0  0  0  0  0  0  0  0  0  0
    9.5950    2.3140  -59.0810 C   0  0  0  0  0  0  0  0  0  0  0  0
    9.3090    0.0670  -55.3840 C   0  0  0  0  0  0  0  0  0  0  0  0
    8.0450   -0.1450  -54.8930 C   0  0  0  0  0  0  0  0  0  0  0  0
    6.8810    0.5350  -55.2360 C   0  0  0  0  0  0  0  0  0  0  0  0
    5.7690    0.1320  -54.5420 N   0  0  0  0  0  0  0  0  0  0  0  0
    5.8540   -0.8770  -53.5970 C   0  0  0  0  0  0  0  0  0  0  0  0
    6.9890   -1.5990  -53.2060 C   0  0  0  0  0  0  0  0  0  0  0  0
    8.1240   -1.1870  -53.9100 C   0  0  0  0  0  0  0  0  0  0  0  0
    9.3940   -1.6140  -53.8280 N   0  0  0  0  0  0  0  0  0  0  0  0
   10.0620   -0.9150  -54.7780 N   0  0  0  0  0  0  0  0  0  0  0  0
   11.4480   -1.2740  -55.0680 C   0  0  0  0  0  0  0  0  0  0  0  0
   11.5370   -2.5930  -55.7890 C   0  0  0  0  0  0  0  0  0  0  0  0
   11.5660   -2.6630  -57.1910 C   0  0  0  0  0  0  0  0  0  0  0  0
   11.6270   -3.9030  -57.8310 C   0  0  0  0  0  0  0  0  0  0  0  0
   11.6620   -5.0700  -57.0750 C   0  0  0  0  0  0  0  0  0  0  0  0
   11.7230   -6.2550  -57.6950 F   0  0  0  0  0  0  0  0  0  0  0  0
   11.6380   -5.0250  -55.6890 C   0  0  0  0  0  0  0  0  0  0  0  0
   11.5760   -3.7880  -55.0580 C   0  0  0  0  0  0  0  0  0  0  0  0
   11.5690   -3.7520  -53.7180 F   0  0  0  0  0  0  0  0  0  0  0  0
    7.8380    1.6370  -56.5290 H   0  0  0  0  0  0  0  0  0  0  0  0
    9.3584    4.5496  -56.4236 H   0  0  0  0  0  0  0  0  0  0  0  0
   10.8335    3.7358  -57.0704 H   0  0  0  0  0  0  0  0  0  0  0  0
   10.5641    6.0071  -58.0567 H   0  0  0  0  0  0  0  0  0  0  0  0
   10.6684    5.3106  -60.4509 H   0  0  0  0  0  0  0  0  0  0  0  0
   11.5763    4.1595  -59.4043 H   0  0  0  0  0  0  0  0  0  0  0  0
   10.1685    2.9497  -61.0782 H   0  0  0  0  0  0  0  0  0  0  0  0
    8.3889    4.6816  -61.3066 H   0  0  0  0  0  0  0  0  0  0  0  0
    7.6828    3.0836  -60.8729 H   0  0  0  0  0  0  0  0  0  0  0  0
    6.6603    4.9146  -59.5215 H   0  0  0  0  0  0  0  0  0  0  0  0
    8.6213    6.4596  -59.5535 H   0  0  0  0  0  0  0  0  0  0  0  0
    8.0788    6.1333  -57.8692 H   0  0  0  0  0  0  0  0  0  0  0  0
    7.1028    3.9165  -57.2772 H   0  0  0  0  0  0  0  0  0  0  0  0
    6.9426    2.6397  -58.5477 H   0  0  0  0  0  0  0  0  0  0  0  0
    8.9643    1.4897  -59.4453 H   0  0  0  0  0  0  0  0  0  0  0  0
   10.6022    1.9435  -58.8395 H   0  0  0  0  0  0  0  0  0  0  0  0
    6.8548    1.3277  -55.9982 H   0  0  0  0  0  0  0  0  0  0  0  0
    4.9145   -1.1444  -53.0912 H   0  0  0  0  0  0  0  0  0  0  0  0
    6.9872   -2.3901  -52.4417 H   0  0  0  0  0  0  0  0  0  0  0  0
   11.8957   -0.4913  -55.6981 H   0  0  0  0  0  0  0  0  0  0  0  0
   11.9879   -1.3650  -54.1139 H   0  0  0  0  0  0  0  0  0  0  0  0
   11.5406   -1.7388  -57.7870 H   0  0  0  0  0  0  0  0  0  0  0  0
   11.6473   -3.9565  -58.9295 H   0  0  0  0  0  0  0  0  0  0  0  0
   11.6675   -5.9528  -55.0989 H   0  0  0  0  0  0  0  0  0  0  0  0
  1  2  2  0
  2  3  1  0
  4  3  1  1
  4  5  1  0
  5  6  1  0
  6  7  1  0
  7  8  1  0
  8  9  1  0
  9 10  1  0
 10 11  1  0
 10 12  1  0
  8 13  1  0
  2 14  1  0
 14 15  2  0
 15 16  1  0
 16 17  2  0
 17 18  1  0
 18 19  2  0
 19 20  1  0
 20 21  2  0
 21 22  1  0
 22 23  1  0
 23 24  1  0
 24 25  1  0
 25 26  2  0
 26 27  1  0
 27 28  1  0
 27 29  2  0
 29 30  1  0
 30 31  1  0
 12  4  1  0
 22 14  1  0
 30 24  2  0
 13  4  1  0
 20 15  1  0
 11  6  1  0
  3 32  1  0
  5 33  1  0
  5 34  1  0
  6 35  1  1
  7 36  1  0
  7 37  1  0
  8 38  1  6
  9 39  1  0
  9 40  1  0
 10 41  1  6
 11 42  1  0
 11 43  1  0
 12 44  1  0
 12 45  1  0
 13 46  1  0
 13 47  1  0
 16 48  1  0
 18 49  1  0
 19 50  1  0
 23 51  1  0
 23 52  1  0
 25 53  1  0
 26 54  1  0
 29 55  1  0
M  END
>  <meeko>  (23) 
{"is_sidechain": false}

$$$$

     RDKit          3D

 49 53  0  0  0  0  0  0  0  0999 V2000
   11.5200   -0.7670  -56.0990 C   0  0  0  0  0  0  0  0  0  0  0  0
   10.3060   -0.9890  -55.2600 C   0  0  0  0  0  0  0  0  0  0  0  0
    9.1610   -0.1270  -55.1630 C   0  0  0  0  0  0  0  0  0  0  0  0
    8.8400    1.1350  -55.8390 C   0  0  0  0  0  0  0  0  0  0  0  0
    7.6840    1.5330  -55.9160 O   0  0  0  0  0  0  0  0  0  0  0  0
    9.9320    1.7660  -56.3850 N   0  0  0  0  0  0  0  0  0  0  0  0
    9.8580    2.8700  -57.3170 C   0  0  1  0  0  0  0  0  0  0  0  0
   11.2380    3.0180  -58.0020 C   0  0  0  0  0  0  0  0  0  0  0  0
   11.1540    4.0690  -59.1160 C   0  0  2  0  0  0  0  0  0  0  0  0
   10.7370    5.4200  -58.5090 C   0  0  0  0  0  0  0  0  0  0  0  0
    9.3810    5.2880  -57.7950 C   0  0  1  0  0  0  0  0  0  0  0  0
    8.3170    4.8050  -58.7920 C   0  0  0  0  0  0  0  0  0  0  0  0
    8.7530    3.4540  -59.3700 C   0  0  1  0  0  0  0  0  0  0  0  0
   10.0850    3.6030  -60.1120 C   0  0  0  0  0  0  0  0  0  0  0  0
    8.9020    2.4890  -58.3150 O   0  0  0  0  0  0  0  0  0  0  0  0
    9.4820    4.2280  -56.6890 C   0  0  0  0  0  0  0  0  0  0  0  0
    8.3200   -0.7050  -54.2280 C   0  0  0  0  0  0  0  0  0  0  0  0
    8.8710   -1.8720  -53.7400 N   0  0  0  0  0  0  0  0  0  0  0  0
    8.2740   -2.6700  -52.7160 C   0  0  0  0  0  0  0  0  0  0  0  0
    8.8000   -2.6980  -51.4160 C   0  0  0  0  0  0  0  0  0  0  0  0
    8.1950   -3.4770  -50.4220 C   0  0  0  0  0  0  0  0  0  0  0  0
    7.0620   -4.2200  -50.7240 C   0  0  0  0  0  0  0  0  0  0  0  0
    6.4880   -4.9630  -49.7670 F   0  0  0  0  0  0  0  0  0  0  0  0
    6.5230   -4.1840  -52.0020 C   0  0  0  0  0  0  0  0  0  0  0  0
    5.4280   -4.8990  -52.2920 F   0  0  0  0  0  0  0  0  0  0  0  0
    7.1140   -3.4100  -52.9990 C   0  0  0  0  0  0  0  0  0  0  0  0
   10.0540   -2.0740  -54.4310 C   0  0  0  0  0  0  0  0  0  0  0  0
   11.1620   -3.6480  -54.4420 Br  0  0  0  0  0  0  0  0  0  0  0  0
   12.3918   -0.6076  -55.4475 H   0  0  0  0  0  0  0  0  0  0  0  0
   11.6931   -1.6484  -56.7340 H   0  0  0  0  0  0  0  0  0  0  0  0
   11.3699    0.1186  -56.7340 H   0  0  0  0  0  0  0  0  0  0  0  0
   10.7060    1.1420  -56.5580 H   0  0  0  0  0  0  0  0  0  0  0  0
   11.9835    3.3337  -57.2573 H   0  0  0  0  0  0  0  0  0  0  0  0
   11.5342    2.0514  -58.4356 H   0  0  0  0  0  0  0  0  0  0  0  0
   12.1258    4.1872  -59.6175 H   0  0  0  0  0  0  0  0  0  0  0  0
   11.4989    5.7430  -57.7843 H   0  0  0  0  0  0  0  0  0  0  0  0
   10.6461    6.1622  -59.3158 H   0  0  0  0  0  0  0  0  0  0  0  0
    9.1094    6.2682  -57.3760 H   0  0  0  0  0  0  0  0  0  0  0  0
    7.3522    4.6915  -58.2759 H   0  0  0  0  0  0  0  0  0  0  0  0
    8.2074    5.5391  -59.6039 H   0  0  0  0  0  0  0  0  0  0  0  0
    7.9804    3.1092  -60.0730 H   0  0  0  0  0  0  0  0  0  0  0  0
   10.3784    2.6347  -60.5437 H   0  0  0  0  0  0  0  0  0  0  0  0
    9.9818    4.3395  -60.9225 H   0  0  0  0  0  0  0  0  0  0  0  0
   10.2553    4.5248  -55.9651 H   0  0  0  0  0  0  0  0  0  0  0  0
    8.5143    4.1402  -56.1733 H   0  0  0  0  0  0  0  0  0  0  0  0
    7.3489   -0.2920  -53.9176 H   0  0  0  0  0  0  0  0  0  0  0  0
    9.6940   -2.1039  -51.1756 H   0  0  0  0  0  0  0  0  0  0  0  0
    8.6159   -3.5001  -49.4060 H   0  0  0  0  0  0  0  0  0  0  0  0
    6.6727   -3.3786  -54.0061 H   0  0  0  0  0  0  0  0  0  0  0  0
  1  2  1  0
  2  3  1  0
  3  4  1  0
  4  5  2  0
  4  6  1  0
  7  6  1  1
  7  8  1  0
  8  9  1  0
  9 10  1  0
 10 11  1  0
 11 12  1  0
 12 13  1  0
 13 14  1  0
 13 15  1  0
 11 16  1  0
  3 17  2  0
 17 18  1  0
 18 19  1  0
 19 20  1  0
 20 21  2  0
 21 22  1  0
 22 23  1  0
 22 24  2  0
 24 25  1  0
 24 26  1  0
 18 27  1  0
 27 28  1  0
 27  2  2  0
 15  7  1  0
 26 19  2  0
 16  7  1  0
 14  9  1  0
  1 29  1  0
  1 30  1  0
  1 31  1  0
  6 32  1  0
  8 33  1  0
  8 34  1  0
  9 35  1  6
 10 36  1  0
 10 37  1  0
 11 38  1  1
 12 39  1  0
 12 40  1  0
 13 41  1  6
 14 42  1  0
 14 43  1  0
 16 44  1  0
 16 45  1  0
 17 46  1  0
 20 47  1  0
 21 48  1  0
 26 49  1  0
M  END
>  <meeko>  (24) 
{"is_sidechain": false}

$$$$

     RDKit          3D

 81 87  0  0  0  0  0  0  0  0999 V2000
    5.5240   -0.5190  -55.3650 C   0  0  0  0  0  0  0  0  0  0  0  0
    6.8070    0.1920  -55.6400 C   0  0  0  0  0  0  0  0  0  0  0  0
    8.0080    0.1380  -54.8510 C   0  0  0  0  0  0  0  0  0  0  0  0
    8.3280   -0.6200  -53.6390 C   0  0  0  0  0  0  0  0  0  0  0  0
    9.4090   -0.5110  -53.0730 O   0  0  0  0  0  0  0  0  0  0  0  0
    7.3370   -1.4930  -53.2470 N   0  0  0  0  0  0  0  0  0  0  0  0
    7.4500   -2.4470  -52.1420 C   0  0  2  0  0  0  0  0  0  0  0  0
    8.7930   -3.2230  -52.1800 C   0  0  0  0  0  0  0  0  0  0  0  0
    8.9020   -4.1760  -50.9770 C   0  0  1  0  0  0  0  0  0  0  0  0
    8.8400   -3.3620  -49.6760 C   0  0  0  0  0  0  0  0  0  0  0  0
    7.5100   -2.5950  -49.6000 C   0  0  2  0  0  0  0  0  0  0  0  0
    6.3430   -3.5950  -49.6350 C   0  0  0  0  0  0  0  0  0  0  0  0
    6.3900   -4.4110  -50.9350 C   0  0  2  0  0  0  0  0  0  0  0  0
    7.7260   -5.1690  -51.0110 C   0  0  0  0  0  0  0  0  0  0  0  0
    6.2790   -3.4580  -52.1380 C   0  0  0  0  0  0  0  0  0  0  0  0
    7.4030   -1.6530  -50.8080 C   0  0  0  0  0  0  0  0  0  0  0  0
    8.9010    1.0080  -55.4490 C   0  0  0  0  0  0  0  0  0  0  0  0
    8.3310    1.5450  -56.5720 N   0  0  0  0  0  0  0  0  0  0  0  0
    9.0030    2.4980  -57.4640 C   0  0  2  0  0  0  0  0  0  0  0  0
   10.4820    2.1210  -57.6600 C   0  0  0  0  0  0  0  0  0  0  0  0
   11.2460    3.2610  -58.3220 C   0  0  0  0  0  0  0  0  0  0  0  0
   11.2350    4.5440  -57.4760 C   0  0  1  0  0  0  0  0  0  0  0  0
   11.0810    5.6810  -58.3520 O   0  0  0  0  0  0  0  0  0  0  0  0
   11.1750    5.4360  -59.6790 C   0  0  0  0  0  0  0  0  0  0  0  0
   12.0880    5.7800  -60.4120 O   0  0  0  0  0  0  0  0  0  0  0  0
    9.9730    4.7280  -60.1670 C   0  0  0  0  0  0  0  0  0  0  0  0
   10.1540    3.5970  -60.9760 C   0  0  0  0  0  0  0  0  0  0  0  0
    9.0480    2.8920  -61.4600 C   0  0  0  0  0  0  0  0  0  0  0  0
    7.7580    3.3080  -61.1320 C   0  0  0  0  0  0  0  0  0  0  0  0
    7.5730    4.4250  -60.3170 C   0  0  0  0  0  0  0  0  0  0  0  0
    8.6780    5.1270  -59.8340 C   0  0  0  0  0  0  0  0  0  0  0  0
    8.4510    6.1710  -59.0240 F   0  0  0  0  0  0  0  0  0  0  0  0
   10.0810    4.5890  -56.4660 C   0  0  0  0  0  0  0  0  0  0  0  0
    8.8040    3.9670  -57.0290 C   0  0  0  0  0  0  0  0  0  0  0  0
    7.0500    1.0470  -56.7150 C   0  0  0  0  0  0  0  0  0  0  0  0
    6.1510    1.4110  -57.8110 C   0  0  0  0  0  0  0  0  0  0  0  0
    6.2590    0.7640  -59.0470 C   0  0  0  0  0  0  0  0  0  0  0  0
    5.4040    1.1090  -60.0960 C   0  0  0  0  0  0  0  0  0  0  0  0
    4.4430    2.0980  -59.9110 C   0  0  0  0  0  0  0  0  0  0  0  0
    3.6310    2.3980  -60.9640 O   0  0  0  0  0  0  0  0  0  0  0  0
    4.3190    2.7520  -58.6910 C   0  0  0  0  0  0  0  0  0  0  0  0
    5.1760    2.4040  -57.6490 C   0  0  0  0  0  0  0  0  0  0  0  0
    5.0420    3.0380  -56.4740 F   0  0  0  0  0  0  0  0  0  0  0  0
    5.3759   -0.6011  -54.2781 H   0  0  0  0  0  0  0  0  0  0  0  0
    4.6899    0.0456  -55.8071 H   0  0  0  0  0  0  0  0  0  0  0  0
    5.5605   -1.5256  -55.8071 H   0  0  0  0  0  0  0  0  0  0  0  0
    6.6340   -1.6840  -53.9480 H   0  0  0  0  0  0  0  0  0  0  0  0
    8.8466   -3.8076  -53.1103 H   0  0  0  0  0  0  0  0  0  0  0  0
    9.6214   -2.5006  -52.1363 H   0  0  0  0  0  0  0  0  0  0  0  0
    9.8542   -4.7248  -51.0239 H   0  0  0  0  0  0  0  0  0  0  0  0
    8.9176   -4.0432  -48.8158 H   0  0  0  0  0  0  0  0  0  0  0  0
    9.6730   -2.6438  -49.6588 H   0  0  0  0  0  0  0  0  0  0  0  0
    7.4705   -2.0130  -48.6674 H   0  0  0  0  0  0  0  0  0  0  0  0
    6.4206   -4.2758  -48.7745 H   0  0  0  0  0  0  0  0  0  0  0  0
    5.3927   -3.0429  -49.5891 H   0  0  0  0  0  0  0  0  0  0  0  0
    5.5556   -5.1276  -50.9517 H   0  0  0  0  0  0  0  0  0  0  0  0
    7.8042   -5.8546  -50.1544 H   0  0  0  0  0  0  0  0  0  0  0  0
    7.7633   -5.7382  -51.9515 H   0  0  0  0  0  0  0  0  0  0  0  0
    6.3052   -4.0451  -53.0678 H   0  0  0  0  0  0  0  0  0  0  0  0
    5.3320   -2.9033  -52.0646 H   0  0  0  0  0  0  0  0  0  0  0  0
    6.4525   -1.1022  -50.7510 H   0  0  0  0  0  0  0  0  0  0  0  0
    8.2548   -0.9574  -50.7852 H   0  0  0  0  0  0  0  0  0  0  0  0
    9.9123    1.2336  -55.0798 H   0  0  0  0  0  0  0  0  0  0  0  0
    8.5187    2.4246  -58.4489 H   0  0  0  0  0  0  0  0  0  0  0  0
   10.9326    1.9058  -56.6799 H   0  0  0  0  0  0  0  0  0  0  0  0
   10.5377    1.2346  -58.3090 H   0  0  0  0  0  0  0  0  0  0  0  0
   12.2892    2.9463  -58.4726 H   0  0  0  0  0  0  0  0  0  0  0  0
   10.7503    3.4858  -59.2779 H   0  0  0  0  0  0  0  0  0  0  0  0
   12.1839    4.5639  -56.9200 H   0  0  0  0  0  0  0  0  0  0  0  0
   11.1706    3.2631  -61.2309 H   0  0  0  0  0  0  0  0  0  0  0  0
    9.1953    2.0092  -62.0995 H   0  0  0  0  0  0  0  0  0  0  0  0
    6.8873    2.7560  -61.5155 H   0  0  0  0  0  0  0  0  0  0  0  0
    6.5560    4.7524  -60.0551 H   0  0  0  0  0  0  0  0  0  0  0  0
   10.3775    4.0355  -55.5629 H   0  0  0  0  0  0  0  0  0  0  0  0
    9.8722    5.6440  -56.2350 H   0  0  0  0  0  0  0  0  0  0  0  0
    8.0232    4.0030  -56.2550 H   0  0  0  0  0  0  0  0  0  0  0  0
    8.5166    4.5435  -57.9207 H   0  0  0  0  0  0  0  0  0  0  0  0
    7.0188   -0.0179  -59.1927 H   0  0  0  0  0  0  0  0  0  0  0  0
    5.4902    0.5996  -61.0671 H   0  0  0  0  0  0  0  0  0  0  0  0
    3.1480    3.2170  -60.7690 H   0  0  0  0  0  0  0  0  0  0  0  0
    3.5563    3.5321  -58.5503 H   0  0  0  0  0  0  0  0  0  0  0  0
  1  2  1  0
  2  3  1  0
  3  4  1  0
  4  5  2  0
  4  6  1  0
  7  6  1  6
  7  8  1  0
  8  9  1  0
  9 10  1  0
 10 11  1  0
 11 12  1  0
 12 13  1  0
 13 14  1  0
 13 15  1  0
 11 16  1  0
  3 17  2  0
 17 18  1  0
 18 19  1  0
 19 20  1  0
 20 21  1  0
 21 22  1  0
 22 23  1  0
 23 24  1  0
 24 25  2  0
 24 26  1  0
 26 27  2  0
 27 28  1  0
 28 29  2  0
 29 30  1  0
 30 31  2  0
 31 32  1  0
 22 33  1  0
 33 34  1  0
 18 35  1  0
 35 36  1  0
 36 37  1  0
 37 38  2  0
 38 39  1  0
 39 40  1  0
 39 41  2  0
 41 42  1  0
 42 43  1  0
 35  2  2  0
 42 36  2  0
 15  7  1  0
 34 19  1  0
 16  7  1  0
 31 26  1  0
 14  9  1  0
  1 44  1  0
  1 45  1  0
  1 46  1  0
  6 47  1  0
  8 48  1  0
  8 49  1  0
  9 50  1  6
 10 51  1  0
 10 52  1  0
 11 53  1  1
 12 54  1  0
 12 55  1  0
 13 56  1  1
 14 57  1  0
 14 58  1  0
 15 59  1  0
 15 60  1  0
 16 61  1  0
 16 62  1  0
 17 63  1  0
 19 64  1  1
 20 65  1  0
 20 66  1  0
 21 67  1  0
 21 68  1  0
 22 69  1  6
 27 70  1  0
 28 71  1  0
 29 72  1  0
 30 73  1  0
 33 74  1  0
 33 75  1  0
 34 76  1  0
 34 77  1  0
 37 78  1  0
 38 79  1  0
 40 80  1  0
 41 81  1  0
M  END
>  <meeko>  (25) 
{"is_sidechain": false}

$$$$

     RDKit          3D

 67 72  0  0  0  0  0  0  0  0999 V2000
    5.9420    0.2490  -53.7670 C   0  0  0  0  0  0  0  0  0  0  0  0
    7.2850   -0.2090  -54.2390 C   0  0  0  0  0  0  0  0  0  0  0  0
    8.0960    0.3950  -55.2560 C   0  0  0  0  0  0  0  0  0  0  0  0
    7.8810    1.5460  -56.1420 C   0  0  0  0  0  0  0  0  0  0  0  0
    6.8130    2.1490  -56.1340 O   0  0  0  0  0  0  0  0  0  0  0  0
    8.9660    1.9050  -56.9050 N   0  0  0  0  0  0  0  0  0  0  0  0
    9.0130    3.0620  -57.8060 C   0  0  2  0  0  0  0  0  0  0  0  0
   10.3870    3.0590  -58.5300 C   0  0  0  0  0  0  0  0  0  0  0  0
   10.5080    4.2530  -59.4900 C   0  0  1  0  0  0  0  0  0  0  0  0
    9.3910    4.1690  -60.5410 C   0  0  0  0  0  0  0  0  0  0  0  0
    8.0190    4.1940  -59.8500 C   0  0  2  0  0  0  0  0  0  0  0  0
    7.8790    5.4990  -59.0460 C   0  0  0  0  0  0  0  0  0  0  0  0
    8.9930    5.5930  -57.9890 C   0  0  2  0  0  0  0  0  0  0  0  0
   10.3600    5.5580  -58.6910 C   0  0  0  0  0  0  0  0  0  0  0  0
    8.8830    4.3950  -57.0300 C   0  0  0  0  0  0  0  0  0  0  0  0
    7.9090    2.9960  -58.8920 C   0  0  0  0  0  0  0  0  0  0  0  0
    9.2840   -0.3140  -55.2650 C   0  0  0  0  0  0  0  0  0  0  0  0
    9.2320   -1.3240  -54.3500 N   0  0  0  0  0  0  0  0  0  0  0  0
   10.3230   -2.2650  -54.0680 C   0  0  0  0  0  0  0  0  0  0  0  0
    9.9550   -3.7420  -54.2960 C   0  0  0  0  0  0  0  0  0  0  0  0
   10.1400   -4.2340  -55.7220 C   0  0  0  0  0  0  0  0  0  0  0  0
   11.4730   -3.8200  -56.2430 N   0  0  0  0  0  0  0  0  0  0  0  0
   11.7240   -2.3500  -56.2000 C   0  0  0  0  0  0  0  0  0  0  0  0
   11.6310   -1.8670  -54.7650 C   0  0  0  0  0  0  0  0  0  0  0  0
    7.9990   -1.2920  -53.7200 C   0  0  0  0  0  0  0  0  0  0  0  0
    7.5690   -2.2300  -52.6750 C   0  0  0  0  0  0  0  0  0  0  0  0
    8.1190   -2.1330  -51.3890 C   0  0  0  0  0  0  0  0  0  0  0  0
    7.7340   -3.0330  -50.3920 C   0  0  0  0  0  0  0  0  0  0  0  0
    6.8060   -4.0290  -50.6830 C   0  0  0  0  0  0  0  0  0  0  0  0
    6.4380   -4.8840  -49.7220 F   0  0  0  0  0  0  0  0  0  0  0  0
    6.2530   -4.1460  -51.9500 C   0  0  0  0  0  0  0  0  0  0  0  0
    6.6400   -3.2480  -52.9380 C   0  0  0  0  0  0  0  0  0  0  0  0
    6.0870   -3.3580  -54.1550 F   0  0  0  0  0  0  0  0  0  0  0  0
    5.9225    0.2556  -52.6672 H   0  0  0  0  0  0  0  0  0  0  0  0
    5.7477    1.2642  -54.1433 H   0  0  0  0  0  0  0  0  0  0  0  0
    5.1679   -0.4359  -54.1433 H   0  0  0  0  0  0  0  0  0  0  0  0
    9.8520    1.4980  -56.6460 H   0  0  0  0  0  0  0  0  0  0  0  0
   11.1889    3.1186  -57.7794 H   0  0  0  0  0  0  0  0  0  0  0  0
   10.4727    2.1307  -59.1138 H   0  0  0  0  0  0  0  0  0  0  0  0
   11.4878    4.2342  -59.9897 H   0  0  0  0  0  0  0  0  0  0  0  0
    9.4698    5.0259  -61.2262 H   0  0  0  0  0  0  0  0  0  0  0  0
    9.4949    3.2305  -61.1053 H   0  0  0  0  0  0  0  0  0  0  0  0
    7.2234    4.1367  -60.6075 H   0  0  0  0  0  0  0  0  0  0  0  0
    7.9536    6.3572  -59.7301 H   0  0  0  0  0  0  0  0  0  0  0  0
    6.9022    5.5063  -58.5402 H   0  0  0  0  0  0  0  0  0  0  0  0
    8.8911    6.5308  -57.4232 H   0  0  0  0  0  0  0  0  0  0  0  0
   10.4399    6.4153  -59.3756 H   0  0  0  0  0  0  0  0  0  0  0  0
   11.1561    5.6097  -57.9336 H   0  0  0  0  0  0  0  0  0  0  0  0
    9.6860    4.4569  -56.2807 H   0  0  0  0  0  0  0  0  0  0  0  0
    7.8998    4.4242  -56.5376 H   0  0  0  0  0  0  0  0  0  0  0  0
    6.9224    3.0114  -58.4058 H   0  0  0  0  0  0  0  0  0  0  0  0
    8.0346    2.0680  -59.4691 H   0  0  0  0  0  0  0  0  0  0  0  0
   10.1442   -0.0952  -55.9148 H   0  0  0  0  0  0  0  0  0  0  0  0
   10.5001   -2.1842  -52.9854 H   0  0  0  0  0  0  0  0  0  0  0  0
   10.5860   -4.3571  -53.6376 H   0  0  0  0  0  0  0  0  0  0  0  0
    8.8809   -3.8302  -54.0758 H   0  0  0  0  0  0  0  0  0  0  0  0
   10.0685   -5.3315  -55.7393 H   0  0  0  0  0  0  0  0  0  0  0  0
    9.3558   -3.7952  -56.3565 H   0  0  0  0  0  0  0  0  0  0  0  0
   12.2220   -4.3180  -55.7380 H   0  0  0  0  0  0  0  0  0  0  0  0
   11.5550   -4.1340  -57.2210 H   0  0  0  0  0  0  0  0  0  0  0  0
   12.7283   -2.1371  -56.5950 H   0  0  0  0  0  0  0  0  0  0  0  0
   10.9732   -1.8300  -56.8131 H   0  0  0  0  0  0  0  0  0  0  0  0
   12.4713   -2.2948  -54.1986 H   0  0  0  0  0  0  0  0  0  0  0  0
   11.6618   -0.7677  -54.7913 H   0  0  0  0  0  0  0  0  0  0  0  0
    8.8550   -1.3469  -51.1645 H   0  0  0  0  0  0  0  0  0  0  0  0
    8.1622   -2.9549  -49.3818 H   0  0  0  0  0  0  0  0  0  0  0  0
    5.5202   -4.9365  -52.1692 H   0  0  0  0  0  0  0  0  0  0  0  0
  1  2  1  0
  2  3  1  0
  3  4  1  0
  4  5  2  0
  4  6  1  0
  7  6  1  1
  7  8  1  0
  8  9  1  0
  9 10  1  0
 10 11  1  0
 11 12  1  0
 12 13  1  0
 13 14  1  0
 13 15  1  0
 11 16  1  0
  3 17  2  0
 17 18  1  0
 18 19  1  0
 19 20  1  0
 20 21  1  0
 21 22  1  0
 22 23  1  0
 23 24  1  0
 18 25  1  0
 25 26  1  0
 26 27  1  0
 27 28  2  0
 28 29  1  0
 29 30  1  0
 29 31  2  0
 31 32  1  0
 32 33  1  0
 25  2  2  0
 32 26  2  0
 15  7  1  0
 24 19  1  0
 16  7  1  0
 14  9  1  0
  1 34  1  0
  1 35  1  0
  1 36  1  0
  6 37  1  0
  8 38  1  0
  8 39  1  0
  9 40  1  6
 10 41  1  0
 10 42  1  0
 11 43  1  6
 12 44  1  0
 12 45  1  0
 13 46  1  1
 14 47  1  0
 14 48  1  0
 15 49  1  0
 15 50  1  0
 16 51  1  0
 16 52  1  0
 17 53  1  0
 19 54  1  0
 20 55  1  0
 20 56  1  0
 21 57  1  0
 21 58  1  0
 22 59  1  0
 22 60  1  0
 23 61  1  0
 23 62  1  0
 24 63  1  0
 24 64  1  0
 27 65  1  0
 28 66  1  0
 31 67  1  0
M  CHG  1  22   1
M  END
>  <meeko>  (26) 
{"is_sidechain": false}

$$$$

     RDKit          3D

 58 63  0  0  0  0  0  0  0  0999 V2000
    8.9610    0.1840  -53.2990 O   0  0  0  0  0  0  0  0  0  0  0  0
    8.0420   -0.1780  -54.0260 C   0  0  0  0  0  0  0  0  0  0  0  0
    7.2310   -1.2610  -53.7610 N   0  0  0  0  0  0  0  0  0  0  0  0
    7.3850   -2.1620  -52.6150 C   0  0  2  0  0  0  0  0  0  0  0  0
    8.6880   -2.9930  -52.7140 C   0  0  0  0  0  0  0  0  0  0  0  0
    8.7980   -3.9710  -51.5310 C   0  0  1  0  0  0  0  0  0  0  0  0
    8.7920   -3.1740  -50.2140 C   0  0  0  0  0  0  0  0  0  0  0  0
    7.4850   -2.3730  -50.0850 C   0  0  2  0  0  0  0  0  0  0  0  0
    6.2920   -3.3410  -50.1120 C   0  0  0  0  0  0  0  0  0  0  0  0
    6.2880   -4.1320  -51.4290 C   0  0  2  0  0  0  0  0  0  0  0  0
    7.5970   -4.9280  -51.5490 C   0  0  0  0  0  0  0  0  0  0  0  0
    6.1860   -3.1490  -52.6060 C   0  0  0  0  0  0  0  0  0  0  0  0
    7.3730   -1.3940  -51.2680 C   0  0  0  0  0  0  0  0  0  0  0  0
    7.7370    0.5150  -55.2770 C   0  0  0  0  0  0  0  0  0  0  0  0
    6.5960    0.4520  -56.1170 C   0  0  0  0  0  0  0  0  0  0  0  0
    6.7630    1.3260  -57.1830 C   0  0  0  0  0  0  0  0  0  0  0  0
    5.7380    1.6950  -58.1680 C   0  0  0  0  0  0  0  0  0  0  0  0
    4.6590    2.5150  -57.8030 C   0  0  0  0  0  0  0  0  0  0  0  0
    3.6790    2.8490  -58.7410 C   0  0  0  0  0  0  0  0  0  0  0  0
    3.7680    2.3540  -60.0370 C   0  0  0  0  0  0  0  0  0  0  0  0
    2.8240    2.6760  -60.9300 F   0  0  0  0  0  0  0  0  0  0  0  0
    4.8140    1.5250  -60.4180 C   0  0  0  0  0  0  0  0  0  0  0  0
    5.7880    1.1970  -59.4810 C   0  0  0  0  0  0  0  0  0  0  0  0
    6.7880    0.3860  -59.8610 F   0  0  0  0  0  0  0  0  0  0  0  0
    8.0440    1.8710  -57.0730 N   0  0  0  0  0  0  0  0  0  0  0  0
    8.7340    2.7310  -57.9780 C   0  0  0  0  0  0  0  0  0  0  0  0
    9.3240    2.1900  -59.1350 C   0  0  0  0  0  0  0  0  0  0  0  0
   10.0090    3.0200  -60.0260 C   0  0  0  0  0  0  0  0  0  0  0  0
   10.0920    4.3840  -59.7730 C   0  0  0  0  0  0  0  0  0  0  0  0
   10.7480    5.1740  -60.6320 F   0  0  0  0  0  0  0  0  0  0  0  0
    9.4950    4.9390  -58.6520 C   0  0  0  0  0  0  0  0  0  0  0  0
    8.8120    4.1130  -57.7630 C   0  0  0  0  0  0  0  0  0  0  0  0
    8.1680    4.7050  -56.7480 F   0  0  0  0  0  0  0  0  0  0  0  0
    8.5770    1.4380  -55.8730 C   0  0  0  0  0  0  0  0  0  0  0  0
    6.6290   -1.5710  -54.5090 H   0  0  0  0  0  0  0  0  0  0  0  0
    8.6827   -3.5629  -53.6549 H   0  0  0  0  0  0  0  0  0  0  0  0
    9.5482   -2.3079  -52.6889 H   0  0  0  0  0  0  0  0  0  0  0  0
    9.7310   -4.5479  -51.6127 H   0  0  0  0  0  0  0  0  0  0  0  0
    8.8765   -3.8708  -49.3670 H   0  0  0  0  0  0  0  0  0  0  0  0
    9.6426   -2.4765  -50.2121 H   0  0  0  0  0  0  0  0  0  0  0  0
    7.4845   -1.8127  -49.1384 H   0  0  0  0  0  0  0  0  0  0  0  0
    6.3712   -4.0407  -49.2669 H   0  0  0  0  0  0  0  0  0  0  0  0
    5.3578   -2.7656  -50.0331 H   0  0  0  0  0  0  0  0  0  0  0  0
    5.4323   -4.8231  -51.4435 H   0  0  0  0  0  0  0  0  0  0  0  0
    7.6764   -5.6279  -50.7041 H   0  0  0  0  0  0  0  0  0  0  0  0
    7.5944   -5.4859  -52.4970 H   0  0  0  0  0  0  0  0  0  0  0  0
    6.1804   -3.7162  -53.5485 H   0  0  0  0  0  0  0  0  0  0  0  0
    5.2571   -2.5697  -52.4982 H   0  0  0  0  0  0  0  0  0  0  0  0
    6.4329   -0.8293  -51.1822 H   0  0  0  0  0  0  0  0  0  0  0  0
    8.2326   -0.7080  -51.2432 H   0  0  0  0  0  0  0  0  0  0  0  0
    5.7172   -0.1883  -55.9503 H   0  0  0  0  0  0  0  0  0  0  0  0
    4.5846    2.8964  -56.7739 H   0  0  0  0  0  0  0  0  0  0  0  0
    2.8404    3.5010  -58.4552 H   0  0  0  0  0  0  0  0  0  0  0  0
    4.8717    1.1338  -61.4445 H   0  0  0  0  0  0  0  0  0  0  0  0
    9.2459    1.1118  -59.3384 H   0  0  0  0  0  0  0  0  0  0  0  0
   10.4809    2.5954  -60.9244 H   0  0  0  0  0  0  0  0  0  0  0  0
    9.5601    6.0213  -58.4664 H   0  0  0  0  0  0  0  0  0  0  0  0
    9.5341    1.7794  -55.4518 H   0  0  0  0  0  0  0  0  0  0  0  0
  1  2  2  0
  2  3  1  0
  4  3  1  6
  4  5  1  0
  5  6  1  0
  6  7  1  0
  7  8  1  0
  8  9  1  0
  9 10  1  0
 10 11  1  0
 10 12  1  0
  8 13  1  0
  2 14  1  0
 14 15  1  0
 15 16  2  0
 16 17  1  0
 17 18  1  0
 18 19  2  0
 19 20  1  0
 20 21  1  0
 20 22  2  0
 22 23  1  0
 23 24  1  0
 16 25  1  0
 25 26  1  0
 26 27  1  0
 27 28  2  0
 28 29  1  0
 29 30  1  0
 29 31  2  0
 31 32  1  0
 32 33  1  0
 25 34  1  0
 12  4  1  0
 34 14  2  0
 13  4  1  0
 23 17  2  0
 32 26  2  0
 11  6  1  0
  3 35  1  0
  5 36  1  0
  5 37  1  0
  6 38  1  6
  7 39  1  0
  7 40  1  0
  8 41  1  1
  9 42  1  0
  9 43  1  0
 10 44  1  1
 11 45  1  0
 11 46  1  0
 12 47  1  0
 12 48  1  0
 13 49  1  0
 13 50  1  0
 15 51  1  0
 18 52  1  0
 19 53  1  0
 22 54  1  0
 27 55  1  0
 28 56  1  0
 31 57  1  0
 34 58  1  0
M  END
>  <meeko>  (27) 
{"is_sidechain": false}

$$$$

     RDKit          3D

 53 55  0  0  0  0  0  0  0  0999 V2000
    9.6040   -2.7810  -52.6380 C   0  0  0  0  0  0  0  0  0  0  0  0
   10.3370   -1.5140  -53.0490 C   0  0  0  0  0  0  0  0  0  0  0  0
    9.8080   -0.8980  -54.2640 N   0  0  0  0  0  0  0  0  0  0  0  0
   10.0850   -1.5530  -55.5460 C   0  0  0  0  0  0  0  0  0  0  0  0
   11.4950   -1.3070  -56.0610 C   0  0  0  0  0  0  0  0  0  0  0  0
    8.8850    0.1460  -54.1040 C   0  0  0  0  0  0  0  0  0  0  0  0
    8.4890    0.5120  -52.9980 O   0  0  0  0  0  0  0  0  0  0  0  0
    8.3940    0.8040  -55.3110 C   0  0  0  0  0  0  0  0  0  0  0  0
    9.1670    1.6000  -56.1310 C   0  0  0  0  0  0  0  0  0  0  0  0
    8.3980    2.0410  -57.1800 N   0  0  0  0  0  0  0  0  0  0  0  0
    8.8910    2.9270  -58.2380 C   0  0  2  0  0  0  0  0  0  0  0  0
   10.0780    2.3170  -59.0030 C   0  0  0  0  0  0  0  0  0  0  0  0
   11.0480    3.3780  -59.5260 C   0  0  0  0  0  0  0  0  0  0  0  0
   10.3190    4.6700  -59.8380 C   0  0  0  0  0  0  0  0  0  0  0  0
   11.1920    5.6080  -60.2720 F   0  0  0  0  0  0  0  0  0  0  0  0
    9.4530    4.4400  -60.8620 F   0  0  0  0  0  0  0  0  0  0  0  0
    9.5360    5.1830  -58.6280 C   0  0  0  0  0  0  0  0  0  0  0  0
    9.2790    4.1740  -57.6370 O   0  0  0  0  0  0  0  0  0  0  0  0
    7.1230    1.5160  -57.0670 C   0  0  0  0  0  0  0  0  0  0  0  0
    6.0340    1.7750  -58.0120 C   0  0  0  0  0  0  0  0  0  0  0  0
    4.8900    2.4570  -57.5780 C   0  0  0  0  0  0  0  0  0  0  0  0
    3.8390    2.7010  -58.4660 C   0  0  0  0  0  0  0  0  0  0  0  0
    3.9340    2.2580  -59.7820 C   0  0  0  0  0  0  0  0  0  0  0  0
    2.9230    2.4950  -60.6280 F   0  0  0  0  0  0  0  0  0  0  0  0
    5.0560    1.5780  -60.2320 C   0  0  0  0  0  0  0  0  0  0  0  0
    6.0980    1.3390  -59.3420 C   0  0  0  0  0  0  0  0  0  0  0  0
    7.1810    0.6850  -59.7880 F   0  0  0  0  0  0  0  0  0  0  0  0
    7.1010    0.7180  -55.9240 C   0  0  0  0  0  0  0  0  0  0  0  0
    5.9520   -0.0960  -55.4340 C   0  0  0  0  0  0  0  0  0  0  0  0
    9.5676   -2.8439  -51.5404 H   0  0  0  0  0  0  0  0  0  0  0  0
    8.5796   -2.7581  -53.0381 H   0  0  0  0  0  0  0  0  0  0  0  0
   10.1344   -3.6577  -53.0381 H   0  0  0  0  0  0  0  0  0  0  0  0
   10.2593   -0.7859  -52.2282 H   0  0  0  0  0  0  0  0  0  0  0  0
   11.3784   -1.7987  -53.2598 H   0  0  0  0  0  0  0  0  0  0  0  0
    9.9442   -2.6367  -55.4209 H   0  0  0  0  0  0  0  0  0  0  0  0
    9.3915   -1.1247  -56.2846 H   0  0  0  0  0  0  0  0  0  0  0  0
   12.1808   -1.1874  -55.2093 H   0  0  0  0  0  0  0  0  0  0  0  0
   11.8163   -2.1627  -56.6731 H   0  0  0  0  0  0  0  0  0  0  0  0
   11.5076   -0.3931  -56.6731 H   0  0  0  0  0  0  0  0  0  0  0  0
   10.2279    1.8423  -55.9705 H   0  0  0  0  0  0  0  0  0  0  0  0
    8.0859    3.0797  -58.9718 H   0  0  0  0  0  0  0  0  0  0  0  0
   10.6242    1.6430  -58.3267 H   0  0  0  0  0  0  0  0  0  0  0  0
    9.6729    1.7782  -59.8723 H   0  0  0  0  0  0  0  0  0  0  0  0
   11.8151    3.5727  -58.7620 H   0  0  0  0  0  0  0  0  0  0  0  0
   11.5128    3.0044  -60.4504 H   0  0  0  0  0  0  0  0  0  0  0  0
   10.1138    5.9924  -58.1580 H   0  0  0  0  0  0  0  0  0  0  0  0
    8.5589    5.5261  -58.9989 H   0  0  0  0  0  0  0  0  0  0  0  0
    4.8188    2.8013  -56.5357 H   0  0  0  0  0  0  0  0  0  0  0  0
    2.9420    3.2399  -58.1270 H   0  0  0  0  0  0  0  0  0  0  0  0
    5.1207    1.2336  -61.2747 H   0  0  0  0  0  0  0  0  0  0  0  0
    5.9476   -0.0992  -54.3340 H   0  0  0  0  0  0  0  0  0  0  0  0
    5.0112    0.3382  -55.8032 H   0  0  0  0  0  0  0  0  0  0  0  0
    6.0496   -1.1276  -55.8032 H   0  0  0  0  0  0  0  0  0  0  0  0
  1  2  1  0
  2  3  1  0
  3  4  1  0
  4  5  1  0
  3  6  1  0
  6  7  2  0
  6  8  1  0
  8  9  2  0
  9 10  1  0
 10 11  1  0
 11 12  1  0
 12 13  1  0
 13 14  1  0
 14 15  1  0
 14 16  1  0
 14 17  1  0
 17 18  1  0
 10 19  1  0
 19 20  1  0
 20 21  1  0
 21 22  2  0
 22 23  1  0
 23 24  1  0
 23 25  2  0
 25 26  1  0
 26 27  1  0
 19 28  2  0
 28 29  1  0
 28  8  1  0
 18 11  1  0
 26 20  2  0
  1 30  1  0
  1 31  1  0
  1 32  1  0
  2 33  1  0
  2 34  1  0
  4 35  1  0
  4 36  1  0
  5 37  1  0
  5 38  1  0
  5 39  1  0
  9 40  1  0
 11 41  1  6
 12 42  1  0
 12 43  1  0
 13 44  1  0
 13 45  1  0
 17 46  1  0
 17 47  1  0
 21 48  1  0
 22 49  1  0
 25 50  1  0
 29 51  1  0
 29 52  1  0
 29 53  1  0
M  END
>  <meeko>  (28) 
{"is_sidechain": false}

$$$$

     RDKit          3D

 53 55  0  0  0  0  0  0  0  0999 V2000
   11.5320   -1.2970  -55.7030 C   0  0  0  0  0  0  0  0  0  0  0  0
   10.0840   -1.6800  -55.4380 C   0  0  0  0  0  0  0  0  0  0  0  0
    9.5940   -1.1220  -54.1760 N   0  0  0  0  0  0  0  0  0  0  0  0
   10.0060   -1.8020  -52.9490 C   0  0  0  0  0  0  0  0  0  0  0  0
    8.9910   -2.8530  -52.5330 C   0  0  0  0  0  0  0  0  0  0  0  0
    8.9140    0.0960  -54.0490 C   0  0  0  0  0  0  0  0  0  0  0  0
    8.7010    0.6150  -52.9560 O   0  0  0  0  0  0  0  0  0  0  0  0
    8.4750    0.7700  -55.2710 C   0  0  0  0  0  0  0  0  0  0  0  0
    9.2670    1.5320  -56.1070 C   0  0  0  0  0  0  0  0  0  0  0  0
    8.5130    1.9520  -57.1760 N   0  0  0  0  0  0  0  0  0  0  0  0
    9.0240    2.7900  -58.2650 C   0  0  1  0  0  0  0  0  0  0  0  0
    8.4390    4.2110  -58.2250 C   0  0  0  0  0  0  0  0  0  0  0  0
    9.4060    5.2610  -58.7750 C   0  0  0  0  0  0  0  0  0  0  0  0
   10.2990    4.6670  -59.8460 C   0  0  0  0  0  0  0  0  0  0  0  0
    9.5220    4.3060  -60.9030 F   0  0  0  0  0  0  0  0  0  0  0  0
   11.1680    5.5980  -60.3000 F   0  0  0  0  0  0  0  0  0  0  0  0
   11.0490    3.4350  -59.3340 C   0  0  0  0  0  0  0  0  0  0  0  0
   10.4570    2.8510  -58.1610 O   0  0  0  0  0  0  0  0  0  0  0  0
    7.2300    1.4470  -57.0590 C   0  0  0  0  0  0  0  0  0  0  0  0
    6.1660    1.6620  -58.0410 C   0  0  0  0  0  0  0  0  0  0  0  0
    6.2450    1.0420  -59.2960 C   0  0  0  0  0  0  0  0  0  0  0  0
    5.2300    1.2320  -60.2370 C   0  0  0  0  0  0  0  0  0  0  0  0
    4.1400    2.0370  -59.9200 C   0  0  0  0  0  0  0  0  0  0  0  0
    3.1710    2.2160  -60.8260 F   0  0  0  0  0  0  0  0  0  0  0  0
    4.0400    2.6570  -58.6830 C   0  0  0  0  0  0  0  0  0  0  0  0
    5.0530    2.4620  -57.7510 C   0  0  0  0  0  0  0  0  0  0  0  0
    4.9500    3.0690  -56.5570 F   0  0  0  0  0  0  0  0  0  0  0  0
    7.1860    0.6910  -55.8910 C   0  0  0  0  0  0  0  0  0  0  0  0
    6.0210   -0.0750  -55.3610 C   0  0  0  0  0  0  0  0  0  0  0  0
   12.0557   -1.1585  -54.7456 H   0  0  0  0  0  0  0  0  0  0  0  0
   12.0234   -2.0961  -56.2775 H   0  0  0  0  0  0  0  0  0  0  0  0
   11.5641   -0.3595  -56.2775 H   0  0  0  0  0  0  0  0  0  0  0  0
    9.4596   -1.3012  -56.2606 H   0  0  0  0  0  0  0  0  0  0  0  0
   10.0282   -2.7765  -55.3705 H   0  0  0  0  0  0  0  0  0  0  0  0
   10.9775   -2.2893  -53.1183 H   0  0  0  0  0  0  0  0  0  0  0  0
   10.0805   -1.0541  -52.1458 H   0  0  0  0  0  0  0  0  0  0  0  0
    8.9433   -2.9024  -51.4351 H   0  0  0  0  0  0  0  0  0  0  0  0
    8.0013   -2.5849  -52.9313 H   0  0  0  0  0  0  0  0  0  0  0  0
    9.2934   -3.8327  -52.9313 H   0  0  0  0  0  0  0  0  0  0  0  0
   10.3295    1.7650  -55.9436 H   0  0  0  0  0  0  0  0  0  0  0  0
    8.7199    2.3405  -59.2218 H   0  0  0  0  0  0  0  0  0  0  0  0
    7.5185    4.2301  -58.8270 H   0  0  0  0  0  0  0  0  0  0  0  0
    8.2405    4.4600  -57.1721 H   0  0  0  0  0  0  0  0  0  0  0  0
    8.8281    6.0910  -59.2077 H   0  0  0  0  0  0  0  0  0  0  0  0
   10.0388    5.6215  -57.9506 H   0  0  0  0  0  0  0  0  0  0  0  0
   11.0611    2.6779  -60.1319 H   0  0  0  0  0  0  0  0  0  0  0  0
   12.0613    3.7640  -59.0566 H   0  0  0  0  0  0  0  0  0  0  0  0
    7.1077    0.4048  -59.5402 H   0  0  0  0  0  0  0  0  0  0  0  0
    5.2921    0.7480  -61.2229 H   0  0  0  0  0  0  0  0  0  0  0  0
    3.1742    3.2919  -58.4437 H   0  0  0  0  0  0  0  0  0  0  0  0
    6.0425   -0.0608  -54.2613 H   0  0  0  0  0  0  0  0  0  0  0  0
    5.0872    0.3859  -55.7154 H   0  0  0  0  0  0  0  0  0  0  0  0
    6.0741   -1.1150  -55.7154 H   0  0  0  0  0  0  0  0  0  0  0  0
  1  2  1  0
  2  3  1  0
  3  4  1  0
  4  5  1  0
  3  6  1  0
  6  7  2  0
  6  8  1  0
  8  9  2  0
  9 10  1  0
 10 11  1  0
 11 12  1  0
 12 13  1  0
 13 14  1  0
 14 15  1  0
 14 16  1  0
 14 17  1  0
 17 18  1  0
 10 19  1  0
 19 20  1  0
 20 21  1  0
 21 22  2  0
 22 23  1  0
 23 24  1  0
 23 25  2  0
 25 26  1  0
 26 27  1  0
 19 28  2  0
 28 29  1  0
 28  8  1  0
 18 11  1  0
 26 20  2  0
  1 30  1  0
  1 31  1  0
  1 32  1  0
  2 33  1  0
  2 34  1  0
  4 35  1  0
  4 36  1  0
  5 37  1  0
  5 38  1  0
  5 39  1  0
  9 40  1  0
 11 41  1  6
 12 42  1  0
 12 43  1  0
 13 44  1  0
 13 45  1  0
 17 46  1  0
 17 47  1  0
 21 48  1  0
 22 49  1  0
 25 50  1  0
 29 51  1  0
 29 52  1  0
 29 53  1  0
M  END
>  <meeko>  (29) 
{"is_sidechain": false}

$$$$

     RDKit          3D

 66 69  0  0  0  0  0  0  0  0999 V2000
    9.8580    1.4210  -56.1150 C   0  0  0  0  0  0  0  0  0  0  0  0
    8.4960    1.7470  -56.6340 C   0  0  0  0  0  0  0  0  0  0  0  0
    7.2650    1.1510  -56.1820 C   0  0  0  0  0  0  0  0  0  0  0  0
    7.1130    0.1230  -55.1430 C   0  0  0  0  0  0  0  0  0  0  0  0
    6.0350   -0.4090  -54.8970 O   0  0  0  0  0  0  0  0  0  0  0  0
    8.2650   -0.2100  -54.4770 N   0  0  0  0  0  0  0  0  0  0  0  0
    8.3120   -1.2280  -53.4730 C   0  0  1  0  0  0  0  0  0  0  0  0
    7.3120   -0.8440  -52.5370 O   0  0  0  0  0  0  0  0  0  0  0  0
    7.3890   -1.5970  -51.3240 C   0  0  0  0  0  0  0  0  0  0  0  0
    7.7050   -3.0890  -51.5560 C   0  0  1  0  0  0  0  0  0  0  0  0
    7.1600   -3.9850  -50.4140 C   0  0  0  0  0  0  0  0  0  0  0  0
    7.7990   -5.3780  -50.4480 C   0  0  0  0  0  0  0  0  0  0  0  0
    5.6360   -4.1300  -50.4110 C   0  0  0  0  0  0  0  0  0  0  0  0
    7.2580   -3.4900  -52.9680 C   0  0  0  0  0  0  0  0  0  0  0  0
    7.9590   -2.6220  -54.0360 C   0  0  2  0  0  0  0  0  0  0  0  0
    9.1950   -3.3310  -54.5940 C   0  0  0  0  0  0  0  0  0  0  0  0
    6.2610    1.7370  -56.9350 C   0  0  0  0  0  0  0  0  0  0  0  0
    6.8210    2.6370  -57.8090 N   0  0  0  0  0  0  0  0  0  0  0  0
    6.0430    3.4480  -58.7490 C   0  0  0  0  0  0  0  0  0  0  0  0
    5.1370    2.6260  -59.6280 C   0  0  0  0  0  0  0  0  0  0  0  0
    3.7440    2.6060  -59.4490 C   0  0  0  0  0  0  0  0  0  0  0  0
    2.9380    1.8350  -60.2900 C   0  0  0  0  0  0  0  0  0  0  0  0
    3.5180    1.0950  -61.3140 C   0  0  0  0  0  0  0  0  0  0  0  0
    2.7390    0.3580  -62.1170 F   0  0  0  0  0  0  0  0  0  0  0  0
    4.8890    1.1120  -61.5210 C   0  0  0  0  0  0  0  0  0  0  0  0
    5.6850    1.8800  -60.6800 C   0  0  0  0  0  0  0  0  0  0  0  0
    7.0090    1.8980  -60.8890 F   0  0  0  0  0  0  0  0  0  0  0  0
    8.1880    2.6710  -57.6290 C   0  0  0  0  0  0  0  0  0  0  0  0
    9.0880    3.5250  -58.4050 C   0  0  0  0  0  0  0  0  0  0  0  0
    9.6240    3.0620  -59.6120 C   0  0  0  0  0  0  0  0  0  0  0  0
   10.4910    3.8730  -60.3480 C   0  0  0  0  0  0  0  0  0  0  0  0
   10.8140    5.1420  -59.8770 C   0  0  0  0  0  0  0  0  0  0  0  0
   11.6480    5.9140  -60.5860 F   0  0  0  0  0  0  0  0  0  0  0  0
   10.2860    5.6230  -58.6880 C   0  0  0  0  0  0  0  0  0  0  0  0
    9.4220    4.8120  -57.9600 C   0  0  0  0  0  0  0  0  0  0  0  0
    8.9220    5.2840  -56.8080 F   0  0  0  0  0  0  0  0  0  0  0  0
    9.8419    1.4249  -55.0151 H   0  0  0  0  0  0  0  0  0  0  0  0
   10.1585    0.4255  -56.4738 H   0  0  0  0  0  0  0  0  0  0  0  0
   10.5767    2.1725  -56.4738 H   0  0  0  0  0  0  0  0  0  0  0  0
    9.1560    0.1430  -54.7810 H   0  0  0  0  0  0  0  0  0  0  0  0
    9.3221   -1.3106  -53.0453 H   0  0  0  0  0  0  0  0  0  0  0  0
    8.1807   -1.1655  -50.6939 H   0  0  0  0  0  0  0  0  0  0  0  0
    6.4021   -1.5423  -50.8412 H   0  0  0  0  0  0  0  0  0  0  0  0
    8.7919   -3.2530  -51.5133 H   0  0  0  0  0  0  0  0  0  0  0  0
    7.4384   -3.4634  -49.4864 H   0  0  0  0  0  0  0  0  0  0  0  0
    7.9614   -5.7321  -49.4193 H   0  0  0  0  0  0  0  0  0  0  0  0
    7.1307   -6.0752  -50.9746 H   0  0  0  0  0  0  0  0  0  0  0  0
    8.7634   -5.3263  -50.9746 H   0  0  0  0  0  0  0  0  0  0  0  0
    5.2730   -4.1645  -49.3732 H   0  0  0  0  0  0  0  0  0  0  0  0
    5.1849   -3.2707  -50.9288 H   0  0  0  0  0  0  0  0  0  0  0  0
    5.3550   -5.0589  -50.9288 H   0  0  0  0  0  0  0  0  0  0  0  0
    7.5117   -4.5465  -53.1395 H   0  0  0  0  0  0  0  0  0  0  0  0
    6.1717   -3.3373  -53.0491 H   0  0  0  0  0  0  0  0  0  0  0  0
    7.2568   -2.4741  -54.8697 H   0  0  0  0  0  0  0  0  0  0  0  0
    9.8192   -3.6890  -53.7620 H   0  0  0  0  0  0  0  0  0  0  0  0
    8.8802   -4.1859  -55.2105 H   0  0  0  0  0  0  0  0  0  0  0  0
    9.7740   -2.6277  -55.2105 H   0  0  0  0  0  0  0  0  0  0  0  0
    5.1868    1.5169  -56.8473 H   0  0  0  0  0  0  0  0  0  0  0  0
    5.4265    4.1551  -58.1746 H   0  0  0  0  0  0  0  0  0  0  0  0
    6.7576    3.9650  -59.4063 H   0  0  0  0  0  0  0  0  0  0  0  0
    3.2862    3.1995  -58.6439 H   0  0  0  0  0  0  0  0  0  0  0  0
    1.8481    1.8135  -60.1425 H   0  0  0  0  0  0  0  0  0  0  0  0
    5.3388    0.5275  -62.3371 H   0  0  0  0  0  0  0  0  0  0  0  0
    9.3625    2.0593  -59.9811 H   0  0  0  0  0  0  0  0  0  0  0  0
   10.9164    3.5103  -61.2954 H   0  0  0  0  0  0  0  0  0  0  0  0
   10.5462    6.6289  -58.3269 H   0  0  0  0  0  0  0  0  0  0  0  0
  1  2  1  0
  2  3  1  0
  3  4  1  0
  4  5  2  0
  4  6  1  0
  6  7  1  0
  7  8  1  0
  8  9  1  0
  9 10  1  0
 10 11  1  0
 11 12  1  0
 11 13  1  0
 10 14  1  0
 14 15  1  0
 15 16  1  0
  3 17  2  0
 17 18  1  0
 18 19  1  0
 19 20  1  0
 20 21  1  0
 21 22  2  0
 22 23  1  0
 23 24  1  0
 23 25  2  0
 25 26  1  0
 26 27  1  0
 18 28  1  0
 28 29  1  0
 29 30  1  0
 30 31  2  0
 31 32  1  0
 32 33  1  0
 32 34  2  0
 34 35  1  0
 35 36  1  0
 28  2  2  0
 35 29  2  0
 15  7  1  0
 26 20  2  0
  1 37  1  0
  1 38  1  0
  1 39  1  0
  6 40  1  0
  7 41  1  1
  9 42  1  0
  9 43  1  0
 10 44  1  6
 11 45  1  0
 12 46  1  0
 12 47  1  0
 12 48  1  0
 13 49  1  0
 13 50  1  0
 13 51  1  0
 14 52  1  0
 14 53  1  0
 15 54  1  6
 16 55  1  0
 16 56  1  0
 16 57  1  0
 17 58  1  0
 19 59  1  0
 19 60  1  0
 21 61  1  0
 22 62  1  0
 25 63  1  0
 30 64  1  0
 31 65  1  0
 34 66  1  0
M  END
>  <meeko>  (30) 
{"is_sidechain": false}

$$$$

     RDKit          3D

 66 69  0  0  0  0  0  0  0  0999 V2000
    9.5910    1.6980  -56.0710 C   0  0  0  0  0  0  0  0  0  0  0  0
    8.2470    1.9360  -56.6770 C   0  0  0  0  0  0  0  0  0  0  0  0
    6.9920    1.3760  -56.2490 C   0  0  0  0  0  0  0  0  0  0  0  0
    6.6710    0.4240  -55.1840 C   0  0  0  0  0  0  0  0  0  0  0  0
    5.5320    0.0070  -54.9960 O   0  0  0  0  0  0  0  0  0  0  0  0
    7.7450   -0.0020  -54.4480 N   0  0  0  0  0  0  0  0  0  0  0  0
    7.6170   -1.0210  -53.4560 C   0  0  1  0  0  0  0  0  0  0  0  0
    6.8570   -2.0500  -54.0710 O   0  0  0  0  0  0  0  0  0  0  0  0
    6.3520   -2.9940  -53.1190 C   0  0  0  0  0  0  0  0  0  0  0  0
    7.2940   -3.2270  -51.9170 C   0  0  1  0  0  0  0  0  0  0  0  0
    7.0090   -4.5760  -51.2070 C   0  0  0  0  0  0  0  0  0  0  0  0
    5.6910   -4.5250  -50.4250 C   0  0  0  0  0  0  0  0  0  0  0  0
    8.1300   -5.0440  -50.2750 C   0  0  0  0  0  0  0  0  0  0  0  0
    8.7460   -3.0190  -52.3630 C   0  0  0  0  0  0  0  0  0  0  0  0
    8.9550   -1.6050  -52.9510 C   0  0  1  0  0  0  0  0  0  0  0  0
   10.0450   -1.6750  -54.0290 C   0  0  0  0  0  0  0  0  0  0  0  0
    6.0250    1.9420  -57.0590 C   0  0  0  0  0  0  0  0  0  0  0  0
    6.6210    2.7910  -57.9550 N   0  0  0  0  0  0  0  0  0  0  0  0
    5.8860    3.5290  -58.9830 C   0  0  0  0  0  0  0  0  0  0  0  0
    5.0040    2.6520  -59.8380 C   0  0  0  0  0  0  0  0  0  0  0  0
    3.6650    2.3800  -59.5160 C   0  0  0  0  0  0  0  0  0  0  0  0
    2.8800    1.5910  -60.3610 C   0  0  0  0  0  0  0  0  0  0  0  0
    3.4270    1.0830  -61.5340 C   0  0  0  0  0  0  0  0  0  0  0  0
    2.6690    0.3300  -62.3420 F   0  0  0  0  0  0  0  0  0  0  0  0
    4.7410    1.3510  -61.8830 C   0  0  0  0  0  0  0  0  0  0  0  0
    5.5140    2.1360  -61.0360 C   0  0  0  0  0  0  0  0  0  0  0  0
    6.7800    2.4050  -61.3890 F   0  0  0  0  0  0  0  0  0  0  0  0
    7.9880    2.7730  -57.7620 C   0  0  0  0  0  0  0  0  0  0  0  0
    8.9390    3.5230  -58.5830 C   0  0  0  0  0  0  0  0  0  0  0  0
    9.4730    2.9310  -59.7350 C   0  0  0  0  0  0  0  0  0  0  0  0
   10.3860    3.6330  -60.5240 C   0  0  0  0  0  0  0  0  0  0  0  0
   10.7660    4.9210  -60.1590 C   0  0  0  0  0  0  0  0  0  0  0  0
   11.6410    5.5890  -60.9200 F   0  0  0  0  0  0  0  0  0  0  0  0
   10.2520    5.5240  -59.0180 C   0  0  0  0  0  0  0  0  0  0  0  0
    9.3440    4.8200  -58.2370 C   0  0  0  0  0  0  0  0  0  0  0  0
    8.8560    5.4100  -57.1350 F   0  0  0  0  0  0  0  0  0  0  0  0
    9.5066    1.7129  -54.9743 H   0  0  0  0  0  0  0  0  0  0  0  0
    9.9716    0.7185  -56.3961 H   0  0  0  0  0  0  0  0  0  0  0  0
   10.2848    2.4873  -56.3961 H   0  0  0  0  0  0  0  0  0  0  0  0
    8.6780    0.1620  -54.7870 H   0  0  0  0  0  0  0  0  0  0  0  0
    7.1475   -0.5862  -52.5613 H   0  0  0  0  0  0  0  0  0  0  0  0
    5.3889   -2.6226  -52.7388 H   0  0  0  0  0  0  0  0  0  0  0  0
    6.2532   -3.9568  -53.6418 H   0  0  0  0  0  0  0  0  0  0  0  0
    7.0973   -2.4797  -51.1341 H   0  0  0  0  0  0  0  0  0  0  0  0
    6.9395   -5.3122  -52.0214 H   0  0  0  0  0  0  0  0  0  0  0  0
    5.9043   -4.5333  -49.3459 H   0  0  0  0  0  0  0  0  0  0  0  0
    5.1463   -3.6051  -50.6840 H   0  0  0  0  0  0  0  0  0  0  0  0
    5.0769   -5.4001  -50.6840 H   0  0  0  0  0  0  0  0  0  0  0  0
    7.8159   -4.9129  -49.2290 H   0  0  0  0  0  0  0  0  0  0  0  0
    8.3437   -6.1065  -50.4632 H   0  0  0  0  0  0  0  0  0  0  0  0
    9.0358   -4.4489  -50.4632 H   0  0  0  0  0  0  0  0  0  0  0  0
    9.4095   -3.1480  -51.4952 H   0  0  0  0  0  0  0  0  0  0  0  0
    8.9789   -3.7580  -53.1438 H   0  0  0  0  0  0  0  0  0  0  0  0
    9.3033   -0.9081  -52.1745 H   0  0  0  0  0  0  0  0  0  0  0  0
   11.0324   -1.7384  -53.5484 H   0  0  0  0  0  0  0  0  0  0  0  0
    9.8844   -2.5647  -54.6556 H   0  0  0  0  0  0  0  0  0  0  0  0
    9.9995   -0.7721  -54.6556 H   0  0  0  0  0  0  0  0  0  0  0  0
    4.9452    1.7421  -56.9944 H   0  0  0  0  0  0  0  0  0  0  0  0
    5.2541    4.2808  -58.4874 H   0  0  0  0  0  0  0  0  0  0  0  0
    6.6322    3.9858  -59.6497 H   0  0  0  0  0  0  0  0  0  0  0  0
    3.2308    2.7906  -58.5925 H   0  0  0  0  0  0  0  0  0  0  0  0
    1.8341    1.3728  -60.0993 H   0  0  0  0  0  0  0  0  0  0  0  0
    5.1651    0.9491  -62.8150 H   0  0  0  0  0  0  0  0  0  0  0  0
    9.1724    1.9115  -60.0183 H   0  0  0  0  0  0  0  0  0  0  0  0
   10.8033    3.1700  -61.4304 H   0  0  0  0  0  0  0  0  0  0  0  0
   10.5589    6.5424  -58.7374 H   0  0  0  0  0  0  0  0  0  0  0  0
  1  2  1  0
  2  3  1  0
  3  4  1  0
  4  5  2  0
  4  6  1  0
  6  7  1  0
  7  8  1  0
  8  9  1  0
  9 10  1  0
 10 11  1  0
 11 12  1  0
 11 13  1  0
 10 14  1  0
 14 15  1  0
 15 16  1  0
  3 17  2  0
 17 18  1  0
 18 19  1  0
 19 20  1  0
 20 21  1  0
 21 22  2  0
 22 23  1  0
 23 24  1  0
 23 25  2  0
 25 26  1  0
 26 27  1  0
 18 28  1  0
 28 29  1  0
 29 30  1  0
 30 31  2  0
 31 32  1  0
 32 33  1  0
 32 34  2  0
 34 35  1  0
 35 36  1  0
 28  2  2  0
 35 29  2  0
 15  7  1  0
 26 20  2  0
  1 37  1  0
  1 38  1  0
  1 39  1  0
  6 40  1  0
  7 41  1  1
  9 42  1  0
  9 43  1  0
 10 44  1  1
 11 45  1  0
 12 46  1  0
 12 47  1  0
 12 48  1  0
 13 49  1  0
 13 50  1  0
 13 51  1  0
 14 52  1  0
 14 53  1  0
 15 54  1  1
 16 55  1  0
 16 56  1  0
 16 57  1  0
 17 58  1  0
 19 59  1  0
 19 60  1  0
 21 61  1  0
 22 62  1  0
 25 63  1  0
 30 64  1  0
 31 65  1  0
 34 66  1  0
M  END
>  <meeko>  (31) 
{"is_sidechain": false}

$$$$

     RDKit          3D

 62 67  0  0  0  0  0  0  0  0999 V2000
   10.7260    3.1460  -56.3450 C   0  0  0  0  0  0  0  0  0  0  0  0
    9.7100    2.7330  -57.4000 C   0  0  0  0  0  0  0  0  0  0  0  0
    9.7440    3.1600  -58.6910 C   0  0  0  0  0  0  0  0  0  0  0  0
   10.9020    4.0140  -59.0910 C   0  0  0  0  0  0  0  0  0  0  0  0
   12.1960    3.4740  -59.0890 C   0  0  0  0  0  0  0  0  0  0  0  0
   13.2890    4.2660  -59.4480 C   0  0  0  0  0  0  0  0  0  0  0  0
   13.1010    5.6020  -59.8080 C   0  0  0  0  0  0  0  0  0  0  0  0
   11.8180    6.1490  -59.8080 C   0  0  0  0  0  0  0  0  0  0  0  0
   10.7310    5.3570  -59.4500 C   0  0  0  0  0  0  0  0  0  0  0  0
    9.5070    5.9070  -59.4470 F   0  0  0  0  0  0  0  0  0  0  0  0
    8.6790    2.8290  -59.6990 C   0  0  0  0  0  0  0  0  0  0  0  0
    9.0790    2.6710  -61.0420 C   0  0  0  0  0  0  0  0  0  0  0  0
    8.1450    2.5120  -62.0590 C   0  0  0  0  0  0  0  0  0  0  0  0
    6.8110    2.5310  -61.7160 C   0  0  0  0  0  0  0  0  0  0  0  0
    6.3720    2.6650  -60.4510 N   0  0  0  0  0  0  0  0  0  0  0  0
    7.2930    2.7840  -59.4390 C   0  0  0  0  0  0  0  0  0  0  0  0
    6.7650    2.8110  -58.1010 N   0  0  0  0  0  0  0  0  0  0  0  0
    5.3400    2.8700  -58.0250 N   0  0  0  0  0  0  0  0  0  0  0  0
    7.3610    2.0240  -57.1300 C   0  0  0  0  0  0  0  0  0  0  0  0
    8.6650    1.8810  -56.8490 C   0  0  0  0  0  0  0  0  0  0  0  0
    8.9770    0.8480  -55.8050 C   0  0  0  0  0  0  0  0  0  0  0  0
   10.1100    0.6750  -55.3780 O   0  0  0  0  0  0  0  0  0  0  0  0
    7.8580    0.1650  -55.3850 N   0  0  0  0  0  0  0  0  0  0  0  0
    7.8500   -0.8930  -54.3730 C   0  0  2  0  0  0  0  0  0  0  0  0
    6.6750   -1.8790  -54.5850 C   0  0  0  0  0  0  0  0  0  0  0  0
    6.7190   -3.0060  -53.5380 C   0  0  1  0  0  0  0  0  0  0  0  0
    8.0430   -3.7760  -53.6760 C   0  0  0  0  0  0  0  0  0  0  0  0
    9.2290   -2.8240  -53.4490 C   0  0  2  0  0  0  0  0  0  0  0  0
    9.1320   -2.2170  -52.0410 C   0  0  0  0  0  0  0  0  0  0  0  0
    7.8160   -1.4390  -51.8930 C   0  0  2  0  0  0  0  0  0  0  0  0
    6.6330   -2.3930  -52.1300 C   0  0  0  0  0  0  0  0  0  0  0  0
    7.7730   -0.3100  -52.9390 C   0  0  0  0  0  0  0  0  0  0  0  0
    9.1740   -1.6940  -54.4900 C   0  0  0  0  0  0  0  0  0  0  0  0
   10.3047    2.9748  -55.3434 H   0  0  0  0  0  0  0  0  0  0  0  0
   11.6420    2.5489  -56.4645 H   0  0  0  0  0  0  0  0  0  0  0  0
   10.9656    4.2129  -56.4645 H   0  0  0  0  0  0  0  0  0  0  0  0
   12.3509    2.4230  -58.8037 H   0  0  0  0  0  0  0  0  0  0  0  0
   14.3014    3.8358  -59.4471 H   0  0  0  0  0  0  0  0  0  0  0  0
   13.9640    6.2225  -60.0913 H   0  0  0  0  0  0  0  0  0  0  0  0
   11.6660    7.2014  -60.0896 H   0  0  0  0  0  0  0  0  0  0  0  0
   10.1508    2.6736  -61.2895 H   0  0  0  0  0  0  0  0  0  0  0  0
    8.4608    2.3754  -63.1038 H   0  0  0  0  0  0  0  0  0  0  0  0
    6.0653    2.4314  -62.5185 H   0  0  0  0  0  0  0  0  0  0  0  0
    5.1150    3.5800  -57.3180 H   0  0  0  0  0  0  0  0  0  0  0  0
    5.0310    2.0050  -57.5770 H   0  0  0  0  0  0  0  0  0  0  0  0
    6.6724    1.4368  -56.5047 H   0  0  0  0  0  0  0  0  0  0  0  0
    6.9680    0.4440  -55.7820 H   0  0  0  0  0  0  0  0  0  0  0  0
    5.7241   -1.3342  -54.4902 H   0  0  0  0  0  0  0  0  0  0  0  0
    6.7605   -2.3227  -55.5879 H   0  0  0  0  0  0  0  0  0  0  0  0
    5.8738   -3.6920  -53.6962 H   0  0  0  0  0  0  0  0  0  0  0  0
    8.0751   -4.5829  -52.9291 H   0  0  0  0  0  0  0  0  0  0  0  0
    8.1098   -4.2025  -54.6878 H   0  0  0  0  0  0  0  0  0  0  0  0
   10.1737   -3.3787  -53.5486 H   0  0  0  0  0  0  0  0  0  0  0  0
    9.1642   -3.0236  -51.2937 H   0  0  0  0  0  0  0  0  0  0  0  0
    9.9768   -1.5298  -51.8854 H   0  0  0  0  0  0  0  0  0  0  0  0
    7.7510   -1.0110  -50.8818 H   0  0  0  0  0  0  0  0  0  0  0  0
    6.6597   -3.1981  -51.3809 H   0  0  0  0  0  0  0  0  0  0  0  0
    5.6931   -1.8284  -52.0411 H   0  0  0  0  0  0  0  0  0  0  0  0
    6.8337    0.2514  -52.8268 H   0  0  0  0  0  0  0  0  0  0  0  0
    8.6346    0.3549  -52.7793 H   0  0  0  0  0  0  0  0  0  0  0  0
   10.0220   -1.0128  -54.3264 H   0  0  0  0  0  0  0  0  0  0  0  0
    9.2257   -2.1402  -55.4941 H   0  0  0  0  0  0  0  0  0  0  0  0
  1  2  1  0
  2  3  2  0
  3  4  1  0
  4  5  2  0
  5  6  1  0
  6  7  2  0
  7  8  1  0
  8  9  2  0
  9 10  1  0
  3 11  1  0
 11 12  1  0
 12 13  2  0
 13 14  1  0
 14 15  2  0
 15 16  1  0
 16 17  1  0
 17 18  1  0
 17 19  1  0
 19 20  2  0
 20 21  1  0
 21 22  2  0
 21 23  1  0
 24 23  1  6
 24 25  1  0
 25 26  1  0
 26 27  1  0
 27 28  1  0
 28 29  1  0
 29 30  1  0
 30 31  1  0
 30 32  1  0
 28 33  1  0
 20  2  1  0
 32 24  1  0
  9  4  1  0
 16 11  2  0
 33 24  1  0
 31 26  1  0
  1 34  1  0
  1 35  1  0
  1 36  1  0
  5 37  1  0
  6 38  1  0
  7 39  1  0
  8 40  1  0
 12 41  1  0
 13 42  1  0
 14 43  1  0
 18 44  1  0
 18 45  1  0
 19 46  1  0
 23 47  1  0
 25 48  1  0
 25 49  1  0
 26 50  1  6
 27 51  1  0
 27 52  1  0
 28 53  1  1
 29 54  1  0
 29 55  1  0
 30 56  1  1
 31 57  1  0
 31 58  1  0
 32 59  1  0
 32 60  1  0
 33 61  1  0
 33 62  1  0
M  END
>  <meeko>  (32) 
{"is_sidechain": false}

$$$$

     RDKit          3D

 63 67  0  0  0  0  0  0  0  0999 V2000
    4.2460    1.1990  -61.9010 C   0  0  0  0  0  0  0  0  0  0  0  0
    4.8960    1.4400  -60.2580 S   0  0  0  0  0  0  0  0  0  0  0  0
    5.7040    0.2840  -59.9270 O   0  0  0  0  0  0  0  0  0  0  0  0
    3.8000    1.8580  -59.4100 O   0  0  0  0  0  0  0  0  0  0  0  0
    5.9330    2.7540  -60.4490 N   0  0  0  0  0  0  0  0  0  0  0  0
    6.6720    2.9070  -61.7330 C   0  0  0  0  0  0  0  0  0  0  0  0
    8.1760    2.6580  -61.5560 C   0  0  0  0  0  0  0  0  0  0  0  0
    8.7800    3.4330  -60.4690 N   0  0  0  0  0  0  0  0  0  0  0  0
   10.0940    3.1150  -60.1340 C   0  0  0  0  0  0  0  0  0  0  0  0
   10.7280    2.2590  -60.7500 O   0  0  0  0  0  0  0  0  0  0  0  0
   10.5910    3.8200  -59.0390 N   0  0  0  0  0  0  0  0  0  0  0  0
   11.8400    3.5230  -58.5390 N   0  0  0  0  0  0  0  0  0  0  0  0
   11.9030    2.6150  -57.6060 C   0  0  0  0  0  0  0  0  0  0  0  0
   10.7730    2.0060  -56.8740 C   0  0  0  0  0  0  0  0  0  0  0  0
    9.5780    2.7940  -56.7400 C   0  0  0  0  0  0  0  0  0  0  0  0
    8.4370    2.3650  -56.0270 C   0  0  0  0  0  0  0  0  0  0  0  0
    8.6450    1.0990  -55.4950 C   0  0  0  0  0  0  0  0  0  0  0  0
    7.7490    0.3950  -54.7420 C   0  0  0  0  0  0  0  0  0  0  0  0
    8.3560   -0.7930  -54.3460 N   0  0  0  0  0  0  0  0  0  0  0  0
    7.7990   -1.6880  -53.3840 C   0  0  0  0  0  0  0  0  0  0  0  0
    8.1430   -1.5730  -52.0280 C   0  0  0  0  0  0  0  0  0  0  0  0
    7.5690   -2.4300  -51.0860 C   0  0  0  0  0  0  0  0  0  0  0  0
    6.6570   -3.3960  -51.4950 C   0  0  0  0  0  0  0  0  0  0  0  0
    6.1130   -4.2170  -50.5870 F   0  0  0  0  0  0  0  0  0  0  0  0
    6.2970   -3.5170  -52.8280 C   0  0  0  0  0  0  0  0  0  0  0  0
    6.8630   -2.6580  -53.7660 C   0  0  0  0  0  0  0  0  0  0  0  0
    6.5240   -2.8340  -55.0510 F   0  0  0  0  0  0  0  0  0  0  0  0
    9.6030   -0.9060  -55.0020 C   0  0  0  0  0  0  0  0  0  0  0  0
   10.3890   -2.1490  -55.0870 C   0  0  0  0  0  0  0  0  0  0  0  0
   10.4170   -2.8710  -56.2920 C   0  0  0  0  0  0  0  0  0  0  0  0
   11.1610   -4.0490  -56.3950 C   0  0  0  0  0  0  0  0  0  0  0  0
   11.8850   -4.5030  -55.2990 C   0  0  0  0  0  0  0  0  0  0  0  0
   12.5970   -5.6320  -55.4010 F   0  0  0  0  0  0  0  0  0  0  0  0
   11.8840   -3.8030  -54.1020 C   0  0  0  0  0  0  0  0  0  0  0  0
   11.1410   -2.6300  -54.0060 C   0  0  0  0  0  0  0  0  0  0  0  0
   11.1580   -1.9670  -52.8420 F   0  0  0  0  0  0  0  0  0  0  0  0
    9.8150    0.3080  -55.6360 C   0  0  0  0  0  0  0  0  0  0  0  0
   10.9440    0.6980  -56.3550 C   0  0  0  0  0  0  0  0  0  0  0  0
    7.8410    4.1270  -59.5790 C   0  0  0  0  0  0  0  0  0  0  0  0
    6.6550    3.2190  -59.2310 C   0  0  0  0  0  0  0  0  0  0  0  0
    3.2164    0.8173  -61.8357 H   0  0  0  0  0  0  0  0  0  0  0  0
    4.2481    2.1577  -62.4404 H   0  0  0  0  0  0  0  0  0  0  0  0
    4.8725    0.4734  -62.4404 H   0  0  0  0  0  0  0  0  0  0  0  0
    6.2745    2.1848  -62.4613 H   0  0  0  0  0  0  0  0  0  0  0  0
    6.5348    3.9396  -62.0864 H   0  0  0  0  0  0  0  0  0  0  0  0
    8.3281    1.5890  -61.3458 H   0  0  0  0  0  0  0  0  0  0  0  0
    8.6654    2.9778  -62.4877 H   0  0  0  0  0  0  0  0  0  0  0  0
   10.4620    4.8190  -59.1560 H   0  0  0  0  0  0  0  0  0  0  0  0
   12.9089    2.2630  -57.3333 H   0  0  0  0  0  0  0  0  0  0  0  0
    9.5510    3.7841  -57.2185 H   0  0  0  0  0  0  0  0  0  0  0  0
    7.5135    2.9510  -55.9095 H   0  0  0  0  0  0  0  0  0  0  0  0
    6.7257    0.7119  -54.4921 H   0  0  0  0  0  0  0  0  0  0  0  0
    8.8649   -0.8076  -51.7070 H   0  0  0  0  0  0  0  0  0  0  0  0
    7.8380   -2.3406  -50.0232 H   0  0  0  0  0  0  0  0  0  0  0  0
    5.5723   -4.2830  -53.1412 H   0  0  0  0  0  0  0  0  0  0  0  0
    9.8491   -2.5061  -57.1605 H   0  0  0  0  0  0  0  0  0  0  0  0
   11.1737   -4.6142  -57.3386 H   0  0  0  0  0  0  0  0  0  0  0  0
   12.4620   -4.1694  -53.2408 H   0  0  0  0  0  0  0  0  0  0  0  0
   11.8411    0.0780  -56.4992 H   0  0  0  0  0  0  0  0  0  0  0  0
    8.3630    4.4105  -58.6532 H   0  0  0  0  0  0  0  0  0  0  0  0
    7.4625    5.0232  -60.0925 H   0  0  0  0  0  0  0  0  0  0  0  0
    7.0282    2.3416  -58.6825 H   0  0  0  0  0  0  0  0  0  0  0  0
    5.9498    3.8001  -58.6186 H   0  0  0  0  0  0  0  0  0  0  0  0
  1  2  1  0
  2  3  2  0
  2  4  2  0
  2  5  1  0
  5  6  1  0
  6  7  1  0
  7  8  1  0
  8  9  1  0
  9 10  2  0
  9 11  1  0
 11 12  1  0
 12 13  2  0
 13 14  1  0
 14 15  1  0
 15 16  2  0
 16 17  1  0
 17 18  2  0
 18 19  1  0
 19 20  1  0
 20 21  1  0
 21 22  2  0
 22 23  1  0
 23 24  1  0
 23 25  2  0
 25 26  1  0
 26 27  1  0
 19 28  1  0
 28 29  1  0
 29 30  1  0
 30 31  2  0
 31 32  1  0
 32 33  1  0
 32 34  2  0
 34 35  1  0
 35 36  1  0
 28 37  2  0
 37 38  1  0
  8 39  1  0
 39 40  1  0
 40  5  1  0
 38 14  2  0
 37 17  1  0
 26 20  2  0
 35 29  2  0
  1 41  1  0
  1 42  1  0
  1 43  1  0
  6 44  1  0
  6 45  1  0
  7 46  1  0
  7 47  1  0
 11 48  1  0
 13 49  1  0
 15 50  1  0
 16 51  1  0
 18 52  1  0
 21 53  1  0
 22 54  1  0
 25 55  1  0
 30 56  1  0
 31 57  1  0
 34 58  1  0
 38 59  1  0
 39 60  1  0
 39 61  1  0
 40 62  1  0
 40 63  1  0
M  END
>  <meeko>  (33) 
{"is_sidechain": false}

$$$$

     RDKit          3D

 63 67  0  0  0  0  0  0  0  0999 V2000
   15.0660    6.8020  -61.3870 C   0  0  0  0  0  0  0  0  0  0  0  0
   13.4940    7.2480  -60.6730 S   0  0  0  0  0  0  0  0  0  0  0  0
   13.7550    7.8950  -59.4060 O   0  0  0  0  0  0  0  0  0  0  0  0
   12.7080    7.8910  -61.7030 O   0  0  0  0  0  0  0  0  0  0  0  0
   12.8010    5.7490  -60.3540 N   0  0  0  0  0  0  0  0  0  0  0  0
   13.5510    4.8040  -59.4850 C   0  0  0  0  0  0  0  0  0  0  0  0
   12.7210    3.5580  -59.1590 C   0  0  0  0  0  0  0  0  0  0  0  0
   11.4460    3.8980  -58.5220 N   0  0  0  0  0  0  0  0  0  0  0  0
   10.8620    2.9630  -57.6720 C   0  0  0  0  0  0  0  0  0  0  0  0
   11.3540    1.8480  -57.5030 O   0  0  0  0  0  0  0  0  0  0  0  0
    9.6940    3.4090  -57.0600 N   0  0  0  0  0  0  0  0  0  0  0  0
    8.9820    2.6740  -56.1410 N   0  0  0  0  0  0  0  0  0  0  0  0
    8.3770    1.6130  -56.5790 C   0  0  0  0  0  0  0  0  0  0  0  0
    7.6080    0.7220  -55.6800 C   0  0  0  0  0  0  0  0  0  0  0  0
    6.1740    0.8780  -55.6790 C   0  0  0  0  0  0  0  0  0  0  0  0
    5.2980    0.1170  -54.8710 C   0  0  0  0  0  0  0  0  0  0  0  0
    6.0130   -0.7870  -54.1010 C   0  0  0  0  0  0  0  0  0  0  0  0
    5.4840   -1.6590  -53.1930 C   0  0  0  0  0  0  0  0  0  0  0  0
    6.5220   -2.4110  -52.6470 N   0  0  0  0  0  0  0  0  0  0  0  0
    6.3250   -3.4890  -51.7300 C   0  0  0  0  0  0  0  0  0  0  0  0
    5.5040   -3.3320  -50.6030 C   0  0  0  0  0  0  0  0  0  0  0  0
    5.3320   -4.3890  -49.7050 C   0  0  0  0  0  0  0  0  0  0  0  0
    5.9820   -5.5960  -49.9280 C   0  0  0  0  0  0  0  0  0  0  0  0
    5.8130   -6.6050  -49.0640 F   0  0  0  0  0  0  0  0  0  0  0  0
    6.8080   -5.7700  -51.0270 C   0  0  0  0  0  0  0  0  0  0  0  0
    6.9800   -4.7150  -51.9200 C   0  0  0  0  0  0  0  0  0  0  0  0
    7.7450   -4.9410  -52.9980 F   0  0  0  0  0  0  0  0  0  0  0  0
    7.7440   -1.9440  -53.1820 C   0  0  0  0  0  0  0  0  0  0  0  0
    9.0800   -2.3430  -52.7210 C   0  0  0  0  0  0  0  0  0  0  0  0
   10.1080   -2.5580  -53.6520 C   0  0  0  0  0  0  0  0  0  0  0  0
   11.3740   -2.9560  -53.2180 C   0  0  0  0  0  0  0  0  0  0  0  0
   11.6100   -3.1440  -51.8600 C   0  0  0  0  0  0  0  0  0  0  0  0
   12.8270   -3.5260  -51.4510 F   0  0  0  0  0  0  0  0  0  0  0  0
   10.6070   -2.9450  -50.9230 C   0  0  0  0  0  0  0  0  0  0  0  0
    9.3480   -2.5480  -51.3600 C   0  0  0  0  0  0  0  0  0  0  0  0
    8.3900   -2.3410  -50.4440 F   0  0  0  0  0  0  0  0  0  0  0  0
    7.4200   -0.9610  -54.1020 C   0  0  0  0  0  0  0  0  0  0  0  0
    8.3060   -0.2150  -54.8780 C   0  0  0  0  0  0  0  0  0  0  0  0
   10.7990    5.1340  -58.9770 C   0  0  0  0  0  0  0  0  0  0  0  0
   11.3200    5.6280  -60.3340 C   0  0  0  0  0  0  0  0  0  0  0  0
   15.7887    6.5970  -60.5835 H   0  0  0  0  0  0  0  0  0  0  0  0
   14.9444    5.9029  -62.0090 H   0  0  0  0  0  0  0  0  0  0  0  0
   15.4346    7.6310  -62.0090 H   0  0  0  0  0  0  0  0  0  0  0  0
   14.4704    4.4949  -60.0038 H   0  0  0  0  0  0  0  0  0  0  0  0
   13.7864    5.3174  -58.5411 H   0  0  0  0  0  0  0  0  0  0  0  0
   12.5172    3.0130  -60.0925 H   0  0  0  0  0  0  0  0  0  0  0  0
   13.2981    2.9404  -58.4550 H   0  0  0  0  0  0  0  0  0  0  0  0
    9.7120    4.3910  -56.8110 H   0  0  0  0  0  0  0  0  0  0  0  0
    8.4370    1.3680  -57.6497 H   0  0  0  0  0  0  0  0  0  0  0  0
    5.7357    1.6343  -56.3468 H   0  0  0  0  0  0  0  0  0  0  0  0
    4.2036    0.2269  -54.8556 H   0  0  0  0  0  0  0  0  0  0  0  0
    4.4185   -1.7520  -52.9361 H   0  0  0  0  0  0  0  0  0  0  0  0
    4.9940   -2.3737  -50.4257 H   0  0  0  0  0  0  0  0  0  0  0  0
    4.6841   -4.2654  -48.8247 H   0  0  0  0  0  0  0  0  0  0  0  0
    7.3212   -6.7289  -51.1920 H   0  0  0  0  0  0  0  0  0  0  0  0
    9.9160   -2.4127  -54.7253 H   0  0  0  0  0  0  0  0  0  0  0  0
   12.1814   -3.1202  -53.9468 H   0  0  0  0  0  0  0  0  0  0  0  0
   10.8042   -3.0987  -49.8518 H   0  0  0  0  0  0  0  0  0  0  0  0
    9.3992   -0.3372  -54.8690 H   0  0  0  0  0  0  0  0  0  0  0  0
    9.7179    4.9506  -59.0638 H   0  0  0  0  0  0  0  0  0  0  0  0
   11.0289    5.9139  -58.2362 H   0  0  0  0  0  0  0  0  0  0  0  0
   11.0119    4.9152  -61.1130 H   0  0  0  0  0  0  0  0  0  0  0  0
   10.8961    6.6265  -60.5163 H   0  0  0  0  0  0  0  0  0  0  0  0
  1  2  1  0
  2  3  2  0
  2  4  2  0
  2  5  1  0
  5  6  1  0
  6  7  1  0
  7  8  1  0
  8  9  1  0
  9 10  2  0
  9 11  1  0
 11 12  1  0
 12 13  2  0
 13 14  1  0
 14 15  1  0
 15 16  2  0
 16 17  1  0
 17 18  2  0
 18 19  1  0
 19 20  1  0
 20 21  1  0
 21 22  2  0
 22 23  1  0
 23 24  1  0
 23 25  2  0
 25 26  1  0
 26 27  1  0
 19 28  1  0
 28 29  1  0
 29 30  1  0
 30 31  2  0
 31 32  1  0
 32 33  1  0
 32 34  2  0
 34 35  1  0
 35 36  1  0
 28 37  2  0
 37 38  1  0
  8 39  1  0
 39 40  1  0
 40  5  1  0
 38 14  2  0
 37 17  1  0
 26 20  2  0
 35 29  2  0
  1 41  1  0
  1 42  1  0
  1 43  1  0
  6 44  1  0
  6 45  1  0
  7 46  1  0
  7 47  1  0
 11 48  1  0
 13 49  1  0
 15 50  1  0
 16 51  1  0
 18 52  1  0
 21 53  1  0
 22 54  1  0
 25 55  1  0
 30 56  1  0
 31 57  1  0
 34 58  1  0
 38 59  1  0
 39 60  1  0
 39 61  1  0
 40 62  1  0
 40 63  1  0
M  END
>  <meeko>  (34) 
{"is_sidechain": false}

$$$$

     RDKit          3D

 69 73  0  0  0  0  0  0  0  0999 V2000
    6.3480    0.3620  -54.2530 C   0  0  0  0  0  0  0  0  0  0  0  0
    7.7470    0.0130  -54.6430 C   0  0  0  0  0  0  0  0  0  0  0  0
    8.5290    0.7020  -55.6320 C   0  0  0  0  0  0  0  0  0  0  0  0
    8.1260    1.8580  -56.4430 C   0  0  0  0  0  0  0  0  0  0  0  0
    6.9490    2.0740  -56.7250 O   0  0  0  0  0  0  0  0  0  0  0  0
    9.1690    2.6790  -56.8270 N   0  0  0  0  0  0  0  0  0  0  0  0
    9.0020    3.9050  -57.6200 C   0  0  0  0  0  0  0  0  0  0  0  0
    8.8080    4.1420  -58.9340 C   0  0  0  0  0  0  0  0  0  0  0  0
    8.6090    3.2870  -60.2400 C   0  0  1  0  0  0  0  0  0  0  0  0
    9.9670    2.8400  -60.7880 C   0  0  0  0  0  0  0  0  0  0  0  0
    7.5640    2.1590  -60.2060 C   0  0  0  0  0  0  0  0  0  0  0  0
    6.1820    2.3110  -60.8690 C   0  0  1  0  0  0  0  0  0  0  0  0
    6.1490    2.4760  -62.3930 C   0  0  0  0  0  0  0  0  0  0  0  0
    4.7950    2.6180  -62.8570 O   0  0  0  0  0  0  0  0  0  0  0  0
    4.0240    1.4710  -62.4740 C   0  0  0  0  0  0  0  0  0  0  0  0
    4.0260    1.3290  -60.9570 C   0  0  0  0  0  0  0  0  0  0  0  0
    5.3680    1.1860  -60.4600 O   0  0  0  0  0  0  0  0  0  0  0  0
    8.7560    5.6520  -58.7330 C   0  0  0  0  0  0  0  0  0  0  0  0
    8.9670    5.3740  -57.2430 C   0  0  0  0  0  0  0  0  0  0  0  0
    9.7380    0.0310  -55.6940 C   0  0  0  0  0  0  0  0  0  0  0  0
    9.7480   -0.9730  -54.7580 N   0  0  0  0  0  0  0  0  0  0  0  0
   10.8840   -1.8710  -54.5520 C   0  0  0  0  0  0  0  0  0  0  0  0
   11.1020   -2.7790  -55.7350 C   0  0  0  0  0  0  0  0  0  0  0  0
   11.8580   -2.3620  -56.8410 C   0  0  0  0  0  0  0  0  0  0  0  0
   12.0350   -3.2150  -57.9330 C   0  0  0  0  0  0  0  0  0  0  0  0
   11.4540   -4.4790  -57.9210 C   0  0  0  0  0  0  0  0  0  0  0  0
   11.6230   -5.2900  -58.9730 F   0  0  0  0  0  0  0  0  0  0  0  0
   10.7000   -4.9100  -56.8410 C   0  0  0  0  0  0  0  0  0  0  0  0
   10.5300   -4.0570  -55.7580 C   0  0  0  0  0  0  0  0  0  0  0  0
    9.7980   -4.4760  -54.7170 F   0  0  0  0  0  0  0  0  0  0  0  0
    8.5210   -1.0240  -54.1270 C   0  0  0  0  0  0  0  0  0  0  0  0
    8.1540   -2.0250  -53.1270 C   0  0  0  0  0  0  0  0  0  0  0  0
    8.8380   -2.0650  -51.9050 C   0  0  0  0  0  0  0  0  0  0  0  0
    8.5040   -3.0250  -50.9470 C   0  0  0  0  0  0  0  0  0  0  0  0
    7.4930   -3.9430  -51.2160 C   0  0  0  0  0  0  0  0  0  0  0  0
    7.1760   -4.8600  -50.2940 F   0  0  0  0  0  0  0  0  0  0  0  0
    6.8080   -3.9240  -52.4230 C   0  0  0  0  0  0  0  0  0  0  0  0
    7.1460   -2.9660  -53.3730 C   0  0  0  0  0  0  0  0  0  0  0  0
    6.4750   -2.9530  -54.5350 F   0  0  0  0  0  0  0  0  0  0  0  0
    6.2673    0.3821  -53.1561 H   0  0  0  0  0  0  0  0  0  0  0  0
    6.0906    1.3519  -54.6578 H   0  0  0  0  0  0  0  0  0  0  0  0
    5.6558   -0.3910  -54.6578 H   0  0  0  0  0  0  0  0  0  0  0  0
   10.0880    2.5110  -56.4260 H   0  0  0  0  0  0  0  0  0  0  0  0
    8.1299    3.9784  -60.9488 H   0  0  0  0  0  0  0  0  0  0  0  0
   10.6448    2.6169  -59.9508 H   0  0  0  0  0  0  0  0  0  0  0  0
    9.8351    1.9379  -61.4034 H   0  0  0  0  0  0  0  0  0  0  0  0
   10.3967    3.6441  -61.4034 H   0  0  0  0  0  0  0  0  0  0  0  0
    8.0378    1.2851  -60.6769 H   0  0  0  0  0  0  0  0  0  0  0  0
    7.3057    2.1134  -59.1377 H   0  0  0  0  0  0  0  0  0  0  0  0
    5.7885    3.2757  -60.5161 H   0  0  0  0  0  0  0  0  0  0  0  0
    6.7228    3.3720  -62.6722 H   0  0  0  0  0  0  0  0  0  0  0  0
    6.5910    1.5817  -62.8565 H   0  0  0  0  0  0  0  0  0  0  0  0
    2.9895    1.5920  -62.8278 H   0  0  0  0  0  0  0  0  0  0  0  0
    4.4671    0.5699  -62.9231 H   0  0  0  0  0  0  0  0  0  0  0  0
    3.5693    2.2244  -60.5102 H   0  0  0  0  0  0  0  0  0  0  0  0
    3.4516    0.4309  -60.6858 H   0  0  0  0  0  0  0  0  0  0  0  0
    9.5701    6.2105  -59.2181 H   0  0  0  0  0  0  0  0  0  0  0  0
    7.9182    6.2625  -59.1011 H   0  0  0  0  0  0  0  0  0  0  0  0
    9.9061    5.7677  -56.8270 H   0  0  0  0  0  0  0  0  0  0  0  0
    8.2902    5.7667  -56.4699 H   0  0  0  0  0  0  0  0  0  0  0  0
   10.5614    0.2654  -56.3847 H   0  0  0  0  0  0  0  0  0  0  0  0
   11.7904   -1.2680  -54.3943 H   0  0  0  0  0  0  0  0  0  0  0  0
   10.6687   -2.4986  -53.6746 H   0  0  0  0  0  0  0  0  0  0  0  0
   12.3127   -1.3604  -56.8482 H   0  0  0  0  0  0  0  0  0  0  0  0
   12.6309   -2.8888  -58.7982 H   0  0  0  0  0  0  0  0  0  0  0  0
   10.2438   -5.9109  -56.8414 H   0  0  0  0  0  0  0  0  0  0  0  0
    9.6390   -1.3395  -51.6998 H   0  0  0  0  0  0  0  0  0  0  0  0
    9.0370   -3.0554  -49.9853 H   0  0  0  0  0  0  0  0  0  0  0  0
    6.0109   -4.6546  -52.6249 H   0  0  0  0  0  0  0  0  0  0  0  0
  1  2  1  0
  2  3  1  0
  3  4  1  0
  4  5  2  0
  4  6  1  0
  6  7  1  0
  7  8  2  0
  8  9  1  0
  9 10  1  0
  9 11  1  0
 11 12  1  0
 12 13  1  0
 13 14  1  0
 14 15  1  0
 15 16  1  0
 16 17  1  0
  8 18  1  0
 18 19  1  0
  3 20  2  0
 20 21  1  0
 21 22  1  0
 22 23  1  0
 23 24  1  0
 24 25  2  0
 25 26  1  0
 26 27  1  0
 26 28  2  0
 28 29  1  0
 29 30  1  0
 21 31  1  0
 31 32  1  0
 32 33  1  0
 33 34  2  0
 34 35  1  0
 35 36  1  0
 35 37  2  0
 37 38  1  0
 38 39  1  0
 31  2  2  0
 38 32  2  0
 19  7  1  0
 29 23  2  0
 17 12  1  0
  1 40  1  0
  1 41  1  0
  1 42  1  0
  6 43  1  0
  9 44  1  6
 10 45  1  0
 10 46  1  0
 10 47  1  0
 11 48  1  0
 11 49  1  0
 12 50  1  1
 13 51  1  0
 13 52  1  0
 15 53  1  0
 15 54  1  0
 16 55  1  0
 16 56  1  0
 18 57  1  0
 18 58  1  0
 19 59  1  0
 19 60  1  0
 20 61  1  0
 22 62  1  0
 22 63  1  0
 24 64  1  0
 25 65  1  0
 28 66  1  0
 33 67  1  0
 34 68  1  0
 37 69  1  0
M  END
>  <meeko>  (35) 
{"is_sidechain": false}

$$$$

     RDKit          3D

 69 73  0  0  0  0  0  0  0  0999 V2000
    6.2940    0.2780  -53.8610 C   0  0  0  0  0  0  0  0  0  0  0  0
    7.6600   -0.0480  -54.3700 C   0  0  0  0  0  0  0  0  0  0  0  0
    8.4130    0.6810  -55.3570 C   0  0  0  0  0  0  0  0  0  0  0  0
    8.0720    1.8610  -56.1610 C   0  0  0  0  0  0  0  0  0  0  0  0
    6.9060    2.1970  -56.3500 O   0  0  0  0  0  0  0  0  0  0  0  0
    9.1640    2.5620  -56.6290 N   0  0  0  0  0  0  0  0  0  0  0  0
    9.0850    3.7760  -57.4600 C   0  0  0  0  0  0  0  0  0  0  0  0
    8.5550    4.9900  -57.2200 C   0  0  0  0  0  0  0  0  0  0  0  0
    9.0220    5.5750  -58.5310 C   0  0  0  0  0  0  0  0  0  0  0  0
    9.5460    4.1530  -58.8680 C   0  0  2  0  0  0  0  0  0  0  0  0
    8.9270    3.3970  -60.0710 C   0  0  1  0  0  0  0  0  0  0  0  0
    9.9720    2.9700  -61.1020 C   0  0  0  0  0  0  0  0  0  0  0  0
    8.1000    2.2100  -59.5190 C   0  0  0  0  0  0  0  0  0  0  0  0
    6.6170    2.1450  -59.9090 C   0  0  1  0  0  0  0  0  0  0  0  0
    6.0480    0.7210  -59.9910 C   0  0  0  0  0  0  0  0  0  0  0  0
    4.7080    0.7110  -60.5140 O   0  0  0  0  0  0  0  0  0  0  0  0
    3.9810    1.9100  -60.2090 C   0  0  0  0  0  0  0  0  0  0  0  0
    4.4770    2.5810  -58.9290 C   0  0  0  0  0  0  0  0  0  0  0  0
    5.8540    2.9800  -59.0190 O   0  0  0  0  0  0  0  0  0  0  0  0
    9.6480    0.0660  -55.4270 C   0  0  0  0  0  0  0  0  0  0  0  0
    9.6710   -1.0080  -54.5760 N   0  0  0  0  0  0  0  0  0  0  0  0
   10.8210   -1.9050  -54.4440 C   0  0  0  0  0  0  0  0  0  0  0  0
   11.0330   -2.7620  -55.6620 C   0  0  0  0  0  0  0  0  0  0  0  0
   11.8160   -2.3120  -56.7370 C   0  0  0  0  0  0  0  0  0  0  0  0
   11.9910   -3.1160  -57.8650 C   0  0  0  0  0  0  0  0  0  0  0  0
   11.3930   -4.3710  -57.9170 C   0  0  0  0  0  0  0  0  0  0  0  0
   11.5680   -5.1380  -59.0020 F   0  0  0  0  0  0  0  0  0  0  0  0
   10.6290   -4.8430  -56.8610 C   0  0  0  0  0  0  0  0  0  0  0  0
   10.4580   -4.0370  -55.7420 C   0  0  0  0  0  0  0  0  0  0  0  0
    9.7460   -4.5110  -54.7120 F   0  0  0  0  0  0  0  0  0  0  0  0
    8.4500   -1.1160  -53.9420 C   0  0  0  0  0  0  0  0  0  0  0  0
    8.1250   -2.1590  -52.9680 C   0  0  0  0  0  0  0  0  0  0  0  0
    8.8470   -2.2440  -51.7700 C   0  0  0  0  0  0  0  0  0  0  0  0
    8.5420   -3.2400  -50.8390 C   0  0  0  0  0  0  0  0  0  0  0  0
    7.5240   -4.1490  -51.1120 C   0  0  0  0  0  0  0  0  0  0  0  0
    7.2350   -5.1000  -50.2130 F   0  0  0  0  0  0  0  0  0  0  0  0
    6.8050   -4.0900  -52.2960 C   0  0  0  0  0  0  0  0  0  0  0  0
    7.1120   -3.0960  -53.2200 C   0  0  0  0  0  0  0  0  0  0  0  0
    6.4090   -3.0460  -54.3610 F   0  0  0  0  0  0  0  0  0  0  0  0
    6.3024    0.2760  -52.7610 H   0  0  0  0  0  0  0  0  0  0  0  0
    5.9953    1.2727  -54.2236 H   0  0  0  0  0  0  0  0  0  0  0  0
    5.5783   -0.4746  -54.2236 H   0  0  0  0  0  0  0  0  0  0  0  0
   10.0850    2.2420  -56.3710 H   0  0  0  0  0  0  0  0  0  0  0  0
    7.9871    5.4054  -56.3745 H   0  0  0  0  0  0  0  0  0  0  0  0
    8.2182    5.9397  -59.1875 H   0  0  0  0  0  0  0  0  0  0  0  0
    9.6657    6.4656  -58.5810 H   0  0  0  0  0  0  0  0  0  0  0  0
   10.5709    3.9738  -59.2251 H   0  0  0  0  0  0  0  0  0  0  0  0
    8.2614    4.0738  -60.6268 H   0  0  0  0  0  0  0  0  0  0  0  0
   10.8700    2.6030  -60.5835 H   0  0  0  0  0  0  0  0  0  0  0  0
    9.5592    2.1684  -61.7322 H   0  0  0  0  0  0  0  0  0  0  0  0
   10.2386    3.8313  -61.7322 H   0  0  0  0  0  0  0  0  0  0  0  0
    8.5757    1.2831  -59.8721 H   0  0  0  0  0  0  0  0  0  0  0  0
    8.0997    2.3487  -58.4278 H   0  0  0  0  0  0  0  0  0  0  0  0
    6.5347    2.5275  -60.9370 H   0  0  0  0  0  0  0  0  0  0  0  0
    6.6914    0.1177  -60.6483 H   0  0  0  0  0  0  0  0  0  0  0  0
    6.0212    0.3041  -58.9734 H   0  0  0  0  0  0  0  0  0  0  0  0
    4.0959    2.6154  -61.0452 H   0  0  0  0  0  0  0  0  0  0  0  0
    2.9271    1.6342  -60.0569 H   0  0  0  0  0  0  0  0  0  0  0  0
    3.8625    3.4728  -58.7365 H   0  0  0  0  0  0  0  0  0  0  0  0
    4.3921    1.8495  -58.1119 H   0  0  0  0  0  0  0  0  0  0  0  0
   10.4831    0.3882  -56.0664 H   0  0  0  0  0  0  0  0  0  0  0  0
   11.7235   -1.2980  -54.2797 H   0  0  0  0  0  0  0  0  0  0  0  0
   10.6220   -2.5769  -53.5961 H   0  0  0  0  0  0  0  0  0  0  0  0
   12.2935   -1.3221  -56.6904 H   0  0  0  0  0  0  0  0  0  0  0  0
   12.5992   -2.7586  -58.7090 H   0  0  0  0  0  0  0  0  0  0  0  0
   10.1656   -5.8395  -56.9081 H   0  0  0  0  0  0  0  0  0  0  0  0
    9.6543   -1.5262  -51.5625 H   0  0  0  0  0  0  0  0  0  0  0  0
    9.1034   -3.3054  -49.8953 H   0  0  0  0  0  0  0  0  0  0  0  0
    6.0053   -4.8168  -52.5014 H   0  0  0  0  0  0  0  0  0  0  0  0
  1  2  1  0
  2  3  1  0
  3  4  1  0
  4  5  2  0
  4  6  1  0
  6  7  1  0
  7  8  2  0
  8  9  1  0
  9 10  1  0
 10 11  1  0
 11 12  1  0
 11 13  1  0
 13 14  1  0
 14 15  1  0
 15 16  1  0
 16 17  1  0
 17 18  1  0
 18 19  1  0
  3 20  2  0
 20 21  1  0
 21 22  1  0
 22 23  1  0
 23 24  1  0
 24 25  2  0
 25 26  1  0
 26 27  1  0
 26 28  2  0
 28 29  1  0
 29 30  1  0
 21 31  1  0
 31 32  1  0
 32 33  1  0
 33 34  2  0
 34 35  1  0
 35 36  1  0
 35 37  2  0
 37 38  1  0
 38 39  1  0
 31  2  2  0
 38 32  2  0
 10  7  1  0
 19 14  1  0
 29 23  2  0
  1 40  1  0
  1 41  1  0
  1 42  1  0
  6 43  1  0
  8 44  1  0
  9 45  1  0
  9 46  1  0
 10 47  1  1
 11 48  1  6
 12 49  1  0
 12 50  1  0
 12 51  1  0
 13 52  1  0
 13 53  1  0
 14 54  1  6
 15 55  1  0
 15 56  1  0
 17 57  1  0
 17 58  1  0
 18 59  1  0
 18 60  1  0
 20 61  1  0
 22 62  1  0
 22 63  1  0
 24 64  1  0
 25 65  1  0
 28 66  1  0
 33 67  1  0
 34 68  1  0
 37 69  1  0
M  END
>  <meeko>  (36) 
{"is_sidechain": false}

$$$$

     RDKit          3D

 69 73  0  0  0  0  0  0  0  0999 V2000
    5.8500   -0.1960  -53.9680 C   0  0  0  0  0  0  0  0  0  0  0  0
    7.2880   -0.3020  -54.3580 C   0  0  0  0  0  0  0  0  0  0  0  0
    7.9890    0.5160  -55.3140 C   0  0  0  0  0  0  0  0  0  0  0  0
    7.5430    1.6650  -56.1080 C   0  0  0  0  0  0  0  0  0  0  0  0
    6.3570    1.8430  -56.3710 O   0  0  0  0  0  0  0  0  0  0  0  0
    8.5770    2.4650  -56.5540 N   0  0  0  0  0  0  0  0  0  0  0  0
    8.4160    3.7090  -57.3300 C   0  0  0  0  0  0  0  0  0  0  0  0
    8.6540    5.0100  -57.0840 C   0  0  0  0  0  0  0  0  0  0  0  0
    8.2040    5.4750  -58.4460 C   0  0  0  0  0  0  0  0  0  0  0  0
    7.8990    3.9820  -58.7410 C   0  0  1  0  0  0  0  0  0  0  0  0
    8.6050    3.2480  -59.9060 C   0  0  1  0  0  0  0  0  0  0  0  0
    7.5270    2.6220  -60.7970 C   0  0  0  0  0  0  0  0  0  0  0  0
    9.5700    4.1680  -60.6910 C   0  0  0  0  0  0  0  0  0  0  0  0
   11.0360    4.1990  -60.2280 C   0  0  1  0  0  0  0  0  0  0  0  0
   11.5410    5.5990  -59.8510 C   0  0  0  0  0  0  0  0  0  0  0  0
   12.9520    5.6100  -59.5820 O   0  0  0  0  0  0  0  0  0  0  0  0
   13.4340    4.3510  -59.0900 C   0  0  0  0  0  0  0  0  0  0  0  0
   12.3580    3.5740  -58.3330 C   0  0  0  0  0  0  0  0  0  0  0  0
   11.2220    3.2610  -59.1550 O   0  0  0  0  0  0  0  0  0  0  0  0
    9.2650   -0.0110  -55.4060 C   0  0  0  0  0  0  0  0  0  0  0  0
    9.3780   -1.0760  -54.5520 N   0  0  0  0  0  0  0  0  0  0  0  0
   10.6090   -1.8530  -54.3850 C   0  0  0  0  0  0  0  0  0  0  0  0
   10.9430   -2.7070  -55.5830 C   0  0  0  0  0  0  0  0  0  0  0  0
   11.7310   -2.2430  -56.6490 C   0  0  0  0  0  0  0  0  0  0  0  0
   11.9820   -3.0620  -57.7520 C   0  0  0  0  0  0  0  0  0  0  0  0
   11.4350   -4.3390  -57.8010 C   0  0  0  0  0  0  0  0  0  0  0  0
   11.6750   -5.1180  -58.8630 F   0  0  0  0  0  0  0  0  0  0  0  0
   10.6400   -4.8150  -56.7700 C   0  0  0  0  0  0  0  0  0  0  0  0
   10.3980   -3.9940  -55.6760 C   0  0  0  0  0  0  0  0  0  0  0  0
    9.6130   -4.4540  -54.6900 F   0  0  0  0  0  0  0  0  0  0  0  0
    8.1910   -1.2450  -53.8680 C   0  0  0  0  0  0  0  0  0  0  0  0
    7.9780   -2.2660  -52.8420 C   0  0  0  0  0  0  0  0  0  0  0  0
    8.7080   -2.2080  -51.6480 C   0  0  0  0  0  0  0  0  0  0  0  0
    8.5100   -3.1730  -50.6580 C   0  0  0  0  0  0  0  0  0  0  0  0
    7.5830   -4.1900  -50.8650 C   0  0  0  0  0  0  0  0  0  0  0  0
    7.3980   -5.1140  -49.9140 F   0  0  0  0  0  0  0  0  0  0  0  0
    6.8460   -4.2630  -52.0390 C   0  0  0  0  0  0  0  0  0  0  0  0
    7.0470   -3.2980  -53.0200 C   0  0  0  0  0  0  0  0  0  0  0  0
    6.3280   -3.3750  -54.1490 F   0  0  0  0  0  0  0  0  0  0  0  0
    5.7671   -0.1899  -52.8711 H   0  0  0  0  0  0  0  0  0  0  0  0
    5.4280    0.7357  -54.3728 H   0  0  0  0  0  0  0  0  0  0  0  0
    5.2960   -1.0557  -54.3728 H   0  0  0  0  0  0  0  0  0  0  0  0
    9.5200    2.1470  -56.3850 H   0  0  0  0  0  0  0  0  0  0  0  0
    9.0395    5.5442  -56.2031 H   0  0  0  0  0  0  0  0  0  0  0  0
    7.3249    6.1361  -58.4432 H   0  0  0  0  0  0  0  0  0  0  0  0
    8.8418    6.0871  -59.1006 H   0  0  0  0  0  0  0  0  0  0  0  0
    6.9070    3.6730  -59.1023 H   0  0  0  0  0  0  0  0  0  0  0  0
    9.2498    2.4537  -59.5019 H   0  0  0  0  0  0  0  0  0  0  0  0
    6.7475    2.1694  -60.1665 H   0  0  0  0  0  0  0  0  0  0  0  0
    7.0788    3.4003  -61.4321 H   0  0  0  0  0  0  0  0  0  0  0  0
    7.9808    1.8469  -61.4321 H   0  0  0  0  0  0  0  0  0  0  0  0
    9.5604    3.8402  -61.7410 H   0  0  0  0  0  0  0  0  0  0  0  0
    9.1948    5.1878  -60.5203 H   0  0  0  0  0  0  0  0  0  0  0  0
   11.6527    3.9012  -61.0888 H   0  0  0  0  0  0  0  0  0  0  0  0
   11.3333    6.2872  -60.6836 H   0  0  0  0  0  0  0  0  0  0  0  0
   11.0190    5.9121  -58.9348 H   0  0  0  0  0  0  0  0  0  0  0  0
   13.7742    3.7449  -59.9425 H   0  0  0  0  0  0  0  0  0  0  0  0
   14.2567    4.5562  -58.3893 H   0  0  0  0  0  0  0  0  0  0  0  0
   12.7955    2.6346  -57.9640 H   0  0  0  0  0  0  0  0  0  0  0  0
   12.0067    4.2097  -57.5068 H   0  0  0  0  0  0  0  0  0  0  0  0
   10.0634    0.3661  -56.0620 H   0  0  0  0  0  0  0  0  0  0  0  0
   11.4413   -1.1552  -54.2107 H   0  0  0  0  0  0  0  0  0  0  0  0
   10.4525   -2.5324  -53.5342 H   0  0  0  0  0  0  0  0  0  0  0  0
   12.1532   -1.2278  -56.6149 H   0  0  0  0  0  0  0  0  0  0  0  0
   12.6100   -2.6981  -58.5786 H   0  0  0  0  0  0  0  0  0  0  0  0
   10.2082   -5.8256  -56.8174 H   0  0  0  0  0  0  0  0  0  0  0  0
    9.4385   -1.4010  -51.4898 H   0  0  0  0  0  0  0  0  0  0  0  0
    9.0834   -3.1294  -49.7203 H   0  0  0  0  0  0  0  0  0  0  0  0
    6.1150   -5.0708  -52.1909 H   0  0  0  0  0  0  0  0  0  0  0  0
  1  2  1  0
  2  3  1  0
  3  4  1  0
  4  5  2  0
  4  6  1  0
  6  7  1  0
  7  8  2  0
  8  9  1  0
  9 10  1  0
 10 11  1  0
 11 12  1  0
 11 13  1  0
 13 14  1  0
 14 15  1  0
 15 16  1  0
 16 17  1  0
 17 18  1  0
 18 19  1  0
  3 20  2  0
 20 21  1  0
 21 22  1  0
 22 23  1  0
 23 24  1  0
 24 25  2  0
 25 26  1  0
 26 27  1  0
 26 28  2  0
 28 29  1  0
 29 30  1  0
 21 31  1  0
 31 32  1  0
 32 33  1  0
 33 34  2  0
 34 35  1  0
 35 36  1  0
 35 37  2  0
 37 38  1  0
 38 39  1  0
 31  2  2  0
 38 32  2  0
 10  7  1  0
 19 14  1  0
 29 23  2  0
  1 40  1  0
  1 41  1  0
  1 42  1  0
  6 43  1  0
  8 44  1  0
  9 45  1  0
  9 46  1  0
 10 47  1  1
 11 48  1  1
 12 49  1  0
 12 50  1  0
 12 51  1  0
 13 52  1  0
 13 53  1  0
 14 54  1  6
 15 55  1  0
 15 56  1  0
 17 57  1  0
 17 58  1  0
 18 59  1  0
 18 60  1  0
 20 61  1  0
 22 62  1  0
 22 63  1  0
 24 64  1  0
 25 65  1  0
 28 66  1  0
 33 67  1  0
 34 68  1  0
 37 69  1  0
M  END
>  <meeko>  (37) 
{"is_sidechain": false}

$$$$

     RDKit          3D

 64 69  0  0  0  0  0  0  0  0999 V2000
    6.2420    0.1330  -53.7520 C   0  0  0  0  0  0  0  0  0  0  0  0
    7.5900   -0.2900  -54.2350 C   0  0  0  0  0  0  0  0  0  0  0  0
    8.3700    0.3250  -55.2770 C   0  0  0  0  0  0  0  0  0  0  0  0
    8.0810    1.4560  -56.1640 C   0  0  0  0  0  0  0  0  0  0  0  0
    7.0130    2.0560  -56.1190 O   0  0  0  0  0  0  0  0  0  0  0  0
    9.1280    1.8100  -56.9870 N   0  0  0  0  0  0  0  0  0  0  0  0
    9.1300    2.9650  -57.8880 C   0  0  2  0  0  0  0  0  0  0  0  0
    8.9920    4.2960  -57.1110 C   0  0  0  0  0  0  0  0  0  0  0  0
    9.0570    5.4940  -58.0750 C   0  0  1  0  0  0  0  0  0  0  0  0
   10.4090    5.4840  -58.8080 C   0  0  0  0  0  0  0  0  0  0  0  0
   10.5630    4.1810  -59.6070 C   0  0  2  0  0  0  0  0  0  0  0  0
    9.4240    4.0750  -60.6330 C   0  0  0  0  0  0  0  0  0  0  0  0
    8.0680    4.0750  -59.9110 C   0  0  2  0  0  0  0  0  0  0  0  0
    7.9210    5.3770  -59.1050 C   0  0  0  0  0  0  0  0  0  0  0  0
    8.0020    2.8750  -58.9490 C   0  0  0  0  0  0  0  0  0  0  0  0
   10.4870    2.9860  -58.6440 C   0  0  0  0  0  0  0  0  0  0  0  0
    9.5690   -0.3650  -55.3150 C   0  0  0  0  0  0  0  0  0  0  0  0
    9.5530   -1.3610  -54.3720 N   0  0  0  0  0  0  0  0  0  0  0  0
   10.6520   -2.3050  -54.1650 C   0  0  0  0  0  0  0  0  0  0  0  0
   10.9550   -3.1170  -55.3970 C   0  0  0  0  0  0  0  0  0  0  0  0
   10.4840   -4.4340  -55.5290 C   0  0  0  0  0  0  0  0  0  0  0  0
   10.7610   -5.1680  -56.6840 C   0  0  0  0  0  0  0  0  0  0  0  0
   11.5070   -4.5900  -57.7060 C   0  0  0  0  0  0  0  0  0  0  0  0
   11.7730   -5.3000  -58.8100 F   0  0  0  0  0  0  0  0  0  0  0  0
   11.9840   -3.2920  -57.5970 C   0  0  0  0  0  0  0  0  0  0  0  0
   11.7030   -2.5680  -56.4440 C   0  0  0  0  0  0  0  0  0  0  0  0
   12.1800   -1.3200  -56.3420 F   0  0  0  0  0  0  0  0  0  0  0  0
    8.3280   -1.3640  -53.7360 C   0  0  0  0  0  0  0  0  0  0  0  0
    7.9410   -2.3350  -52.7160 C   0  0  0  0  0  0  0  0  0  0  0  0
    8.1300   -2.0510  -51.3590 C   0  0  0  0  0  0  0  0  0  0  0  0
    7.7550   -2.9810  -50.3880 C   0  0  0  0  0  0  0  0  0  0  0  0
    7.1840   -4.1870  -50.7810 C   0  0  0  0  0  0  0  0  0  0  0  0
    6.8220   -5.0790  -49.8500 F   0  0  0  0  0  0  0  0  0  0  0  0
    6.9820   -4.4810  -52.1240 C   0  0  0  0  0  0  0  0  0  0  0  0
    7.3590   -3.5520  -53.0960 C   0  0  0  0  0  0  0  0  0  0  0  0
    6.2311    0.1364  -52.6521 H   0  0  0  0  0  0  0  0  0  0  0  0
    6.0198    1.1440  -54.1240 H   0  0  0  0  0  0  0  0  0  0  0  0
    5.4820   -0.5698  -54.1240 H   0  0  0  0  0  0  0  0  0  0  0  0
   10.0250    1.4220  -56.7360 H   0  0  0  0  0  0  0  0  0  0  0  0
    8.0269    4.3084  -56.5832 H   0  0  0  0  0  0  0  0  0  0  0  0
    9.8199    4.3743  -56.3910 H   0  0  0  0  0  0  0  0  0  0  0  0
    8.9501    6.4311  -57.5090 H   0  0  0  0  0  0  0  0  0  0  0  0
   10.4569    6.3411  -59.4958 H   0  0  0  0  0  0  0  0  0  0  0  0
   11.2211    5.5531  -58.0693 H   0  0  0  0  0  0  0  0  0  0  0  0
   11.5318    4.1793  -60.1280 H   0  0  0  0  0  0  0  0  0  0  0  0
    9.4712    4.9326  -61.3203 H   0  0  0  0  0  0  0  0  0  0  0  0
    9.5327    3.1382  -61.1992 H   0  0  0  0  0  0  0  0  0  0  0  0
    7.2571    4.0022  -60.6507 H   0  0  0  0  0  0  0  0  0  0  0  0
    7.9624    6.2359  -59.7910 H   0  0  0  0  0  0  0  0  0  0  0  0
    6.9564    5.3654  -58.5764 H   0  0  0  0  0  0  0  0  0  0  0  0
    7.0265    2.8721  -58.4406 H   0  0  0  0  0  0  0  0  0  0  0  0
    8.1315    1.9484  -59.5275 H   0  0  0  0  0  0  0  0  0  0  0  0
   10.5931    2.0539  -59.2184 H   0  0  0  0  0  0  0  0  0  0  0  0
   11.2976    3.0787  -57.9062 H   0  0  0  0  0  0  0  0  0  0  0  0
   10.4053   -0.1483  -55.9959 H   0  0  0  0  0  0  0  0  0  0  0  0
   11.5534   -1.7407  -53.8839 H   0  0  0  0  0  0  0  0  0  0  0  0
   10.3478   -3.0031  -53.3712 H   0  0  0  0  0  0  0  0  0  0  0  0
    9.8946   -4.8887  -54.7192 H   0  0  0  0  0  0  0  0  0  0  0  0
   10.3909   -6.1989  -56.7853 H   0  0  0  0  0  0  0  0  0  0  0  0
   12.5746   -2.8432  -58.4092 H   0  0  0  0  0  0  0  0  0  0  0  0
    8.5755   -1.0918  -51.0565 H   0  0  0  0  0  0  0  0  0  0  0  0
    7.9097   -2.7621  -49.3212 H   0  0  0  0  0  0  0  0  0  0  0  0
    6.5284   -5.4386  -52.4193 H   0  0  0  0  0  0  0  0  0  0  0  0
    7.1990   -3.7756  -54.1611 H   0  0  0  0  0  0  0  0  0  0  0  0
  1  2  1  0
  2  3  1  0
  3  4  1  0
  4  5  2  0
  4  6  1  0
  7  6  1  1
  7  8  1  0
  8  9  1  0
  9 10  1  0
 10 11  1  0
 11 12  1  0
 12 13  1  0
 13 14  1  0
 13 15  1  0
 11 16  1  0
  3 17  2  0
 17 18  1  0
 18 19  1  0
 19 20  1  0
 20 21  1  0
 21 22  2  0
 22 23  1  0
 23 24  1  0
 23 25  2  0
 25 26  1  0
 26 27  1  0
 18 28  1  0
 28 29  1  0
 29 30  1  0
 30 31  2  0
 31 32  1  0
 32 33  1  0
 32 34  2  0
 34 35  1  0
 28  2  2  0
 35 29  2  0
 15  7  1  0
 26 20  2  0
 16  7  1  0
 14  9  1  0
  1 36  1  0
  1 37  1  0
  1 38  1  0
  6 39  1  0
  8 40  1  0
  8 41  1  0
  9 42  1  1
 10 43  1  0
 10 44  1  0
 11 45  1  6
 12 46  1  0
 12 47  1  0
 13 48  1  6
 14 49  1  0
 14 50  1  0
 15 51  1  0
 15 52  1  0
 16 53  1  0
 16 54  1  0
 17 55  1  0
 19 56  1  0
 19 57  1  0
 21 58  1  0
 22 59  1  0
 25 60  1  0
 30 61  1  0
 31 62  1  0
 34 63  1  0
 35 64  1  0
M  END
>  <meeko>  (38) 
{"is_sidechain": false}

$$$$

     RDKit          3D

 53 56  0  0  0  0  0  0  0  0999 V2000
    6.3030    0.2980  -54.3290 C   0  0  0  0  0  0  0  0  0  0  0  0
    7.7220    0.0070  -54.6870 C   0  0  0  0  0  0  0  0  0  0  0  0
    8.5350    0.7350  -55.6190 C   0  0  0  0  0  0  0  0  0  0  0  0
    8.2070    1.9110  -56.4270 C   0  0  0  0  0  0  0  0  0  0  0  0
    7.0340    2.1900  -56.6720 O   0  0  0  0  0  0  0  0  0  0  0  0
    9.2760    2.6940  -56.8900 N   0  0  0  0  0  0  0  0  0  0  0  0
   10.5360    2.0710  -57.3040 C   0  0  0  0  0  0  0  0  0  0  0  0
   11.6920    3.0660  -57.2840 C   0  0  0  0  0  0  0  0  0  0  0  0
   11.3590    4.3170  -58.0900 C   0  0  0  0  0  0  0  0  0  0  0  0
   10.0510    4.9320  -57.6040 C   0  0  0  0  0  0  0  0  0  0  0  0
    8.9180    3.9100  -57.6120 C   0  0  0  0  0  0  0  0  0  0  0  0
    9.7420    0.0660  -55.6940 C   0  0  0  0  0  0  0  0  0  0  0  0
    9.7280   -0.9750  -54.8020 N   0  0  0  0  0  0  0  0  0  0  0  0
   10.8580   -1.8840  -54.6010 C   0  0  0  0  0  0  0  0  0  0  0  0
   11.0870   -2.7960  -55.7780 C   0  0  0  0  0  0  0  0  0  0  0  0
   11.8530   -2.3950  -56.8850 C   0  0  0  0  0  0  0  0  0  0  0  0
   12.0440   -3.2660  -57.9600 C   0  0  0  0  0  0  0  0  0  0  0  0
   11.4650   -4.5290  -57.9360 C   0  0  0  0  0  0  0  0  0  0  0  0
   11.6520   -5.3600  -58.9700 F   0  0  0  0  0  0  0  0  0  0  0  0
   10.6930   -4.9410  -56.8610 C   0  0  0  0  0  0  0  0  0  0  0  0
   10.5070   -4.0700  -55.7950 C   0  0  0  0  0  0  0  0  0  0  0  0
    9.7540   -4.4730  -54.7600 F   0  0  0  0  0  0  0  0  0  0  0  0
    8.4960   -1.0340  -54.1790 C   0  0  0  0  0  0  0  0  0  0  0  0
    8.1390   -2.0310  -53.1700 C   0  0  0  0  0  0  0  0  0  0  0  0
    8.7980   -2.0480  -51.9330 C   0  0  0  0  0  0  0  0  0  0  0  0
    8.4480   -2.9940  -50.9680 C   0  0  0  0  0  0  0  0  0  0  0  0
    7.4480   -3.9220  -51.2430 C   0  0  0  0  0  0  0  0  0  0  0  0
    7.1170   -4.8260  -50.3120 F   0  0  0  0  0  0  0  0  0  0  0  0
    6.7910   -3.9300  -52.4650 C   0  0  0  0  0  0  0  0  0  0  0  0
    7.1430   -2.9850  -53.4230 C   0  0  0  0  0  0  0  0  0  0  0  0
    6.4990   -2.9980  -54.6000 F   0  0  0  0  0  0  0  0  0  0  0  0
    6.1981    0.3195  -53.2342 H   0  0  0  0  0  0  0  0  0  0  0  0
    6.0129    1.2743  -54.7444 H   0  0  0  0  0  0  0  0  0  0  0  0
    5.6520   -0.4853  -54.7444 H   0  0  0  0  0  0  0  0  0  0  0  0
   10.7666    1.2431  -56.6174 H   0  0  0  0  0  0  0  0  0  0  0  0
   10.4154    1.7069  -58.3350 H   0  0  0  0  0  0  0  0  0  0  0  0
   11.8985    3.3547  -56.2429 H   0  0  0  0  0  0  0  0  0  0  0  0
   12.5722    2.5854  -57.7359 H   0  0  0  0  0  0  0  0  0  0  0  0
   12.1701    5.0506  -57.9717 H   0  0  0  0  0  0  0  0  0  0  0  0
   11.2504    4.0399  -59.1490 H   0  0  0  0  0  0  0  0  0  0  0  0
   10.1900    5.3041  -56.5782 H   0  0  0  0  0  0  0  0  0  0  0  0
    9.7810    5.7533  -58.2842 H   0  0  0  0  0  0  0  0  0  0  0  0
    8.0323    4.3575  -57.1374 H   0  0  0  0  0  0  0  0  0  0  0  0
    8.7129    3.6372  -58.6577 H   0  0  0  0  0  0  0  0  0  0  0  0
   10.5775    0.3263  -56.3605 H   0  0  0  0  0  0  0  0  0  0  0  0
   11.7663   -1.2855  -54.4376 H   0  0  0  0  0  0  0  0  0  0  0  0
   10.6254   -2.5160  -53.7313 H   0  0  0  0  0  0  0  0  0  0  0  0
   12.3039   -1.3918  -56.9053 H   0  0  0  0  0  0  0  0  0  0  0  0
   12.6507   -2.9533  -58.8227 H   0  0  0  0  0  0  0  0  0  0  0  0
   10.2352   -5.9412  -56.8522 H   0  0  0  0  0  0  0  0  0  0  0  0
    9.5913   -1.3156  -51.7226 H   0  0  0  0  0  0  0  0  0  0  0  0
    8.9603   -3.0059  -49.9946 H   0  0  0  0  0  0  0  0  0  0  0  0
    6.0051   -4.6711  -52.6727 H   0  0  0  0  0  0  0  0  0  0  0  0
  1  2  1  0
  2  3  1  0
  3  4  1  0
  4  5  2  0
  4  6  1  0
  6  7  1  0
  7  8  1  0
  8  9  1  0
  9 10  1  0
 10 11  1  0
  3 12  2  0
 12 13  1  0
 13 14  1  0
 14 15  1  0
 15 16  1  0
 16 17  2  0
 17 18  1  0
 18 19  1  0
 18 20  2  0
 20 21  1  0
 21 22  1  0
 13 23  1  0
 23 24  1  0
 24 25  1  0
 25 26  2  0
 26 27  1  0
 27 28  1  0
 27 29  2  0
 29 30  1  0
 30 31  1  0
 23  2  2  0
 30 24  2  0
 11  6  1  0
 21 15  2  0
  1 32  1  0
  1 33  1  0
  1 34  1  0
  7 35  1  0
  7 36  1  0
  8 37  1  0
  8 38  1  0
  9 39  1  0
  9 40  1  0
 10 41  1  0
 10 42  1  0
 11 43  1  0
 11 44  1  0
 12 45  1  0
 14 46  1  0
 14 47  1  0
 16 48  1  0
 17 49  1  0
 20 50  1  0
 25 51  1  0
 26 52  1  0
 29 53  1  0
M  END
>  <meeko>  (39) 
{"is_sidechain": false}

$$$$

     RDKit          3D

 37 39  0  0  0  0  0  0  0  0999 V2000
    6.7020    0.3640  -53.9420 C   0  0  0  0  0  0  0  0  0  0  0  0
    8.0520   -0.0980  -54.3770 C   0  0  0  0  0  0  0  0  0  0  0  0
    8.8900    0.5260  -55.3450 C   0  0  0  0  0  0  0  0  0  0  0  0
    8.6290    1.7210  -56.0910 C   0  0  0  0  0  0  0  0  0  0  0  0
    8.4200    2.6910  -56.6920 N   0  0  0  0  0  0  0  0  0  0  0  0
   10.0350   -0.2310  -55.4570 C   0  0  0  0  0  0  0  0  0  0  0  0
    9.9220   -1.3080  -54.6120 N   0  0  0  0  0  0  0  0  0  0  0  0
   10.9580   -2.3340  -54.4650 C   0  0  0  0  0  0  0  0  0  0  0  0
   11.1580   -3.1600  -55.7110 C   0  0  0  0  0  0  0  0  0  0  0  0
   11.7880   -2.6250  -56.8450 C   0  0  0  0  0  0  0  0  0  0  0  0
   11.9730   -3.4040  -57.9880 C   0  0  0  0  0  0  0  0  0  0  0  0
   11.5380   -4.7280  -58.0090 C   0  0  0  0  0  0  0  0  0  0  0  0
   10.9220   -5.2750  -56.8870 C   0  0  0  0  0  0  0  0  0  0  0  0
   10.7370   -4.4980  -55.7430 C   0  0  0  0  0  0  0  0  0  0  0  0
    8.7230   -1.2340  -53.9250 C   0  0  0  0  0  0  0  0  0  0  0  0
    8.2780   -2.2330  -52.9530 C   0  0  0  0  0  0  0  0  0  0  0  0
    8.9180   -2.3390  -51.7110 C   0  0  0  0  0  0  0  0  0  0  0  0
    8.5010   -3.3040  -50.7910 C   0  0  0  0  0  0  0  0  0  0  0  0
    7.4470   -4.1530  -51.1120 C   0  0  0  0  0  0  0  0  0  0  0  0
    7.0550   -5.0780  -50.2260 F   0  0  0  0  0  0  0  0  0  0  0  0
    6.7910   -4.0560  -52.3320 C   0  0  0  0  0  0  0  0  0  0  0  0
    7.2080   -3.0930  -53.2430 C   0  0  0  0  0  0  0  0  0  0  0  0
    6.5640   -3.0020  -54.4160 F   0  0  0  0  0  0  0  0  0  0  0  0
    6.6563    0.3796  -52.8431 H   0  0  0  0  0  0  0  0  0  0  0  0
    6.5179    1.3763  -54.3311 H   0  0  0  0  0  0  0  0  0  0  0  0
    5.9363   -0.3232  -54.3311 H   0  0  0  0  0  0  0  0  0  0  0  0
   10.8921   -0.0111  -56.1104 H   0  0  0  0  0  0  0  0  0  0  0  0
   11.9084   -1.8382  -54.2181 H   0  0  0  0  0  0  0  0  0  0  0  0
   10.6295   -3.0182  -53.6688 H   0  0  0  0  0  0  0  0  0  0  0  0
   12.1391   -1.5826  -56.8329 H   0  0  0  0  0  0  0  0  0  0  0  0
   12.4627   -2.9726  -58.8735 H   0  0  0  0  0  0  0  0  0  0  0  0
   11.6814   -5.3402  -58.9116 H   0  0  0  0  0  0  0  0  0  0  0  0
   10.5808   -6.3206  -56.9023 H   0  0  0  0  0  0  0  0  0  0  0  0
   10.2562   -4.9389  -54.8573 H   0  0  0  0  0  0  0  0  0  0  0  0
    9.7485   -1.6626  -51.4605 H   0  0  0  0  0  0  0  0  0  0  0  0
    9.0041   -3.3921  -49.8168 H   0  0  0  0  0  0  0  0  0  0  0  0
    5.9557   -4.7298  -52.5732 H   0  0  0  0  0  0  0  0  0  0  0  0
  1  2  1  0
  2  3  1  0
  3  4  1  0
  4  5  3  0
  3  6  2  0
  6  7  1  0
  7  8  1  0
  8  9  1  0
  9 10  2  0
 10 11  1  0
 11 12  2  0
 12 13  1  0
 13 14  2  0
  7 15  1  0
 15 16  1  0
 16 17  1  0
 17 18  2  0
 18 19  1  0
 19 20  1  0
 19 21  2  0
 21 22  1  0
 22 23  1  0
 15  2  2  0
 22 16  2  0
 14  9  1  0
  1 24  1  0
  1 25  1  0
  1 26  1  0
  6 27  1  0
  8 28  1  0
  8 29  1  0
 10 30  1  0
 11 31  1  0
 12 32  1  0
 13 33  1  0
 14 34  1  0
 17 35  1  0
 18 36  1  0
 21 37  1  0
M  END
>  <meeko>  (40) 
{"is_sidechain": false}

$$$$

     RDKit          3D

 65 70  0  0  0  0  0  0  0  0999 V2000
    6.7230    0.1410  -54.0190 C   0  0  0  0  0  0  0  0  0  0  0  0
    8.0720   -0.3550  -54.4250 C   0  0  0  0  0  0  0  0  0  0  0  0
    8.9230    0.2550  -55.4150 C   0  0  0  0  0  0  0  0  0  0  0  0
    8.6390    1.4690  -56.1950 C   0  0  0  0  0  0  0  0  0  0  0  0
    7.5620    2.0500  -56.1240 O   0  0  0  0  0  0  0  0  0  0  0  0
    9.6660    1.8800  -57.0220 N   0  0  0  0  0  0  0  0  0  0  0  0
    9.5970    3.0160  -57.9440 C   0  0  2  0  0  0  0  0  0  0  0  0
    9.4600    4.3650  -57.1920 C   0  0  0  0  0  0  0  0  0  0  0  0
    9.4440    5.5400  -58.1850 C   0  0  1  0  0  0  0  0  0  0  0  0
   10.7580    5.5520  -58.9810 C   0  0  0  0  0  0  0  0  0  0  0  0
   10.9130    4.2330  -59.7550 C   0  0  2  0  0  0  0  0  0  0  0  0
    9.7310    4.0670  -60.7220 C   0  0  0  0  0  0  0  0  0  0  0  0
    8.4100    4.0470  -59.9360 C   0  0  2  0  0  0  0  0  0  0  0  0
    8.2630    5.3650  -59.1570 C   0  0  0  0  0  0  0  0  0  0  0  0
    8.4250    2.8700  -58.9450 C   0  0  0  0  0  0  0  0  0  0  0  0
   10.9190    3.0620  -58.7580 C   0  0  0  0  0  0  0  0  0  0  0  0
   10.0670   -0.5250  -55.4640 C   0  0  0  0  0  0  0  0  0  0  0  0
    9.9510   -1.5510  -54.5550 N   0  0  0  0  0  0  0  0  0  0  0  0
   10.9730   -2.5780  -54.3530 C   0  0  0  0  0  0  0  0  0  0  0  0
   11.2380   -3.3830  -55.6010 C   0  0  0  0  0  0  0  0  0  0  0  0
   11.6840   -2.7490  -56.7730 C   0  0  0  0  0  0  0  0  0  0  0  0
   11.9380   -3.4860  -57.9340 C   0  0  0  0  0  0  0  0  0  0  0  0
   11.7570   -4.8660  -57.9350 C   0  0  0  0  0  0  0  0  0  0  0  0
   11.3230   -5.4980  -56.7770 C   0  0  0  0  0  0  0  0  0  0  0  0
   11.1520   -6.8270  -56.7750 F   0  0  0  0  0  0  0  0  0  0  0  0
   11.0640   -4.7760  -55.6160 C   0  0  0  0  0  0  0  0  0  0  0  0
    8.7260   -1.4770  -53.9260 C   0  0  0  0  0  0  0  0  0  0  0  0
    8.2790   -2.4240  -52.9100 C   0  0  0  0  0  0  0  0  0  0  0  0
    8.5790   -2.2040  -51.5590 C   0  0  0  0  0  0  0  0  0  0  0  0
    8.1470   -3.1080  -50.5850 C   0  0  0  0  0  0  0  0  0  0  0  0
    7.4180   -4.2290  -50.9690 C   0  0  0  0  0  0  0  0  0  0  0  0
    6.9720   -5.1340  -50.0520 O   0  0  0  0  0  0  0  0  0  0  0  0
    7.1210   -4.4640  -52.3060 C   0  0  0  0  0  0  0  0  0  0  0  0
    7.5570   -3.5640  -53.2800 C   0  0  0  0  0  0  0  0  0  0  0  0
    6.6564    0.1655  -52.9213 H   0  0  0  0  0  0  0  0  0  0  0  0
    6.5695    1.1544  -54.4183 H   0  0  0  0  0  0  0  0  0  0  0  0
    5.9496   -0.5316  -54.4183 H   0  0  0  0  0  0  0  0  0  0  0  0
   10.4400    1.2420  -57.1320 H   0  0  0  0  0  0  0  0  0  0  0  0
    8.5221    4.3647  -56.6173 H   0  0  0  0  0  0  0  0  0  0  0  0
   10.3203    4.4833  -56.5168 H   0  0  0  0  0  0  0  0  0  0  0  0
    9.3366    6.4872  -57.6360 H   0  0  0  0  0  0  0  0  0  0  0  0
   10.7468    6.3922  -59.6908 H   0  0  0  0  0  0  0  0  0  0  0  0
   11.6021    5.6646  -58.2847 H   0  0  0  0  0  0  0  0  0  0  0  0
   11.8550    4.2454  -60.3229 H   0  0  0  0  0  0  0  0  0  0  0  0
    9.7201    4.9070  -61.4321 H   0  0  0  0  0  0  0  0  0  0  0  0
    9.8412    3.1189  -61.2688 H   0  0  0  0  0  0  0  0  0  0  0  0
    7.5667    3.9325  -60.6329 H   0  0  0  0  0  0  0  0  0  0  0  0
    8.2471    6.2064  -59.8654 H   0  0  0  0  0  0  0  0  0  0  0  0
    7.3250    5.3411  -58.5830 H   0  0  0  0  0  0  0  0  0  0  0  0
    7.4755    2.8525  -58.3900 H   0  0  0  0  0  0  0  0  0  0  0  0
    8.5537    1.9338  -59.5080 H   0  0  0  0  0  0  0  0  0  0  0  0
   11.0331    2.1186  -59.3121 H   0  0  0  0  0  0  0  0  0  0  0  0
   11.7562    3.2022  -58.0584 H   0  0  0  0  0  0  0  0  0  0  0  0
   10.9298   -0.3517  -56.1240 H   0  0  0  0  0  0  0  0  0  0  0  0
   11.9084   -2.0887  -54.0436 H   0  0  0  0  0  0  0  0  0  0  0  0
   10.6038   -3.2696  -53.5814 H   0  0  0  0  0  0  0  0  0  0  0  0
   11.8352   -1.6595  -56.7773 H   0  0  0  0  0  0  0  0  0  0  0  0
   12.2807   -2.9753  -58.8460 H   0  0  0  0  0  0  0  0  0  0  0  0
   11.9560   -5.4510  -58.8451 H   0  0  0  0  0  0  0  0  0  0  0  0
   10.7227   -5.2971  -54.7094 H   0  0  0  0  0  0  0  0  0  0  0  0
    9.1571   -1.3159  -51.2640 H   0  0  0  0  0  0  0  0  0  0  0  0
    8.3812   -2.9349  -49.5243 H   0  0  0  0  0  0  0  0  0  0  0  0
    6.1170   -5.4830  -50.3500 H   0  0  0  0  0  0  0  0  0  0  0  0
    6.5449   -5.3552  -52.5956 H   0  0  0  0  0  0  0  0  0  0  0  0
    7.3325   -3.7514  -54.3404 H   0  0  0  0  0  0  0  0  0  0  0  0
  1  2  1  0
  2  3  1  0
  3  4  1  0
  4  5  2  0
  4  6  1  0
  7  6  1  1
  7  8  1  0
  8  9  1  0
  9 10  1  0
 10 11  1  0
 11 12  1  0
 12 13  1  0
 13 14  1  0
 13 15  1  0
 11 16  1  0
  3 17  2  0
 17 18  1  0
 18 19  1  0
 19 20  1  0
 20 21  2  0
 21 22  1  0
 22 23  2  0
 23 24  1  0
 24 25  1  0
 24 26  2  0
 18 27  1  0
 27 28  1  0
 28 29  1  0
 29 30  2  0
 30 31  1  0
 31 32  1  0
 31 33  2  0
 33 34  1  0
 27  2  2  0
 34 28  2  0
 15  7  1  0
 26 20  1  0
 16  7  1  0
 14  9  1  0
  1 35  1  0
  1 36  1  0
  1 37  1  0
  6 38  1  0
  8 39  1  0
  8 40  1  0
  9 41  1  1
 10 42  1  0
 10 43  1  0
 11 44  1  6
 12 45  1  0
 12 46  1  0
 13 47  1  6
 14 48  1  0
 14 49  1  0
 15 50  1  0
 15 51  1  0
 16 52  1  0
 16 53  1  0
 17 54  1  0
 19 55  1  0
 19 56  1  0
 21 57  1  0
 22 58  1  0
 23 59  1  0
 26 60  1  0
 29 61  1  0
 30 62  1  0
 32 63  1  0
 33 64  1  0
 34 65  1  0
M  END
>  <meeko>  (41) 
{"is_sidechain": false}

$$$$

     RDKit          3D

 66 71  0  0  0  0  0  0  0  0999 V2000
    6.2500    0.0280  -53.7140 C   0  0  0  0  0  0  0  0  0  0  0  0
    7.6140   -0.4490  -54.0600 C   0  0  0  0  0  0  0  0  0  0  0  0
    8.4860    0.1020  -55.0480 C   0  0  0  0  0  0  0  0  0  0  0  0
    8.2350    1.2550  -55.9380 C   0  0  0  0  0  0  0  0  0  0  0  0
    7.1230    1.7440  -56.1020 O   0  0  0  0  0  0  0  0  0  0  0  0
    9.3830    1.7070  -56.5510 N   0  0  0  0  0  0  0  0  0  0  0  0
    9.4820    2.8190  -57.4900 C   0  0  2  0  0  0  0  0  0  0  0  0
   10.9330    2.8750  -58.0360 C   0  0  0  0  0  0  0  0  0  0  0  0
   11.1020    4.0310  -59.0340 C   0  0  1  0  0  0  0  0  0  0  0  0
   10.1310    3.8300  -60.2080 C   0  0  0  0  0  0  0  0  0  0  0  0
    8.6840    3.7970  -59.6910 C   0  0  2  0  0  0  0  0  0  0  0  0
    8.3700    5.1240  -58.9780 C   0  0  0  0  0  0  0  0  0  0  0  0
    9.3360    5.3340  -57.8010 C   0  0  2  0  0  0  0  0  0  0  0  0
   10.7800    5.3580  -58.3280 C   0  0  0  0  0  0  0  0  0  0  0  0
    9.1780    4.1740  -56.8030 C   0  0  0  0  0  0  0  0  0  0  0  0
    8.5250    2.6360  -58.6940 C   0  0  0  0  0  0  0  0  0  0  0  0
    9.6540   -0.5730  -55.0990 N   0  0  0  0  0  0  0  0  0  0  0  0
    9.5220   -1.5350  -54.1660 N   0  0  0  0  0  0  0  0  0  0  0  0
   10.6300   -2.4470  -53.9430 C   0  0  0  0  0  0  0  0  0  0  0  0
   10.3710   -3.8110  -54.5770 C   0  0  0  0  0  0  0  0  0  0  0  0
   11.3110   -4.0690  -55.7280 C   0  0  0  0  0  0  0  0  0  0  0  0
   12.2360   -5.1190  -55.6620 C   0  0  0  0  0  0  0  0  0  0  0  0
   13.0900   -5.3750  -56.7360 C   0  0  0  0  0  0  0  0  0  0  0  0
   13.0240   -4.5870  -57.8820 C   0  0  0  0  0  0  0  0  0  0  0  0
   12.1040   -3.5440  -57.9590 C   0  0  0  0  0  0  0  0  0  0  0  0
   11.2480   -3.2850  -56.8870 C   0  0  0  0  0  0  0  0  0  0  0  0
    8.3170   -1.5090  -53.5070 C   0  0  0  0  0  0  0  0  0  0  0  0
    7.9460   -2.4300  -52.4400 C   0  0  0  0  0  0  0  0  0  0  0  0
    8.3400   -2.1740  -51.1230 C   0  0  0  0  0  0  0  0  0  0  0  0
    7.9970   -3.0620  -50.1020 C   0  0  0  0  0  0  0  0  0  0  0  0
    7.2550   -4.2060  -50.3920 C   0  0  0  0  0  0  0  0  0  0  0  0
    6.8510   -4.4610  -51.7020 C   0  0  0  0  0  0  0  0  0  0  0  0
    7.1920   -3.5740  -52.7250 C   0  0  0  0  0  0  0  0  0  0  0  0
    6.1414    0.0660  -52.6200 H   0  0  0  0  0  0  0  0  0  0  0  0
    6.0959    1.0334  -54.1329 H   0  0  0  0  0  0  0  0  0  0  0  0
    5.5029   -0.6622  -54.1329 H   0  0  0  0  0  0  0  0  0  0  0  0
   10.2140    1.1750  -56.2990 H   0  0  0  0  0  0  0  0  0  0  0  0
   11.6280    3.0206  -57.1959 H   0  0  0  0  0  0  0  0  0  0  0  0
   11.1486    1.9296  -58.5553 H   0  0  0  0  0  0  0  0  0  0  0  0
   12.1360    4.0526  -59.4088 H   0  0  0  0  0  0  0  0  0  0  0  0
   10.2445    4.6597  -60.9212 H   0  0  0  0  0  0  0  0  0  0  0  0
   10.3589    2.8765  -60.7070 H   0  0  0  0  0  0  0  0  0  0  0  0
    7.9932    3.6562  -60.5353 H   0  0  0  0  0  0  0  0  0  0  0  0
    8.4794    5.9546  -59.6909 H   0  0  0  0  0  0  0  0  0  0  0  0
    7.3391    5.0916  -58.5957 H   0  0  0  0  0  0  0  0  0  0  0  0
    9.1094    6.2869  -57.3003 H   0  0  0  0  0  0  0  0  0  0  0  0
   10.8941    6.1876  -59.0413 H   0  0  0  0  0  0  0  0  0  0  0  0
   11.4712    5.4957  -57.4835 H   0  0  0  0  0  0  0  0  0  0  0  0
    9.8764    4.3197  -55.9658 H   0  0  0  0  0  0  0  0  0  0  0  0
    8.1413    4.1608  -56.4355 H   0  0  0  0  0  0  0  0  0  0  0  0
    7.4871    2.6106  -58.3306 H   0  0  0  0  0  0  0  0  0  0  0  0
    8.7717    1.6932  -59.2041 H   0  0  0  0  0  0  0  0  0  0  0  0
   11.5413   -2.0160  -54.3831 H   0  0  0  0  0  0  0  0  0  0  0  0
   10.7466   -2.5882  -52.8583 H   0  0  0  0  0  0  0  0  0  0  0  0
   10.5136   -4.5925  -53.8161 H   0  0  0  0  0  0  0  0  0  0  0  0
    9.3404   -3.8246  -54.9613 H   0  0  0  0  0  0  0  0  0  0  0  0
   12.2896   -5.7450  -54.7591 H   0  0  0  0  0  0  0  0  0  0  0  0
   13.8155   -6.1997  -56.6770 H   0  0  0  0  0  0  0  0  0  0  0  0
   13.6988   -4.7882  -58.7271 H   0  0  0  0  0  0  0  0  0  0  0  0
   12.0519   -2.9235  -58.8658 H   0  0  0  0  0  0  0  0  0  0  0  0
   10.5212   -2.4620  -56.9528 H   0  0  0  0  0  0  0  0  0  0  0  0
    8.9221   -1.2700  -50.8908 H   0  0  0  0  0  0  0  0  0  0  0  0
    8.3124   -2.8589  -49.0679 H   0  0  0  0  0  0  0  0  0  0  0  0
    6.9883   -4.9073  -49.5876 H   0  0  0  0  0  0  0  0  0  0  0  0
    6.2628   -5.3622  -51.9298 H   0  0  0  0  0  0  0  0  0  0  0  0
    6.8674   -3.7748  -53.7567 H   0  0  0  0  0  0  0  0  0  0  0  0
  1  2  1  0
  2  3  1  0
  3  4  1  0
  4  5  2  0
  4  6  1  0
  7  6  1  1
  7  8  1  0
  8  9  1  0
  9 10  1  0
 10 11  1  0
 11 12  1  0
 12 13  1  0
 13 14  1  0
 13 15  1  0
 11 16  1  0
  3 17  2  0
 17 18  1  0
 18 19  1  0
 19 20  1  0
 20 21  1  0
 21 22  2  0
 22 23  1  0
 23 24  2  0
 24 25  1  0
 25 26  2  0
 18 27  1  0
 27 28  1  0
 28 29  2  0
 29 30  1  0
 30 31  2  0
 31 32  1  0
 32 33  2  0
 27  2  2  0
 33 28  1  0
 15  7  1  0
 26 21  1  0
 16  7  1  0
 14  9  1  0
  1 34  1  0
  1 35  1  0
  1 36  1  0
  6 37  1  0
  8 38  1  0
  8 39  1  0
  9 40  1  6
 10 41  1  0
 10 42  1  0
 11 43  1  6
 12 44  1  0
 12 45  1  0
 13 46  1  1
 14 47  1  0
 14 48  1  0
 15 49  1  0
 15 50  1  0
 16 51  1  0
 16 52  1  0
 19 53  1  0
 19 54  1  0
 20 55  1  0
 20 56  1  0
 22 57  1  0
 23 58  1  0
 24 59  1  0
 25 60  1  0
 26 61  1  0
 29 62  1  0
 30 63  1  0
 31 64  1  0
 32 65  1  0
 33 66  1  0
M  END
>  <meeko>  (42) 
{"is_sidechain": false}

$$$$

     RDKit          3D

 66 72  0  0  0  0  0  0  0  0999 V2000
    6.0980   -0.2450  -53.7930 C   0  0  0  0  0  0  0  0  0  0  0  0
    7.5250   -0.5390  -54.0830 C   0  0  0  0  0  0  0  0  0  0  0  0
    8.3750    0.1050  -55.0420 C   0  0  0  0  0  0  0  0  0  0  0  0
    8.0560    1.2430  -55.9280 C   0  0  0  0  0  0  0  0  0  0  0  0
    6.9110    1.6410  -56.1170 O   0  0  0  0  0  0  0  0  0  0  0  0
    9.1690    1.7940  -56.5440 N   0  0  0  0  0  0  0  0  0  0  0  0
    9.1220    2.8510  -57.5550 C   0  0  2  0  0  0  0  0  0  0  0  0
   10.5340    2.9770  -58.1890 C   0  0  0  0  0  0  0  0  0  0  0  0
   10.5610    4.0680  -59.2700 C   0  0  1  0  0  0  0  0  0  0  0  0
    9.5440    3.7160  -60.3670 C   0  0  0  0  0  0  0  0  0  0  0  0
    8.1340    3.6160  -59.7640 C   0  0  2  0  0  0  0  0  0  0  0  0
    7.7610    4.9630  -59.1210 C   0  0  0  0  0  0  0  0  0  0  0  0
    8.7740    5.3240  -58.0210 C   0  0  2  0  0  0  0  0  0  0  0  0
   10.1790    5.4150  -58.6360 C   0  0  0  0  0  0  0  0  0  0  0  0
    8.7600    4.2280  -56.9410 C   0  0  0  0  0  0  0  0  0  0  0  0
    8.1190    2.5180  -58.6850 C   0  0  0  0  0  0  0  0  0  0  0  0
    9.5930   -0.4620  -55.0580 N   0  0  0  0  0  0  0  0  0  0  0  0
    9.5410   -1.4230  -54.1160 N   0  0  0  0  0  0  0  0  0  0  0  0
   10.7260   -2.2430  -53.8820 C   0  0  0  0  0  0  0  0  0  0  0  0
   11.1640   -2.9800  -55.1260 C   0  0  0  0  0  0  0  0  0  0  0  0
   11.4860   -2.2630  -56.3030 C   0  0  0  0  0  0  0  0  0  0  0  0
   11.8910   -2.9290  -57.4650 C   0  0  0  0  0  0  0  0  0  0  0  0
   11.9690   -4.3020  -57.4210 C   0  0  0  0  0  0  0  0  0  0  0  0
   11.6650   -5.0090  -56.2830 C   0  0  0  0  0  0  0  0  0  0  0  0
   11.2630   -4.3820  -55.1230 C   0  0  0  0  0  0  0  0  0  0  0  0
   11.8080   -6.3510  -56.4520 O   0  0  0  0  0  0  0  0  0  0  0  0
   12.2450   -6.4060  -57.8260 C   0  0  0  0  0  0  0  0  0  0  0  0
   12.3420   -5.1090  -58.4510 O   0  0  0  0  0  0  0  0  0  0  0  0
    8.3140   -1.5210  -53.5020 C   0  0  0  0  0  0  0  0  0  0  0  0
    7.9920   -2.4870  -52.4610 C   0  0  0  0  0  0  0  0  0  0  0  0
    7.4760   -3.7410  -52.8010 C   0  0  0  0  0  0  0  0  0  0  0  0
    7.1600   -4.6640  -51.8030 C   0  0  0  0  0  0  0  0  0  0  0  0
    7.3640   -4.3400  -50.4620 C   0  0  0  0  0  0  0  0  0  0  0  0
    7.8880   -3.0940  -50.1180 C   0  0  0  0  0  0  0  0  0  0  0  0
    8.2020   -2.1700  -51.1140 C   0  0  0  0  0  0  0  0  0  0  0  0
    5.9441   -0.2133  -52.7043 H   0  0  0  0  0  0  0  0  0  0  0  0
    5.8279    0.7277  -54.2300 H   0  0  0  0  0  0  0  0  0  0  0  0
    5.4654   -1.0317  -54.2300 H   0  0  0  0  0  0  0  0  0  0  0  0
   10.0020    1.2210  -56.5140 H   0  0  0  0  0  0  0  0  0  0  0  0
   11.2592    3.2329  -57.4025 H   0  0  0  0  0  0  0  0  0  0  0  0
   10.7932    2.0158  -58.6569 H   0  0  0  0  0  0  0  0  0  0  0  0
   11.5682    4.1363  -59.7068 H   0  0  0  0  0  0  0  0  0  0  0  0
    9.5553    4.4994  -61.1391 H   0  0  0  0  0  0  0  0  0  0  0  0
    9.8152    2.7480  -60.8137 H   0  0  0  0  0  0  0  0  0  0  0  0
    7.4101    3.3686  -60.5544 H   0  0  0  0  0  0  0  0  0  0  0  0
    7.7664    5.7477  -59.8919 H   0  0  0  0  0  0  0  0  0  0  0  0
    6.7589    4.8828  -58.6744 H   0  0  0  0  0  0  0  0  0  0  0  0
    8.5051    6.2909  -57.5706 H   0  0  0  0  0  0  0  0  0  0  0  0
   10.1888    6.1977  -59.4089 H   0  0  0  0  0  0  0  0  0  0  0  0
   10.9043    5.6624  -57.8469 H   0  0  0  0  0  0  0  0  0  0  0  0
    9.4935    4.4799  -56.1610 H   0  0  0  0  0  0  0  0  0  0  0  0
    7.7500    4.1689  -56.5093 H   0  0  0  0  0  0  0  0  0  0  0  0
    7.1073    2.4428  -58.2598 H   0  0  0  0  0  0  0  0  0  0  0  0
    8.4096    1.5629  -59.1470 H   0  0  0  0  0  0  0  0  0  0  0  0
   11.5473   -1.5918  -53.5483 H   0  0  0  0  0  0  0  0  0  0  0  0
   10.4731   -2.9918  -53.1169 H   0  0  0  0  0  0  0  0  0  0  0  0
   11.4168   -1.1652  -56.3043 H   0  0  0  0  0  0  0  0  0  0  0  0
   12.1385   -2.3741  -58.3820 H   0  0  0  0  0  0  0  0  0  0  0  0
   11.0261   -4.9632  -54.2196 H   0  0  0  0  0  0  0  0  0  0  0  0
   13.2358   -6.8828  -57.8575 H   0  0  0  0  0  0  0  0  0  0  0  0
   11.4890   -6.9784  -58.3835 H   0  0  0  0  0  0  0  0  0  0  0  0
    7.3186   -4.0010  -53.8582 H   0  0  0  0  0  0  0  0  0  0  0  0
    6.7497   -5.6479  -52.0744 H   0  0  0  0  0  0  0  0  0  0  0  0
    7.1117   -5.0668  -49.6758 H   0  0  0  0  0  0  0  0  0  0  0  0
    8.0536   -2.8402  -49.0606 H   0  0  0  0  0  0  0  0  0  0  0  0
    8.6162   -1.1885  -50.8401 H   0  0  0  0  0  0  0  0  0  0  0  0
  1  2  1  0
  2  3  1  0
  3  4  1  0
  4  5  2  0
  4  6  1  0
  7  6  1  1
  7  8  1  0
  8  9  1  0
  9 10  1  0
 10 11  1  0
 11 12  1  0
 12 13  1  0
 13 14  1  0
 13 15  1  0
 11 16  1  0
  3 17  2  0
 17 18  1  0
 18 19  1  0
 19 20  1  0
 20 21  1  0
 21 22  2  0
 22 23  1  0
 23 24  2  0
 24 25  1  0
 24 26  1  0
 26 27  1  0
 27 28  1  0
 18 29  1  0
 29 30  1  0
 30 31  2  0
 31 32  1  0
 32 33  2  0
 33 34  1  0
 34 35  2  0
 29  2  2  0
 35 30  1  0
 15  7  1  0
 25 20  2  0
 16  7  1  0
 28 23  1  0
 14  9  1  0
  1 36  1  0
  1 37  1  0
  1 38  1  0
  6 39  1  0
  8 40  1  0
  8 41  1  0
  9 42  1  6
 10 43  1  0
 10 44  1  0
 11 45  1  6
 12 46  1  0
 12 47  1  0
 13 48  1  1
 14 49  1  0
 14 50  1  0
 15 51  1  0
 15 52  1  0
 16 53  1  0
 16 54  1  0
 19 55  1  0
 19 56  1  0
 21 57  1  0
 22 58  1  0
 25 59  1  0
 27 60  1  0
 27 61  1  0
 31 62  1  0
 32 63  1  0
 33 64  1  0
 34 65  1  0
 35 66  1  0
M  END
>  <meeko>  (43) 
{"is_sidechain": false}

$$$$

     RDKit          3D

 44 46  0  0  0  0  0  0  0  0999 V2000
   10.0210    2.0780  -55.7640 C   0  0  0  0  0  0  0  0  0  0  0  0
    8.6900    1.7340  -56.3320 C   0  0  0  0  0  0  0  0  0  0  0  0
    7.7220    0.8790  -55.7440 C   0  0  0  0  0  0  0  0  0  0  0  0
    7.8010    0.1790  -54.4440 C   0  0  0  0  0  0  0  0  0  0  0  0
    7.1760    0.5470  -53.4530 O   0  0  0  0  0  0  0  0  0  0  0  0
    8.6500   -0.9190  -54.4980 N   0  0  0  0  0  0  0  0  0  0  0  0
    8.8660   -1.7410  -53.3780 N   0  0  0  0  0  0  0  0  0  0  0  0
    8.1220   -2.9920  -53.5020 C   0  0  0  0  0  0  0  0  0  0  0  0
   10.2940   -1.9900  -53.1870 C   0  0  0  0  0  0  0  0  0  0  0  0
    6.6520    0.7340  -56.5430 N   0  0  0  0  0  0  0  0  0  0  0  0
    6.8740    1.5490  -57.6130 N   0  0  0  0  0  0  0  0  0  0  0  0
    5.8240    1.6860  -58.5830 C   0  0  0  0  0  0  0  0  0  0  0  0
    4.6910    2.4810  -58.3690 C   0  0  0  0  0  0  0  0  0  0  0  0
    3.6940    2.5780  -59.3490 C   0  0  0  0  0  0  0  0  0  0  0  0
    3.8160    1.8760  -60.5440 C   0  0  0  0  0  0  0  0  0  0  0  0
    2.5880    2.0010  -61.7410 Cl  0  0  0  0  0  0  0  0  0  0  0  0
    4.9250    1.0690  -60.7700 C   0  0  0  0  0  0  0  0  0  0  0  0
    5.9220    0.9700  -59.7920 C   0  0  0  0  0  0  0  0  0  0  0  0
    8.1410    2.1310  -57.5470 C   0  0  0  0  0  0  0  0  0  0  0  0
    8.7900    2.9280  -58.5860 C   0  0  0  0  0  0  0  0  0  0  0  0
    8.7670    4.3270  -58.5190 C   0  0  0  0  0  0  0  0  0  0  0  0
    9.3970    5.0880  -59.5060 C   0  0  0  0  0  0  0  0  0  0  0  0
   10.0600    4.4570  -60.5570 C   0  0  0  0  0  0  0  0  0  0  0  0
   10.0990    3.0650  -60.6220 C   0  0  0  0  0  0  0  0  0  0  0  0
    9.4710    2.3010  -59.6370 C   0  0  0  0  0  0  0  0  0  0  0  0
    9.9657    2.0637  -54.6655 H   0  0  0  0  0  0  0  0  0  0  0  0
   10.7656    1.3428  -56.1032 H   0  0  0  0  0  0  0  0  0  0  0  0
   10.3161    3.0819  -56.1032 H   0  0  0  0  0  0  0  0  0  0  0  0
    9.0950   -1.1070  -55.3950 H   0  0  0  0  0  0  0  0  0  0  0  0
    7.8903   -3.3817  -52.4998 H   0  0  0  0  0  0  0  0  0  0  0  0
    7.1858   -2.8091  -54.0498 H   0  0  0  0  0  0  0  0  0  0  0  0
    8.7297   -3.7273  -54.0498 H   0  0  0  0  0  0  0  0  0  0  0  0
   10.5187   -2.0292  -52.1109 H   0  0  0  0  0  0  0  0  0  0  0  0
   10.5646   -2.9489  -53.6532 H   0  0  0  0  0  0  0  0  0  0  0  0
   10.8731   -1.1793  -53.6532 H   0  0  0  0  0  0  0  0  0  0  0  0
    4.5829    3.0337  -57.4241 H   0  0  0  0  0  0  0  0  0  0  0  0
    2.8120    3.2113  -59.1729 H   0  0  0  0  0  0  0  0  0  0  0  0
    5.0189    0.5106  -61.7131 H   0  0  0  0  0  0  0  0  0  0  0  0
    6.7942    0.3239  -59.9703 H   0  0  0  0  0  0  0  0  0  0  0  0
    8.2511    4.8277  -57.6864 H   0  0  0  0  0  0  0  0  0  0  0  0
    9.3699    6.1864  -59.4539 H   0  0  0  0  0  0  0  0  0  0  0  0
   10.5528    5.0577  -61.3357 H   0  0  0  0  0  0  0  0  0  0  0  0
   10.6252    2.5682  -61.4504 H   0  0  0  0  0  0  0  0  0  0  0  0
    9.5111    1.2028  -59.6864 H   0  0  0  0  0  0  0  0  0  0  0  0
  1  2  1  0
  2  3  1  0
  3  4  1  0
  4  5  2  0
  4  6  1  0
  6  7  1  0
  7  8  1  0
  7  9  1  0
  3 10  2  0
 10 11  1  0
 11 12  1  0
 12 13  1  0
 13 14  2  0
 14 15  1  0
 15 16  1  0
 15 17  2  0
 17 18  1  0
 11 19  1  0
 19 20  1  0
 20 21  2  0
 21 22  1  0
 22 23  2  0
 23 24  1  0
 24 25  2  0
 19  2  2  0
 25 20  1  0
 18 12  2  0
  1 26  1  0
  1 27  1  0
  1 28  1  0
  6 29  1  0
  8 30  1  0
  8 31  1  0
  8 32  1  0
  9 33  1  0
  9 34  1  0
  9 35  1  0
 13 36  1  0
 14 37  1  0
 17 38  1  0
 18 39  1  0
 21 40  1  0
 22 41  1  0
 23 42  1  0
 24 43  1  0
 25 44  1  0
M  END
>  <meeko>  (44) 
{"is_sidechain": false}

$$$$

     RDKit          3D

 64 67  0  0  0  0  0  0  0  0999 V2000
    9.6350    3.4140  -61.3570 C   0  0  0  0  0  0  0  0  0  0  0  0
   10.2970    4.3830  -60.3870 C   0  0  0  0  0  0  0  0  0  0  0  0
    9.3580    4.8710  -59.2660 C   0  0  1  0  0  0  0  0  0  0  0  0
    7.9040    4.3840  -59.4380 C   0  0  0  0  0  0  0  0  0  0  0  0
    7.6190    3.1240  -58.6260 C   0  0  0  0  0  0  0  0  0  0  0  0
    7.8040    3.3600  -57.1180 C   0  0  1  0  0  0  0  0  0  0  0  0
    8.1300    2.1040  -56.4580 N   0  0  0  0  0  0  0  0  0  0  0  0
    7.1640    1.3110  -55.8610 C   0  0  0  0  0  0  0  0  0  0  0  0
    5.9640    1.5610  -55.9350 O   0  0  0  0  0  0  0  0  0  0  0  0
    7.7080    0.1450  -55.1390 C   0  0  0  0  0  0  0  0  0  0  0  0
    8.8570   -0.4290  -55.5240 N   0  0  0  0  0  0  0  0  0  0  0  0
    9.0650   -1.4370  -54.6530 N   0  0  0  0  0  0  0  0  0  0  0  0
   10.2630   -2.2510  -54.8630 C   0  0  0  0  0  0  0  0  0  0  0  0
   11.0800   -1.8000  -56.0830 C   0  0  0  0  0  0  0  0  0  0  0  0
   12.2670   -2.7300  -56.3090 C   0  0  0  0  0  0  0  0  0  0  0  0
   11.8480   -4.1870  -56.5160 C   0  0  0  0  0  0  0  0  0  0  0  0
   10.4100   -4.4860  -56.0980 C   0  0  0  0  0  0  0  0  0  0  0  0
   10.0220   -3.7720  -54.8060 C   0  0  0  0  0  0  0  0  0  0  0  0
    8.0760   -1.5320  -53.6980 C   0  0  0  0  0  0  0  0  0  0  0  0
    8.0130   -2.5080  -52.6160 C   0  0  0  0  0  0  0  0  0  0  0  0
    8.7460   -2.3050  -51.4410 C   0  0  0  0  0  0  0  0  0  0  0  0
    8.6600   -3.2180  -50.3890 C   0  0  0  0  0  0  0  0  0  0  0  0
    7.8290   -4.3310  -50.4990 C   0  0  0  0  0  0  0  0  0  0  0  0
    7.0770   -4.5280  -51.6570 C   0  0  0  0  0  0  0  0  0  0  0  0
    7.1630   -3.6150  -52.7090 C   0  0  0  0  0  0  0  0  0  0  0  0
    7.1660   -0.5260  -53.9990 C   0  0  0  0  0  0  0  0  0  0  0  0
    5.8880   -0.2340  -53.2970 C   0  0  0  0  0  0  0  0  0  0  0  0
    8.8700    4.4290  -56.8140 C   0  0  0  0  0  0  0  0  0  0  0  0
    9.9440    4.4680  -57.8960 C   0  0  0  0  0  0  0  0  0  0  0  0
    9.1029    2.6351  -60.7912 H   0  0  0  0  0  0  0  0  0  0  0  0
    8.9203    3.9601  -61.9903 H   0  0  0  0  0  0  0  0  0  0  0  0
   10.4035    2.9468  -61.9903 H   0  0  0  0  0  0  0  0  0  0  0  0
   11.1580    3.8783  -59.9245 H   0  0  0  0  0  0  0  0  0  0  0  0
   10.5941    5.2687  -60.9678 H   0  0  0  0  0  0  0  0  0  0  0  0
    9.3010    5.9679  -59.3260 H   0  0  0  0  0  0  0  0  0  0  0  0
    7.2219    5.1809  -59.1068 H   0  0  0  0  0  0  0  0  0  0  0  0
    7.7517    4.1430  -60.5004 H   0  0  0  0  0  0  0  0  0  0  0  0
    6.5819    2.8080  -58.8120 H   0  0  0  0  0  0  0  0  0  0  0  0
    8.3323    2.3476  -58.9397 H   0  0  0  0  0  0  0  0  0  0  0  0
    6.8522    3.7452  -56.7233 H   0  0  0  0  0  0  0  0  0  0  0  0
    9.0970    1.8270  -56.3680 H   0  0  0  0  0  0  0  0  0  0  0  0
   10.8965   -2.0548  -53.9854 H   0  0  0  0  0  0  0  0  0  0  0  0
   10.4356   -1.8135  -56.9744 H   0  0  0  0  0  0  0  0  0  0  0  0
   11.4568   -0.7828  -55.9005 H   0  0  0  0  0  0  0  0  0  0  0  0
   12.8138   -2.3914  -57.2014 H   0  0  0  0  0  0  0  0  0  0  0  0
   12.8947   -2.6910  -55.4065 H   0  0  0  0  0  0  0  0  0  0  0  0
   11.9552   -4.4292  -57.5836 H   0  0  0  0  0  0  0  0  0  0  0  0
   12.4992   -4.7992  -55.8748 H   0  0  0  0  0  0  0  0  0  0  0  0
    9.7329   -4.1581  -56.9005 H   0  0  0  0  0  0  0  0  0  0  0  0
   10.3291   -5.5687  -55.9215 H   0  0  0  0  0  0  0  0  0  0  0  0
    8.9537   -3.9507  -54.6139 H   0  0  0  0  0  0  0  0  0  0  0  0
   10.6566   -4.1759  -54.0034 H   0  0  0  0  0  0  0  0  0  0  0  0
    9.3935   -1.4208  -51.3462 H   0  0  0  0  0  0  0  0  0  0  0  0
    9.2481   -3.0590  -49.4731 H   0  0  0  0  0  0  0  0  0  0  0  0
    7.7660   -5.0543  -49.6726 H   0  0  0  0  0  0  0  0  0  0  0  0
    6.4160   -5.4032  -51.7411 H   0  0  0  0  0  0  0  0  0  0  0  0
    6.5593   -3.7667  -53.6159 H   0  0  0  0  0  0  0  0  0  0  0  0
    6.0502   -0.2711  -52.2097 H   0  0  0  0  0  0  0  0  0  0  0  0
    5.5343    0.7681  -53.5810 H   0  0  0  0  0  0  0  0  0  0  0  0
    5.1342   -0.9831  -53.5810 H   0  0  0  0  0  0  0  0  0  0  0  0
    8.3832    5.4138  -56.7574 H   0  0  0  0  0  0  0  0  0  0  0  0
    9.3512    4.1756  -55.8578 H   0  0  0  0  0  0  0  0  0  0  0  0
   10.7138    5.1992  -57.6083 H   0  0  0  0  0  0  0  0  0  0  0  0
   10.3741    3.4599  -57.9895 H   0  0  0  0  0  0  0  0  0  0  0  0
  1  2  1  0
  2  3  1  0
  3  4  1  0
  4  5  1  0
  5  6  1  0
  6  7  1  0
  7  8  1  0
  8  9  2  0
  8 10  1  0
 10 11  2  0
 11 12  1  0
 12 13  1  0
 13 14  1  0
 14 15  1  0
 15 16  1  0
 16 17  1  0
 17 18  1  0
 12 19  1  0
 19 20  1  0
 20 21  2  0
 21 22  1  0
 22 23  2  0
 23 24  1  0
 24 25  2  0
 19 26  2  0
 26 27  1  0
  6 28  1  0
 28 29  1  0
 29  3  1  0
 26 10  1  0
 18 13  1  0
 25 20  1  0
  1 30  1  0
  1 31  1  0
  1 32  1  0
  2 33  1  0
  2 34  1  0
  3 35  1  1
  4 36  1  0
  4 37  1  0
  5 38  1  0
  5 39  1  0
  6 40  1  1
  7 41  1  0
 13 42  1  0
 14 43  1  0
 14 44  1  0
 15 45  1  0
 15 46  1  0
 16 47  1  0
 16 48  1  0
 17 49  1  0
 17 50  1  0
 18 51  1  0
 18 52  1  0
 21 53  1  0
 22 54  1  0
 23 55  1  0
 24 56  1  0
 25 57  1  0
 27 58  1  0
 27 59  1  0
 27 60  1  0
 28 61  1  0
 28 62  1  0
 29 63  1  0
 29 64  1  0
M  END
>  <meeko>  (45) 
{"is_sidechain": false}

$$$$

     RDKit          3D

 64 67  0  0  0  0  0  0  0  0999 V2000
   12.2600    6.3930  -59.9180 C   0  0  0  0  0  0  0  0  0  0  0  0
   10.9810    5.5710  -59.8420 C   0  0  0  0  0  0  0  0  0  0  0  0
   10.9090    4.6620  -58.6000 C   0  0  2  0  0  0  0  0  0  0  0  0
   10.5100    3.2240  -58.9950 C   0  0  0  0  0  0  0  0  0  0  0  0
    9.0190    2.9620  -58.7950 C   0  0  0  0  0  0  0  0  0  0  0  0
    8.6070    3.1220  -57.3230 C   0  0  1  0  0  0  0  0  0  0  0  0
    8.6730    1.8470  -56.6350 N   0  0  0  0  0  0  0  0  0  0  0  0
    7.6230    1.3310  -55.9030 C   0  0  0  0  0  0  0  0  0  0  0  0
    6.4930    1.8100  -55.9000 O   0  0  0  0  0  0  0  0  0  0  0  0
    8.0100    0.1500  -55.1070 C   0  0  0  0  0  0  0  0  0  0  0  0
    9.1370   -0.5340  -55.3890 N   0  0  0  0  0  0  0  0  0  0  0  0
    9.1780   -1.5170  -54.4660 N   0  0  0  0  0  0  0  0  0  0  0  0
   10.3020   -2.4560  -54.4780 C   0  0  0  0  0  0  0  0  0  0  0  0
   11.5370   -1.8880  -55.2110 C   0  0  0  0  0  0  0  0  0  0  0  0
   11.6700   -2.4330  -56.6300 C   0  0  0  0  0  0  0  0  0  0  0  0
   11.7820   -3.9580  -56.6520 C   0  0  0  0  0  0  0  0  0  0  0  0
   11.0470   -4.6460  -55.5010 C   0  0  0  0  0  0  0  0  0  0  0  0
    9.8570   -3.8280  -55.0180 C   0  0  0  0  0  0  0  0  0  0  0  0
    8.1040   -1.5030  -53.6070 C   0  0  0  0  0  0  0  0  0  0  0  0
    7.8960   -2.4640  -52.5310 C   0  0  0  0  0  0  0  0  0  0  0  0
    7.0250   -3.5440  -52.7080 C   0  0  0  0  0  0  0  0  0  0  0  0
    6.8330   -4.4670  -51.6790 C   0  0  0  0  0  0  0  0  0  0  0  0
    7.5080   -4.3120  -50.4690 C   0  0  0  0  0  0  0  0  0  0  0  0
    8.3720   -3.2340  -50.2840 C   0  0  0  0  0  0  0  0  0  0  0  0
    8.5650   -2.3100  -51.3120 C   0  0  0  0  0  0  0  0  0  0  0  0
    7.3280   -0.4200  -53.9920 C   0  0  0  0  0  0  0  0  0  0  0  0
    6.0540    0.0560  -53.3940 C   0  0  0  0  0  0  0  0  0  0  0  0
    9.4560    4.1680  -56.5790 C   0  0  0  0  0  0  0  0  0  0  0  0
    9.9750    5.2470  -57.5210 C   0  0  0  0  0  0  0  0  0  0  0  0
   12.6116    6.6190  -58.9005 H   0  0  0  0  0  0  0  0  0  0  0  0
   13.0319    5.8214  -60.4542 H   0  0  0  0  0  0  0  0  0  0  0  0
   12.0607    7.3326  -60.4542 H   0  0  0  0  0  0  0  0  0  0  0  0
   10.1244    6.2607  -59.8191 H   0  0  0  0  0  0  0  0  0  0  0  0
   10.9642    4.9152  -60.7250 H   0  0  0  0  0  0  0  0  0  0  0  0
   11.9137    4.6156  -58.1545 H   0  0  0  0  0  0  0  0  0  0  0  0
   10.7580    3.0664  -60.0550 H   0  0  0  0  0  0  0  0  0  0  0  0
   11.0642    2.5301  -58.3459 H   0  0  0  0  0  0  0  0  0  0  0  0
    8.4464    3.6760  -59.4052 H   0  0  0  0  0  0  0  0  0  0  0  0
    8.8086    1.9262  -59.0997 H   0  0  0  0  0  0  0  0  0  0  0  0
    7.5690    3.4862  -57.3231 H   0  0  0  0  0  0  0  0  0  0  0  0
    9.5700    1.4170  -56.4240 H   0  0  0  0  0  0  0  0  0  0  0  0
   10.6286   -2.6062  -53.4384 H   0  0  0  0  0  0  0  0  0  0  0  0
   11.4466   -0.7928  -55.2598 H   0  0  0  0  0  0  0  0  0  0  0  0
   12.4317   -2.1928  -54.6484 H   0  0  0  0  0  0  0  0  0  0  0  0
   10.7841   -2.1340  -57.2094 H   0  0  0  0  0  0  0  0  0  0  0  0
   12.5908   -2.0192  -57.0670 H   0  0  0  0  0  0  0  0  0  0  0  0
   11.3610   -4.3233  -57.6003 H   0  0  0  0  0  0  0  0  0  0  0  0
   12.8489   -4.2031  -56.5438 H   0  0  0  0  0  0  0  0  0  0  0  0
   10.6881   -5.6275  -55.8443 H   0  0  0  0  0  0  0  0  0  0  0  0
   11.7506   -4.7524  -54.6622 H   0  0  0  0  0  0  0  0  0  0  0  0
    9.1634   -3.6745  -55.8578 H   0  0  0  0  0  0  0  0  0  0  0  0
    9.3656   -4.3789  -54.2025 H   0  0  0  0  0  0  0  0  0  0  0  0
    6.4897   -3.6662  -53.6612 H   0  0  0  0  0  0  0  0  0  0  0  0
    6.1492   -5.3166  -51.8226 H   0  0  0  0  0  0  0  0  0  0  0  0
    7.3585   -5.0414  -49.6593 H   0  0  0  0  0  0  0  0  0  0  0  0
    8.9017   -3.1115  -49.3278 H   0  0  0  0  0  0  0  0  0  0  0  0
    9.2450   -1.4583  -51.1634 H   0  0  0  0  0  0  0  0  0  0  0  0
    6.1306    0.0274  -52.2970 H   0  0  0  0  0  0  0  0  0  0  0  0
    5.8584    1.0879  -53.7211 H   0  0  0  0  0  0  0  0  0  0  0  0
    5.2297   -0.5948  -53.7211 H   0  0  0  0  0  0  0  0  0  0  0  0
    8.8380    4.6409  -55.8015 H   0  0  0  0  0  0  0  0  0  0  0  0
   10.3221    3.6542  -56.1364 H   0  0  0  0  0  0  0  0  0  0  0  0
    9.1193    5.7308  -58.0146 H   0  0  0  0  0  0  0  0  0  0  0  0
   10.5499    5.9728  -56.9271 H   0  0  0  0  0  0  0  0  0  0  0  0
  1  2  1  0
  2  3  1  0
  3  4  1  0
  4  5  1  0
  5  6  1  0
  6  7  1  0
  7  8  1  0
  8  9  2  0
  8 10  1  0
 10 11  2  0
 11 12  1  0
 12 13  1  0
 13 14  1  0
 14 15  1  0
 15 16  1  0
 16 17  1  0
 17 18  1  0
 12 19  1  0
 19 20  1  0
 20 21  2  0
 21 22  1  0
 22 23  2  0
 23 24  1  0
 24 25  2  0
 19 26  2  0
 26 27  1  0
  6 28  1  0
 28 29  1  0
 29  3  1  0
 26 10  1  0
 18 13  1  0
 25 20  1  0
  1 30  1  0
  1 31  1  0
  1 32  1  0
  2 33  1  0
  2 34  1  0
  3 35  1  6
  4 36  1  0
  4 37  1  0
  5 38  1  0
  5 39  1  0
  6 40  1  1
  7 41  1  0
 13 42  1  0
 14 43  1  0
 14 44  1  0
 15 45  1  0
 15 46  1  0
 16 47  1  0
 16 48  1  0
 17 49  1  0
 17 50  1  0
 18 51  1  0
 18 52  1  0
 21 53  1  0
 22 54  1  0
 23 55  1  0
 24 56  1  0
 25 57  1  0
 27 58  1  0
 27 59  1  0
 27 60  1  0
 28 61  1  0
 28 62  1  0
 29 63  1  0
 29 64  1  0
M  END
>  <meeko>  (46) 
{"is_sidechain": false}

$$$$

     RDKit          3D

 60 64  0  0  0  0  0  0  0  0999 V2000
    6.2960    0.1230  -54.0320 C   0  0  0  0  0  0  0  0  0  0  0  0
    7.6880   -0.2630  -54.3790 C   0  0  0  0  0  0  0  0  0  0  0  0
    8.5430    0.3330  -55.3640 C   0  0  0  0  0  0  0  0  0  0  0  0
    8.2720    1.4990  -56.2320 C   0  0  0  0  0  0  0  0  0  0  0  0
    7.1740    2.0410  -56.2950 O   0  0  0  0  0  0  0  0  0  0  0  0
    9.3650    1.8980  -56.9840 N   0  0  0  0  0  0  0  0  0  0  0  0
    9.3360    2.9540  -57.9990 C   0  0  2  0  0  0  0  0  0  0  0  0
    8.2360    2.6990  -59.0590 C   0  0  0  0  0  0  0  0  0  0  0  0
    8.2670    3.7900  -60.1430 C   0  0  1  0  0  0  0  0  0  0  0  0
    8.0470    5.1640  -59.4890 C   0  0  0  0  0  0  0  0  0  0  0  0
    9.1570    5.4450  -58.4610 C   0  0  2  0  0  0  0  0  0  0  0  0
   10.5210    5.4210  -59.1670 C   0  0  0  0  0  0  0  0  0  0  0  0
   10.7500    4.0460  -59.8150 C   0  0  2  0  0  0  0  0  0  0  0  0
    9.6380    3.7750  -60.8400 C   0  0  0  0  0  0  0  0  0  0  0  0
   10.7090    2.9630  -58.7260 C   0  0  0  0  0  0  0  0  0  0  0  0
    9.1270    4.3560  -57.3740 C   0  0  0  0  0  0  0  0  0  0  0  0
    9.7170   -0.3140  -55.4270 N   0  0  0  0  0  0  0  0  0  0  0  0
    9.6250   -1.2960  -54.5140 N   0  0  0  0  0  0  0  0  0  0  0  0
   10.7570   -2.1870  -54.3410 C   0  0  0  0  0  0  0  0  0  0  0  0
   10.8660   -3.2450  -55.4400 C   0  0  2  0  0  0  0  0  0  0  0  0
   11.6640   -4.4700  -55.0060 C   0  0  0  0  0  0  0  0  0  0  0  0
   11.5140   -2.6570  -56.5730 O   0  0  0  0  0  0  0  0  0  0  0  0
    8.4280   -1.3070  -53.8410 C   0  0  0  0  0  0  0  0  0  0  0  0
    8.0760   -2.2560  -52.7910 C   0  0  0  0  0  0  0  0  0  0  0  0
    7.7130   -3.5710  -53.1140 C   0  0  0  0  0  0  0  0  0  0  0  0
    7.3700   -4.4780  -52.1070 C   0  0  0  0  0  0  0  0  0  0  0  0
    7.3810   -4.0710  -50.7750 C   0  0  0  0  0  0  0  0  0  0  0  0
    7.7310   -2.7620  -50.4600 C   0  0  0  0  0  0  0  0  0  0  0  0
    7.7360   -2.3710  -49.1790 F   0  0  0  0  0  0  0  0  0  0  0  0
    8.0750   -1.8510  -51.4530 C   0  0  0  0  0  0  0  0  0  0  0  0
    6.1859    0.1535  -52.9380 H   0  0  0  0  0  0  0  0  0  0  0  0
    6.0757    1.1161  -54.4506 H   0  0  0  0  0  0  0  0  0  0  0  0
    5.5957   -0.6149  -54.4506 H   0  0  0  0  0  0  0  0  0  0  0  0
   10.1180    1.2260  -57.0410 H   0  0  0  0  0  0  0  0  0  0  0  0
    8.4057    1.7184  -59.5277 H   0  0  0  0  0  0  0  0  0  0  0  0
    7.2541    2.7185  -58.5636 H   0  0  0  0  0  0  0  0  0  0  0  0
    7.4735    3.5997  -60.8807 H   0  0  0  0  0  0  0  0  0  0  0  0
    8.0644    5.9432  -60.2652 H   0  0  0  0  0  0  0  0  0  0  0  0
    7.0734    5.1669  -58.9770 H   0  0  0  0  0  0  0  0  0  0  0  0
    8.9967    6.4317  -58.0020 H   0  0  0  0  0  0  0  0  0  0  0  0
   10.5432    6.1989  -59.9444 H   0  0  0  0  0  0  0  0  0  0  0  0
   11.3144    5.6105  -58.4290 H   0  0  0  0  0  0  0  0  0  0  0  0
   11.7278    4.0316  -60.3186 H   0  0  0  0  0  0  0  0  0  0  0  0
    9.6606    4.5536  -61.6167 H   0  0  0  0  0  0  0  0  0  0  0  0
    9.8004    2.7879  -61.2974 H   0  0  0  0  0  0  0  0  0  0  0  0
   10.8763    1.9799  -59.1903 H   0  0  0  0  0  0  0  0  0  0  0  0
   11.4946    3.1799  -57.9872 H   0  0  0  0  0  0  0  0  0  0  0  0
    9.9284    4.5501  -56.6459 H   0  0  0  0  0  0  0  0  0  0  0  0
    8.1462    4.3792  -56.8765 H   0  0  0  0  0  0  0  0  0  0  0  0
   11.6782   -1.5858  -54.3422 H   0  0  0  0  0  0  0  0  0  0  0  0
   10.6112   -2.7189  -53.3893 H   0  0  0  0  0  0  0  0  0  0  0  0
    9.8465   -3.5823  -55.6786 H   0  0  0  0  0  0  0  0  0  0  0  0
   11.6948   -4.5172  -53.9074 H   0  0  0  0  0  0  0  0  0  0  0  0
   11.1839   -5.3784  -55.3988 H   0  0  0  0  0  0  0  0  0  0  0  0
   12.6890   -4.3979  -55.3988 H   0  0  0  0  0  0  0  0  0  0  0  0
   11.0930   -3.0170  -57.3730 H   0  0  0  0  0  0  0  0  0  0  0  0
    7.6980   -3.8911  -54.1663 H   0  0  0  0  0  0  0  0  0  0  0  0
    7.0922   -5.5104  -52.3659 H   0  0  0  0  0  0  0  0  0  0  0  0
    7.1147   -4.7800  -49.9773 H   0  0  0  0  0  0  0  0  0  0  0  0
    8.3446   -0.8182  -51.1872 H   0  0  0  0  0  0  0  0  0  0  0  0
  1  2  1  0
  2  3  1  0
  3  4  1  0
  4  5  2  0
  4  6  1  0
  7  6  1  1
  7  8  1  0
  8  9  1  0
  9 10  1  0
 10 11  1  0
 11 12  1  0
 12 13  1  0
 13 14  1  0
 13 15  1  0
 11 16  1  0
  3 17  2  0
 17 18  1  0
 18 19  1  0
 19 20  1  0
 20 21  1  0
 20 22  1  0
 18 23  1  0
 23 24  1  0
 24 25  2  0
 25 26  1  0
 26 27  2  0
 27 28  1  0
 28 29  1  0
 28 30  2  0
 23  2  2  0
 30 24  1  0
 15  7  1  0
 16  7  1  0
 14  9  1  0
  1 31  1  0
  1 32  1  0
  1 33  1  0
  6 34  1  0
  8 35  1  0
  8 36  1  0
  9 37  1  6
 10 38  1  0
 10 39  1  0
 11 40  1  1
 12 41  1  0
 12 42  1  0
 13 43  1  6
 14 44  1  0
 14 45  1  0
 15 46  1  0
 15 47  1  0
 16 48  1  0
 16 49  1  0
 19 50  1  0
 19 51  1  0
 20 52  1  6
 21 53  1  0
 21 54  1  0
 21 55  1  0
 22 56  1  0
 25 57  1  0
 26 58  1  0
 27 59  1  0
 30 60  1  0
M  END
>  <meeko>  (47) 
{"is_sidechain": false}

$$$$

     RDKit          3D

 61 66  0  0  0  0  0  0  0  0999 V2000
    9.1080    1.5180  -54.7540 C   0  0  0  0  0  0  0  0  0  0  0  0
    7.8550    1.2700  -55.5330 C   0  0  0  0  0  0  0  0  0  0  0  0
    6.7770    0.4310  -55.0980 C   0  0  0  0  0  0  0  0  0  0  0  0
    6.6780   -0.3030  -53.8280 C   0  0  0  0  0  0  0  0  0  0  0  0
    5.8660    0.0080  -52.9650 O   0  0  0  0  0  0  0  0  0  0  0  0
    7.5440   -1.3700  -53.7110 N   0  0  0  0  0  0  0  0  0  0  0  0
    7.5730   -2.3020  -52.5790 C   0  0  2  0  0  0  0  0  0  0  0  0
    6.3370   -3.2380  -52.5650 C   0  0  0  0  0  0  0  0  0  0  0  0
    6.3730   -4.1640  -51.3370 C   0  0  1  0  0  0  0  0  0  0  0  0
    7.6600   -5.0050  -51.3750 C   0  0  0  0  0  0  0  0  0  0  0  0
    8.8950   -4.0870  -51.3500 C   0  0  2  0  0  0  0  0  0  0  0  0
    8.8660   -3.2360  -50.0710 C   0  0  0  0  0  0  0  0  0  0  0  0
    7.5850   -2.3870  -50.0320 C   0  0  2  0  0  0  0  0  0  0  0  0
    6.3600   -3.3130  -50.0560 C   0  0  0  0  0  0  0  0  0  0  0  0
    7.5510   -1.4720  -51.2660 C   0  0  0  0  0  0  0  0  0  0  0  0
    8.8610   -3.1600  -52.5790 C   0  0  0  0  0  0  0  0  0  0  0  0
    5.8650    0.4210  -56.1370 C   0  0  0  0  0  0  0  0  0  0  0  0
    6.2870    1.2520  -57.1590 N   0  0  0  0  0  0  0  0  0  0  0  0
    5.5190    1.5050  -58.3420 C   0  0  0  0  0  0  0  0  0  0  0  0
    4.4120    2.3650  -58.3210 C   0  0  0  0  0  0  0  0  0  0  0  0
    3.6700    2.5940  -59.4850 C   0  0  0  0  0  0  0  0  0  0  0  0
    4.0240    1.9620  -60.6720 C   0  0  0  0  0  0  0  0  0  0  0  0
    3.1110    2.2460  -62.1020 Cl  0  0  0  0  0  0  0  0  0  0  0  0
    5.1130    1.0950  -60.7070 C   0  0  0  0  0  0  0  0  0  0  0  0
    5.8560    0.8620  -59.5450 C   0  0  0  0  0  0  0  0  0  0  0  0
    7.5380    1.7640  -56.7990 C   0  0  0  0  0  0  0  0  0  0  0  0
    8.4110    2.5570  -57.6720 C   0  0  0  0  0  0  0  0  0  0  0  0
    9.5880    2.0020  -58.1890 C   0  0  0  0  0  0  0  0  0  0  0  0
   10.4230    2.7620  -59.0110 C   0  0  0  0  0  0  0  0  0  0  0  0
   10.0950    4.0850  -59.3160 C   0  0  0  0  0  0  0  0  0  0  0  0
   11.1710    4.9640  -60.3420 Cl  0  0  0  0  0  0  0  0  0  0  0  0
    8.9260    4.6500  -58.7920 C   0  0  0  0  0  0  0  0  0  0  0  0
    8.4550    6.2790  -59.1250 Cl  0  0  0  0  0  0  0  0  0  0  0  0
    8.0910    3.8870  -57.9700 C   0  0  0  0  0  0  0  0  0  0  0  0
    8.8854    1.4739  -53.6777 H   0  0  0  0  0  0  0  0  0  0  0  0
    9.8543    0.7501  -55.0058 H   0  0  0  0  0  0  0  0  0  0  0  0
    9.5056    2.5123  -55.0058 H   0  0  0  0  0  0  0  0  0  0  0  0
    8.0120   -1.6630  -54.5550 H   0  0  0  0  0  0  0  0  0  0  0  0
    5.4221   -2.6282  -52.5313 H   0  0  0  0  0  0  0  0  0  0  0  0
    6.3494   -3.8554  -53.4753 H   0  0  0  0  0  0  0  0  0  0  0  0
    5.4955   -4.8272  -51.3479 H   0  0  0  0  0  0  0  0  0  0  0  0
    7.6847   -5.6714  -50.5002 H   0  0  0  0  0  0  0  0  0  0  0  0
    7.6732   -5.5998  -52.3003 H   0  0  0  0  0  0  0  0  0  0  0  0
    9.8116   -4.6949  -51.3696 H   0  0  0  0  0  0  0  0  0  0  0  0
    8.8910   -3.8978  -49.1927 H   0  0  0  0  0  0  0  0  0  0  0  0
    9.7409   -2.5693  -50.0615 H   0  0  0  0  0  0  0  0  0  0  0  0
    7.5703   -1.7791  -49.1153 H   0  0  0  0  0  0  0  0  0  0  0  0
    6.3858   -3.9750  -49.1779 H   0  0  0  0  0  0  0  0  0  0  0  0
    5.4445   -2.7036  -50.0350 H   0  0  0  0  0  0  0  0  0  0  0  0
    6.6330   -0.8666  -51.2391 H   0  0  0  0  0  0  0  0  0  0  0  0
    8.4411   -0.8260  -51.2463 H   0  0  0  0  0  0  0  0  0  0  0  0
    9.7376   -2.4960  -52.5553 H   0  0  0  0  0  0  0  0  0  0  0  0
    8.8757   -3.7774  -53.4893 H   0  0  0  0  0  0  0  0  0  0  0  0
    4.9345   -0.1655  -56.1492 H   0  0  0  0  0  0  0  0  0  0  0  0
    4.1248    2.8631  -57.3832 H   0  0  0  0  0  0  0  0  0  0  0  0
    2.8060    3.2744  -59.4611 H   0  0  0  0  0  0  0  0  0  0  0  0
    5.3885    0.5942  -61.6468 H   0  0  0  0  0  0  0  0  0  0  0  0
    6.7107    0.1701  -59.5732 H   0  0  0  0  0  0  0  0  0  0  0  0
    9.8561    0.9630  -57.9467 H   0  0  0  0  0  0  0  0  0  0  0  0
   11.3423    2.3171  -59.4197 H   0  0  0  0  0  0  0  0  0  0  0  0
    7.1762    4.3349  -57.5545 H   0  0  0  0  0  0  0  0  0  0  0  0
  1  2  1  0
  2  3  1  0
  3  4  1  0
  4  5  2  0
  4  6  1  0
  7  6  1  6
  7  8  1  0
  8  9  1  0
  9 10  1  0
 10 11  1  0
 11 12  1  0
 12 13  1  0
 13 14  1  0
 13 15  1  0
 11 16  1  0
  3 17  2  0
 17 18  1  0
 18 19  1  0
 19 20  1  0
 20 21  2  0
 21 22  1  0
 22 23  1  0
 22 24  2  0
 24 25  1  0
 18 26  1  0
 26 27  1  0
 27 28  1  0
 28 29  2  0
 29 30  1  0
 30 31  1  0
 30 32  2  0
 32 33  1  0
 32 34  1  0
 26  2  2  0
 34 27  2  0
 15  7  1  0
 25 19  2  0
 16  7  1  0
 14  9  1  0
  1 35  1  0
  1 36  1  0
  1 37  1  0
  6 38  1  0
  8 39  1  0
  8 40  1  0
  9 41  1  1
 10 42  1  0
 10 43  1  0
 11 44  1  6
 12 45  1  0
 12 46  1  0
 13 47  1  1
 14 48  1  0
 14 49  1  0
 15 50  1  0
 15 51  1  0
 16 52  1  0
 16 53  1  0
 17 54  1  0
 20 55  1  0
 21 56  1  0
 24 57  1  0
 25 58  1  0
 28 59  1  0
 29 60  1  0
 34 61  1  0
M  END
>  <meeko>  (48) 
{"is_sidechain": false}

$$$$

     RDKit          3D

 54 56  0  0  0  0  0  0  0  0999 V2000
    5.9490   -0.2890  -55.1300 C   0  0  0  0  0  0  0  0  0  0  0  0
    7.1570    0.4680  -55.5530 C   0  0  0  0  0  0  0  0  0  0  0  0
    8.4460    0.4010  -54.9750 C   0  0  0  0  0  0  0  0  0  0  0  0
    8.9010   -0.4330  -53.7860 C   0  0  1  0  0  0  0  0  0  0  0  0
    7.9410   -0.3800  -52.7350 O   0  0  0  0  0  0  0  0  0  0  0  0
    9.1160   -1.8380  -54.0750 N   0  0  0  0  0  0  0  0  0  0  0  0
   10.1100   -2.3280  -54.8860 C   0  0  0  0  0  0  0  0  0  0  0  0
   10.1410   -3.5550  -55.4220 C   0  0  0  0  0  0  0  0  0  0  0  0
   11.2150   -4.1470  -56.3240 C   0  0  0  0  0  0  0  0  0  0  0  0
   10.6870   -5.1690  -57.3480 C   0  0  0  0  0  0  0  0  0  0  0  0
   12.2610   -4.8420  -55.4350 C   0  0  0  0  0  0  0  0  0  0  0  0
   11.8910   -2.9960  -57.0890 C   0  0  0  0  0  0  0  0  0  0  0  0
    9.3230    1.1830  -55.6200 N   0  0  0  0  0  0  0  0  0  0  0  0
    8.5950    1.8410  -56.5700 N   0  0  0  0  0  0  0  0  0  0  0  0
    9.2490    2.8630  -57.3330 C   0  0  0  0  0  0  0  0  0  0  0  0
    9.1160    4.2280  -57.0430 C   0  0  0  0  0  0  0  0  0  0  0  0
    9.7800    5.1870  -57.8190 C   0  0  0  0  0  0  0  0  0  0  0  0
   10.5870    4.7920  -58.8820 C   0  0  0  0  0  0  0  0  0  0  0  0
   11.3970    5.9760  -59.8300 Cl  0  0  0  0  0  0  0  0  0  0  0  0
   10.7460    3.4420  -59.1740 C   0  0  0  0  0  0  0  0  0  0  0  0
   10.0850    2.4820  -58.4010 C   0  0  0  0  0  0  0  0  0  0  0  0
    7.2790    1.3700  -56.6040 C   0  0  0  0  0  0  0  0  0  0  0  0
    6.2550    1.7080  -57.5910 C   0  0  0  0  0  0  0  0  0  0  0  0
    5.0930    2.3850  -57.2010 C   0  0  0  0  0  0  0  0  0  0  0  0
    4.1090    2.6930  -58.1410 C   0  0  0  0  0  0  0  0  0  0  0  0
    4.2740    2.3180  -59.4730 C   0  0  0  0  0  0  0  0  0  0  0  0
    5.4210    1.6300  -59.8680 C   0  0  0  0  0  0  0  0  0  0  0  0
    6.4080    1.3210  -58.9290 C   0  0  0  0  0  0  0  0  0  0  0  0
    5.9011   -0.3190  -54.0315 H   0  0  0  0  0  0  0  0  0  0  0  0
    5.0492    0.2071  -55.5228 H   0  0  0  0  0  0  0  0  0  0  0  0
    6.0031   -1.3150  -55.5228 H   0  0  0  0  0  0  0  0  0  0  0  0
    9.8647    0.0151  -53.5024 H   0  0  0  0  0  0  0  0  0  0  0  0
    7.9270    0.5640  -52.4880 H   0  0  0  0  0  0  0  0  0  0  0  0
    8.9310   -2.4130  -53.2580 H   0  0  0  0  0  0  0  0  0  0  0  0
   10.9509   -1.6567  -55.1145 H   0  0  0  0  0  0  0  0  0  0  0  0
    9.2915   -4.2115  -55.1826 H   0  0  0  0  0  0  0  0  0  0  0  0
   10.2448   -6.0250  -56.8172 H   0  0  0  0  0  0  0  0  0  0  0  0
    9.9216   -4.6938  -57.9791 H   0  0  0  0  0  0  0  0  0  0  0  0
   11.5175   -5.5183  -57.9791 H   0  0  0  0  0  0  0  0  0  0  0  0
   12.0112   -4.6760  -54.3767 H   0  0  0  0  0  0  0  0  0  0  0  0
   12.2628   -5.9215  -55.6464 H   0  0  0  0  0  0  0  0  0  0  0  0
   13.2569   -4.4254  -55.6464 H   0  0  0  0  0  0  0  0  0  0  0  0
   12.3133   -2.2770  -56.3715 H   0  0  0  0  0  0  0  0  0  0  0  0
   12.6960   -3.3989  -57.7212 H   0  0  0  0  0  0  0  0  0  0  0  0
   11.1471   -2.4892  -57.7212 H   0  0  0  0  0  0  0  0  0  0  0  0
    8.4859    4.5484  -56.2002 H   0  0  0  0  0  0  0  0  0  0  0  0
    9.6631    6.2560  -57.5874 H   0  0  0  0  0  0  0  0  0  0  0  0
   11.3893    3.1301  -60.0100 H   0  0  0  0  0  0  0  0  0  0  0  0
   10.2198    1.4146  -58.6301 H   0  0  0  0  0  0  0  0  0  0  0  0
    4.9553    2.6753  -56.1490 H   0  0  0  0  0  0  0  0  0  0  0  0
    3.2020    3.2324  -57.8304 H   0  0  0  0  0  0  0  0  0  0  0  0
    3.4989    2.5649  -60.2135 H   0  0  0  0  0  0  0  0  0  0  0  0
    5.5485    1.3307  -60.9188 H   0  0  0  0  0  0  0  0  0  0  0  0
    7.3086    0.7719  -59.2411 H   0  0  0  0  0  0  0  0  0  0  0  0
  1  2  1  0
  2  3  1  0
  3  4  1  0
  4  5  1  0
  4  6  1  0
  6  7  1  0
  7  8  2  0
  8  9  1  0
  9 10  1  0
  9 11  1  0
  9 12  1  0
  3 13  2  0
 13 14  1  0
 14 15  1  0
 15 16  1  0
 16 17  2  0
 17 18  1  0
 18 19  1  0
 18 20  2  0
 20 21  1  0
 14 22  1  0
 22 23  1  0
 23 24  2  0
 24 25  1  0
 25 26  2  0
 26 27  1  0
 27 28  2  0
 22  2  2  0
 28 23  1  0
 21 15  2  0
  1 29  1  0
  1 30  1  0
  1 31  1  0
  4 32  1  1
  5 33  1  0
  6 34  1  0
  7 35  1  0
  8 36  1  0
 10 37  1  0
 10 38  1  0
 10 39  1  0
 11 40  1  0
 11 41  1  0
 11 42  1  0
 12 43  1  0
 12 44  1  0
 12 45  1  0
 16 46  1  0
 17 47  1  0
 20 48  1  0
 21 49  1  0
 24 50  1  0
 25 51  1  0
 26 52  1  0
 27 53  1  0
 28 54  1  0
M  END
>  <meeko>  (49) 
{"is_sidechain": false}

$$$$

     RDKit          3D

 54 56  0  0  0  0  0  0  0  0999 V2000
    9.7310    1.6770  -55.8110 C   0  0  0  0  0  0  0  0  0  0  0  0
    8.3540    1.5240  -56.3480 C   0  0  0  0  0  0  0  0  0  0  0  0
    7.2660    0.8690  -55.7260 C   0  0  0  0  0  0  0  0  0  0  0  0
    7.2280    0.1560  -54.3840 C   0  0  1  0  0  0  0  0  0  0  0  0
    5.9820    0.4000  -53.7230 O   0  0  0  0  0  0  0  0  0  0  0  0
    7.5400   -1.2630  -54.6000 N   0  0  0  0  0  0  0  0  0  0  0  0
    8.7420   -1.5710  -54.2590 C   0  0  0  0  0  0  0  0  0  0  0  0
    9.2280   -2.9940  -54.3790 C   0  0  0  0  0  0  0  0  0  0  0  0
   10.7300   -3.1040  -54.7260 C   0  0  0  0  0  0  0  0  0  0  0  0
   11.0590   -4.4730  -55.3450 C   0  0  0  0  0  0  0  0  0  0  0  0
   11.5370   -2.9500  -53.4220 C   0  0  0  0  0  0  0  0  0  0  0  0
   11.1520   -1.9890  -55.6980 C   0  0  0  0  0  0  0  0  0  0  0  0
    6.1480    0.9540  -56.4610 N   0  0  0  0  0  0  0  0  0  0  0  0
    6.5220    1.5700  -57.6210 N   0  0  0  0  0  0  0  0  0  0  0  0
    5.5550    1.6640  -58.6760 C   0  0  0  0  0  0  0  0  0  0  0  0
    5.7590    0.9150  -59.8520 C   0  0  0  0  0  0  0  0  0  0  0  0
    4.8450    0.9730  -60.9100 C   0  0  0  0  0  0  0  0  0  0  0  0
    3.7240    1.7880  -60.8060 C   0  0  0  0  0  0  0  0  0  0  0  0
    2.5960    1.8650  -62.1030 Cl  0  0  0  0  0  0  0  0  0  0  0  0
    3.5150    2.5500  -59.6600 C   0  0  0  0  0  0  0  0  0  0  0  0
    4.4280    2.4930  -58.6000 C   0  0  0  0  0  0  0  0  0  0  0  0
    7.8480    2.0050  -57.5510 C   0  0  0  0  0  0  0  0  0  0  0  0
    8.5400    2.8540  -58.5180 C   0  0  0  0  0  0  0  0  0  0  0  0
    8.4560    4.2490  -58.4260 C   0  0  0  0  0  0  0  0  0  0  0  0
    9.1330    5.0570  -59.3420 C   0  0  0  0  0  0  0  0  0  0  0  0
    9.9050    4.4760  -60.3470 C   0  0  0  0  0  0  0  0  0  0  0  0
   10.0060    3.0890  -60.4360 C   0  0  0  0  0  0  0  0  0  0  0  0
    9.3310    2.2790  -59.5210 C   0  0  0  0  0  0  0  0  0  0  0  0
    9.6983    1.6734  -54.7115 H   0  0  0  0  0  0  0  0  0  0  0  0
   10.3562    0.8428  -56.1620 H   0  0  0  0  0  0  0  0  0  0  0  0
   10.1579    2.6281  -56.1620 H   0  0  0  0  0  0  0  0  0  0  0  0
    7.9923    0.5503  -53.6981 H   0  0  0  0  0  0  0  0  0  0  0  0
    5.9820    1.3750  -53.6140 H   0  0  0  0  0  0  0  0  0  0  0  0
    9.4189   -0.7922  -53.8778 H   0  0  0  0  0  0  0  0  0  0  0  0
    9.0538   -3.5037  -53.4199 H   0  0  0  0  0  0  0  0  0  0  0  0
    8.6697   -3.4586  -55.2051 H   0  0  0  0  0  0  0  0  0  0  0  0
   11.2350   -5.2052  -54.5432 H   0  0  0  0  0  0  0  0  0  0  0  0
   10.2154   -4.8063  -55.9673 H   0  0  0  0  0  0  0  0  0  0  0  0
   11.9619   -4.3866  -55.9673 H   0  0  0  0  0  0  0  0  0  0  0  0
   10.8671   -3.0778  -52.5589 H   0  0  0  0  0  0  0  0  0  0  0  0
   12.3283   -3.7133  -53.3882 H   0  0  0  0  0  0  0  0  0  0  0  0
   11.9916   -1.9489  -53.3882 H   0  0  0  0  0  0  0  0  0  0  0  0
   11.4846   -1.1103  -55.1259 H   0  0  0  0  0  0  0  0  0  0  0  0
   11.9766   -2.3476  -56.3316 H   0  0  0  0  0  0  0  0  0  0  0  0
   10.2966   -1.7118  -56.3316 H   0  0  0  0  0  0  0  0  0  0  0  0
    6.6497    0.2754  -59.9396 H   0  0  0  0  0  0  0  0  0  0  0  0
    5.0128    0.3768  -61.8191 H   0  0  0  0  0  0  0  0  0  0  0  0
    2.6298    3.1989  -59.5869 H   0  0  0  0  0  0  0  0  0  0  0  0
    4.2592    3.1037  -57.7008 H   0  0  0  0  0  0  0  0  0  0  0  0
    7.8543    4.7101  -57.6289 H   0  0  0  0  0  0  0  0  0  0  0  0
    9.0571    6.1520  -59.2705 H   0  0  0  0  0  0  0  0  0  0  0  0
   10.4349    5.1131  -61.0704 H   0  0  0  0  0  0  0  0  0  0  0  0
   10.6179    2.6321  -61.2277 H   0  0  0  0  0  0  0  0  0  0  0  0
    9.4206    1.1847  -59.5879 H   0  0  0  0  0  0  0  0  0  0  0  0
  1  2  1  0
  2  3  1  0
  3  4  1  0
  4  5  1  0
  4  6  1  0
  6  7  2  0
  7  8  1  0
  8  9  1  0
  9 10  1  0
  9 11  1  0
  9 12  1  0
  3 13  2  0
 13 14  1  0
 14 15  1  0
 15 16  1  0
 16 17  2  0
 17 18  1  0
 18 19  1  0
 18 20  2  0
 20 21  1  0
 14 22  1  0
 22 23  1  0
 23 24  2  0
 24 25  1  0
 25 26  2  0
 26 27  1  0
 27 28  2  0
 22  2  2  0
 28 23  1  0
 21 15  2  0
  1 29  1  0
  1 30  1  0
  1 31  1  0
  4 32  1  1
  5 33  1  0
  7 34  1  0
  8 35  1  0
  8 36  1  0
 10 37  1  0
 10 38  1  0
 10 39  1  0
 11 40  1  0
 11 41  1  0
 11 42  1  0
 12 43  1  0
 12 44  1  0
 12 45  1  0
 16 46  1  0
 17 47  1  0
 20 48  1  0
 21 49  1  0
 24 50  1  0
 25 51  1  0
 26 52  1  0
 27 53  1  0
 28 54  1  0
M  END
>  <meeko>  (50) 
{"is_sidechain": false}

$$$$

     RDKit          3D

 54 56  0  0  0  0  0  0  0  0999 V2000
    9.7880    1.7010  -55.7460 C   0  0  0  0  0  0  0  0  0  0  0  0
    8.4270    1.5200  -56.3170 C   0  0  0  0  0  0  0  0  0  0  0  0
    7.3340    0.8490  -55.7220 C   0  0  0  0  0  0  0  0  0  0  0  0
    7.2740    0.1400  -54.3750 C   0  0  1  0  0  0  0  0  0  0  0  0
    6.0520    0.4530  -53.7090 O   0  0  0  0  0  0  0  0  0  0  0  0
    7.4860   -1.2850  -54.6000 N   0  0  0  0  0  0  0  0  0  0  0  0
    7.5960   -2.0790  -53.5920 C   0  0  0  0  0  0  0  0  0  0  0  0
    7.5640   -1.7440  -52.1160 C   0  0  0  0  0  0  0  0  0  0  0  0
    8.0840   -2.8830  -51.2030 C   0  0  0  0  0  0  0  0  0  0  0  0
    7.8770   -2.5440  -49.7190 C   0  0  0  0  0  0  0  0  0  0  0  0
    7.3890   -4.2190  -51.5210 C   0  0  0  0  0  0  0  0  0  0  0  0
    9.5950   -3.0520  -51.4600 C   0  0  0  0  0  0  0  0  0  0  0  0
    6.2370    0.9100  -56.4900 N   0  0  0  0  0  0  0  0  0  0  0  0
    6.6300    1.5300  -57.6400 N   0  0  0  0  0  0  0  0  0  0  0  0
    5.6900    1.6070  -58.7200 C   0  0  0  0  0  0  0  0  0  0  0  0
    5.8130    0.8430  -59.8870 C   0  0  0  0  0  0  0  0  0  0  0  0
    4.8650    0.9540  -60.9130 C   0  0  0  0  0  0  0  0  0  0  0  0
    3.7840    1.8210  -60.7770 C   0  0  0  0  0  0  0  0  0  0  0  0
    2.6260    1.9510  -62.0410 Cl  0  0  0  0  0  0  0  0  0  0  0  0
    3.6350    2.5740  -59.6180 C   0  0  0  0  0  0  0  0  0  0  0  0
    4.5790    2.4640  -58.5920 C   0  0  0  0  0  0  0  0  0  0  0  0
    7.9460    1.9890  -57.5350 C   0  0  0  0  0  0  0  0  0  0  0  0
    8.6510    2.8460  -58.4850 C   0  0  0  0  0  0  0  0  0  0  0  0
    9.3330    2.2860  -59.5730 C   0  0  0  0  0  0  0  0  0  0  0  0
    9.9910    3.1080  -60.4890 C   0  0  0  0  0  0  0  0  0  0  0  0
    9.9640    4.4930  -60.3290 C   0  0  0  0  0  0  0  0  0  0  0  0
    9.2740    5.0590  -59.2570 C   0  0  0  0  0  0  0  0  0  0  0  0
    8.6150    4.2390  -58.3400 C   0  0  0  0  0  0  0  0  0  0  0  0
    9.7288    1.6931  -54.6476 H   0  0  0  0  0  0  0  0  0  0  0  0
   10.4394    0.8816  -56.0840 H   0  0  0  0  0  0  0  0  0  0  0  0
   10.2026    2.6622  -56.0840 H   0  0  0  0  0  0  0  0  0  0  0  0
    8.0692    0.4861  -53.6984 H   0  0  0  0  0  0  0  0  0  0  0  0
    6.2720    1.2750  -53.2230 H   0  0  0  0  0  0  0  0  0  0  0  0
    7.7313   -3.1430  -53.8362 H   0  0  0  0  0  0  0  0  0  0  0  0
    8.1883   -0.8538  -51.9491 H   0  0  0  0  0  0  0  0  0  0  0  0
    6.5101   -1.5763  -51.8491 H   0  0  0  0  0  0  0  0  0  0  0  0
    8.3497   -3.3181  -49.0967 H   0  0  0  0  0  0  0  0  0  0  0  0
    8.3331   -1.5675  -49.4989 H   0  0  0  0  0  0  0  0  0  0  0  0
    6.8000   -2.5036  -49.4989 H   0  0  0  0  0  0  0  0  0  0  0  0
    7.1246   -4.7273  -50.5820 H   0  0  0  0  0  0  0  0  0  0  0  0
    6.4761   -4.0277  -52.1041 H   0  0  0  0  0  0  0  0  0  0  0  0
    8.0697   -4.8567  -52.1041 H   0  0  0  0  0  0  0  0  0  0  0  0
   10.1261   -3.1114  -50.4985 H   0  0  0  0  0  0  0  0  0  0  0  0
    9.7686   -3.9752  -52.0324 H   0  0  0  0  0  0  0  0  0  0  0  0
    9.9682   -2.1900  -52.0324 H   0  0  0  0  0  0  0  0  0  0  0  0
    6.6602    0.1504  -59.9992 H   0  0  0  0  0  0  0  0  0  0  0  0
    4.9752    0.3544  -61.8286 H   0  0  0  0  0  0  0  0  0  0  0  0
    2.7774    3.2541  -59.5082 H   0  0  0  0  0  0  0  0  0  0  0  0
    4.4524    3.0545  -57.6726 H   0  0  0  0  0  0  0  0  0  0  0  0
    9.3500    1.1942  -59.7059 H   0  0  0  0  0  0  0  0  0  0  0  0
   10.5312    2.6631  -61.3377 H   0  0  0  0  0  0  0  0  0  0  0  0
   10.4872    5.1397  -61.0487 H   0  0  0  0  0  0  0  0  0  0  0  0
    9.2493    6.1519  -59.1344 H   0  0  0  0  0  0  0  0  0  0  0  0
    8.0650    4.6882  -57.4999 H   0  0  0  0  0  0  0  0  0  0  0  0
  1  2  1  0
  2  3  1  0
  3  4  1  0
  4  5  1  0
  4  6  1  0
  6  7  2  0
  7  8  1  0
  8  9  1  0
  9 10  1  0
  9 11  1  0
  9 12  1  0
  3 13  2  0
 13 14  1  0
 14 15  1  0
 15 16  1  0
 16 17  2  0
 17 18  1  0
 18 19  1  0
 18 20  2  0
 20 21  1  0
 14 22  1  0
 22 23  1  0
 23 24  2  0
 24 25  1  0
 25 26  2  0
 26 27  1  0
 27 28  2  0
 22  2  2  0
 28 23  1  0
 21 15  2  0
  1 29  1  0
  1 30  1  0
  1 31  1  0
  4 32  1  1
  5 33  1  0
  7 34  1  0
  8 35  1  0
  8 36  1  0
 10 37  1  0
 10 38  1  0
 10 39  1  0
 11 40  1  0
 11 41  1  0
 11 42  1  0
 12 43  1  0
 12 44  1  0
 12 45  1  0
 16 46  1  0
 17 47  1  0
 20 48  1  0
 21 49  1  0
 24 50  1  0
 25 51  1  0
 26 52  1  0
 27 53  1  0
 28 54  1  0
M  END
>  <meeko>  (51) 
{"is_sidechain": false}

$$$$

     RDKit          3D

 54 56  0  0  0  0  0  0  0  0999 V2000
    9.8380    1.8050  -55.8900 C   0  0  0  0  0  0  0  0  0  0  0  0
    8.4560    1.6280  -56.4060 C   0  0  0  0  0  0  0  0  0  0  0  0
    7.3690    1.0190  -55.7370 C   0  0  0  0  0  0  0  0  0  0  0  0
    7.3540    0.3810  -54.3560 C   0  0  1  0  0  0  0  0  0  0  0  0
    6.0870   -0.1970  -54.0590 O   0  0  0  0  0  0  0  0  0  0  0  0
    8.3510   -0.6350  -54.0640 N   0  0  0  0  0  0  0  0  0  0  0  0
    8.2100   -1.9780  -54.3180 C   0  0  0  0  0  0  0  0  0  0  0  0
    9.1590   -2.9040  -54.5100 C   0  0  0  0  0  0  0  0  0  0  0  0
   10.6730   -2.7470  -54.5530 C   0  0  0  0  0  0  0  0  0  0  0  0
   11.2910   -4.1110  -54.9300 C   0  0  0  0  0  0  0  0  0  0  0  0
   11.1390   -1.7230  -55.6050 C   0  0  0  0  0  0  0  0  0  0  0  0
   11.1970   -2.3460  -53.1640 C   0  0  0  0  0  0  0  0  0  0  0  0
    6.2520    1.0430  -56.4770 N   0  0  0  0  0  0  0  0  0  0  0  0
    6.6140    1.6020  -57.6680 N   0  0  0  0  0  0  0  0  0  0  0  0
    5.6380    1.6420  -58.7190 C   0  0  0  0  0  0  0  0  0  0  0  0
    4.5170    2.4800  -58.6820 C   0  0  0  0  0  0  0  0  0  0  0  0
    3.5960    2.4820  -59.7370 C   0  0  0  0  0  0  0  0  0  0  0  0
    3.7920    1.6560  -60.8390 C   0  0  0  0  0  0  0  0  0  0  0  0
    2.6570    1.6650  -62.1310 Cl  0  0  0  0  0  0  0  0  0  0  0  0
    4.9090    0.8300  -60.9040 C   0  0  0  0  0  0  0  0  0  0  0  0
    5.8300    0.8270  -59.8510 C   0  0  0  0  0  0  0  0  0  0  0  0
    7.9420    2.0370  -57.6320 C   0  0  0  0  0  0  0  0  0  0  0  0
    8.6330    2.8250  -58.6500 C   0  0  0  0  0  0  0  0  0  0  0  0
    9.3410    2.1860  -59.6760 C   0  0  0  0  0  0  0  0  0  0  0  0
   10.0140    2.9380  -60.6400 C   0  0  0  0  0  0  0  0  0  0  0  0
    9.9930    4.3310  -60.5790 C   0  0  0  0  0  0  0  0  0  0  0  0
    9.3030    4.9740  -59.5520 C   0  0  0  0  0  0  0  0  0  0  0  0
    8.6280    4.2250  -58.5870 C   0  0  0  0  0  0  0  0  0  0  0  0
    9.8218    1.8029  -54.7901 H   0  0  0  0  0  0  0  0  0  0  0  0
   10.4718    0.9807  -56.2489 H   0  0  0  0  0  0  0  0  0  0  0  0
   10.2436    2.7624  -56.2489 H   0  0  0  0  0  0  0  0  0  0  0  0
    7.5992    1.2485  -53.7257 H   0  0  0  0  0  0  0  0  0  0  0  0
    6.3290   -1.0710  -53.6950 H   0  0  0  0  0  0  0  0  0  0  0  0
    8.7750   -0.4550  -53.1600 H   0  0  0  0  0  0  0  0  0  0  0  0
    7.1739   -2.3437  -54.3711 H   0  0  0  0  0  0  0  0  0  0  0  0
    8.7898   -3.9295  -54.6586 H   0  0  0  0  0  0  0  0  0  0  0  0
   11.5422   -4.6655  -54.0138 H   0  0  0  0  0  0  0  0  0  0  0  0
   10.5674   -4.6902  -55.5224 H   0  0  0  0  0  0  0  0  0  0  0  0
   12.2036   -3.9489  -55.5224 H   0  0  0  0  0  0  0  0  0  0  0  0
   11.5433   -0.8345  -55.0979 H   0  0  0  0  0  0  0  0  0  0  0  0
   11.9207   -2.1736  -56.2342 H   0  0  0  0  0  0  0  0  0  0  0  0
   10.2858   -1.4296  -56.2342 H   0  0  0  0  0  0  0  0  0  0  0  0
   10.5780   -2.8197  -52.3878 H   0  0  0  0  0  0  0  0  0  0  0  0
   12.2397   -2.6790  -53.0553 H   0  0  0  0  0  0  0  0  0  0  0  0
   11.1481   -1.2525  -53.0553 H   0  0  0  0  0  0  0  0  0  0  0  0
    4.3585    3.1418  -57.8178 H   0  0  0  0  0  0  0  0  0  0  0  0
    2.7147    3.1389  -59.6941 H   0  0  0  0  0  0  0  0  0  0  0  0
    5.0675    0.1824  -61.7789 H   0  0  0  0  0  0  0  0  0  0  0  0
    6.7168    0.1787  -59.9082 H   0  0  0  0  0  0  0  0  0  0  0  0
    9.3666    1.0873  -59.7220 H   0  0  0  0  0  0  0  0  0  0  0  0
   10.5614    2.4315  -61.4486 H   0  0  0  0  0  0  0  0  0  0  0  0
   10.5209    4.9228  -61.3413 H   0  0  0  0  0  0  0  0  0  0  0  0
    9.2907    6.0728  -59.5023 H   0  0  0  0  0  0  0  0  0  0  0  0
    8.0903    4.7352  -57.7743 H   0  0  0  0  0  0  0  0  0  0  0  0
  1  2  1  0
  2  3  1  0
  3  4  1  0
  4  5  1  0
  4  6  1  0
  6  7  1  0
  7  8  2  0
  8  9  1  0
  9 10  1  0
  9 11  1  0
  9 12  1  0
  3 13  2  0
 13 14  1  0
 14 15  1  0
 15 16  1  0
 16 17  2  0
 17 18  1  0
 18 19  1  0
 18 20  2  0
 20 21  1  0
 14 22  1  0
 22 23  1  0
 23 24  2  0
 24 25  1  0
 25 26  2  0
 26 27  1  0
 27 28  2  0
 22  2  2  0
 28 23  1  0
 21 15  2  0
  1 29  1  0
  1 30  1  0
  1 31  1  0
  4 32  1  1
  5 33  1  0
  6 34  1  0
  7 35  1  0
  8 36  1  0
 10 37  1  0
 10 38  1  0
 10 39  1  0
 11 40  1  0
 11 41  1  0
 11 42  1  0
 12 43  1  0
 12 44  1  0
 12 45  1  0
 16 46  1  0
 17 47  1  0
 20 48  1  0
 21 49  1  0
 24 50  1  0
 25 51  1  0
 26 52  1  0
 27 53  1  0
 28 54  1  0
M  END
>  <meeko>  (52) 
{"is_sidechain": false}

$$$$

     RDKit          3D

 68 72  0  0  0  0  0  0  0  0999 V2000
   12.7550    3.3890  -56.8070 C   0  0  0  0  0  0  0  0  0  0  0  0
   11.5850    3.1940  -57.7050 C   0  0  0  0  0  0  0  0  0  0  0  0
   10.5430    2.2320  -57.5670 C   0  0  0  0  0  0  0  0  0  0  0  0
   10.4030    1.1840  -56.5390 C   0  0  0  0  0  0  0  0  0  0  0  0
   11.1650    0.2230  -56.4600 O   0  0  0  0  0  0  0  0  0  0  0  0
    9.3280    1.4190  -55.6870 N   0  0  0  0  0  0  0  0  0  0  0  0
    9.0270    0.5430  -54.6860 N   0  0  0  0  0  0  0  0  0  0  0  0
    8.2910   -0.4660  -55.0260 C   0  0  0  0  0  0  0  0  0  0  0  0
    7.8870   -1.4970  -54.0490 C   0  0  0  0  0  0  0  0  0  0  0  0
    6.5650   -1.9810  -54.0920 C   0  0  0  0  0  0  0  0  0  0  0  0
    6.1400   -2.9570  -53.1860 C   0  0  0  0  0  0  0  0  0  0  0  0
    7.0510   -3.4300  -52.2510 C   0  0  0  0  0  0  0  0  0  0  0  0
    8.3770   -2.9420  -52.2090 C   0  0  0  0  0  0  0  0  0  0  0  0
    8.8030   -1.9750  -53.1050 C   0  0  0  0  0  0  0  0  0  0  0  0
    9.0930   -3.6090  -51.1420 C   0  0  0  0  0  0  0  0  0  0  0  0
   10.4040   -3.4670  -50.7170 C   0  0  0  0  0  0  0  0  0  0  0  0
   10.8460   -4.2480  -49.6450 C   0  0  0  0  0  0  0  0  0  0  0  0
    9.9810   -5.1550  -49.0120 C   0  0  0  0  0  0  0  0  0  0  0  0
    8.6590   -5.2990  -49.4390 C   0  0  0  0  0  0  0  0  0  0  0  0
    8.2250   -4.5220  -50.5040 C   0  0  0  0  0  0  0  0  0  0  0  0
    6.8420   -4.4840  -51.1600 C   0  0  0  0  0  0  0  0  0  0  0  0
    5.7710   -4.0350  -50.1600 C   0  0  0  0  0  0  0  0  0  0  0  0
    6.4880   -5.8440  -51.7720 C   0  0  0  0  0  0  0  0  0  0  0  0
    9.6500    2.3570  -58.5580 N   0  0  0  0  0  0  0  0  0  0  0  0
   10.0610    3.4120  -59.2960 N   0  0  0  0  0  0  0  0  0  0  0  0
    9.2290    3.7980  -60.4610 C   0  0  0  0  0  0  0  0  0  0  0  0
    8.1440    2.7250  -60.7460 C   0  0  0  0  0  0  0  0  0  0  0  0
   10.1190    3.9070  -61.7110 C   0  0  0  0  0  0  0  0  0  0  0  0
    8.4690    5.1230  -60.2440 C   0  0  0  0  0  0  0  0  0  0  0  0
   11.2720    3.9140  -58.8520 C   0  0  0  0  0  0  0  0  0  0  0  0
   12.0410    4.9970  -59.4550 C   0  0  0  0  0  0  0  0  0  0  0  0
   13.4020    4.8290  -59.7340 C   0  0  0  0  0  0  0  0  0  0  0  0
   14.1430    5.8770  -60.2820 C   0  0  0  0  0  0  0  0  0  0  0  0
   13.5320    7.1030  -60.5410 C   0  0  0  0  0  0  0  0  0  0  0  0
   12.1810    7.2860  -60.2460 C   0  0  0  0  0  0  0  0  0  0  0  0
   11.4390    6.2380  -59.6980 C   0  0  0  0  0  0  0  0  0  0  0  0
   12.4259    3.3341  -55.7588 H   0  0  0  0  0  0  0  0  0  0  0  0
   13.4998    2.6026  -56.9991 H   0  0  0  0  0  0  0  0  0  0  0  0
   13.2044    4.3744  -56.9991 H   0  0  0  0  0  0  0  0  0  0  0  0
    8.8340    2.3010  -55.7490 H   0  0  0  0  0  0  0  0  0  0  0  0
    7.9577   -0.5579  -56.0702 H   0  0  0  0  0  0  0  0  0  0  0  0
    5.8631   -1.5888  -54.8427 H   0  0  0  0  0  0  0  0  0  0  0  0
    5.1095   -3.3408  -53.2131 H   0  0  0  0  0  0  0  0  0  0  0  0
    9.8341   -1.5930  -53.0752 H   0  0  0  0  0  0  0  0  0  0  0  0
   11.0818   -2.7558  -51.2118 H   0  0  0  0  0  0  0  0  0  0  0  0
   11.8837   -4.1508  -49.2933 H   0  0  0  0  0  0  0  0  0  0  0  0
   10.3489   -5.7594  -48.1698 H   0  0  0  0  0  0  0  0  0  0  0  0
    7.9800   -6.0092  -48.9445 H   0  0  0  0  0  0  0  0  0  0  0  0
    6.1389   -4.1892  -49.1349 H   0  0  0  0  0  0  0  0  0  0  0  0
    5.5500   -2.9685  -50.3137 H   0  0  0  0  0  0  0  0  0  0  0  0
    4.8555   -4.6251  -50.3137 H   0  0  0  0  0  0  0  0  0  0  0  0
    6.2990   -6.5701  -50.9676 H   0  0  0  0  0  0  0  0  0  0  0  0
    5.5863   -5.7427  -52.3938 H   0  0  0  0  0  0  0  0  0  0  0  0
    7.3247   -6.1952  -52.3938 H   0  0  0  0  0  0  0  0  0  0  0  0
    7.7523    2.3377  -59.7939 H   0  0  0  0  0  0  0  0  0  0  0  0
    7.3239    3.1771  -61.3230 H   0  0  0  0  0  0  0  0  0  0  0  0
    8.5870    1.8999  -61.3230 H   0  0  0  0  0  0  0  0  0  0  0  0
   11.1676    4.0354  -61.4044 H   0  0  0  0  0  0  0  0  0  0  0  0
   10.0221    2.9903  -62.3112 H   0  0  0  0  0  0  0  0  0  0  0  0
    9.8037    4.7732  -62.3112 H   0  0  0  0  0  0  0  0  0  0  0  0
    8.3610    5.3114  -59.1656 H   0  0  0  0  0  0  0  0  0  0  0  0
    9.0312    5.9480  -60.7058 H   0  0  0  0  0  0  0  0  0  0  0  0
    7.4730    5.0543  -60.7058 H   0  0  0  0  0  0  0  0  0  0  0  0
   13.8900    3.8666  -59.5204 H   0  0  0  0  0  0  0  0  0  0  0  0
   15.2098    5.7356  -60.5097 H   0  0  0  0  0  0  0  0  0  0  0  0
   14.1156    7.9265  -60.9782 H   0  0  0  0  0  0  0  0  0  0  0  0
   11.7006    8.2553  -60.4450 H   0  0  0  0  0  0  0  0  0  0  0  0
   10.3765    6.3877  -59.4559 H   0  0  0  0  0  0  0  0  0  0  0  0
  1  2  1  0
  2  3  1  0
  3  4  1  0
  4  5  2  0
  4  6  1  0
  6  7  1  0
  7  8  2  0
  8  9  1  0
  9 10  2  0
 10 11  1  0
 11 12  2  0
 12 13  1  0
 13 14  2  0
 13 15  1  0
 15 16  2  0
 16 17  1  0
 17 18  2  0
 18 19  1  0
 19 20  2  0
 20 21  1  0
 21 22  1  0
 21 23  1  0
  3 24  2  0
 24 25  1  0
 25 26  1  0
 26 27  1  0
 26 28  1  0
 26 29  1  0
 25 30  1  0
 30 31  1  0
 31 32  2  0
 32 33  1  0
 33 34  2  0
 34 35  1  0
 35 36  2  0
 30  2  2  0
 36 31  1  0
 14  9  1  0
 20 15  1  0
 21 12  1  0
  1 37  1  0
  1 38  1  0
  1 39  1  0
  6 40  1  0
  8 41  1  0
 10 42  1  0
 11 43  1  0
 14 44  1  0
 16 45  1  0
 17 46  1  0
 18 47  1  0
 19 48  1  0
 22 49  1  0
 22 50  1  0
 22 51  1  0
 23 52  1  0
 23 53  1  0
 23 54  1  0
 27 55  1  0
 27 56  1  0
 27 57  1  0
 28 58  1  0
 28 59  1  0
 28 60  1  0
 29 61  1  0
 29 62  1  0
 29 63  1  0
 32 64  1  0
 33 65  1  0
 34 66  1  0
 35 67  1  0
 36 68  1  0
M  END
>  <meeko>  (53) 
{"is_sidechain": false}

$$$$

     RDKit          3D

 68 72  0  0  0  0  0  0  0  0999 V2000
    9.5660    2.0370  -55.9820 C   0  0  0  0  0  0  0  0  0  0  0  0
    8.2900    1.7950  -56.7100 C   0  0  0  0  0  0  0  0  0  0  0  0
    7.1490    1.0660  -56.2560 C   0  0  0  0  0  0  0  0  0  0  0  0
    6.9560    0.3260  -54.9890 C   0  0  0  0  0  0  0  0  0  0  0  0
    5.8430    0.0540  -54.5400 O   0  0  0  0  0  0  0  0  0  0  0  0
    8.1620   -0.0660  -54.3870 N   0  0  0  0  0  0  0  0  0  0  0  0
    8.1790   -0.9870  -53.3660 N   0  0  0  0  0  0  0  0  0  0  0  0
    9.1020   -1.9070  -53.3620 C   0  0  0  0  0  0  0  0  0  0  0  0
   10.0330   -2.2970  -54.4400 C   0  0  0  0  0  0  0  0  0  0  0  0
   10.7840   -1.3220  -55.1210 C   0  0  0  0  0  0  0  0  0  0  0  0
   11.6300   -1.6850  -56.1700 C   0  0  0  0  0  0  0  0  0  0  0  0
   11.6930   -3.0260  -56.5270 C   0  0  0  0  0  0  0  0  0  0  0  0
   10.9220   -4.0030  -55.8540 C   0  0  0  0  0  0  0  0  0  0  0  0
   10.0810   -3.6450  -54.8120 C   0  0  0  0  0  0  0  0  0  0  0  0
   11.1880   -5.3000  -56.4380 C   0  0  0  0  0  0  0  0  0  0  0  0
   10.6800   -6.5490  -56.1190 C   0  0  0  0  0  0  0  0  0  0  0  0
   11.1130   -7.6550  -56.8580 C   0  0  0  0  0  0  0  0  0  0  0  0
   12.0430   -7.5040  -57.8990 C   0  0  0  0  0  0  0  0  0  0  0  0
   12.5570   -6.2470  -58.2210 C   0  0  0  0  0  0  0  0  0  0  0  0
   12.1250   -5.1520  -57.4850 C   0  0  0  0  0  0  0  0  0  0  0  0
   12.5310   -3.6830  -57.6280 C   0  0  0  0  0  0  0  0  0  0  0  0
   12.1470   -3.1390  -59.0090 C   0  0  0  0  0  0  0  0  0  0  0  0
   14.0290   -3.4980  -57.3600 C   0  0  0  0  0  0  0  0  0  0  0  0
    6.1710    1.1200  -57.1690 N   0  0  0  0  0  0  0  0  0  0  0  0
    6.6610    1.8250  -58.2100 N   0  0  0  0  0  0  0  0  0  0  0  0
    5.7600    2.0570  -59.3640 C   0  0  0  0  0  0  0  0  0  0  0  0
    5.4870    0.7340  -60.1310 C   0  0  0  0  0  0  0  0  0  0  0  0
    4.4080    2.5890  -58.8580 C   0  0  0  0  0  0  0  0  0  0  0  0
    6.3520    3.0340  -60.4000 C   0  0  0  0  0  0  0  0  0  0  0  0
    7.9480    2.2710  -57.9720 C   0  0  0  0  0  0  0  0  0  0  0  0
    8.7620    3.0930  -58.8590 C   0  0  0  0  0  0  0  0  0  0  0  0
    8.8390    4.4770  -58.6720 C   0  0  0  0  0  0  0  0  0  0  0  0
    9.6470    5.2570  -59.5030 C   0  0  0  0  0  0  0  0  0  0  0  0
   10.3920    4.6540  -60.5150 C   0  0  0  0  0  0  0  0  0  0  0  0
   10.3380    3.2720  -60.6940 C   0  0  0  0  0  0  0  0  0  0  0  0
    9.5310    2.4920  -59.8630 C   0  0  0  0  0  0  0  0  0  0  0  0
    9.3820    2.0021  -54.8981 H   0  0  0  0  0  0  0  0  0  0  0  0
   10.2967    1.2614  -56.2550 H   0  0  0  0  0  0  0  0  0  0  0  0
    9.9620    3.0263  -56.2550 H   0  0  0  0  0  0  0  0  0  0  0  0
    8.9120   -0.2140  -55.0560 H   0  0  0  0  0  0  0  0  0  0  0  0
    9.2016   -2.4725  -52.4238 H   0  0  0  0  0  0  0  0  0  0  0  0
   10.7040   -0.2657  -54.8246 H   0  0  0  0  0  0  0  0  0  0  0  0
   12.2302   -0.9303  -56.6993 H   0  0  0  0  0  0  0  0  0  0  0  0
    9.4697   -4.3980  -54.2931 H   0  0  0  0  0  0  0  0  0  0  0  0
    9.9523   -6.6682  -55.3027 H   0  0  0  0  0  0  0  0  0  0  0  0
   10.7203   -8.6547  -56.6208 H   0  0  0  0  0  0  0  0  0  0  0  0
   12.3704   -8.3869  -58.4676 H   0  0  0  0  0  0  0  0  0  0  0  0
   13.2853   -6.1271  -59.0366 H   0  0  0  0  0  0  0  0  0  0  0  0
   11.5164   -2.2457  -58.8888 H   0  0  0  0  0  0  0  0  0  0  0  0
   13.0583   -2.8725  -59.5645 H   0  0  0  0  0  0  0  0  0  0  0  0
   11.5908   -3.9084  -59.5645 H   0  0  0  0  0  0  0  0  0  0  0  0
   14.2074   -3.4760  -56.2748 H   0  0  0  0  0  0  0  0  0  0  0  0
   14.5874   -4.3340  -57.8065 H   0  0  0  0  0  0  0  0  0  0  0  0
   14.3672   -2.5513  -57.8065 H   0  0  0  0  0  0  0  0  0  0  0  0
    5.3191   -0.0798  -59.4102 H   0  0  0  0  0  0  0  0  0  0  0  0
    4.5947    0.8540  -60.7630 H   0  0  0  0  0  0  0  0  0  0  0  0
    6.3539    0.4910  -60.7630 H   0  0  0  0  0  0  0  0  0  0  0  0
    4.4032    2.5909  -57.7580 H   0  0  0  0  0  0  0  0  0  0  0  0
    4.2559    3.6140  -59.2271 H   0  0  0  0  0  0  0  0  0  0  0  0
    3.5982    1.9425  -59.2271 H   0  0  0  0  0  0  0  0  0  0  0  0
    6.8538    3.8621  -59.8781 H   0  0  0  0  0  0  0  0  0  0  0  0
    7.0804    2.5029  -61.0304 H   0  0  0  0  0  0  0  0  0  0  0  0
    5.5441    3.4338  -61.0304 H   0  0  0  0  0  0  0  0  0  0  0  0
    8.2606    4.9536  -57.8668 H   0  0  0  0  0  0  0  0  0  0  0  0
    9.6952    6.3464  -59.3587 H   0  0  0  0  0  0  0  0  0  0  0  0
   11.0233    5.2689  -61.1733 H   0  0  0  0  0  0  0  0  0  0  0  0
   10.9308    2.7966  -61.4894 H   0  0  0  0  0  0  0  0  0  0  0  0
    9.4993    1.4007  -59.9978 H   0  0  0  0  0  0  0  0  0  0  0  0
  1  2  1  0
  2  3  1  0
  3  4  1  0
  4  5  2  0
  4  6  1  0
  6  7  1  0
  7  8  2  0
  8  9  1  0
  9 10  2  0
 10 11  1  0
 11 12  2  0
 12 13  1  0
 13 14  2  0
 13 15  1  0
 15 16  2  0
 16 17  1  0
 17 18  2  0
 18 19  1  0
 19 20  2  0
 20 21  1  0
 21 22  1  0
 21 23  1  0
  3 24  2  0
 24 25  1  0
 25 26  1  0
 26 27  1  0
 26 28  1  0
 26 29  1  0
 25 30  1  0
 30 31  1  0
 31 32  2  0
 32 33  1  0
 33 34  2  0
 34 35  1  0
 35 36  2  0
 30  2  2  0
 36 31  1  0
 14  9  1  0
 20 15  1  0
 21 12  1  0
  1 37  1  0
  1 38  1  0
  1 39  1  0
  6 40  1  0
  8 41  1  0
 10 42  1  0
 11 43  1  0
 14 44  1  0
 16 45  1  0
 17 46  1  0
 18 47  1  0
 19 48  1  0
 22 49  1  0
 22 50  1  0
 22 51  1  0
 23 52  1  0
 23 53  1  0
 23 54  1  0
 27 55  1  0
 27 56  1  0
 27 57  1  0
 28 58  1  0
 28 59  1  0
 28 60  1  0
 29 61  1  0
 29 62  1  0
 29 63  1  0
 32 64  1  0
 33 65  1  0
 34 66  1  0
 35 67  1  0
 36 68  1  0
M  END
>  <meeko>  (54) 
{"is_sidechain": false}

$$$$

     RDKit          3D

 63 68  0  0  0  0  0  0  0  0999 V2000
    6.1460    0.0250  -53.7510 C   0  0  0  0  0  0  0  0  0  0  0  0
    7.5220   -0.3690  -54.1510 C   0  0  0  0  0  0  0  0  0  0  0  0
    8.3160    0.2260  -55.1770 C   0  0  0  0  0  0  0  0  0  0  0  0
    7.9560    1.3530  -56.0620 C   0  0  0  0  0  0  0  0  0  0  0  0
    6.8280    1.8310  -56.1140 O   0  0  0  0  0  0  0  0  0  0  0  0
    9.0240    1.7970  -56.8110 N   0  0  0  0  0  0  0  0  0  0  0  0
    9.0100    2.8900  -57.7760 C   0  0  2  0  0  0  0  0  0  0  0  0
   10.3440    2.8650  -58.5690 C   0  0  0  0  0  0  0  0  0  0  0  0
   10.3900    4.0000  -59.6050 C   0  0  1  0  0  0  0  0  0  0  0  0
    9.2190    3.8330  -60.5870 C   0  0  0  0  0  0  0  0  0  0  0  0
    7.8860    3.8790  -59.8260 C   0  0  2  0  0  0  0  0  0  0  0  0
    7.7640    5.2280  -59.0970 C   0  0  0  0  0  0  0  0  0  0  0  0
    8.9310    5.4050  -58.1110 C   0  0  2  0  0  0  0  0  0  0  0  0
   10.2590    5.3500  -58.8820 C   0  0  0  0  0  0  0  0  0  0  0  0
    8.8950    4.2660  -57.0760 C   0  0  0  0  0  0  0  0  0  0  0  0
    7.8500    2.7410  -58.7910 C   0  0  0  0  0  0  0  0  0  0  0  0
    9.5210   -0.3730  -55.2730 N   0  0  0  0  0  0  0  0  0  0  0  0
    9.4820   -1.3520  -54.3410 N   0  0  0  0  0  0  0  0  0  0  0  0
   10.6570   -2.2010  -54.1580 C   0  0  0  0  0  0  0  0  0  0  0  0
   10.9640   -3.0310  -55.3810 C   0  0  0  0  0  0  0  0  0  0  0  0
   11.6350   -2.4710  -56.4800 C   0  0  0  0  0  0  0  0  0  0  0  0
   11.9220   -3.2450  -57.6050 C   0  0  0  0  0  0  0  0  0  0  0  0
   11.5490   -4.5870  -57.6440 C   0  0  0  0  0  0  0  0  0  0  0  0
   10.8880   -5.1560  -56.5570 C   0  0  0  0  0  0  0  0  0  0  0  0
   10.6000   -4.3850  -55.4310 C   0  0  0  0  0  0  0  0  0  0  0  0
    8.3100   -1.3780  -53.6200 C   0  0  0  0  0  0  0  0  0  0  0  0
    8.0300   -2.3200  -52.5450 C   0  0  0  0  0  0  0  0  0  0  0  0
    7.6390   -3.6310  -52.8430 C   0  0  0  0  0  0  0  0  0  0  0  0
    7.3650   -4.5310  -51.8120 C   0  0  0  0  0  0  0  0  0  0  0  0
    7.4840   -4.1280  -50.4820 C   0  0  0  0  0  0  0  0  0  0  0  0
    7.8820   -2.8260  -50.1800 C   0  0  0  0  0  0  0  0  0  0  0  0
    8.1580   -1.9240  -51.2100 C   0  0  0  0  0  0  0  0  0  0  0  0
    6.0749    0.0454  -52.6535 H   0  0  0  0  0  0  0  0  0  0  0  0
    5.9196    1.0241  -54.1517 H   0  0  0  0  0  0  0  0  0  0  0  0
    5.4251   -0.7028  -54.1517 H   0  0  0  0  0  0  0  0  0  0  0  0
    9.8860    1.2850  -56.6320 H   0  0  0  0  0  0  0  0  0  0  0  0
   11.1823    2.9846  -57.8668 H   0  0  0  0  0  0  0  0  0  0  0  0
   10.4192    1.9037  -59.0985 H   0  0  0  0  0  0  0  0  0  0  0  0
   11.3425    3.9658  -60.1541 H   0  0  0  0  0  0  0  0  0  0  0  0
    9.2447    4.6468  -61.3266 H   0  0  0  0  0  0  0  0  0  0  0  0
    9.3107    2.8628  -61.0972 H   0  0  0  0  0  0  0  0  0  0  0  0
    7.0529    3.7620  -60.5347 H   0  0  0  0  0  0  0  0  0  0  0  0
    7.7848    6.0433  -59.8351 H   0  0  0  0  0  0  0  0  0  0  0  0
    6.8159    5.2509  -58.5396 H   0  0  0  0  0  0  0  0  0  0  0  0
    8.8417    6.3744  -57.5989 H   0  0  0  0  0  0  0  0  0  0  0  0
   10.2850    6.1637  -59.6217 H   0  0  0  0  0  0  0  0  0  0  0  0
   11.0932    5.4635  -58.1740 H   0  0  0  0  0  0  0  0  0  0  0  0
    9.7349    4.3869  -56.3761 H   0  0  0  0  0  0  0  0  0  0  0  0
    7.9388    4.3094  -56.5340 H   0  0  0  0  0  0  0  0  0  0  0  0
    6.8917    2.7729  -58.2519 H   0  0  0  0  0  0  0  0  0  0  0  0
    7.9596    1.7807  -59.3161 H   0  0  0  0  0  0  0  0  0  0  0  0
   11.5244   -1.5611  -53.9386 H   0  0  0  0  0  0  0  0  0  0  0  0
   10.4454   -2.8918  -53.3286 H   0  0  0  0  0  0  0  0  0  0  0  0
   11.9369   -1.4136  -56.4539 H   0  0  0  0  0  0  0  0  0  0  0  0
   12.4436   -2.7950  -58.4626 H   0  0  0  0  0  0  0  0  0  0  0  0
   11.7759   -5.1963  -58.5313 H   0  0  0  0  0  0  0  0  0  0  0  0
   10.5928   -6.2152  -56.5872 H   0  0  0  0  0  0  0  0  0  0  0  0
   10.0829   -4.8425  -54.5747 H   0  0  0  0  0  0  0  0  0  0  0  0
    7.5476   -3.9521  -53.8911 H   0  0  0  0  0  0  0  0  0  0  0  0
    7.0548   -5.5595  -52.0487 H   0  0  0  0  0  0  0  0  0  0  0  0
    7.2638   -4.8376  -49.6708 H   0  0  0  0  0  0  0  0  0  0  0  0
    7.9785   -2.5095  -49.1309 H   0  0  0  0  0  0  0  0  0  0  0  0
    8.4770   -0.8989  -50.9703 H   0  0  0  0  0  0  0  0  0  0  0  0
  1  2  1  0
  2  3  1  0
  3  4  1  0
  4  5  2  0
  4  6  1  0
  7  6  1  1
  7  8  1  0
  8  9  1  0
  9 10  1  0
 10 11  1  0
 11 12  1  0
 12 13  1  0
 13 14  1  0
 13 15  1  0
 11 16  1  0
  3 17  2  0
 17 18  1  0
 18 19  1  0
 19 20  1  0
 20 21  2  0
 21 22  1  0
 22 23  2  0
 23 24  1  0
 24 25  2  0
 18 26  1  0
 26 27  1  0
 27 28  2  0
 28 29  1  0
 29 30  2  0
 30 31  1  0
 31 32  2  0
 26  2  2  0
 32 27  1  0
 15  7  1  0
 25 20  1  0
 16  7  1  0
 14  9  1  0
  1 33  1  0
  1 34  1  0
  1 35  1  0
  6 36  1  0
  8 37  1  0
  8 38  1  0
  9 39  1  6
 10 40  1  0
 10 41  1  0
 11 42  1  6
 12 43  1  0
 12 44  1  0
 13 45  1  1
 14 46  1  0
 14 47  1  0
 15 48  1  0
 15 49  1  0
 16 50  1  0
 16 51  1  0
 19 52  1  0
 19 53  1  0
 21 54  1  0
 22 55  1  0
 23 56  1  0
 24 57  1  0
 25 58  1  0
 28 59  1  0
 29 60  1  0
 30 61  1  0
 31 62  1  0
 32 63  1  0
M  END
>  <meeko>  (55) 
{"is_sidechain": false}

$$$$

     RDKit          3D

 63 68  0  0  0  0  0  0  0  0999 V2000
    6.1180    0.0560  -53.7570 C   0  0  0  0  0  0  0  0  0  0  0  0
    7.4890   -0.3590  -54.1550 C   0  0  0  0  0  0  0  0  0  0  0  0
    8.2970    0.2320  -55.1710 C   0  0  0  0  0  0  0  0  0  0  0  0
    7.9630    1.3760  -56.0450 C   0  0  0  0  0  0  0  0  0  0  0  0
    6.8360    1.8550  -56.1180 O   0  0  0  0  0  0  0  0  0  0  0  0
    9.0510    1.8320  -56.7580 N   0  0  0  0  0  0  0  0  0  0  0  0
    9.0600    2.9380  -57.7090 C   0  0  2  0  0  0  0  0  0  0  0  0
   10.4270    2.9460  -58.4420 C   0  0  0  0  0  0  0  0  0  0  0  0
   10.4980    4.0930  -59.4630 C   0  0  1  0  0  0  0  0  0  0  0  0
    9.3750    3.9180  -60.4970 C   0  0  0  0  0  0  0  0  0  0  0  0
    8.0080    3.9330  -59.7930 C   0  0  2  0  0  0  0  0  0  0  0  0
    7.8310    5.2710  -59.0560 C   0  0  0  0  0  0  0  0  0  0  0  0
    8.9510    5.4550  -58.0180 C   0  0  2  0  0  0  0  0  0  0  0  0
   10.3130    5.4310  -58.7300 C   0  0  0  0  0  0  0  0  0  0  0  0
    8.8910    4.3030  -56.9980 C   0  0  0  0  0  0  0  0  0  0  0  0
    7.9470    2.7820  -58.7750 C   0  0  0  0  0  0  0  0  0  0  0  0
    9.4880   -0.3950  -55.2760 N   0  0  0  0  0  0  0  0  0  0  0  0
    9.4440   -1.3550  -54.3250 N   0  0  0  0  0  0  0  0  0  0  0  0
   10.5930   -2.2410  -54.1620 C   0  0  0  0  0  0  0  0  0  0  0  0
   10.9330   -2.9790  -55.4350 C   0  0  0  0  0  0  0  0  0  0  0  0
   11.6790   -2.3540  -56.4490 C   0  0  0  0  0  0  0  0  0  0  0  0
   11.9890   -3.0400  -57.6240 C   0  0  0  0  0  0  0  0  0  0  0  0
   11.5510   -4.3470  -57.7910 C   0  0  0  0  0  0  0  0  0  0  0  0
   11.8500   -5.0050  -58.9180 F   0  0  0  0  0  0  0  0  0  0  0  0
   10.8080   -4.9840  -56.8040 C   0  0  0  0  0  0  0  0  0  0  0  0
   10.4960   -4.3010  -55.6280 C   0  0  0  0  0  0  0  0  0  0  0  0
    8.2550   -1.3910  -53.6350 C   0  0  0  0  0  0  0  0  0  0  0  0
    7.9530   -2.3390  -52.5710 C   0  0  0  0  0  0  0  0  0  0  0  0
    8.1580   -1.9860  -51.2320 C   0  0  0  0  0  0  0  0  0  0  0  0
    7.8580   -2.8920  -50.2140 C   0  0  0  0  0  0  0  0  0  0  0  0
    7.3560   -4.1550  -50.5290 C   0  0  0  0  0  0  0  0  0  0  0  0
    7.1590   -4.5150  -51.8610 C   0  0  0  0  0  0  0  0  0  0  0  0
    7.4600   -3.6100  -52.8810 C   0  0  0  0  0  0  0  0  0  0  0  0
    6.0456    0.0779  -52.6596 H   0  0  0  0  0  0  0  0  0  0  0  0
    5.9072    1.0582  -54.1585 H   0  0  0  0  0  0  0  0  0  0  0  0
    5.3868   -0.6611  -54.1585 H   0  0  0  0  0  0  0  0  0  0  0  0
    9.9040    1.3080  -56.5770 H   0  0  0  0  0  0  0  0  0  0  0  0
   11.2311    3.0727  -57.7022 H   0  0  0  0  0  0  0  0  0  0  0  0
   10.5429    1.9923  -58.9777 H   0  0  0  0  0  0  0  0  0  0  0  0
   11.4732    4.0815  -59.9718 H   0  0  0  0  0  0  0  0  0  0  0  0
    9.4189    4.7407  -61.2258 H   0  0  0  0  0  0  0  0  0  0  0  0
    9.5055    2.9558  -61.0139 H   0  0  0  0  0  0  0  0  0  0  0  0
    7.2078    3.8111  -60.5378 H   0  0  0  0  0  0  0  0  0  0  0  0
    7.8703    6.0951  -59.7836 H   0  0  0  0  0  0  0  0  0  0  0  0
    6.8590    5.2724  -58.5409 H   0  0  0  0  0  0  0  0  0  0  0  0
    8.8215    6.4168  -57.5001 H   0  0  0  0  0  0  0  0  0  0  0  0
   10.3584    6.2546  -59.4577 H   0  0  0  0  0  0  0  0  0  0  0  0
   11.1130    5.5484  -57.9842 H   0  0  0  0  0  0  0  0  0  0  0  0
    9.6981    4.4296  -56.2614 H   0  0  0  0  0  0  0  0  0  0  0  0
    7.9123    4.3234  -56.4963 H   0  0  0  0  0  0  0  0  0  0  0  0
    6.9660    2.7909  -58.2775 H   0  0  0  0  0  0  0  0  0  0  0  0
    8.0954    1.8303  -59.3062 H   0  0  0  0  0  0  0  0  0  0  0  0
   11.4629   -1.6400  -53.8585 H   0  0  0  0  0  0  0  0  0  0  0  0
   10.3352   -2.9892  -53.3979 H   0  0  0  0  0  0  0  0  0  0  0  0
   12.0208   -1.3170  -56.3155 H   0  0  0  0  0  0  0  0  0  0  0  0
   12.5768   -2.5483  -58.4131 H   0  0  0  0  0  0  0  0  0  0  0  0
   10.4681   -6.0201  -56.9491 H   0  0  0  0  0  0  0  0  0  0  0  0
    9.9042   -4.8004  -54.8467 H   0  0  0  0  0  0  0  0  0  0  0  0
    8.5566   -0.9918  -50.9816 H   0  0  0  0  0  0  0  0  0  0  0  0
    8.0174   -2.6103  -49.1627 H   0  0  0  0  0  0  0  0  0  0  0  0
    7.1156   -4.8670  -49.7258 H   0  0  0  0  0  0  0  0  0  0  0  0
    6.7663   -5.5122  -52.1088 H   0  0  0  0  0  0  0  0  0  0  0  0
    7.3087   -3.8981  -53.9318 H   0  0  0  0  0  0  0  0  0  0  0  0
  1  2  1  0
  2  3  1  0
  3  4  1  0
  4  5  2  0
  4  6  1  0
  7  6  1  1
  7  8  1  0
  8  9  1  0
  9 10  1  0
 10 11  1  0
 11 12  1  0
 12 13  1  0
 13 14  1  0
 13 15  1  0
 11 16  1  0
  3 17  2  0
 17 18  1  0
 18 19  1  0
 19 20  1  0
 20 21  1  0
 21 22  2  0
 22 23  1  0
 23 24  1  0
 23 25  2  0
 25 26  1  0
 18 27  1  0
 27 28  1  0
 28 29  2  0
 29 30  1  0
 30 31  2  0
 31 32  1  0
 32 33  2  0
 27  2  2  0
 33 28  1  0
 15  7  1  0
 26 20  2  0
 16  7  1  0
 14  9  1  0
  1 34  1  0
  1 35  1  0
  1 36  1  0
  6 37  1  0
  8 38  1  0
  8 39  1  0
  9 40  1  6
 10 41  1  0
 10 42  1  0
 11 43  1  6
 12 44  1  0
 12 45  1  0
 13 46  1  1
 14 47  1  0
 14 48  1  0
 15 49  1  0
 15 50  1  0
 16 51  1  0
 16 52  1  0
 19 53  1  0
 19 54  1  0
 21 55  1  0
 22 56  1  0
 25 57  1  0
 26 58  1  0
 29 59  1  0
 30 60  1  0
 31 61  1  0
 32 62  1  0
 33 63  1  0
M  END
>  <meeko>  (56) 
{"is_sidechain": false}

$$$$

     RDKit          3D

 60 65  0  0  0  0  0  0  0  0999 V2000
    9.3540    1.7940  -55.7540 C   0  0  0  0  0  0  0  0  0  0  0  0
    8.0400    1.5840  -56.4210 C   0  0  0  0  0  0  0  0  0  0  0  0
    6.9020    0.9120  -55.8940 C   0  0  0  0  0  0  0  0  0  0  0  0
    6.7660    0.2030  -54.6050 C   0  0  0  0  0  0  0  0  0  0  0  0
    5.9730    0.5510  -53.7360 O   0  0  0  0  0  0  0  0  0  0  0  0
    7.5920   -0.9020  -54.4870 N   0  0  0  0  0  0  0  0  0  0  0  0
    7.5780   -1.8360  -53.3590 C   0  0  2  0  0  0  0  0  0  0  0  0
    6.3320   -2.7540  -53.3920 C   0  0  0  0  0  0  0  0  0  0  0  0
    6.3720   -3.7630  -52.2320 C   0  0  1  0  0  0  0  0  0  0  0  0
    7.6320   -4.6350  -52.3600 C   0  0  0  0  0  0  0  0  0  0  0  0
    8.8880   -3.7520  -52.3080 C   0  0  2  0  0  0  0  0  0  0  0  0
    8.9240   -2.9950  -50.9720 C   0  0  0  0  0  0  0  0  0  0  0  0
    7.6730   -2.1130  -50.8360 C   0  0  2  0  0  0  0  0  0  0  0  0
    6.4180   -3.0010  -50.8970 C   0  0  0  0  0  0  0  0  0  0  0  0
    7.6340   -1.1010  -51.9950 C   0  0  0  0  0  0  0  0  0  0  0  0
    8.8400   -2.7370  -53.4600 C   0  0  0  0  0  0  0  0  0  0  0  0
    5.8670    1.0010  -56.7360 N   0  0  0  0  0  0  0  0  0  0  0  0
    6.3190    1.6480  -57.8390 N   0  0  0  0  0  0  0  0  0  0  0  0
    5.4280    1.7820  -58.9550 C   0  0  0  0  0  0  0  0  0  0  0  0
    5.8600    1.3320  -60.2190 C   0  0  0  0  0  0  0  0  0  0  0  0
    5.0320    1.4380  -61.3430 C   0  0  0  0  0  0  0  0  0  0  0  0
    3.7680    2.0030  -61.2150 C   0  0  0  0  0  0  0  0  0  0  0  0
    2.6460    2.1510  -62.7270 Br  0  0  0  0  0  0  0  0  0  0  0  0
    3.3310    2.4690  -59.9790 C   0  0  0  0  0  0  0  0  0  0  0  0
    4.1580    2.3640  -58.8530 C   0  0  0  0  0  0  0  0  0  0  0  0
    7.6410    2.0630  -57.6650 C   0  0  0  0  0  0  0  0  0  0  0  0
    8.4130    2.9200  -58.5620 C   0  0  0  0  0  0  0  0  0  0  0  0
    9.3500    2.3600  -59.4400 C   0  0  0  0  0  0  0  0  0  0  0  0
   10.1020    3.1790  -60.2820 C   0  0  0  0  0  0  0  0  0  0  0  0
    9.9300    4.5630  -60.2450 C   0  0  0  0  0  0  0  0  0  0  0  0
    9.0110    5.1290  -59.3620 C   0  0  0  0  0  0  0  0  0  0  0  0
    8.2570    4.3110  -58.5190 C   0  0  0  0  0  0  0  0  0  0  0  0
    9.2188    1.7724  -54.6626 H   0  0  0  0  0  0  0  0  0  0  0  0
   10.0489    0.9955  -56.0533 H   0  0  0  0  0  0  0  0  0  0  0  0
    9.7654    2.7693  -56.0533 H   0  0  0  0  0  0  0  0  0  0  0  0
    8.0000   -1.2330  -55.3520 H   0  0  0  0  0  0  0  0  0  0  0  0
    5.4258   -2.1368  -53.3032 H   0  0  0  0  0  0  0  0  0  0  0  0
    6.3241   -3.3070  -54.3428 H   0  0  0  0  0  0  0  0  0  0  0  0
    5.4754   -4.3994  -52.2653 H   0  0  0  0  0  0  0  0  0  0  0  0
    7.6604   -5.3583  -51.5317 H   0  0  0  0  0  0  0  0  0  0  0  0
    7.6055   -5.1699  -53.3208 H   0  0  0  0  0  0  0  0  0  0  0  0
    9.7854   -4.3813  -52.4015 H   0  0  0  0  0  0  0  0  0  0  0  0
    8.9520   -3.7183  -50.1437 H   0  0  0  0  0  0  0  0  0  0  0  0
    9.8206   -2.3586  -50.9407 H   0  0  0  0  0  0  0  0  0  0  0  0
    7.7023   -1.5756  -49.8766 H   0  0  0  0  0  0  0  0  0  0  0  0
    6.4427   -3.7227  -50.0672 H   0  0  0  0  0  0  0  0  0  0  0  0
    5.5239   -2.3655  -50.8150 H   0  0  0  0  0  0  0  0  0  0  0  0
    6.7425   -0.4652  -51.8900 H   0  0  0  0  0  0  0  0  0  0  0  0
    8.5457   -0.4865  -51.9603 H   0  0  0  0  0  0  0  0  0  0  0  0
    9.7382   -2.1033  -53.4183 H   0  0  0  0  0  0  0  0  0  0  0  0
    8.8003   -3.2889  -54.4107 H   0  0  0  0  0  0  0  0  0  0  0  0
    6.8623    0.8911  -60.3239 H   0  0  0  0  0  0  0  0  0  0  0  0
    5.3795    1.0763  -62.3220 H   0  0  0  0  0  0  0  0  0  0  0  0
    2.3327    2.9214  -59.8856 H   0  0  0  0  0  0  0  0  0  0  0  0
    3.8072    2.7416  -57.8812 H   0  0  0  0  0  0  0  0  0  0  0  0
    9.4933    1.2697  -59.4655 H   0  0  0  0  0  0  0  0  0  0  0  0
   10.8307    2.7337  -60.9753 H   0  0  0  0  0  0  0  0  0  0  0  0
   10.5197    5.2082  -60.9128 H   0  0  0  0  0  0  0  0  0  0  0  0
    8.8802    6.2207  -59.3298 H   0  0  0  0  0  0  0  0  0  0  0  0
    7.5378    4.7605  -57.8185 H   0  0  0  0  0  0  0  0  0  0  0  0
  1  2  1  0
  2  3  1  0
  3  4  1  0
  4  5  2  0
  4  6  1  0
  7  6  1  6
  7  8  1  0
  8  9  1  0
  9 10  1  0
 10 11  1  0
 11 12  1  0
 12 13  1  0
 13 14  1  0
 13 15  1  0
 11 16  1  0
  3 17  2  0
 17 18  1  0
 18 19  1  0
 19 20  1  0
 20 21  2  0
 21 22  1  0
 22 23  1  0
 22 24  2  0
 24 25  1  0
 18 26  1  0
 26 27  1  0
 27 28  2  0
 28 29  1  0
 29 30  2  0
 30 31  1  0
 31 32  2  0
 26  2  2  0
 32 27  1  0
 15  7  1  0
 25 19  2  0
 16  7  1  0
 14  9  1  0
  1 33  1  0
  1 34  1  0
  1 35  1  0
  6 36  1  0
  8 37  1  0
  8 38  1  0
  9 39  1  1
 10 40  1  0
 10 41  1  0
 11 42  1  6
 12 43  1  0
 12 44  1  0
 13 45  1  1
 14 46  1  0
 14 47  1  0
 15 48  1  0
 15 49  1  0
 16 50  1  0
 16 51  1  0
 20 52  1  0
 21 53  1  0
 24 54  1  0
 25 55  1  0
 28 56  1  0
 29 57  1  0
 30 58  1  0
 31 59  1  0
 32 60  1  0
M  END
>  <meeko>  (57) 
{"is_sidechain": false}

$$$$

     RDKit          3D

 47 51  0  0  0  0  0  0  0  0999 V2000
    9.9590    1.5420  -55.7760 O   0  0  0  0  0  0  0  0  0  0  0  0
    8.7570    1.3110  -55.8670 C   0  0  0  0  0  0  0  0  0  0  0  0
    7.9440    1.9190  -56.8120 N   0  0  0  0  0  0  0  0  0  0  0  0
    8.3940    2.9440  -57.7600 C   0  0  2  0  0  0  0  0  0  0  0  0
    9.6690    2.5100  -58.5260 C   0  0  0  0  0  0  0  0  0  0  0  0
   10.0800    3.5830  -59.5490 C   0  0  1  0  0  0  0  0  0  0  0  0
    8.9420    3.7830  -60.5620 C   0  0  0  0  0  0  0  0  0  0  0  0
    7.6670    4.2340  -59.8340 C   0  0  2  0  0  0  0  0  0  0  0  0
    7.9390    5.5570  -59.1020 C   0  0  0  0  0  0  0  0  0  0  0  0
    9.0710    5.3700  -58.0810 C   0  0  2  0  0  0  0  0  0  0  0  0
   10.3430    4.9080  -58.8130 C   0  0  0  0  0  0  0  0  0  0  0  0
    8.6590    4.2980  -57.0550 C   0  0  0  0  0  0  0  0  0  0  0  0
    7.2680    3.1630  -58.8070 C   0  0  0  0  0  0  0  0  0  0  0  0
    8.0500    0.3720  -54.9660 C   0  0  0  0  0  0  0  0  0  0  0  0
    8.6060   -0.5390  -54.0200 C   0  0  0  0  0  0  0  0  0  0  0  0
    7.5400   -1.1770  -53.4160 C   0  0  0  0  0  0  0  0  0  0  0  0
    7.4810   -2.2040  -52.3780 C   0  0  0  0  0  0  0  0  0  0  0  0
    7.8250   -1.9140  -51.0500 C   0  0  0  0  0  0  0  0  0  0  0  0
    7.7640   -2.9050  -50.0650 C   0  0  0  0  0  0  0  0  0  0  0  0
    7.3610   -4.1960  -50.3980 C   0  0  0  0  0  0  0  0  0  0  0  0
    7.0220   -4.5000  -51.7130 C   0  0  0  0  0  0  0  0  0  0  0  0
    7.0840   -3.5100  -52.6980 C   0  0  0  0  0  0  0  0  0  0  0  0
    6.4350   -0.6440  -54.0260 N   0  0  0  0  0  0  0  0  0  0  0  0
    6.7070    0.2860  -54.9480 N   0  0  0  0  0  0  0  0  0  0  0  0
    6.9490    1.8320  -56.6750 H   0  0  0  0  0  0  0  0  0  0  0  0
   10.4892    2.3627  -57.8079 H   0  0  0  0  0  0  0  0  0  0  0  0
    9.4581    1.5727  -59.0618 H   0  0  0  0  0  0  0  0  0  0  0  0
   10.9909    3.2629  -60.0761 H   0  0  0  0  0  0  0  0  0  0  0  0
    9.2354    4.5507  -61.2932 H   0  0  0  0  0  0  0  0  0  0  0  0
    8.7464    2.8321  -61.0792 H   0  0  0  0  0  0  0  0  0  0  0  0
    6.8551    4.3746  -60.5627 H   0  0  0  0  0  0  0  0  0  0  0  0
    8.2316    6.3245  -59.8336 H   0  0  0  0  0  0  0  0  0  0  0  0
    7.0263    5.8721  -58.5751 H   0  0  0  0  0  0  0  0  0  0  0  0
    9.2646    6.3219  -57.5648 H   0  0  0  0  0  0  0  0  0  0  0  0
   10.6419    5.6756  -59.5420 H   0  0  0  0  0  0  0  0  0  0  0  0
   11.1462    4.7567  -58.0768 H   0  0  0  0  0  0  0  0  0  0  0  0
    9.4675    4.1711  -56.3200 H   0  0  0  0  0  0  0  0  0  0  0  0
    7.7363    4.6234  -56.5523 H   0  0  0  0  0  0  0  0  0  0  0  0
    6.3533    3.4859  -58.2884 H   0  0  0  0  0  0  0  0  0  0  0  0
    7.0973    2.2156  -59.3392 H   0  0  0  0  0  0  0  0  0  0  0  0
    9.6739   -0.7016  -53.8122 H   0  0  0  0  0  0  0  0  0  0  0  0
    8.1460   -0.8971  -50.7802 H   0  0  0  0  0  0  0  0  0  0  0  0
    8.0346   -2.6646  -49.0262 H   0  0  0  0  0  0  0  0  0  0  0  0
    7.3107   -4.9744  -49.6224 H   0  0  0  0  0  0  0  0  0  0  0  0
    6.7051   -5.5196  -51.9775 H   0  0  0  0  0  0  0  0  0  0  0  0
    6.8183   -3.7585  -53.7361 H   0  0  0  0  0  0  0  0  0  0  0  0
    5.4630   -0.8800  -53.8620 H   0  0  0  0  0  0  0  0  0  0  0  0
  1  2  2  0
  2  3  1  0
  4  3  1  1
  4  5  1  0
  5  6  1  0
  6  7  1  0
  7  8  1  0
  8  9  1  0
  9 10  1  0
 10 11  1  0
 10 12  1  0
  8 13  1  0
  2 14  1  0
 14 15  1  0
 15 16  2  0
 16 17  1  0
 17 18  2  0
 18 19  1  0
 19 20  2  0
 20 21  1  0
 21 22  2  0
 16 23  1  0
 23 24  1  0
 12  4  1  0
 24 14  2  0
 13  4  1  0
 22 17  1  0
 11  6  1  0
  3 25  1  0
  5 26  1  0
  5 27  1  0
  6 28  1  6
  7 29  1  0
  7 30  1  0
  8 31  1  6
  9 32  1  0
  9 33  1  0
 10 34  1  1
 11 35  1  0
 11 36  1  0
 12 37  1  0
 12 38  1  0
 13 39  1  0
 13 40  1  0
 15 41  1  0
 18 42  1  0
 19 43  1  0
 20 44  1  0
 21 45  1  0
 22 46  1  0
 23 47  1  0
M  END
>  <meeko>  (58) 
{"is_sidechain": false}

$$$$

     RDKit          3D

 47 51  0  0  0  0  0  0  0  0999 V2000
    6.8090    2.0230  -56.6860 O   0  0  0  0  0  0  0  0  0  0  0  0
    7.7960    1.4890  -56.1920 C   0  0  0  0  0  0  0  0  0  0  0  0
    9.0880    1.8080  -56.5420 N   0  0  0  0  0  0  0  0  0  0  0  0
    9.4680    2.8130  -57.5400 C   0  0  2  0  0  0  0  0  0  0  0  0
   11.0110    2.7670  -57.7180 C   0  0  0  0  0  0  0  0  0  0  0  0
   11.4790    3.8000  -58.7550 C   0  0  1  0  0  0  0  0  0  0  0  0
   10.8090    3.4990  -60.1050 C   0  0  0  0  0  0  0  0  0  0  0  0
    9.2810    3.5660  -59.9580 C   0  0  2  0  0  0  0  0  0  0  0  0
    8.8780    4.9710  -59.4800 C   0  0  0  0  0  0  0  0  0  0  0  0
    9.5440    5.2810  -58.1280 C   0  0  2  0  0  0  0  0  0  0  0  0
   11.0710    5.2050  -58.2860 C   0  0  0  0  0  0  0  0  0  0  0  0
    9.0870    4.2450  -57.0870 C   0  0  0  0  0  0  0  0  0  0  0  0
    8.8240    2.5260  -58.9190 C   0  0  0  0  0  0  0  0  0  0  0  0
    7.6710    0.4680  -55.1860 C   0  0  0  0  0  0  0  0  0  0  0  0
    8.4570    0.0530  -54.1290 C   0  0  0  0  0  0  0  0  0  0  0  0
    7.7600   -1.0240  -53.5070 C   0  0  0  0  0  0  0  0  0  0  0  0
    8.1620   -1.8190  -52.3380 C   0  0  0  0  0  0  0  0  0  0  0  0
    7.3640   -1.8330  -51.1810 C   0  0  0  0  0  0  0  0  0  0  0  0
    7.7320   -2.5840  -50.0610 C   0  0  0  0  0  0  0  0  0  0  0  0
    8.9050   -3.3330  -50.0810 C   0  0  0  0  0  0  0  0  0  0  0  0
    9.7090   -3.3320  -51.2180 C   0  0  0  0  0  0  0  0  0  0  0  0
    9.3400   -2.5810  -52.3390 C   0  0  0  0  0  0  0  0  0  0  0  0
    6.6050   -1.2560  -54.1520 N   0  0  0  0  0  0  0  0  0  0  0  0
    6.5800   -0.3540  -55.1440 N   0  0  0  0  0  0  0  0  0  0  0  0
    9.8350    1.3120  -56.0790 H   0  0  0  0  0  0  0  0  0  0  0  0
   11.4907    2.9845  -56.7523 H   0  0  0  0  0  0  0  0  0  0  0  0
   11.2922    1.7642  -58.0720 H   0  0  0  0  0  0  0  0  0  0  0  0
   12.5723    3.7496  -58.8655 H   0  0  0  0  0  0  0  0  0  0  0  0
   11.1366    4.2410  -60.8481 H   0  0  0  0  0  0  0  0  0  0  0  0
   11.0968    2.4898  -60.4347 H   0  0  0  0  0  0  0  0  0  0  0  0
    8.8066    3.3542  -60.9276 H   0  0  0  0  0  0  0  0  0  0  0  0
    9.2007    5.7147  -60.2235 H   0  0  0  0  0  0  0  0  0  0  0  0
    7.7852    5.0109  -59.3605 H   0  0  0  0  0  0  0  0  0  0  0  0
    9.2565    6.2894  -57.7957 H   0  0  0  0  0  0  0  0  0  0  0  0
   11.3981    5.9469  -59.0293 H   0  0  0  0  0  0  0  0  0  0  0  0
   11.5463    5.4154  -57.3165 H   0  0  0  0  0  0  0  0  0  0  0  0
    9.5732    4.4611  -56.1242 H   0  0  0  0  0  0  0  0  0  0  0  0
    7.9936    4.3051  -56.9828 H   0  0  0  0  0  0  0  0  0  0  0  0
    7.7291    2.5686  -58.8224 H   0  0  0  0  0  0  0  0  0  0  0  0
    9.1380    1.5270  -59.2558 H   0  0  0  0  0  0  0  0  0  0  0  0
    9.4287    0.4708  -53.8268 H   0  0  0  0  0  0  0  0  0  0  0  0
    6.4354   -1.2438  -51.1565 H   0  0  0  0  0  0  0  0  0  0  0  0
    7.0949   -2.5831  -49.1643 H   0  0  0  0  0  0  0  0  0  0  0  0
    9.1963   -3.9245  -49.2005 H   0  0  0  0  0  0  0  0  0  0  0  0
   10.6365   -3.9232  -51.2347 H   0  0  0  0  0  0  0  0  0  0  0  0
    9.9815   -2.5880  -53.2325 H   0  0  0  0  0  0  0  0  0  0  0  0
    5.7860   -0.3390  -55.7760 H   0  0  0  0  0  0  0  0  0  0  0  0
  1  2  2  0
  2  3  1  0
  4  3  1  1
  4  5  1  0
  5  6  1  0
  6  7  1  0
  7  8  1  0
  8  9  1  0
  9 10  1  0
 10 11  1  0
 10 12  1  0
  8 13  1  0
  2 14  1  0
 14 15  2  0
 15 16  1  0
 16 17  1  0
 17 18  2  0
 18 19  1  0
 19 20  2  0
 20 21  1  0
 21 22  2  0
 16 23  2  0
 23 24  1  0
 12  4  1  0
 24 14  1  0
 13  4  1  0
 22 17  1  0
 11  6  1  0
  3 25  1  0
  5 26  1  0
  5 27  1  0
  6 28  1  6
  7 29  1  0
  7 30  1  0
  8 31  1  6
  9 32  1  0
  9 33  1  0
 10 34  1  1
 11 35  1  0
 11 36  1  0
 12 37  1  0
 12 38  1  0
 13 39  1  0
 13 40  1  0
 15 41  1  0
 18 42  1  0
 19 43  1  0
 20 44  1  0
 21 45  1  0
 22 46  1  0
 24 47  1  0
M  END
>  <meeko>  (59) 
{"is_sidechain": false}

$$$$

     RDKit          3D

 53 57  0  0  0  0  0  0  0  0999 V2000
    6.0070   -0.3400  -53.8910 C   0  0  0  0  0  0  0  0  0  0  0  0
    7.4680   -0.5450  -54.0680 C   0  0  0  0  0  0  0  0  0  0  0  0
    8.3440    0.1280  -54.9830 C   0  0  0  0  0  0  0  0  0  0  0  0
    8.0210    1.2190  -55.9270 C   0  0  0  0  0  0  0  0  0  0  0  0
    6.8730    1.5810  -56.1610 O   0  0  0  0  0  0  0  0  0  0  0  0
    9.1350    1.7690  -56.5390 N   0  0  0  0  0  0  0  0  0  0  0  0
    9.0900    2.7850  -57.5940 C   0  0  2  0  0  0  0  0  0  0  0  0
   10.4890    2.8470  -58.2660 C   0  0  0  0  0  0  0  0  0  0  0  0
   10.5140    3.8920  -59.3930 C   0  0  1  0  0  0  0  0  0  0  0  0
    9.4620    3.5210  -60.4490 C   0  0  0  0  0  0  0  0  0  0  0  0
    8.0660    3.4830  -59.8080 C   0  0  2  0  0  0  0  0  0  0  0  0
    7.7430    4.8650  -59.2140 C   0  0  0  0  0  0  0  0  0  0  0  0
    8.7920    5.2440  -58.1550 C   0  0  2  0  0  0  0  0  0  0  0  0
   10.1840    5.2730  -58.8060 C   0  0  0  0  0  0  0  0  0  0  0  0
    8.7770    4.1940  -57.0290 C   0  0  0  0  0  0  0  0  0  0  0  0
    8.0500    2.4310  -58.6840 C   0  0  0  0  0  0  0  0  0  0  0  0
    9.5930   -0.3590  -54.8930 N   0  0  0  0  0  0  0  0  0  0  0  0
    9.5250   -1.3060  -53.9450 N   0  0  0  0  0  0  0  0  0  0  0  0
   10.7270   -2.0280  -53.5930 C   0  0  0  0  0  0  0  0  0  0  0  0
    8.2720   -1.4630  -53.4070 C   0  0  0  0  0  0  0  0  0  0  0  0
    7.9400   -2.4320  -52.3690 C   0  0  0  0  0  0  0  0  0  0  0  0
    8.1160   -2.1130  -51.0180 C   0  0  0  0  0  0  0  0  0  0  0  0
    7.7960   -3.0440  -50.0280 C   0  0  0  0  0  0  0  0  0  0  0  0
    7.3040   -4.2990  -50.3830 C   0  0  0  0  0  0  0  0  0  0  0  0
    7.1320   -4.6250  -51.7270 C   0  0  0  0  0  0  0  0  0  0  0  0
    7.4520   -3.6960  -52.7190 C   0  0  0  0  0  0  0  0  0  0  0  0
    5.7688   -0.3066  -52.8176 H   0  0  0  0  0  0  0  0  0  0  0  0
    5.7101    0.6086  -54.3622 H   0  0  0  0  0  0  0  0  0  0  0  0
    5.4605   -1.1703  -54.3622 H   0  0  0  0  0  0  0  0  0  0  0  0
    9.9820    1.2200  -56.4650 H   0  0  0  0  0  0  0  0  0  0  0  0
   11.2399    3.1168  -57.5088 H   0  0  0  0  0  0  0  0  0  0  0  0
   10.7138    1.8607  -58.6981 H   0  0  0  0  0  0  0  0  0  0  0  0
   11.5104    3.9165  -59.8584 H   0  0  0  0  0  0  0  0  0  0  0  0
    9.4732    4.2708  -61.2537 H   0  0  0  0  0  0  0  0  0  0  0  0
    9.6977    2.5287  -60.8610 H   0  0  0  0  0  0  0  0  0  0  0  0
    7.3163    3.2219  -60.5695 H   0  0  0  0  0  0  0  0  0  0  0  0
    7.7490    5.6166  -60.0172 H   0  0  0  0  0  0  0  0  0  0  0  0
    6.7505    4.8303  -58.7410 H   0  0  0  0  0  0  0  0  0  0  0  0
    8.5588    6.2356  -57.7399 H   0  0  0  0  0  0  0  0  0  0  0  0
   10.1953    6.0236  -59.6101 H   0  0  0  0  0  0  0  0  0  0  0  0
   10.9349    5.5327  -58.0453 H   0  0  0  0  0  0  0  0  0  0  0  0
    9.5352    4.4589  -56.2774 H   0  0  0  0  0  0  0  0  0  0  0  0
    7.7770    4.1788  -56.5711 H   0  0  0  0  0  0  0  0  0  0  0  0
    7.0479    2.4002  -58.2315 H   0  0  0  0  0  0  0  0  0  0  0  0
    8.3037    1.4499  -59.1119 H   0  0  0  0  0  0  0  0  0  0  0  0
   10.8154   -2.0811  -52.4978 H   0  0  0  0  0  0  0  0  0  0  0  0
   10.6776   -3.0461  -54.0067 H   0  0  0  0  0  0  0  0  0  0  0  0
   11.6026   -1.5062  -54.0067 H   0  0  0  0  0  0  0  0  0  0  0  0
    8.5080   -1.1250  -50.7349 H   0  0  0  0  0  0  0  0  0  0  0  0
    7.9322   -2.7870  -48.9672 H   0  0  0  0  0  0  0  0  0  0  0  0
    7.0516   -5.0319  -49.6025 H   0  0  0  0  0  0  0  0  0  0  0  0
    6.7436   -5.6154  -52.0067 H   0  0  0  0  0  0  0  0  0  0  0  0
    7.3201   -3.9585  -53.7790 H   0  0  0  0  0  0  0  0  0  0  0  0
  1  2  1  0
  2  3  1  0
  3  4  1  0
  4  5  2  0
  4  6  1  0
  7  6  1  1
  7  8  1  0
  8  9  1  0
  9 10  1  0
 10 11  1  0
 11 12  1  0
 12 13  1  0
 13 14  1  0
 13 15  1  0
 11 16  1  0
  3 17  2  0
 17 18  1  0
 18 19  1  0
 18 20  1  0
 20 21  1  0
 21 22  2  0
 22 23  1  0
 23 24  2  0
 24 25  1  0
 25 26  2  0
 20  2  2  0
 26 21  1  0
 15  7  1  0
 16  7  1  0
 14  9  1  0
  1 27  1  0
  1 28  1  0
  1 29  1  0
  6 30  1  0
  8 31  1  0
  8 32  1  0
  9 33  1  6
 10 34  1  0
 10 35  1  0
 11 36  1  6
 12 37  1  0
 12 38  1  0
 13 39  1  1
 14 40  1  0
 14 41  1  0
 15 42  1  0
 15 43  1  0
 16 44  1  0
 16 45  1  0
 19 46  1  0
 19 47  1  0
 19 48  1  0
 22 49  1  0
 23 50  1  0
 24 51  1  0
 25 52  1  0
 26 53  1  0
M  END
>  <meeko>  (60) 
{"is_sidechain": false}

$$$$

     RDKit          3D

 46 49  0  0  0  0  0  0  0  0999 V2000
   11.5120   -2.5270  -53.5170 O   0  0  0  0  0  0  0  0  0  0  0  0
   10.3960   -2.9900  -53.7380 C   0  0  0  0  0  0  0  0  0  0  0  0
   10.0860   -3.7610  -54.8370 N   0  0  0  0  0  0  0  0  0  0  0  0
   11.0380   -4.1610  -55.8780 C   0  0  2  0  0  0  0  0  0  0  0  0
   12.2550   -4.9120  -55.2810 C   0  0  0  0  0  0  0  0  0  0  0  0
   13.2100   -5.3680  -56.3980 C   0  0  1  0  0  0  0  0  0  0  0  0
   12.4630   -6.3150  -57.3510 C   0  0  0  0  0  0  0  0  0  0  0  0
   11.2610   -5.5900  -57.9760 C   0  0  2  0  0  0  0  0  0  0  0  0
   11.7550   -4.3630  -58.7570 C   0  0  0  0  0  0  0  0  0  0  0  0
   12.4980   -3.4040  -57.8130 C   0  0  2  0  0  0  0  0  0  0  0  0
   13.6950   -4.1370  -57.1840 C   0  0  0  0  0  0  0  0  0  0  0  0
   11.5420   -2.9460  -56.6980 C   0  0  0  0  0  0  0  0  0  0  0  0
   10.3150   -5.1260  -56.8570 C   0  0  0  0  0  0  0  0  0  0  0  0
    9.2370   -2.7430  -52.7770 C   0  0  0  0  0  0  0  0  0  0  0  0
    9.6620   -2.9360  -51.3110 C   0  0  0  0  0  0  0  0  0  0  0  0
    8.5420   -3.4800  -50.4210 C   0  0  0  0  0  0  0  0  0  0  0  0
    7.1860   -2.9110  -50.8190 C   0  0  0  0  0  0  0  0  0  0  0  0
    6.8110   -3.2620  -52.2600 C   0  0  0  0  0  0  0  0  0  0  0  0
    8.0160   -3.5920  -53.1430 C   0  0  0  0  0  0  0  0  0  0  0  0
    9.1620   -4.1680  -54.8760 H   0  0  0  0  0  0  0  0  0  0  0  0
   12.7938   -4.2407  -54.5961 H   0  0  0  0  0  0  0  0  0  0  0  0
   11.8941   -5.7984  -54.7387 H   0  0  0  0  0  0  0  0  0  0  0  0
   14.0717   -5.8908  -55.9573 H   0  0  0  0  0  0  0  0  0  0  0  0
   13.1460   -6.6425  -58.1486 H   0  0  0  0  0  0  0  0  0  0  0  0
   12.1045   -7.1878  -56.7855 H   0  0  0  0  0  0  0  0  0  0  0  0
   10.7307   -6.2728  -58.6561 H   0  0  0  0  0  0  0  0  0  0  0  0
   12.4374   -4.6898  -59.5555 H   0  0  0  0  0  0  0  0  0  0  0  0
   10.8911   -3.8417  -59.1951 H   0  0  0  0  0  0  0  0  0  0  0  0
   12.8535   -2.5301  -58.3786 H   0  0  0  0  0  0  0  0  0  0  0  0
   14.3817   -4.4612  -57.9798 H   0  0  0  0  0  0  0  0  0  0  0  0
   14.2140   -3.4532  -56.4962 H   0  0  0  0  0  0  0  0  0  0  0  0
   12.0730   -2.2533  -56.0285 H   0  0  0  0  0  0  0  0  0  0  0  0
   10.6771   -2.4443  -57.1565 H   0  0  0  0  0  0  0  0  0  0  0  0
    9.4560   -4.6056  -57.3056 H   0  0  0  0  0  0  0  0  0  0  0  0
    9.9805   -6.0095  -56.2935 H   0  0  0  0  0  0  0  0  0  0  0  0
    8.9383   -1.6896  -52.8822 H   0  0  0  0  0  0  0  0  0  0  0  0
   10.5047   -3.6424  -51.2822 H   0  0  0  0  0  0  0  0  0  0  0  0
    9.9367   -1.9456  -50.9190 H   0  0  0  0  0  0  0  0  0  0  0  0
    8.5113   -4.5756  -50.5147 H   0  0  0  0  0  0  0  0  0  0  0  0
    8.7503   -3.1813  -49.3830 H   0  0  0  0  0  0  0  0  0  0  0  0
    6.4190   -3.3190  -50.1442 H   0  0  0  0  0  0  0  0  0  0  0  0
    7.2448   -1.8152  -50.7433 H   0  0  0  0  0  0  0  0  0  0  0  0
    6.1429   -4.1357  -52.2426 H   0  0  0  0  0  0  0  0  0  0  0  0
    6.3271   -2.3741  -52.6930 H   0  0  0  0  0  0  0  0  0  0  0  0
    8.2701   -4.6547  -53.0165 H   0  0  0  0  0  0  0  0  0  0  0  0
    7.7464   -3.3722  -54.1866 H   0  0  0  0  0  0  0  0  0  0  0  0
  1  2  2  0
  2  3  1  0
  4  3  1  1
  4  5  1  0
  5  6  1  0
  6  7  1  0
  7  8  1  0
  8  9  1  0
  9 10  1  0
 10 11  1  0
 10 12  1  0
  8 13  1  0
  2 14  1  0
 14 15  1  0
 15 16  1  0
 16 17  1  0
 17 18  1  0
 18 19  1  0
 12  4  1  0
 19 14  1  0
 13  4  1  0
 11  6  1  0
  3 20  1  0
  5 21  1  0
  5 22  1  0
  6 23  1  1
  7 24  1  0
  7 25  1  0
  8 26  1  6
  9 27  1  0
  9 28  1  0
 10 29  1  6
 11 30  1  0
 11 31  1  0
 12 32  1  0
 12 33  1  0
 13 34  1  0
 13 35  1  0
 14 36  1  0
 15 37  1  0
 15 38  1  0
 16 39  1  0
 16 40  1  0
 17 41  1  0
 17 42  1  0
 18 43  1  0
 18 44  1  0
 19 45  1  0
 19 46  1  0
M  END
>  <meeko>  (61) 
{"is_sidechain": false}

$$$$

     RDKit          3D

 60 65  0  0  0  0  0  0  0  0999 V2000
    6.9130    1.9150  -56.0840 O   0  0  0  0  0  0  0  0  0  0  0  0
    8.0210    1.3920  -56.0840 C   0  0  0  0  0  0  0  0  0  0  0  0
    9.0830    1.7970  -56.8620 N   0  0  0  0  0  0  0  0  0  0  0  0
    9.0990    2.9330  -57.7760 C   0  0  2  0  0  0  0  0  0  0  0  0
    7.9640    2.8410  -58.8250 C   0  0  0  0  0  0  0  0  0  0  0  0
    8.0340    4.0270  -59.8040 C   0  0  1  0  0  0  0  0  0  0  0  0
    7.9020    5.3420  -59.0160 C   0  0  0  0  0  0  0  0  0  0  0  0
    9.0450    5.4620  -57.9930 C   0  0  2  0  0  0  0  0  0  0  0  0
   10.3920    5.4320  -58.7330 C   0  0  0  0  0  0  0  0  0  0  0  0
   10.5320    4.1170  -59.5160 C   0  0  2  0  0  0  0  0  0  0  0  0
    9.3860    4.0050  -60.5330 C   0  0  0  0  0  0  0  0  0  0  0  0
   10.4520    2.9360  -58.5360 C   0  0  0  0  0  0  0  0  0  0  0  0
    8.9760    4.2760  -57.0140 C   0  0  0  0  0  0  0  0  0  0  0  0
    8.3580    0.2470  -55.2210 C   0  0  0  0  0  0  0  0  0  0  0  0
    7.5540   -0.3260  -54.2080 C   0  0  0  0  0  0  0  0  0  0  0  0
    8.2880   -1.3680  -53.6780 C   0  0  0  0  0  0  0  0  0  0  0  0
    7.9390   -2.2900  -52.6070 C   0  0  0  0  0  0  0  0  0  0  0  0
    8.0160   -1.8760  -51.2730 C   0  0  0  0  0  0  0  0  0  0  0  0
    7.6890   -2.7580  -50.2410 C   0  0  0  0  0  0  0  0  0  0  0  0
    7.2740   -4.0550  -50.5380 C   0  0  0  0  0  0  0  0  0  0  0  0
    7.1810   -4.4710  -51.8660 C   0  0  0  0  0  0  0  0  0  0  0  0
    7.5090   -3.5900  -52.8980 C   0  0  0  0  0  0  0  0  0  0  0  0
    9.4890   -1.3410  -54.3530 N   0  0  0  0  0  0  0  0  0  0  0  0
   10.6500   -2.2070  -54.1570 C   0  0  0  0  0  0  0  0  0  0  0  0
   10.9480   -3.0400  -55.3730 C   0  0  0  0  0  0  0  0  0  0  0  0
   10.5150   -4.3720  -55.4680 C   0  0  0  0  0  0  0  0  0  0  0  0
   10.8170   -5.1370  -56.5970 C   0  0  0  0  0  0  0  0  0  0  0  0
   11.5520   -4.5830  -57.6450 C   0  0  0  0  0  0  0  0  0  0  0  0
   11.9810   -3.2590  -57.5650 C   0  0  0  0  0  0  0  0  0  0  0  0
   11.6770   -2.5020  -56.4370 C   0  0  0  0  0  0  0  0  0  0  0  0
   12.0850   -1.2260  -56.3930 F   0  0  0  0  0  0  0  0  0  0  0  0
    9.5350   -0.4010  -55.3250 N   0  0  0  0  0  0  0  0  0  0  0  0
    9.9380    1.2700  -56.6890 H   0  0  0  0  0  0  0  0  0  0  0  0
    8.0668    1.9013  -59.3875 H   0  0  0  0  0  0  0  0  0  0  0  0
    6.9959    2.8681  -58.3035 H   0  0  0  0  0  0  0  0  0  0  0  0
    7.2181    3.9508  -60.5378 H   0  0  0  0  0  0  0  0  0  0  0  0
    7.9479    6.1908  -59.7142 H   0  0  0  0  0  0  0  0  0  0  0  0
    6.9397    5.3475  -58.4832 H   0  0  0  0  0  0  0  0  0  0  0  0
    8.9486    6.4066  -57.4376 H   0  0  0  0  0  0  0  0  0  0  0  0
   10.4425    6.2796  -59.4323 H   0  0  0  0  0  0  0  0  0  0  0  0
   11.2087    5.5045  -57.9997 H   0  0  0  0  0  0  0  0  0  0  0  0
   11.4975    4.1015  -60.0429 H   0  0  0  0  0  0  0  0  0  0  0  0
    9.4362    4.8517  -61.2334 H   0  0  0  0  0  0  0  0  0  0  0  0
    9.4837    3.0586  -61.0850 H   0  0  0  0  0  0  0  0  0  0  0  0
   10.5509    1.9954  -59.0977 H   0  0  0  0  0  0  0  0  0  0  0  0
   11.2654    3.0346  -57.8021 H   0  0  0  0  0  0  0  0  0  0  0  0
    9.7993    4.3572  -56.2890 H   0  0  0  0  0  0  0  0  0  0  0  0
    8.0072    4.3013  -56.4936 H   0  0  0  0  0  0  0  0  0  0  0  0
    6.5466   -0.0057  -53.9038 H   0  0  0  0  0  0  0  0  0  0  0  0
    8.3357   -0.8506  -51.0358 H   0  0  0  0  0  0  0  0  0  0  0  0
    7.7589   -2.4292  -49.1936 H   0  0  0  0  0  0  0  0  0  0  0  0
    7.0197   -4.7507  -49.7248 H   0  0  0  0  0  0  0  0  0  0  0  0
    6.8492   -5.4933  -52.1002 H   0  0  0  0  0  0  0  0  0  0  0  0
    7.4292   -3.9188  -53.9447 H   0  0  0  0  0  0  0  0  0  0  0  0
   11.5259   -1.5803  -53.9334 H   0  0  0  0  0  0  0  0  0  0  0  0
   10.4250   -2.8911  -53.3255 H   0  0  0  0  0  0  0  0  0  0  0  0
    9.9334   -4.8167  -54.6470 H   0  0  0  0  0  0  0  0  0  0  0  0
   10.4739   -6.1802  -56.6598 H   0  0  0  0  0  0  0  0  0  0  0  0
   11.7923   -5.1886  -58.5313 H   0  0  0  0  0  0  0  0  0  0  0  0
   12.5573   -2.8143  -58.3897 H   0  0  0  0  0  0  0  0  0  0  0  0
  1  2  2  0
  2  3  1  0
  4  3  1  1
  4  5  1  0
  5  6  1  0
  6  7  1  0
  7  8  1  0
  8  9  1  0
  9 10  1  0
 10 11  1  0
 10 12  1  0
  8 13  1  0
  2 14  1  0
 14 15  1  0
 15 16  2  0
 16 17  1  0
 17 18  2  0
 18 19  1  0
 19 20  2  0
 20 21  1  0
 21 22  2  0
 16 23  1  0
 23 24  1  0
 24 25  1  0
 25 26  2  0
 26 27  1  0
 27 28  2  0
 28 29  1  0
 29 30  2  0
 30 31  1  0
 23 32  1  0
 12  4  1  0
 32 14  2  0
 13  4  1  0
 22 17  1  0
 30 25  1  0
 11  6  1  0
  3 33  1  0
  5 34  1  0
  5 35  1  0
  6 36  1  6
  7 37  1  0
  7 38  1  0
  8 39  1  1
  9 40  1  0
  9 41  1  0
 10 42  1  6
 11 43  1  0
 11 44  1  0
 12 45  1  0
 12 46  1  0
 13 47  1  0
 13 48  1  0
 15 49  1  0
 18 50  1  0
 19 51  1  0
 20 52  1  0
 21 53  1  0
 22 54  1  0
 24 55  1  0
 24 56  1  0
 26 57  1  0
 27 58  1  0
 28 59  1  0
 29 60  1  0
M  END
>  <meeko>  (62) 
{"is_sidechain": false}

$$$$

     RDKit          3D

 64 69  0  0  0  0  0  0  0  0999 V2000
    4.8680   -4.4990  -50.4170 C   0  0  0  0  0  0  0  0  0  0  0  0
    5.6660   -4.4790  -51.5940 O   0  0  0  0  0  0  0  0  0  0  0  0
    6.8800   -3.8540  -51.5060 C   0  0  0  0  0  0  0  0  0  0  0  0
    7.8300   -4.0450  -50.5020 C   0  0  0  0  0  0  0  0  0  0  0  0
    9.0370   -3.3410  -50.5360 C   0  0  0  0  0  0  0  0  0  0  0  0
    9.3020   -2.4510  -51.5760 C   0  0  0  0  0  0  0  0  0  0  0  0
    8.3630   -2.2620  -52.5950 C   0  0  0  0  0  0  0  0  0  0  0  0
    8.6510   -1.3470  -53.6900 C   0  0  0  0  0  0  0  0  0  0  0  0
    7.8550   -0.3720  -54.2560 C   0  0  0  0  0  0  0  0  0  0  0  0
    8.6340    0.2340  -55.2700 C   0  0  0  0  0  0  0  0  0  0  0  0
    8.2250    1.3260  -56.1690 C   0  0  0  0  0  0  0  0  0  0  0  0
    7.0820    1.7690  -56.1910 O   0  0  0  0  0  0  0  0  0  0  0  0
    9.2570    1.7780  -56.9600 N   0  0  0  0  0  0  0  0  0  0  0  0
    9.1770    2.8360  -57.9610 C   0  0  2  0  0  0  0  0  0  0  0  0
   10.5730    2.9970  -58.6200 C   0  0  0  0  0  0  0  0  0  0  0  0
   10.5530    4.1020  -59.6900 C   0  0  1  0  0  0  0  0  0  0  0  0
    9.5250    3.7380  -60.7710 C   0  0  0  0  0  0  0  0  0  0  0  0
    8.1290    3.5990  -60.1450 C   0  0  2  0  0  0  0  0  0  0  0  0
    7.7370    4.9300  -59.4810 C   0  0  0  0  0  0  0  0  0  0  0  0
    8.7600    5.3030  -58.3940 C   0  0  2  0  0  0  0  0  0  0  0  0
   10.1520    5.4320  -59.0320 C   0  0  0  0  0  0  0  0  0  0  0  0
    8.7900    4.1950  -57.3270 C   0  0  0  0  0  0  0  0  0  0  0  0
    8.1600    2.4900  -59.0760 C   0  0  0  0  0  0  0  0  0  0  0  0
    9.8630   -0.3210  -55.3330 N   0  0  0  0  0  0  0  0  0  0  0  0
    9.8550   -1.2560  -54.3520 N   0  0  0  0  0  0  0  0  0  0  0  0
   11.0670   -2.0340  -54.1110 C   0  0  0  0  0  0  0  0  0  0  0  0
   11.3610   -2.9920  -55.2420 C   0  0  0  0  0  0  0  0  0  0  0  0
   11.5470   -2.5180  -56.5500 C   0  0  0  0  0  0  0  0  0  0  0  0
   11.8250   -3.4030  -57.5930 C   0  0  0  0  0  0  0  0  0  0  0  0
   11.9170   -4.7700  -57.3350 C   0  0  0  0  0  0  0  0  0  0  0  0
   12.2650   -5.8610  -58.6190 Cl  0  0  0  0  0  0  0  0  0  0  0  0
   11.7310   -5.2570  -56.0440 C   0  0  0  0  0  0  0  0  0  0  0  0
   11.4510   -4.3720  -55.0010 C   0  0  0  0  0  0  0  0  0  0  0  0
    7.1520   -2.9610  -52.5460 C   0  0  0  0  0  0  0  0  0  0  0  0
    5.5203   -4.4827  -49.5314 H   0  0  0  0  0  0  0  0  0  0  0  0
    4.2107   -3.6170  -50.4046 H   0  0  0  0  0  0  0  0  0  0  0  0
    4.2557   -5.4128  -50.4046 H   0  0  0  0  0  0  0  0  0  0  0  0
    7.6287   -4.7507  -49.6825 H   0  0  0  0  0  0  0  0  0  0  0  0
    9.7807   -3.4897  -49.7392 H   0  0  0  0  0  0  0  0  0  0  0  0
   10.2517   -1.8963  -51.5951 H   0  0  0  0  0  0  0  0  0  0  0  0
    6.8224   -0.1172  -53.9753 H   0  0  0  0  0  0  0  0  0  0  0  0
   10.1340    1.2820  -56.8130 H   0  0  0  0  0  0  0  0  0  0  0  0
   11.3084    3.2596  -57.8453 H   0  0  0  0  0  0  0  0  0  0  0  0
   10.8446    2.0466  -59.1026 H   0  0  0  0  0  0  0  0  0  0  0  0
   11.5493    4.1999  -60.1458 H   0  0  0  0  0  0  0  0  0  0  0  0
    9.5043    4.5293  -61.5348 H   0  0  0  0  0  0  0  0  0  0  0  0
    9.8103    2.7809  -61.2320 H   0  0  0  0  0  0  0  0  0  0  0  0
    7.3969    3.3427  -60.9250 H   0  0  0  0  0  0  0  0  0  0  0  0
    7.7114    5.7227  -60.2432 H   0  0  0  0  0  0  0  0  0  0  0  0
    6.7449    4.8218  -59.0183 H   0  0  0  0  0  0  0  0  0  0  0  0
    8.4768    6.2585  -57.9284 H   0  0  0  0  0  0  0  0  0  0  0  0
   10.1313    6.2243  -59.7948 H   0  0  0  0  0  0  0  0  0  0  0  0
   10.8851    5.6849  -58.2519 H   0  0  0  0  0  0  0  0  0  0  0  0
    9.5285    4.4568  -56.5550 H   0  0  0  0  0  0  0  0  0  0  0  0
    7.7883    4.1053  -56.8815 H   0  0  0  0  0  0  0  0  0  0  0  0
    7.1586    2.3872  -58.6326 H   0  0  0  0  0  0  0  0  0  0  0  0
    8.4639    1.5464  -59.5527 H   0  0  0  0  0  0  0  0  0  0  0  0
   11.9161   -1.3433  -54.0013 H   0  0  0  0  0  0  0  0  0  0  0  0
   10.9137   -2.6259  -53.1966 H   0  0  0  0  0  0  0  0  0  0  0  0
   11.4730   -1.4398  -56.7549 H   0  0  0  0  0  0  0  0  0  0  0  0
   11.9710   -3.0232  -58.6150 H   0  0  0  0  0  0  0  0  0  0  0  0
   11.8045   -6.3366  -55.8462 H   0  0  0  0  0  0  0  0  0  0  0  0
   11.2998   -4.7591  -53.9825 H   0  0  0  0  0  0  0  0  0  0  0  0
    6.4036   -2.8055  -53.3370 H   0  0  0  0  0  0  0  0  0  0  0  0
  1  2  1  0
  2  3  1  0
  3  4  1  0
  4  5  2  0
  5  6  1  0
  6  7  2  0
  7  8  1  0
  8  9  2  0
  9 10  1  0
 10 11  1  0
 11 12  2  0
 11 13  1  0
 14 13  1  1
 14 15  1  0
 15 16  1  0
 16 17  1  0
 17 18  1  0
 18 19  1  0
 19 20  1  0
 20 21  1  0
 20 22  1  0
 18 23  1  0
 10 24  2  0
 24 25  1  0
 25 26  1  0
 26 27  1  0
 27 28  1  0
 28 29  2  0
 29 30  1  0
 30 31  1  0
 30 32  2  0
 32 33  1  0
  7 34  1  0
 34  3  2  0
 25  8  1  0
 33 27  2  0
 22 14  1  0
 23 14  1  0
 21 16  1  0
  1 35  1  0
  1 36  1  0
  1 37  1  0
  4 38  1  0
  5 39  1  0
  6 40  1  0
  9 41  1  0
 13 42  1  0
 15 43  1  0
 15 44  1  0
 16 45  1  6
 17 46  1  0
 17 47  1  0
 18 48  1  6
 19 49  1  0
 19 50  1  0
 20 51  1  1
 21 52  1  0
 21 53  1  0
 22 54  1  0
 22 55  1  0
 23 56  1  0
 23 57  1  0
 26 58  1  0
 26 59  1  0
 28 60  1  0
 29 61  1  0
 32 62  1  0
 33 63  1  0
 34 64  1  0
M  END
>  <meeko>  (63) 
{"is_sidechain": false}

$$$$

     RDKit          3D

 63 68  0  0  0  0  0  0  0  0999 V2000
    5.9930    0.0490  -53.5480 C   0  0  0  0  0  0  0  0  0  0  0  0
    7.3280   -0.4220  -53.9990 C   0  0  0  0  0  0  0  0  0  0  0  0
    8.1500    0.1280  -55.0360 C   0  0  0  0  0  0  0  0  0  0  0  0
    7.8540    1.2590  -55.9410 C   0  0  0  0  0  0  0  0  0  0  0  0
    6.7590    1.8080  -55.9830 O   0  0  0  0  0  0  0  0  0  0  0  0
    8.9370    1.6560  -56.7080 N   0  0  0  0  0  0  0  0  0  0  0  0
    8.9450    2.8150  -57.6030 C   0  0  2  0  0  0  0  0  0  0  0  0
    7.8350    2.7230  -58.6830 C   0  0  0  0  0  0  0  0  0  0  0  0
    7.9070    3.9290  -59.6370 C   0  0  1  0  0  0  0  0  0  0  0  0
    7.7380    5.2260  -58.8270 C   0  0  0  0  0  0  0  0  0  0  0  0
    8.8570    5.3460  -57.7780 C   0  0  2  0  0  0  0  0  0  0  0  0
   10.2190    5.3500  -58.4890 C   0  0  0  0  0  0  0  0  0  0  0  0
   10.3960    4.0520  -59.2930 C   0  0  2  0  0  0  0  0  0  0  0  0
    9.2740    3.9420  -60.3370 C   0  0  0  0  0  0  0  0  0  0  0  0
   10.3130    2.8520  -58.3370 C   0  0  0  0  0  0  0  0  0  0  0  0
    8.7850    4.1420  -56.8220 C   0  0  0  0  0  0  0  0  0  0  0  0
    9.3130   -0.5400  -55.1270 N   0  0  0  0  0  0  0  0  0  0  0  0
    9.2370   -1.5000  -54.1860 N   0  0  0  0  0  0  0  0  0  0  0  0
   10.3770   -2.4010  -54.0040 C   0  0  0  0  0  0  0  0  0  0  0  0
   10.8210   -3.0350  -55.3020 C   0  0  0  0  0  0  0  0  0  0  0  0
   10.4530   -4.3680  -55.5750 C   0  0  0  0  0  0  0  0  0  0  0  0
   10.8380   -4.9960  -56.7610 C   0  0  0  0  0  0  0  0  0  0  0  0
   11.5880   -4.3010  -57.7030 C   0  0  0  0  0  0  0  0  0  0  0  0
   11.9450   -2.9760  -57.4620 C   0  0  0  0  0  0  0  0  0  0  0  0
   11.5600   -2.3430  -56.2750 C   0  0  0  0  0  0  0  0  0  0  0  0
   12.0200   -0.6880  -56.0820 Cl  0  0  0  0  0  0  0  0  0  0  0  0
    8.0570   -1.4840  -53.4820 C   0  0  0  0  0  0  0  0  0  0  0  0
    7.7220   -2.4190  -52.4180 C   0  0  0  0  0  0  0  0  0  0  0  0
    6.9610   -3.5600  -52.7010 C   0  0  0  0  0  0  0  0  0  0  0  0
    6.6430   -4.4610  -51.6830 C   0  0  0  0  0  0  0  0  0  0  0  0
    7.0760   -4.2220  -50.3800 C   0  0  0  0  0  0  0  0  0  0  0  0
    7.8260   -3.0820  -50.0910 C   0  0  0  0  0  0  0  0  0  0  0  0
    8.1470   -2.1810  -51.1070 C   0  0  0  0  0  0  0  0  0  0  0  0
    5.9604    0.0605  -52.4485 H   0  0  0  0  0  0  0  0  0  0  0  0
    5.8139    1.0646  -53.9308 H   0  0  0  0  0  0  0  0  0  0  0  0
    5.2163   -0.6294  -53.9308 H   0  0  0  0  0  0  0  0  0  0  0  0
    9.8360    1.3060  -56.4010 H   0  0  0  0  0  0  0  0  0  0  0  0
    7.9684    1.7965  -59.2607 H   0  0  0  0  0  0  0  0  0  0  0  0
    6.8543    2.7225  -58.1849 H   0  0  0  0  0  0  0  0  0  0  0  0
    7.1079    3.8548  -60.3893 H   0  0  0  0  0  0  0  0  0  0  0  0
    7.7842    6.0885  -59.5081 H   0  0  0  0  0  0  0  0  0  0  0  0
    6.7653    5.2049  -58.3138 H   0  0  0  0  0  0  0  0  0  0  0  0
    8.7348    6.2791  -57.2085 H   0  0  0  0  0  0  0  0  0  0  0  0
   10.2712    6.2112  -59.1714 H   0  0  0  0  0  0  0  0  0  0  0  0
   11.0187    5.4209  -57.7370 H   0  0  0  0  0  0  0  0  0  0  0  0
   11.3727    4.0608  -59.7989 H   0  0  0  0  0  0  0  0  0  0  0  0
    9.3257    4.8028  -61.0199 H   0  0  0  0  0  0  0  0  0  0  0  0
    9.3985    3.0083  -60.9050 H   0  0  0  0  0  0  0  0  0  0  0  0
   10.4361    1.9237  -58.9142 H   0  0  0  0  0  0  0  0  0  0  0  0
   11.1102    2.9487  -57.5852 H   0  0  0  0  0  0  0  0  0  0  0  0
    9.5910    4.2228  -56.0778 H   0  0  0  0  0  0  0  0  0  0  0  0
    7.8046    4.1437  -56.3233 H   0  0  0  0  0  0  0  0  0  0  0  0
   11.2172   -1.8280  -53.5848 H   0  0  0  0  0  0  0  0  0  0  0  0
   10.0626   -3.2081  -53.3259 H   0  0  0  0  0  0  0  0  0  0  0  0
    9.8516   -4.9235  -54.8403 H   0  0  0  0  0  0  0  0  0  0  0  0
   10.5481   -6.0401  -56.9500 H   0  0  0  0  0  0  0  0  0  0  0  0
   11.8984   -4.7955  -58.6353 H   0  0  0  0  0  0  0  0  0  0  0  0
   12.5333   -2.4239  -58.2097 H   0  0  0  0  0  0  0  0  0  0  0  0
    6.6130   -3.7468  -53.7276 H   0  0  0  0  0  0  0  0  0  0  0  0
    6.0506   -5.3597  -51.9094 H   0  0  0  0  0  0  0  0  0  0  0  0
    6.8261   -4.9330  -49.5788 H   0  0  0  0  0  0  0  0  0  0  0  0
    8.1646   -2.8931  -49.0616 H   0  0  0  0  0  0  0  0  0  0  0  0
    8.7359   -1.2811  -50.8762 H   0  0  0  0  0  0  0  0  0  0  0  0
  1  2  1  0
  2  3  1  0
  3  4  1  0
  4  5  2  0
  4  6  1  0
  7  6  1  1
  7  8  1  0
  8  9  1  0
  9 10  1  0
 10 11  1  0
 11 12  1  0
 12 13  1  0
 13 14  1  0
 13 15  1  0
 11 16  1  0
  3 17  2  0
 17 18  1  0
 18 19  1  0
 19 20  1  0
 20 21  2  0
 21 22  1  0
 22 23  2  0
 23 24  1  0
 24 25  2  0
 25 26  1  0
 18 27  1  0
 27 28  1  0
 28 29  2  0
 29 30  1  0
 30 31  2  0
 31 32  1  0
 32 33  2  0
 27  2  2  0
 33 28  1  0
 15  7  1  0
 25 20  1  0
 16  7  1  0
 14  9  1  0
  1 34  1  0
  1 35  1  0
  1 36  1  0
  6 37  1  0
  8 38  1  0
  8 39  1  0
  9 40  1  6
 10 41  1  0
 10 42  1  0
 11 43  1  1
 12 44  1  0
 12 45  1  0
 13 46  1  6
 14 47  1  0
 14 48  1  0
 15 49  1  0
 15 50  1  0
 16 51  1  0
 16 52  1  0
 19 53  1  0
 19 54  1  0
 21 55  1  0
 22 56  1  0
 23 57  1  0
 24 58  1  0
 29 59  1  0
 30 60  1  0
 31 61  1  0
 32 62  1  0
 33 63  1  0
M  END
>  <meeko>  (64) 
{"is_sidechain": false}

$$$$

     RDKit          3D

 66 71  0  0  0  0  0  0  0  0999 V2000
    6.7420   -0.0400  -53.5770 C   0  0  0  0  0  0  0  0  0  0  0  0
    8.0550   -0.5540  -54.0460 C   0  0  0  0  0  0  0  0  0  0  0  0
    8.8880   -0.0100  -55.0760 C   0  0  0  0  0  0  0  0  0  0  0  0
    8.6270    1.1570  -55.9440 C   0  0  0  0  0  0  0  0  0  0  0  0
    7.5360    1.7160  -56.0020 O   0  0  0  0  0  0  0  0  0  0  0  0
    9.7380    1.5730  -56.6600 N   0  0  0  0  0  0  0  0  0  0  0  0
    9.7850    2.7690  -57.5050 C   0  0  2  0  0  0  0  0  0  0  0  0
    8.6920    2.7450  -58.6050 C   0  0  0  0  0  0  0  0  0  0  0  0
    8.8060    3.9880  -59.5070 C   0  0  1  0  0  0  0  0  0  0  0  0
    8.6500    5.2540  -58.6470 C   0  0  0  0  0  0  0  0  0  0  0  0
    9.7540    5.3050  -57.5760 C   0  0  2  0  0  0  0  0  0  0  0  0
   11.1280    5.3080  -58.2650 C   0  0  0  0  0  0  0  0  0  0  0  0
   11.2910    4.0420  -59.1190 C   0  0  2  0  0  0  0  0  0  0  0  0
   10.1850    4.0010  -60.1840 C   0  0  0  0  0  0  0  0  0  0  0  0
   11.1660    2.8050  -58.2150 C   0  0  0  0  0  0  0  0  0  0  0  0
    9.6420    4.0650  -56.6720 C   0  0  0  0  0  0  0  0  0  0  0  0
   10.0140   -0.7270  -55.2070 N   0  0  0  0  0  0  0  0  0  0  0  0
    9.9250   -1.6890  -54.2720 N   0  0  0  0  0  0  0  0  0  0  0  0
   11.0310   -2.6240  -54.1390 C   0  0  0  0  0  0  0  0  0  0  0  0
   10.7400   -4.0080  -54.7450 C   0  0  0  0  0  0  0  0  0  0  0  0
   12.0340   -4.7550  -55.0750 C   0  0  0  0  0  0  0  0  0  0  0  0
   12.4580   -4.2300  -56.4450 C   0  0  0  0  0  0  0  0  0  0  0  0
   11.1870   -3.6970  -57.1060 C   0  0  0  0  0  0  0  0  0  0  0  0
   10.0580   -3.9500  -56.1130 C   0  0  0  0  0  0  0  0  0  0  0  0
    8.7440   -1.6610  -53.5690 C   0  0  0  0  0  0  0  0  0  0  0  0
    8.3790   -2.6130  -52.5270 C   0  0  0  0  0  0  0  0  0  0  0  0
    8.8860   -2.4680  -51.2300 C   0  0  0  0  0  0  0  0  0  0  0  0
    8.5330   -3.3770  -50.2320 C   0  0  0  0  0  0  0  0  0  0  0  0
    7.6760   -4.4380  -50.5250 C   0  0  0  0  0  0  0  0  0  0  0  0
    7.1750   -4.5930  -51.8180 C   0  0  0  0  0  0  0  0  0  0  0  0
    7.5280   -3.6840  -52.8170 C   0  0  0  0  0  0  0  0  0  0  0  0
    6.7228   -0.0325  -52.4772 H   0  0  0  0  0  0  0  0  0  0  0  0
    6.5930    0.9828  -53.9533 H   0  0  0  0  0  0  0  0  0  0  0  0
    5.9382   -0.6899  -53.9533 H   0  0  0  0  0  0  0  0  0  0  0  0
   10.6220    1.2050  -56.3330 H   0  0  0  0  0  0  0  0  0  0  0  0
    8.8157    1.8403  -59.2183 H   0  0  0  0  0  0  0  0  0  0  0  0
    7.7030    2.7448  -58.1234 H   0  0  0  0  0  0  0  0  0  0  0  0
    8.0186    3.9616  -60.2746 H   0  0  0  0  0  0  0  0  0  0  0  0
    8.7262    6.1428  -59.2907 H   0  0  0  0  0  0  0  0  0  0  0  0
    7.6682    5.2339  -58.1514 H   0  0  0  0  0  0  0  0  0  0  0  0
    9.6411    6.2161  -56.9701 H   0  0  0  0  0  0  0  0  0  0  0  0
   11.2100    6.1953  -58.9099 H   0  0  0  0  0  0  0  0  0  0  0  0
   11.9162    5.3297  -57.4980 H   0  0  0  0  0  0  0  0  0  0  0  0
   12.2761    4.0497  -59.6083 H   0  0  0  0  0  0  0  0  0  0  0  0
   10.2664    4.8887  -60.8284 H   0  0  0  0  0  0  0  0  0  0  0  0
   10.2994    3.0897  -60.7894 H   0  0  0  0  0  0  0  0  0  0  0  0
   11.2784    1.8988  -58.8284 H   0  0  0  0  0  0  0  0  0  0  0  0
   11.9525    2.8521  -57.4474 H   0  0  0  0  0  0  0  0  0  0  0  0
   10.4384    4.0972  -55.9139 H   0  0  0  0  0  0  0  0  0  0  0  0
    8.6547    4.0677  -56.1871 H   0  0  0  0  0  0  0  0  0  0  0  0
   11.9093   -2.1991  -54.6469 H   0  0  0  0  0  0  0  0  0  0  0  0
   11.2028   -2.7714  -53.0625 H   0  0  0  0  0  0  0  0  0  0  0  0
   10.1112   -4.4876  -53.9804 H   0  0  0  0  0  0  0  0  0  0  0  0
   12.8070   -4.5394  -54.3227 H   0  0  0  0  0  0  0  0  0  0  0  0
   11.8911   -5.8457  -55.0777 H   0  0  0  0  0  0  0  0  0  0  0  0
   13.1972   -3.4232  -56.3327 H   0  0  0  0  0  0  0  0  0  0  0  0
   12.9256   -5.0199  -57.0512 H   0  0  0  0  0  0  0  0  0  0  0  0
   11.2841   -2.6200  -57.3078 H   0  0  0  0  0  0  0  0  0  0  0  0
   10.9953   -4.1936  -58.0686 H   0  0  0  0  0  0  0  0  0  0  0  0
    9.3243   -3.1311  -56.1449 H   0  0  0  0  0  0  0  0  0  0  0  0
    9.5075   -4.8749  -56.3399 H   0  0  0  0  0  0  0  0  0  0  0  0
    9.5650   -1.6345  -50.9970 H   0  0  0  0  0  0  0  0  0  0  0  0
    8.9308   -3.2569  -49.2135 H   0  0  0  0  0  0  0  0  0  0  0  0
    7.3953   -5.1522  -49.7369 H   0  0  0  0  0  0  0  0  0  0  0  0
    6.5019   -5.4315  -52.0502 H   0  0  0  0  0  0  0  0  0  0  0  0
    7.1351   -3.8108  -53.8366 H   0  0  0  0  0  0  0  0  0  0  0  0
  1  2  1  0
  2  3  1  0
  3  4  1  0
  4  5  2  0
  4  6  1  0
  7  6  1  1
  7  8  1  0
  8  9  1  0
  9 10  1  0
 10 11  1  0
 11 12  1  0
 12 13  1  0
 13 14  1  0
 13 15  1  0
 11 16  1  0
  3 17  2  0
 17 18  1  0
 18 19  1  0
 19 20  1  0
 20 21  1  0
 21 22  1  0
 22 23  1  0
 23 24  1  0
 18 25  1  0
 25 26  1  0
 26 27  2  0
 27 28  1  0
 28 29  2  0
 29 30  1  0
 30 31  2  0
 25  2  2  0
 31 26  1  0
 15  7  1  0
 24 20  1  0
 16  7  1  0
 14  9  1  0
  1 32  1  0
  1 33  1  0
  1 34  1  0
  6 35  1  0
  8 36  1  0
  8 37  1  0
  9 38  1  6
 10 39  1  0
 10 40  1  0
 11 41  1  1
 12 42  1  0
 12 43  1  0
 13 44  1  6
 14 45  1  0
 14 46  1  0
 15 47  1  0
 15 48  1  0
 16 49  1  0
 16 50  1  0
 19 51  1  0
 19 52  1  0
 20 53  1  0
 21 54  1  0
 21 55  1  0
 22 56  1  0
 22 57  1  0
 23 58  1  0
 23 59  1  0
 24 60  1  0
 24 61  1  0
 27 62  1  0
 28 63  1  0
 29 64  1  0
 30 65  1  0
 31 66  1  0
M  END
>  <meeko>  (65) 
{"is_sidechain": false}

$$$$

     RDKit          3D

 69 74  0  0  0  0  0  0  0  0999 V2000
    5.4930   -0.3280  -54.0540 C   0  0  0  0  0  0  0  0  0  0  0  0
    6.9660   -0.5240  -54.0970 C   0  0  0  0  0  0  0  0  0  0  0  0
    7.8950    0.1700  -54.9300 C   0  0  0  0  0  0  0  0  0  0  0  0
    7.6090    1.2250  -55.9240 C   0  0  0  0  0  0  0  0  0  0  0  0
    6.4730    1.6010  -56.1920 O   0  0  0  0  0  0  0  0  0  0  0  0
    8.7540    1.7280  -56.5030 N   0  0  0  0  0  0  0  0  0  0  0  0
    8.8220    2.7670  -57.5240 C   0  0  2  0  0  0  0  0  0  0  0  0
    8.5550    4.1720  -56.9280 C   0  0  0  0  0  0  0  0  0  0  0  0
    8.6800    5.2550  -58.0130 C   0  0  1  0  0  0  0  0  0  0  0  0
   10.1000    5.2250  -58.5990 C   0  0  0  0  0  0  0  0  0  0  0  0
   10.3850    3.8480  -59.2190 C   0  0  2  0  0  0  0  0  0  0  0  0
    9.3640    3.5710  -60.3340 C   0  0  0  0  0  0  0  0  0  0  0  0
    7.9400    3.5900  -59.7580 C   0  0  2  0  0  0  0  0  0  0  0  0
    7.6640    4.9680  -59.1330 C   0  0  0  0  0  0  0  0  0  0  0  0
    7.8140    2.5070  -58.6710 C   0  0  0  0  0  0  0  0  0  0  0  0
   10.2490    2.7690  -58.1320 C   0  0  0  0  0  0  0  0  0  0  0  0
    9.1580   -0.2540  -54.7100 N   0  0  0  0  0  0  0  0  0  0  0  0
    9.0290   -1.2010  -53.7610 N   0  0  0  0  0  0  0  0  0  0  0  0
   10.2260   -1.8600  -53.2680 C   0  0  0  0  0  0  0  0  0  0  0  0
   11.4350   -1.5590  -54.1480 C   0  0  0  0  0  0  0  0  0  0  0  0
   11.5960   -2.5900  -55.2360 C   0  0  0  0  0  0  0  0  0  0  0  0
   11.7990   -2.1900  -56.5620 C   0  0  0  0  0  0  0  0  0  0  0  0
   11.9710   -3.1420  -57.5690 C   0  0  0  0  0  0  0  0  0  0  0  0
   11.9390   -4.5120  -57.2700 C   0  0  0  0  0  0  0  0  0  0  0  0
   12.1460   -5.5390  -58.3540 C   0  0  0  0  0  0  0  0  0  0  0  0
   13.4050   -5.4970  -58.8730 F   0  0  0  0  0  0  0  0  0  0  0  0
   11.9620   -6.8190  -57.9230 F   0  0  0  0  0  0  0  0  0  0  0  0
   11.3020   -5.3800  -59.4120 F   0  0  0  0  0  0  0  0  0  0  0  0
   11.7500   -4.9080  -55.9370 C   0  0  0  0  0  0  0  0  0  0  0  0
   11.5790   -3.9560  -54.9290 C   0  0  0  0  0  0  0  0  0  0  0  0
    7.7340   -1.4050  -53.3510 C   0  0  0  0  0  0  0  0  0  0  0  0
    7.3420   -2.3560  -52.3190 C   0  0  0  0  0  0  0  0  0  0  0  0
    7.6870   -2.1250  -50.9830 C   0  0  0  0  0  0  0  0  0  0  0  0
    7.3270   -3.0420  -49.9950 C   0  0  0  0  0  0  0  0  0  0  0  0
    6.6140   -4.1910  -50.3370 C   0  0  0  0  0  0  0  0  0  0  0  0
    6.2580   -4.4220  -51.6650 C   0  0  0  0  0  0  0  0  0  0  0  0
    6.6180   -3.5050  -52.6540 C   0  0  0  0  0  0  0  0  0  0  0  0
    5.1594   -0.2836  -53.0067 H   0  0  0  0  0  0  0  0  0  0  0  0
    5.2333    0.6126  -54.5617 H   0  0  0  0  0  0  0  0  0  0  0  0
    4.9964   -1.1680  -54.5617 H   0  0  0  0  0  0  0  0  0  0  0  0
    9.6070    1.2900  -56.1630 H   0  0  0  0  0  0  0  0  0  0  0  0
    7.5393    4.1985  -56.5066 H   0  0  0  0  0  0  0  0  0  0  0  0
    9.2991    4.3704  -56.1426 H   0  0  0  0  0  0  0  0  0  0  0  0
    8.4813    6.2440  -57.5744 H   0  0  0  0  0  0  0  0  0  0  0  0
   10.1900    5.9994  -59.3750 H   0  0  0  0  0  0  0  0  0  0  0  0
   10.8260    5.4157  -57.7949 H   0  0  0  0  0  0  0  0  0  0  0  0
   11.4026    3.8327  -59.6365 H   0  0  0  0  0  0  0  0  0  0  0  0
    9.4534    4.3450  -61.1105 H   0  0  0  0  0  0  0  0  0  0  0  0
    9.5644    2.5811  -60.7697 H   0  0  0  0  0  0  0  0  0  0  0  0
    7.2147    3.3938  -60.5614 H   0  0  0  0  0  0  0  0  0  0  0  0
    7.7496    5.7430  -59.9090 H   0  0  0  0  0  0  0  0  0  0  0  0
    6.6494    4.9735  -58.7082 H   0  0  0  0  0  0  0  0  0  0  0  0
    6.7921    2.5201  -58.2642 H   0  0  0  0  0  0  0  0  0  0  0  0
    8.0321    1.5267  -59.1197 H   0  0  0  0  0  0  0  0  0  0  0  0
   10.4517    1.7834  -58.5765 H   0  0  0  0  0  0  0  0  0  0  0  0
   10.9703    2.9869  -57.3306 H   0  0  0  0  0  0  0  0  0  0  0  0
   10.4318   -1.5087  -52.2461 H   0  0  0  0  0  0  0  0  0  0  0  0
   10.0517   -2.9460  -53.2822 H   0  0  0  0  0  0  0  0  0  0  0  0
   11.3036   -0.5693  -54.6098 H   0  0  0  0  0  0  0  0  0  0  0  0
   12.3355   -1.5796  -53.5166 H   0  0  0  0  0  0  0  0  0  0  0  0
   11.8232   -1.1191  -56.8123 H   0  0  0  0  0  0  0  0  0  0  0  0
   12.1331   -2.8144  -58.6065 H   0  0  0  0  0  0  0  0  0  0  0  0
   11.7364   -5.9783  -55.6834 H   0  0  0  0  0  0  0  0  0  0  0  0
   11.4302   -4.2812  -53.8888 H   0  0  0  0  0  0  0  0  0  0  0  0
    8.2444   -1.2167  -50.7104 H   0  0  0  0  0  0  0  0  0  0  0  0
    7.6054   -2.8589  -48.9467 H   0  0  0  0  0  0  0  0  0  0  0  0
    6.3324   -4.9153  -49.5585 H   0  0  0  0  0  0  0  0  0  0  0  0
    5.6933   -5.3270  -51.9335 H   0  0  0  0  0  0  0  0  0  0  0  0
    6.3314   -3.6866  -53.7004 H   0  0  0  0  0  0  0  0  0  0  0  0
  1  2  1  0
  2  3  1  0
  3  4  1  0
  4  5  2  0
  4  6  1  0
  7  6  1  1
  7  8  1  0
  8  9  1  0
  9 10  1  0
 10 11  1  0
 11 12  1  0
 12 13  1  0
 13 14  1  0
 13 15  1  0
 11 16  1  0
  3 17  2  0
 17 18  1  0
 18 19  1  0
 19 20  1  0
 20 21  1  0
 21 22  1  0
 22 23  2  0
 23 24  1  0
 24 25  1  0
 25 26  1  0
 25 27  1  0
 25 28  1  0
 24 29  2  0
 29 30  1  0
 18 31  1  0
 31 32  1  0
 32 33  2  0
 33 34  1  0
 34 35  2  0
 35 36  1  0
 36 37  2  0
 31  2  2  0
 37 32  1  0
 15  7  1  0
 30 21  2  0
 16  7  1  0
 14  9  1  0
  1 38  1  0
  1 39  1  0
  1 40  1  0
  6 41  1  0
  8 42  1  0
  8 43  1  0
  9 44  1  1
 10 45  1  0
 10 46  1  0
 11 47  1  6
 12 48  1  0
 12 49  1  0
 13 50  1  6
 14 51  1  0
 14 52  1  0
 15 53  1  0
 15 54  1  0
 16 55  1  0
 16 56  1  0
 19 57  1  0
 19 58  1  0
 20 59  1  0
 20 60  1  0
 22 61  1  0
 23 62  1  0
 29 63  1  0
 30 64  1  0
 33 65  1  0
 34 66  1  0
 35 67  1  0
 36 68  1  0
 37 69  1  0
M  END
>  <meeko>  (66) 
{"is_sidechain": false}

$$$$

     RDKit          3D

 44 47  0  0  0  0  0  0  0  0999 V2000
   11.5930   -1.4860  -54.4190 O   0  0  0  0  0  0  0  0  0  0  0  0
   10.5080   -2.0450  -54.4550 C   0  0  0  0  0  0  0  0  0  0  0  0
   10.1950   -3.1580  -55.1700 N   0  0  0  0  0  0  0  0  0  0  0  0
   11.1030   -3.9050  -56.0370 C   0  0  2  0  0  0  0  0  0  0  0  0
   12.1700   -4.6740  -55.2170 C   0  0  0  0  0  0  0  0  0  0  0  0
   13.0840   -5.4900  -56.1490 C   0  0  1  0  0  0  0  0  0  0  0  0
   12.2350   -6.5020  -56.9340 C   0  0  0  0  0  0  0  0  0  0  0  0
   11.1800   -5.7650  -57.7740 C   0  0  2  0  0  0  0  0  0  0  0  0
   11.8860   -4.8160  -58.7560 C   0  0  0  0  0  0  0  0  0  0  0  0
   12.7310   -3.7930  -57.9820 C   0  0  2  0  0  0  0  0  0  0  0  0
   13.7790   -4.5380  -57.1360 C   0  0  0  0  0  0  0  0  0  0  0  0
   11.8170   -2.9770  -57.0500 C   0  0  0  0  0  0  0  0  0  0  0  0
   10.2770   -4.9450  -56.8400 C   0  0  0  0  0  0  0  0  0  0  0  0
    9.4050   -1.6450  -53.7790 O   0  0  0  0  0  0  0  0  0  0  0  0
    8.2850   -2.5150  -53.9470 C   0  0  0  0  0  0  0  0  0  0  0  0
    7.8260   -2.9490  -52.5790 C   0  0  0  0  0  0  0  0  0  0  0  0
    8.5340   -2.5580  -51.4340 C   0  0  0  0  0  0  0  0  0  0  0  0
    8.0970   -2.9450  -50.1650 C   0  0  0  0  0  0  0  0  0  0  0  0
    6.9430   -3.7150  -50.0290 C   0  0  0  0  0  0  0  0  0  0  0  0
    6.2240   -4.0970  -51.1600 C   0  0  0  0  0  0  0  0  0  0  0  0
    6.6600   -3.7120  -52.4290 C   0  0  0  0  0  0  0  0  0  0  0  0
    9.2370   -3.4640  -55.0650 H   0  0  0  0  0  0  0  0  0  0  0  0
   12.7800   -3.9539  -54.6519 H   0  0  0  0  0  0  0  0  0  0  0  0
   11.6596   -5.3630  -54.5280 H   0  0  0  0  0  0  0  0  0  0  0  0
   13.8392   -6.0238  -55.5534 H   0  0  0  0  0  0  0  0  0  0  0  0
   12.8876   -7.0859  -57.5998 H   0  0  0  0  0  0  0  0  0  0  0  0
   11.7274   -7.1732  -56.2256 H   0  0  0  0  0  0  0  0  0  0  0  0
   10.5747   -6.4934  -58.3335 H   0  0  0  0  0  0  0  0  0  0  0  0
   12.5396   -5.3999  -59.4208 H   0  0  0  0  0  0  0  0  0  0  0  0
   11.1293   -4.2833  -59.3507 H   0  0  0  0  0  0  0  0  0  0  0  0
   13.2345   -3.1187  -58.6903 H   0  0  0  0  0  0  0  0  0  0  0  0
   14.4359   -5.1190  -57.8000 H   0  0  0  0  0  0  0  0  0  0  0  0
   14.3718   -3.8041  -56.5703 H   0  0  0  0  0  0  0  0  0  0  0  0
   12.4241   -2.2420  -56.5012 H   0  0  0  0  0  0  0  0  0  0  0  0
   11.0570   -2.4648  -57.6583 H   0  0  0  0  0  0  0  0  0  0  0  0
    9.5223   -4.4174  -57.4417 H   0  0  0  0  0  0  0  0  0  0  0  0
    9.7934   -5.6315  -56.1295 H   0  0  0  0  0  0  0  0  0  0  0  0
    7.4721   -1.9824  -54.4624 H   0  0  0  0  0  0  0  0  0  0  0  0
    8.5666   -3.3895  -54.5519 H   0  0  0  0  0  0  0  0  0  0  0  0
    9.4398   -1.9423  -51.5356 H   0  0  0  0  0  0  0  0  0  0  0  0
    8.6639   -2.6419  -49.2724 H   0  0  0  0  0  0  0  0  0  0  0  0
    6.6001   -4.0209  -49.0296 H   0  0  0  0  0  0  0  0  0  0  0  0
    5.3120   -4.7025  -51.0527 H   0  0  0  0  0  0  0  0  0  0  0  0
    6.0842   -4.0097  -53.3177 H   0  0  0  0  0  0  0  0  0  0  0  0
  1  2  2  0
  2  3  1  0
  4  3  1  1
  4  5  1  0
  5  6  1  0
  6  7  1  0
  7  8  1  0
  8  9  1  0
  9 10  1  0
 10 11  1  0
 10 12  1  0
  8 13  1  0
  2 14  1  0
 14 15  1  0
 15 16  1  0
 16 17  2  0
 17 18  1  0
 18 19  2  0
 19 20  1  0
 20 21  2  0
 12  4  1  0
 21 16  1  0
 13  4  1  0
 11  6  1  0
  3 22  1  0
  5 23  1  0
  5 24  1  0
  6 25  1  1
  7 26  1  0
  7 27  1  0
  8 28  1  6
  9 29  1  0
  9 30  1  0
 10 31  1  6
 11 32  1  0
 11 33  1  0
 12 34  1  0
 12 35  1  0
 13 36  1  0
 13 37  1  0
 15 38  1  0
 15 39  1  0
 17 40  1  0
 18 41  1  0
 19 42  1  0
 20 43  1  0
 21 44  1  0
M  END
>  <meeko>  (67) 
{"is_sidechain": false}

$$$$

     RDKit          3D

 72 76  0  0  0  0  0  0  0  0999 V2000
    6.2320   -0.2430  -53.3680 C   0  0  0  0  0  0  0  0  0  0  0  0
    7.5350   -0.6490  -53.9740 C   0  0  0  0  0  0  0  0  0  0  0  0
    8.1900    0.0250  -55.0650 C   0  0  0  0  0  0  0  0  0  0  0  0
    7.7060    1.2070  -55.7910 C   0  0  0  0  0  0  0  0  0  0  0  0
    6.5360    1.3300  -56.1420 O   0  0  0  0  0  0  0  0  0  0  0  0
    8.6660    2.1550  -56.0730 N   0  0  0  0  0  0  0  0  0  0  0  0
    8.3890    3.3390  -56.8580 C   0  0  0  0  0  0  0  0  0  0  0  0
    9.4950    3.6840  -57.8800 C   0  0  2  0  0  0  0  0  0  0  0  0
    9.8230    2.4830  -58.8060 C   0  0  0  0  0  0  0  0  0  0  0  0
   10.8930    2.8710  -59.8420 C   0  0  1  0  0  0  0  0  0  0  0  0
   10.3770    4.0380  -60.6970 C   0  0  0  0  0  0  0  0  0  0  0  0
   10.0710    5.2500  -59.8030 C   0  0  2  0  0  0  0  0  0  0  0  0
   11.3530    5.6760  -59.0680 C   0  0  0  0  0  0  0  0  0  0  0  0
   11.8750    4.5160  -58.2060 C   0  0  2  0  0  0  0  0  0  0  0  0
   12.1720    3.3080  -59.1070 C   0  0  0  0  0  0  0  0  0  0  0  0
   10.8020    4.1270  -57.1730 C   0  0  0  0  0  0  0  0  0  0  0  0
    9.0040    4.8580  -58.7680 C   0  0  0  0  0  0  0  0  0  0  0  0
    9.3740   -0.6620  -55.2770 C   0  0  0  0  0  0  0  0  0  0  0  0
    9.4320   -1.7360  -54.4200 N   0  0  0  0  0  0  0  0  0  0  0  0
   10.5500   -2.6640  -54.3790 C   0  0  0  0  0  0  0  0  0  0  0  0
   10.3890   -3.9760  -55.1600 C   0  0  0  0  0  0  0  0  0  0  0  0
   11.3660   -4.2760  -56.3320 C   0  0  0  0  0  0  0  0  0  0  0  0
   10.7280   -5.1800  -57.4000 C   0  0  0  0  0  0  0  0  0  0  0  0
   12.5780   -5.0340  -55.7460 C   0  0  0  0  0  0  0  0  0  0  0  0
   11.8760   -2.9860  -56.9920 C   0  0  0  0  0  0  0  0  0  0  0  0
    8.3340   -1.7220  -53.5870 C   0  0  0  0  0  0  0  0  0  0  0  0
    8.1040   -2.6940  -52.5180 C   0  0  0  0  0  0  0  0  0  0  0  0
    7.2310   -3.7690  -52.7200 C   0  0  0  0  0  0  0  0  0  0  0  0
    7.0080   -4.6970  -51.7010 C   0  0  0  0  0  0  0  0  0  0  0  0
    7.6500   -4.5500  -50.4720 C   0  0  0  0  0  0  0  0  0  0  0  0
    8.5120   -3.4750  -50.2590 C   0  0  0  0  0  0  0  0  0  0  0  0
    8.7360   -2.5460  -51.2770 C   0  0  0  0  0  0  0  0  0  0  0  0
    6.3139   -0.2685  -52.2713 H   0  0  0  0  0  0  0  0  0  0  0  0
    5.9783    0.7768  -53.6931 H   0  0  0  0  0  0  0  0  0  0  0  0
    5.4440   -0.9382  -53.6931 H   0  0  0  0  0  0  0  0  0  0  0  0
    9.6240    1.9590  -55.8270 H   0  0  0  0  0  0  0  0  0  0  0  0
    7.4485    3.1794  -57.4058 H   0  0  0  0  0  0  0  0  0  0  0  0
    8.3294    4.1824  -56.1544 H   0  0  0  0  0  0  0  0  0  0  0  0
   10.1975    1.6481  -58.1955 H   0  0  0  0  0  0  0  0  0  0  0  0
    8.9071    2.1861  -59.3379 H   0  0  0  0  0  0  0  0  0  0  0  0
   11.1107    2.0086  -60.4892 H   0  0  0  0  0  0  0  0  0  0  0  0
   11.1433    4.3148  -61.4360 H   0  0  0  0  0  0  0  0  0  0  0  0
    9.4560    3.7281  -61.2125 H   0  0  0  0  0  0  0  0  0  0  0  0
    9.7034    6.0823  -60.4212 H   0  0  0  0  0  0  0  0  0  0  0  0
   12.1198    5.9556  -59.8054 H   0  0  0  0  0  0  0  0  0  0  0  0
   11.1284    6.5353  -58.4191 H   0  0  0  0  0  0  0  0  0  0  0  0
   12.7940    4.8257  -57.6868 H   0  0  0  0  0  0  0  0  0  0  0  0
   12.9396    3.5842  -59.8449 H   0  0  0  0  0  0  0  0  0  0  0  0
   12.5333    2.4751  -58.4859 H   0  0  0  0  0  0  0  0  0  0  0  0
   11.1782    3.2971  -56.5567 H   0  0  0  0  0  0  0  0  0  0  0  0
   10.5840    5.0021  -56.5431 H   0  0  0  0  0  0  0  0  0  0  0  0
    8.7871    5.7263  -58.1285 H   0  0  0  0  0  0  0  0  0  0  0  0
    8.0980    4.5374  -59.3031 H   0  0  0  0  0  0  0  0  0  0  0  0
   10.1450   -0.3916  -56.0135 H   0  0  0  0  0  0  0  0  0  0  0  0
   11.4305   -2.1424  -54.7823 H   0  0  0  0  0  0  0  0  0  0  0  0
   10.6359   -2.9652  -53.3245 H   0  0  0  0  0  0  0  0  0  0  0  0
   10.4911   -4.7977  -54.4358 H   0  0  0  0  0  0  0  0  0  0  0  0
    9.4095   -3.8748  -55.6502 H   0  0  0  0  0  0  0  0  0  0  0  0
   10.1606   -5.9840  -56.9085 H   0  0  0  0  0  0  0  0  0  0  0  0
   10.0497   -4.5834  -58.0277 H   0  0  0  0  0  0  0  0  0  0  0  0
   11.5173   -5.6192  -58.0277 H   0  0  0  0  0  0  0  0  0  0  0  0
   12.5321   -5.0053  -54.6473 H   0  0  0  0  0  0  0  0  0  0  0  0
   12.5562   -6.0797  -56.0867 H   0  0  0  0  0  0  0  0  0  0  0  0
   13.5086   -4.5567  -56.0867 H   0  0  0  0  0  0  0  0  0  0  0  0
   12.1616   -2.2637  -56.2130 H   0  0  0  0  0  0  0  0  0  0  0  0
   12.7511   -3.2155  -57.6178 H   0  0  0  0  0  0  0  0  0  0  0  0
   11.0806   -2.5551  -57.6178 H   0  0  0  0  0  0  0  0  0  0  0  0
    6.7180   -3.8834  -53.6863 H   0  0  0  0  0  0  0  0  0  0  0  0
    6.3260   -5.5439  -51.8677 H   0  0  0  0  0  0  0  0  0  0  0  0
    7.4763   -5.2826  -49.6700 H   0  0  0  0  0  0  0  0  0  0  0  0
    9.0160   -3.3587  -49.2882 H   0  0  0  0  0  0  0  0  0  0  0  0
    9.4111   -1.6950  -51.1037 H   0  0  0  0  0  0  0  0  0  0  0  0
  1  2  1  0
  2  3  1  0
  3  4  1  0
  4  5  2  0
  4  6  1  0
  6  7  1  0
  8  7  1  1
  8  9  1  0
  9 10  1  0
 10 11  1  0
 11 12  1  0
 12 13  1  0
 13 14  1  0
 14 15  1  0
 14 16  1  0
 12 17  1  0
  3 18  2  0
 18 19  1  0
 19 20  1  0
 20 21  1  0
 21 22  1  0
 22 23  1  0
 22 24  1  0
 22 25  1  0
 19 26  1  0
 26 27  1  0
 27 28  2  0
 28 29  1  0
 29 30  2  0
 30 31  1  0
 31 32  2  0
 26  2  2  0
 32 27  1  0
 16  8  1  0
 17  8  1  0
 15 10  1  0
  1 33  1  0
  1 34  1  0
  1 35  1  0
  6 36  1  0
  7 37  1  0
  7 38  1  0
  9 39  1  0
  9 40  1  0
 10 41  1  6
 11 42  1  0
 11 43  1  0
 12 44  1  6
 13 45  1  0
 13 46  1  0
 14 47  1  1
 15 48  1  0
 15 49  1  0
 16 50  1  0
 16 51  1  0
 17 52  1  0
 17 53  1  0
 18 54  1  0
 20 55  1  0
 20 56  1  0
 21 57  1  0
 21 58  1  0
 23 59  1  0
 23 60  1  0
 23 61  1  0
 24 62  1  0
 24 63  1  0
 24 64  1  0
 25 65  1  0
 25 66  1  0
 25 67  1  0
 28 68  1  0
 29 69  1  0
 30 70  1  0
 31 71  1  0
 32 72  1  0
M  END
>  <meeko>  (68) 
{"is_sidechain": false}

$$$$

     RDKit          3D

 67 72  0  0  0  0  0  0  0  0999 V2000
    6.2110    0.0330  -53.6850 C   0  0  0  0  0  0  0  0  0  0  0  0
    7.5820   -0.4240  -54.0580 C   0  0  0  0  0  0  0  0  0  0  0  0
    8.4400    0.1350  -55.0710 C   0  0  0  0  0  0  0  0  0  0  0  0
    8.2590    1.2910  -55.9550 C   0  0  0  0  0  0  0  0  0  0  0  0
    7.1490    1.7420  -56.2120 O   0  0  0  0  0  0  0  0  0  0  0  0
    9.4300    1.7680  -56.5040 N   0  0  0  0  0  0  0  0  0  0  0  0
    9.5120    2.8400  -57.4980 C   0  0  2  0  0  0  0  0  0  0  0  0
    8.6920    2.5040  -58.7690 C   0  0  0  0  0  0  0  0  0  0  0  0
    8.8430    3.6190  -59.8190 C   0  0  1  0  0  0  0  0  0  0  0  0
    8.3510    4.9480  -59.2220 C   0  0  0  0  0  0  0  0  0  0  0  0
    9.1830    5.3120  -57.9800 C   0  0  2  0  0  0  0  0  0  0  0  0
   10.6610    5.4390  -58.3790 C   0  0  0  0  0  0  0  0  0  0  0  0
   11.1610    4.1100  -58.9680 C   0  0  2  0  0  0  0  0  0  0  0  0
   10.3240    3.7550  -60.2060 C   0  0  0  0  0  0  0  0  0  0  0  0
   10.9990    3.0020  -57.9150 C   0  0  0  0  0  0  0  0  0  0  0  0
    9.0330    4.1990  -56.9280 C   0  0  0  0  0  0  0  0  0  0  0  0
    9.5620   -0.6740  -55.1150 C   0  0  0  0  0  0  0  0  0  0  0  0
    9.4500   -1.6460  -54.1600 N   0  0  0  0  0  0  0  0  0  0  0  0
   10.4690   -2.6580  -53.9140 C   0  0  0  0  0  0  0  0  0  0  0  0
   10.2050   -3.9370  -54.7040 C   0  0  0  0  0  0  0  0  0  0  0  0
   11.2500   -4.1510  -55.7700 C   0  0  0  0  0  0  0  0  0  0  0  0
   12.1790   -5.1950  -55.6470 C   0  0  0  0  0  0  0  0  0  0  0  0
   13.1330   -5.4110  -56.6410 C   0  0  0  0  0  0  0  0  0  0  0  0
   13.1650   -4.5910  -57.7680 C   0  0  0  0  0  0  0  0  0  0  0  0
   12.2430   -3.5540  -57.9010 C   0  0  0  0  0  0  0  0  0  0  0  0
   11.2870   -3.3360  -56.9080 C   0  0  0  0  0  0  0  0  0  0  0  0
    8.2510   -1.5110  -53.4960 C   0  0  0  0  0  0  0  0  0  0  0  0
    7.8200   -2.3970  -52.4150 C   0  0  0  0  0  0  0  0  0  0  0  0
    8.1880   -2.1300  -51.0930 C   0  0  0  0  0  0  0  0  0  0  0  0
    7.7670   -2.9740  -50.0630 C   0  0  0  0  0  0  0  0  0  0  0  0
    6.9830   -4.0910  -50.3530 C   0  0  0  0  0  0  0  0  0  0  0  0
    6.6220   -4.3660  -51.6700 C   0  0  0  0  0  0  0  0  0  0  0  0
    7.0420   -3.5230  -52.7010 C   0  0  0  0  0  0  0  0  0  0  0  0
    6.1201    0.0633  -52.5892 H   0  0  0  0  0  0  0  0  0  0  0  0
    6.0353    1.0383  -54.0955 H   0  0  0  0  0  0  0  0  0  0  0  0
    5.4672   -0.6658  -54.0955 H   0  0  0  0  0  0  0  0  0  0  0  0
   10.2240    1.1490  -56.4290 H   0  0  0  0  0  0  0  0  0  0  0  0
    9.0542    1.5559  -59.1932 H   0  0  0  0  0  0  0  0  0  0  0  0
    7.6305    2.4158  -58.4942 H   0  0  0  0  0  0  0  0  0  0  0  0
    8.2487    3.3704  -60.7106 H   0  0  0  0  0  0  0  0  0  0  0  0
    8.4531    5.7442  -59.9741 H   0  0  0  0  0  0  0  0  0  0  0  0
    7.2960    4.8416  -58.9292 H   0  0  0  0  0  0  0  0  0  0  0  0
    8.8304    6.2668  -57.5628 H   0  0  0  0  0  0  0  0  0  0  0  0
   10.7685    6.2345  -59.1311 H   0  0  0  0  0  0  0  0  0  0  0  0
   11.2563    5.6864  -57.4877 H   0  0  0  0  0  0  0  0  0  0  0  0
   12.2193    4.2048  -59.2524 H   0  0  0  0  0  0  0  0  0  0  0  0
   10.4321    4.5498  -60.9587 H   0  0  0  0  0  0  0  0  0  0  0  0
   10.6782    2.7989  -60.6188 H   0  0  0  0  0  0  0  0  0  0  0  0
   11.3599    2.0516  -58.3351 H   0  0  0  0  0  0  0  0  0  0  0  0
   11.5834    3.2779  -57.0248 H   0  0  0  0  0  0  0  0  0  0  0  0
    9.6369    4.4532  -56.0444 H   0  0  0  0  0  0  0  0  0  0  0  0
    7.9716    4.1130  -56.6523 H   0  0  0  0  0  0  0  0  0  0  0  0
   10.4083   -0.5542  -55.8074 H   0  0  0  0  0  0  0  0  0  0  0  0
   11.4491   -2.2544  -54.2083 H   0  0  0  0  0  0  0  0  0  0  0  0
   10.4481   -2.9089  -52.8432 H   0  0  0  0  0  0  0  0  0  0  0  0
   10.2176   -4.7932  -54.0135 H   0  0  0  0  0  0  0  0  0  0  0  0
    9.2245   -3.8450  -55.1940 H   0  0  0  0  0  0  0  0  0  0  0  0
   12.1548   -5.8470  -54.7614 H   0  0  0  0  0  0  0  0  0  0  0  0
   13.8608   -6.2290  -56.5357 H   0  0  0  0  0  0  0  0  0  0  0  0
   13.9174   -4.7622  -58.5519 H   0  0  0  0  0  0  0  0  0  0  0  0
   12.2690   -2.9066  -58.7899 H   0  0  0  0  0  0  0  0  0  0  0  0
   10.5585   -2.5194  -57.0199 H   0  0  0  0  0  0  0  0  0  0  0  0
    8.8108   -1.2528  -50.8634 H   0  0  0  0  0  0  0  0  0  0  0  0
    8.0535   -2.7581  -49.0232 H   0  0  0  0  0  0  0  0  0  0  0  0
    6.6499   -4.7547  -49.5415 H   0  0  0  0  0  0  0  0  0  0  0  0
    6.0055   -5.2480  -51.8981 H   0  0  0  0  0  0  0  0  0  0  0  0
    6.7601   -3.7454  -53.7407 H   0  0  0  0  0  0  0  0  0  0  0  0
  1  2  1  0
  2  3  1  0
  3  4  1  0
  4  5  2  0
  4  6  1  0
  7  6  1  1
  7  8  1  0
  8  9  1  0
  9 10  1  0
 10 11  1  0
 11 12  1  0
 12 13  1  0
 13 14  1  0
 13 15  1  0
 11 16  1  0
  3 17  2  0
 17 18  1  0
 18 19  1  0
 19 20  1  0
 20 21  1  0
 21 22  2  0
 22 23  1  0
 23 24  2  0
 24 25  1  0
 25 26  2  0
 18 27  1  0
 27 28  1  0
 28 29  2  0
 29 30  1  0
 30 31  2  0
 31 32  1  0
 32 33  2  0
 27  2  2  0
 33 28  1  0
 15  7  1  0
 26 21  1  0
 16  7  1  0
 14  9  1  0
  1 34  1  0
  1 35  1  0
  1 36  1  0
  6 37  1  0
  8 38  1  0
  8 39  1  0
  9 40  1  6
 10 41  1  0
 10 42  1  0
 11 43  1  1
 12 44  1  0
 12 45  1  0
 13 46  1  6
 14 47  1  0
 14 48  1  0
 15 49  1  0
 15 50  1  0
 16 51  1  0
 16 52  1  0
 17 53  1  0
 19 54  1  0
 19 55  1  0
 20 56  1  0
 20 57  1  0
 22 58  1  0
 23 59  1  0
 24 60  1  0
 25 61  1  0
 26 62  1  0
 29 63  1  0
 30 64  1  0
 31 65  1  0
 32 66  1  0
 33 67  1  0
M  END
>  <meeko>  (69) 
{"is_sidechain": false}

$$$$

     RDKit          3D

 74 79  0  0  0  0  0  0  0  0999 V2000
    5.9710   -0.1960  -53.5090 C   0  0  0  0  0  0  0  0  0  0  0  0
    7.3490   -0.5050  -53.9950 C   0  0  0  0  0  0  0  0  0  0  0  0
    8.0470    0.2100  -55.0320 C   0  0  0  0  0  0  0  0  0  0  0  0
    7.5470    1.3570  -55.8020 C   0  0  0  0  0  0  0  0  0  0  0  0
    6.3710    1.4600  -56.1400 O   0  0  0  0  0  0  0  0  0  0  0  0
    8.4990    2.2970  -56.1400 N   0  0  0  0  0  0  0  0  0  0  0  0
    8.1990    3.4520  -56.9580 C   0  0  0  0  0  0  0  0  0  0  0  0
    9.3380    3.8470  -57.9250 C   0  0  2  0  0  0  0  0  0  0  0  0
    9.6310    2.6450  -58.8640 C   0  0  0  0  0  0  0  0  0  0  0  0
   10.7540    2.9850  -59.8560 C   0  0  1  0  0  0  0  0  0  0  0  0
   10.3290    4.1940  -60.7060 C   0  0  0  0  0  0  0  0  0  0  0  0
   10.0620    5.4050  -59.7980 C   0  0  2  0  0  0  0  0  0  0  0  0
   11.3410    5.7450  -59.0160 C   0  0  0  0  0  0  0  0  0  0  0  0
   11.7710    4.5420  -58.1600 C   0  0  2  0  0  0  0  0  0  0  0  0
   12.0300    3.3350  -59.0760 C   0  0  0  0  0  0  0  0  0  0  0  0
   10.6450    4.1990  -57.1700 C   0  0  0  0  0  0  0  0  0  0  0  0
    8.9380    5.0600  -58.8050 C   0  0  0  0  0  0  0  0  0  0  0  0
    9.2880   -0.3970  -55.1410 C   0  0  0  0  0  0  0  0  0  0  0  0
    9.3540   -1.4450  -54.2560 N   0  0  0  0  0  0  0  0  0  0  0  0
   10.5210   -2.3060  -54.1100 C   0  0  0  0  0  0  0  0  0  0  0  0
   10.7920   -3.2070  -55.3270 C   0  0  2  0  0  0  0  0  0  0  0  0
   11.5510   -4.4720  -54.8780 C   0  0  0  0  0  0  0  0  0  0  0  0
   12.3020   -5.1780  -56.0080 C   0  0  0  0  0  0  0  0  0  0  0  0
   11.7140   -4.8660  -57.3770 C   0  0  2  0  0  0  0  0  0  0  0  0
   12.4390   -5.5560  -58.3880 O   0  0  0  0  0  0  0  0  0  0  0  0
   11.7660   -3.3660  -57.6740 C   0  0  0  0  0  0  0  0  0  0  0  0
   11.5660   -2.4840  -56.4370 C   0  0  0  0  0  0  0  0  0  0  0  0
    8.1840   -1.5190  -53.5320 C   0  0  0  0  0  0  0  0  0  0  0  0
    7.9320   -2.5140  -52.4910 C   0  0  0  0  0  0  0  0  0  0  0  0
    7.4090   -3.7670  -52.8290 C   0  0  0  0  0  0  0  0  0  0  0  0
    7.1700   -4.7200  -51.8380 C   0  0  0  0  0  0  0  0  0  0  0  0
    7.4450   -4.4230  -50.5040 C   0  0  0  0  0  0  0  0  0  0  0  0
    7.9550   -3.1720  -50.1590 C   0  0  0  0  0  0  0  0  0  0  0  0
    8.1950   -2.2180  -51.1500 C   0  0  0  0  0  0  0  0  0  0  0  0
    5.9620   -0.1940  -52.4090 H   0  0  0  0  0  0  0  0  0  0  0  0
    5.6646    0.7932  -53.8800 H   0  0  0  0  0  0  0  0  0  0  0  0
    5.2715   -0.9596  -53.8800 H   0  0  0  0  0  0  0  0  0  0  0  0
    9.4610    2.1170  -55.9020 H   0  0  0  0  0  0  0  0  0  0  0  0
    7.3005    3.2312  -57.5529 H   0  0  0  0  0  0  0  0  0  0  0  0
    8.0536    4.2999  -56.2725 H   0  0  0  0  0  0  0  0  0  0  0  0
    9.9364    1.7799  -58.2570 H   0  0  0  0  0  0  0  0  0  0  0  0
    8.7184    2.4126  -59.4325 H   0  0  0  0  0  0  0  0  0  0  0  0
   10.9462    2.1218  -60.5101 H   0  0  0  0  0  0  0  0  0  0  0  0
   11.1320    4.4408  -61.4161 H   0  0  0  0  0  0  0  0  0  0  0  0
    9.4096    3.9444  -61.2559 H   0  0  0  0  0  0  0  0  0  0  0  0
    9.7618    6.2670  -60.4118 H   0  0  0  0  0  0  0  0  0  0  0  0
   12.1452    5.9941  -59.7240 H   0  0  0  0  0  0  0  0  0  0  0  0
   11.1435    6.6038  -58.3576 H   0  0  0  0  0  0  0  0  0  0  0  0
   12.6890    4.7879  -57.6060 H   0  0  0  0  0  0  0  0  0  0  0  0
   12.8343    3.5814  -59.7848 H   0  0  0  0  0  0  0  0  0  0  0  0
   12.3261    2.4720  -58.4615 H   0  0  0  0  0  0  0  0  0  0  0  0
   10.9519    3.3374  -56.5589 H   0  0  0  0  0  0  0  0  0  0  0  0
   10.4584    5.0743  -56.5305 H   0  0  0  0  0  0  0  0  0  0  0  0
    8.7486    5.9290  -58.1577 H   0  0  0  0  0  0  0  0  0  0  0  0
    8.0315    4.8021  -59.3722 H   0  0  0  0  0  0  0  0  0  0  0  0
   10.0913   -0.0888  -55.8264 H   0  0  0  0  0  0  0  0  0  0  0  0
   11.4028   -1.6685  -53.9488 H   0  0  0  0  0  0  0  0  0  0  0  0
   10.3187   -2.9736  -53.2595 H   0  0  0  0  0  0  0  0  0  0  0  0
    9.8176   -3.4880  -55.7531 H   0  0  0  0  0  0  0  0  0  0  0  0
   12.2791   -4.1832  -54.1057 H   0  0  0  0  0  0  0  0  0  0  0  0
   10.7974   -5.1806  -54.5040 H   0  0  0  0  0  0  0  0  0  0  0  0
   13.3525   -4.8523  -55.9919 H   0  0  0  0  0  0  0  0  0  0  0  0
   12.2144   -6.2621  -55.8438 H   0  0  0  0  0  0  0  0  0  0  0  0
   10.6640   -5.1939  -57.3708 H   0  0  0  0  0  0  0  0  0  0  0  0
   12.2250   -6.5010  -58.3100 H   0  0  0  0  0  0  0  0  0  0  0  0
   12.7480   -3.1328  -58.1113 H   0  0  0  0  0  0  0  0  0  0  0  0
   10.9363   -3.1464  -58.3620 H   0  0  0  0  0  0  0  0  0  0  0  0
   12.5523   -2.1912  -56.0478 H   0  0  0  0  0  0  0  0  0  0  0  0
   10.9778   -1.6055  -56.7409 H   0  0  0  0  0  0  0  0  0  0  0  0
    7.1853   -4.0018  -53.8801 H   0  0  0  0  0  0  0  0  0  0  0  0
    6.7645   -5.7058  -52.1095 H   0  0  0  0  0  0  0  0  0  0  0  0
    7.2596   -5.1756  -49.7235 H   0  0  0  0  0  0  0  0  0  0  0  0
    8.1683   -2.9365  -49.1059 H   0  0  0  0  0  0  0  0  0  0  0  0
    8.5924   -1.2299  -50.8747 H   0  0  0  0  0  0  0  0  0  0  0  0
  1  2  1  0
  2  3  1  0
  3  4  1  0
  4  5  2  0
  4  6  1  0
  6  7  1  0
  8  7  1  1
  8  9  1  0
  9 10  1  0
 10 11  1  0
 11 12  1  0
 12 13  1  0
 13 14  1  0
 14 15  1  0
 14 16  1  0
 12 17  1  0
  3 18  2  0
 18 19  1  0
 19 20  1  0
 20 21  1  0
 21 22  1  0
 22 23  1  0
 23 24  1  0
 24 25  1  0
 24 26  1  0
 26 27  1  0
 19 28  1  0
 28 29  1  0
 29 30  2  0
 30 31  1  0
 31 32  2  0
 32 33  1  0
 33 34  2  0
 28  2  2  0
 34 29  1  0
 16  8  1  0
 27 21  1  0
 17  8  1  0
 15 10  1  0
  1 35  1  0
  1 36  1  0
  1 37  1  0
  6 38  1  0
  7 39  1  0
  7 40  1  0
  9 41  1  0
  9 42  1  0
 10 43  1  6
 11 44  1  0
 11 45  1  0
 12 46  1  6
 13 47  1  0
 13 48  1  0
 14 49  1  1
 15 50  1  0
 15 51  1  0
 16 52  1  0
 16 53  1  0
 17 54  1  0
 17 55  1  0
 18 56  1  0
 20 57  1  0
 20 58  1  0
 21 59  1  1
 22 60  1  0
 22 61  1  0
 23 62  1  0
 23 63  1  0
 24 64  1  6
 25 65  1  0
 26 66  1  0
 26 67  1  0
 27 68  1  0
 27 69  1  0
 30 70  1  0
 31 71  1  0
 32 72  1  0
 33 73  1  0
 34 74  1  0
M  END
>  <meeko>  (70) 
{"is_sidechain": false}

$$$$

     RDKit          3D

 70 75  0  0  0  0  0  0  0  0999 V2000
    7.2040    1.3760  -56.4930 O   0  0  0  0  0  0  0  0  0  0  0  0
    8.2580    1.3420  -55.8710 C   0  0  0  0  0  0  0  0  0  0  0  0
    9.1380    2.4000  -55.8240 N   0  0  0  0  0  0  0  0  0  0  0  0
    8.9120    3.6370  -56.5440 C   0  0  0  0  0  0  0  0  0  0  0  0
    9.8990    3.8620  -57.7100 C   0  0  2  0  0  0  0  0  0  0  0  0
    9.7160    2.8060  -58.8310 C   0  0  0  0  0  0  0  0  0  0  0  0
   10.6790    3.0790  -59.9990 C   0  0  1  0  0  0  0  0  0  0  0  0
   10.3990    4.4760  -60.5750 C   0  0  0  0  0  0  0  0  0  0  0  0
   10.6020    5.5420  -59.4870 C   0  0  2  0  0  0  0  0  0  0  0  0
   12.0480    5.4780  -58.9740 C   0  0  0  0  0  0  0  0  0  0  0  0
   12.3380    4.0850  -58.3900 C   0  0  2  0  0  0  0  0  0  0  0  0
   12.1270    3.0240  -59.4830 C   0  0  0  0  0  0  0  0  0  0  0  0
   11.3710    3.8110  -57.2240 C   0  0  0  0  0  0  0  0  0  0  0  0
    9.6390    5.2650  -58.3210 C   0  0  0  0  0  0  0  0  0  0  0  0
    8.6740    0.1560  -55.1190 C   0  0  0  0  0  0  0  0  0  0  0  0
    9.8140   -0.6030  -55.3180 C   0  0  0  0  0  0  0  0  0  0  0  0
    9.8020   -1.6590  -54.4440 N   0  0  0  0  0  0  0  0  0  0  0  0
   10.8440   -2.6790  -54.3980 C   0  0  0  0  0  0  0  0  0  0  0  0
   10.8470   -3.5920  -55.6250 C   0  0  0  0  0  0  0  0  0  0  0  0
   11.5200   -2.9860  -56.8560 C   0  0  0  0  0  0  0  0  0  0  0  0
   11.8440   -4.1880  -57.7390 C   0  0  0  0  0  0  0  0  0  0  0  0
   11.8980   -5.4000  -56.8080 C   0  0  0  0  0  0  0  0  0  0  0  0
   11.6690   -4.8590  -55.4020 C   0  0  0  0  0  0  0  0  0  0  0  0
    8.6810   -1.5920  -53.6440 C   0  0  0  0  0  0  0  0  0  0  0  0
    8.3710   -2.5750  -52.6080 C   0  0  0  0  0  0  0  0  0  0  0  0
    8.8230   -2.3820  -51.2980 C   0  0  0  0  0  0  0  0  0  0  0  0
    8.5240   -3.3180  -50.3070 C   0  0  0  0  0  0  0  0  0  0  0  0
    7.7770   -4.4530  -50.6210 C   0  0  0  0  0  0  0  0  0  0  0  0
    7.3330   -4.6560  -51.9280 C   0  0  0  0  0  0  0  0  0  0  0  0
    7.6310   -3.7210  -52.9200 C   0  0  0  0  0  0  0  0  0  0  0  0
    7.9500   -0.4700  -54.0400 C   0  0  0  0  0  0  0  0  0  0  0  0
    6.6510    0.0300  -53.4750 C   0  0  0  0  0  0  0  0  0  0  0  0
    5.9630    0.7830  -54.3700 F   0  0  0  0  0  0  0  0  0  0  0  0
    5.8130   -0.9780  -53.1090 F   0  0  0  0  0  0  0  0  0  0  0  0
    6.8350    0.7770  -52.3550 F   0  0  0  0  0  0  0  0  0  0  0  0
    9.9620    2.3260  -55.2470 H   0  0  0  0  0  0  0  0  0  0  0  0
    7.8903    3.6208  -56.9513 H   0  0  0  0  0  0  0  0  0  0  0  0
    9.0640    4.4591  -55.8291 H   0  0  0  0  0  0  0  0  0  0  0  0
    9.9200    1.8057  -58.4213 H   0  0  0  0  0  0  0  0  0  0  0  0
    8.6829    2.8627  -59.2044 H   0  0  0  0  0  0  0  0  0  0  0  0
   10.5340    2.3213  -60.7831 H   0  0  0  0  0  0  0  0  0  0  0  0
   11.0885    4.6711  -61.4096 H   0  0  0  0  0  0  0  0  0  0  0  0
    9.3597    4.5179  -60.9329 H   0  0  0  0  0  0  0  0  0  0  0  0
   10.4025    6.5394  -59.9058 H   0  0  0  0  0  0  0  0  0  0  0  0
   12.7390    5.6748  -59.8069 H   0  0  0  0  0  0  0  0  0  0  0  0
   12.1860    6.2349  -58.1878 H   0  0  0  0  0  0  0  0  0  0  0  0
   13.3758    4.0439  -58.0277 H   0  0  0  0  0  0  0  0  0  0  0  0
   12.8181    3.2177  -60.3166 H   0  0  0  0  0  0  0  0  0  0  0  0
   12.3214    2.0273  -59.0602 H   0  0  0  0  0  0  0  0  0  0  0  0
   11.5798    2.8143  -56.8082 H   0  0  0  0  0  0  0  0  0  0  0  0
   11.5166    4.5834  -56.4544 H   0  0  0  0  0  0  0  0  0  0  0  0
    9.7854    6.0293  -57.5435 H   0  0  0  0  0  0  0  0  0  0  0  0
    8.6074    5.2972  -58.7016 H   0  0  0  0  0  0  0  0  0  0  0  0
   10.6013   -0.3931  -56.0570 H   0  0  0  0  0  0  0  0  0  0  0  0
   11.8211   -2.1781  -54.3324 H   0  0  0  0  0  0  0  0  0  0  0  0
   10.6445   -3.3112  -53.5202 H   0  0  0  0  0  0  0  0  0  0  0  0
    9.7732   -3.7718  -55.7820 H   0  0  0  0  0  0  0  0  0  0  0  0
   10.8374   -2.2955  -57.3730 H   0  0  0  0  0  0  0  0  0  0  0  0
   12.4146   -2.3995  -56.5998 H   0  0  0  0  0  0  0  0  0  0  0  0
   11.0602   -4.3254  -58.4985 H   0  0  0  0  0  0  0  0  0  0  0  0
   12.7966   -4.0489  -58.2711 H   0  0  0  0  0  0  0  0  0  0  0  0
   11.1108   -6.1212  -57.0731 H   0  0  0  0  0  0  0  0  0  0  0  0
   12.8611   -5.9257  -56.8859 H   0  0  0  0  0  0  0  0  0  0  0  0
   11.1124   -5.5838  -54.7897 H   0  0  0  0  0  0  0  0  0  0  0  0
   12.6086   -4.6656  -54.8638 H   0  0  0  0  0  0  0  0  0  0  0  0
    9.4159   -1.4897  -51.0484 H   0  0  0  0  0  0  0  0  0  0  0  0
    8.8778   -3.1604  -49.2774 H   0  0  0  0  0  0  0  0  0  0  0  0
    7.5379   -5.1881  -49.8384 H   0  0  0  0  0  0  0  0  0  0  0  0
    6.7477   -5.5536  -52.1766 H   0  0  0  0  0  0  0  0  0  0  0  0
    7.2831   -3.8853  -53.9505 H   0  0  0  0  0  0  0  0  0  0  0  0
  1  2  2  0
  2  3  1  0
  3  4  1  0
  5  4  1  1
  5  6  1  0
  6  7  1  0
  7  8  1  0
  8  9  1  0
  9 10  1  0
 10 11  1  0
 11 12  1  0
 11 13  1  0
  9 14  1  0
  2 15  1  0
 15 16  2  0
 16 17  1  0
 17 18  1  0
 18 19  1  0
 19 20  1  0
 20 21  1  0
 21 22  1  0
 22 23  1  0
 17 24  1  0
 24 25  1  0
 25 26  2  0
 26 27  1  0
 27 28  2  0
 28 29  1  0
 29 30  2  0
 24 31  2  0
 31 32  1  0
 32 33  1  0
 32 34  1  0
 32 35  1  0
 13  5  1  0
 31 15  1  0
 14  5  1  0
 23 19  1  0
 30 25  1  0
 12  7  1  0
  3 36  1  0
  4 37  1  0
  4 38  1  0
  6 39  1  0
  6 40  1  0
  7 41  1  6
  8 42  1  0
  8 43  1  0
  9 44  1  6
 10 45  1  0
 10 46  1  0
 11 47  1  1
 12 48  1  0
 12 49  1  0
 13 50  1  0
 13 51  1  0
 14 52  1  0
 14 53  1  0
 16 54  1  0
 18 55  1  0
 18 56  1  0
 19 57  1  0
 20 58  1  0
 20 59  1  0
 21 60  1  0
 21 61  1  0
 22 62  1  0
 22 63  1  0
 23 64  1  0
 23 65  1  0
 26 66  1  0
 27 67  1  0
 28 68  1  0
 29 69  1  0
 30 70  1  0
M  END
>  <meeko>  (71) 
{"is_sidechain": false}

$$$$

     RDKit          3D

 62 65  0  0  0  0  0  0  0  0999 V2000
    5.6540   -0.3830  -53.5670 C   0  0  0  0  0  0  0  0  0  0  0  0
    7.0580   -0.5170  -54.0590 C   0  0  0  0  0  0  0  0  0  0  0  0
    7.6840    0.2330  -55.1140 C   0  0  0  0  0  0  0  0  0  0  0  0
    7.1550    1.2570  -56.0040 C   0  0  0  0  0  0  0  0  0  0  0  0
    5.9580    1.5160  -56.1030 O   0  0  0  0  0  0  0  0  0  0  0  0
    8.0930    2.0140  -56.6640 N   0  0  0  0  0  0  0  0  0  0  0  0
    7.7400    3.0440  -57.6270 C   0  0  0  0  0  0  0  0  0  0  0  0
    8.6710    3.1210  -58.8560 C   0  0  0  0  0  0  0  0  0  0  0  0
    9.8780    3.9880  -58.6390 N   0  0  2  0  0  0  0  0  0  0  0  0
    9.9550    5.2380  -59.4730 C   0  0  0  0  0  0  0  0  0  0  0  0
   11.4260    5.5840  -59.4460 C   0  0  0  0  0  0  0  0  0  0  0  0
   12.0970    4.2300  -59.5670 C   0  0  0  0  0  0  0  0  0  0  0  0
   11.2220    3.2630  -58.7650 C   0  0  1  0  0  0  0  0  0  0  0  0
   11.7620    2.9630  -57.3560 C   0  0  0  0  0  0  0  0  0  0  0  0
   11.1890    1.7520  -56.8810 O   0  0  0  0  0  0  0  0  0  0  0  0
    9.0000   -0.1840  -55.1570 C   0  0  0  0  0  0  0  0  0  0  0  0
    9.1960   -1.1630  -54.2160 N   0  0  0  0  0  0  0  0  0  0  0  0
   10.4670   -1.8600  -54.0260 C   0  0  0  0  0  0  0  0  0  0  0  0
   10.8100   -2.7290  -55.2090 C   0  0  0  0  0  0  0  0  0  0  0  0
   10.3860   -4.0560  -55.2600 C   0  0  0  0  0  0  0  0  0  0  0  0
   10.7220   -4.8280  -56.3680 C   0  0  0  0  0  0  0  0  0  0  0  0
   11.4680   -4.2610  -57.3920 C   0  0  0  0  0  0  0  0  0  0  0  0
   11.8510   -2.9370  -57.2670 C   0  0  0  0  0  0  0  0  0  0  0  0
   11.5430   -2.1610  -56.2040 N   0  0  0  0  0  0  0  0  0  0  0  0
    8.0130   -1.3940  -53.5440 C   0  0  0  0  0  0  0  0  0  0  0  0
    7.8680   -2.3720  -52.4680 C   0  0  0  0  0  0  0  0  0  0  0  0
    8.1180   -2.0050  -51.1420 C   0  0  0  0  0  0  0  0  0  0  0  0
    7.9730   -2.9410  -50.1160 C   0  0  0  0  0  0  0  0  0  0  0  0
    7.5840   -4.2460  -50.4120 C   0  0  0  0  0  0  0  0  0  0  0  0
    7.3420   -4.6200  -51.7330 C   0  0  0  0  0  0  0  0  0  0  0  0
    7.4860   -3.6870  -52.7600 C   0  0  0  0  0  0  0  0  0  0  0  0
    5.6494   -0.3826  -52.4670 H   0  0  0  0  0  0  0  0  0  0  0  0
    5.2247    0.5602  -53.9358 H   0  0  0  0  0  0  0  0  0  0  0  0
    5.0540   -1.2280  -53.9358 H   0  0  0  0  0  0  0  0  0  0  0  0
    9.0710    1.8090  -56.4940 H   0  0  0  0  0  0  0  0  0  0  0  0
    6.7181    2.8455  -57.9826 H   0  0  0  0  0  0  0  0  0  0  0  0
    7.8352    4.0065  -57.1030 H   0  0  0  0  0  0  0  0  0  0  0  0
    9.0120    2.1038  -59.0989 H   0  0  0  0  0  0  0  0  0  0  0  0
    8.0907    3.5726  -59.6741 H   0  0  0  0  0  0  0  0  0  0  0  0
    9.8480    4.3540  -57.6550 H   0  0  0  0  0  0  0  0  0  0  0  0
    9.6139    5.0473  -60.5012 H   0  0  0  0  0  0  0  0  0  0  0  0
    9.3152    6.0485  -59.0939 H   0  0  0  0  0  0  0  0  0  0  0  0
   11.6945    6.2352  -60.2908 H   0  0  0  0  0  0  0  0  0  0  0  0
   11.7248    6.1368  -58.5431 H   0  0  0  0  0  0  0  0  0  0  0  0
   12.1464    3.9189  -60.6209 H   0  0  0  0  0  0  0  0  0  0  0  0
   13.1299    4.2527  -59.1893 H   0  0  0  0  0  0  0  0  0  0  0  0
   11.1734    2.2885  -59.2730 H   0  0  0  0  0  0  0  0  0  0  0  0
   12.8565    2.8606  -57.3961 H   0  0  0  0  0  0  0  0  0  0  0  0
   11.4974    3.7869  -56.6769 H   0  0  0  0  0  0  0  0  0  0  0  0
   10.9510    1.2020  -57.6540 H   0  0  0  0  0  0  0  0  0  0  0  0
    9.7698    0.2072  -55.8384 H   0  0  0  0  0  0  0  0  0  0  0  0
   11.2646   -1.1152  -53.8879 H   0  0  0  0  0  0  0  0  0  0  0  0
   10.3737   -2.5072  -53.1414 H   0  0  0  0  0  0  0  0  0  0  0  0
    9.7953   -4.4860  -54.4376 H   0  0  0  0  0  0  0  0  0  0  0  0
   10.3994   -5.8777  -56.4317 H   0  0  0  0  0  0  0  0  0  0  0  0
   11.7473   -4.8483  -58.2792 H   0  0  0  0  0  0  0  0  0  0  0  0
   12.4408   -2.4898  -58.0807 H   0  0  0  0  0  0  0  0  0  0  0  0
    8.4296   -0.9766  -50.9067 H   0  0  0  0  0  0  0  0  0  0  0  0
    8.1660   -2.6481  -49.0734 H   0  0  0  0  0  0  0  0  0  0  0  0
    7.4678   -4.9817  -49.6025 H   0  0  0  0  0  0  0  0  0  0  0  0
    7.0374   -5.6511  -51.9656 H   0  0  0  0  0  0  0  0  0  0  0  0
    7.2989   -3.9852  -53.8021 H   0  0  0  0  0  0  0  0  0  0  0  0
  1  2  1  0
  2  3  1  0
  3  4  1  0
  4  5  2  0
  4  6  1  0
  6  7  1  0
  7  8  1  0
  8  9  1  0
  9 10  1  0
 10 11  1  0
 11 12  1  0
 12 13  1  0
 13 14  1  0
 14 15  1  0
  3 16  2  0
 16 17  1  0
 17 18  1  0
 18 19  1  0
 19 20  2  0
 20 21  1  0
 21 22  2  0
 22 23  1  0
 23 24  2  0
 17 25  1  0
 25 26  1  0
 26 27  2  0
 27 28  1  0
 28 29  2  0
 29 30  1  0
 30 31  2  0
 25  2  2  0
 31 26  1  0
 13  9  1  0
 24 19  1  0
  1 32  1  0
  1 33  1  0
  1 34  1  0
  6 35  1  0
  7 36  1  0
  7 37  1  0
  8 38  1  0
  8 39  1  0
  9 40  1  1
 10 41  1  0
 10 42  1  0
 11 43  1  0
 11 44  1  0
 12 45  1  0
 12 46  1  0
 13 47  1  6
 14 48  1  0
 14 49  1  0
 15 50  1  0
 16 51  1  0
 18 52  1  0
 18 53  1  0
 20 54  1  0
 21 55  1  0
 22 56  1  0
 23 57  1  0
 27 58  1  0
 28 59  1  0
 29 60  1  0
 30 61  1  0
 31 62  1  0
M  CHG  1   9   1
M  END
>  <meeko>  (72) 
{"is_sidechain": false}

$$$$

     RDKit          3D

 62 65  0  0  0  0  0  0  0  0999 V2000
    5.5620   -0.5870  -53.4720 C   0  0  0  0  0  0  0  0  0  0  0  0
    6.9740   -0.6360  -53.9560 C   0  0  0  0  0  0  0  0  0  0  0  0
    7.5700    0.1610  -54.9960 C   0  0  0  0  0  0  0  0  0  0  0  0
    7.0050    1.1790  -55.8730 C   0  0  0  0  0  0  0  0  0  0  0  0
    5.7970    1.3010  -56.0730 O   0  0  0  0  0  0  0  0  0  0  0  0
    7.9050    2.0360  -56.4650 N   0  0  0  0  0  0  0  0  0  0  0  0
    7.5050    3.2370  -57.1850 C   0  0  0  0  0  0  0  0  0  0  0  0
    8.5930    4.3310  -57.2940 C   0  0  0  0  0  0  0  0  0  0  0  0
    9.3210    4.2880  -58.6090 N   0  0  1  0  0  0  0  0  0  0  0  0
    9.9050    5.5830  -59.1200 C   0  0  0  0  0  0  0  0  0  0  0  0
   11.1390    5.1810  -59.9150 C   0  0  0  0  0  0  0  0  0  0  0  0
   11.0390    3.6750  -60.0910 C   0  0  0  0  0  0  0  0  0  0  0  0
   10.3590    3.2030  -58.8090 C   0  0  1  0  0  0  0  0  0  0  0  0
   11.3270    3.0740  -57.6150 C   0  0  0  0  0  0  0  0  0  0  0  0
   11.0450    1.8820  -56.8950 O   0  0  0  0  0  0  0  0  0  0  0  0
    8.9060   -0.1880  -55.0300 C   0  0  0  0  0  0  0  0  0  0  0  0
    9.1430   -1.1720  -54.1030 N   0  0  0  0  0  0  0  0  0  0  0  0
   10.4480   -1.8070  -53.9160 C   0  0  0  0  0  0  0  0  0  0  0  0
   10.8220   -2.6670  -55.0950 C   0  0  0  0  0  0  0  0  0  0  0  0
   10.4450   -4.0090  -55.1400 C   0  0  0  0  0  0  0  0  0  0  0  0
   10.8010   -4.7730  -56.2490 C   0  0  0  0  0  0  0  0  0  0  0  0
   11.5180   -4.1830  -57.2810 C   0  0  0  0  0  0  0  0  0  0  0  0
   11.8510   -2.8460  -57.1630 C   0  0  0  0  0  0  0  0  0  0  0  0
   11.5220   -2.0780  -56.1000 N   0  0  0  0  0  0  0  0  0  0  0  0
    7.9680   -1.4710  -53.4450 C   0  0  0  0  0  0  0  0  0  0  0  0
    7.8690   -2.4660  -52.3800 C   0  0  0  0  0  0  0  0  0  0  0  0
    7.4990   -3.7820  -52.6810 C   0  0  0  0  0  0  0  0  0  0  0  0
    7.4030   -4.7350  -51.6660 C   0  0  0  0  0  0  0  0  0  0  0  0
    7.6810   -4.3790  -50.3470 C   0  0  0  0  0  0  0  0  0  0  0  0
    8.0610   -3.0720  -50.0420 C   0  0  0  0  0  0  0  0  0  0  0  0
    8.1580   -2.1180  -51.0560 C   0  0  0  0  0  0  0  0  0  0  0  0
    5.5512   -0.5866  -52.3721 H   0  0  0  0  0  0  0  0  0  0  0  0
    5.0785    0.3285  -53.8437 H   0  0  0  0  0  0  0  0  0  0  0  0
    5.0162   -1.4667  -53.8437 H   0  0  0  0  0  0  0  0  0  0  0  0
    8.8290    2.0360  -56.0460 H   0  0  0  0  0  0  0  0  0  0  0  0
    7.2151    2.9423  -58.2044 H   0  0  0  0  0  0  0  0  0  0  0  0
    6.6819    3.6809  -56.6058 H   0  0  0  0  0  0  0  0  0  0  0  0
    8.1152    5.3160  -57.1870 H   0  0  0  0  0  0  0  0  0  0  0  0
    9.3298    4.1511  -56.4973 H   0  0  0  0  0  0  0  0  0  0  0  0
    8.5840    4.0510  -59.3100 H   0  0  0  0  0  0  0  0  0  0  0  0
    9.1826    6.1028  -59.7665 H   0  0  0  0  0  0  0  0  0  0  0  0
   10.1524    6.2731  -58.2999 H   0  0  0  0  0  0  0  0  0  0  0  0
   11.1452    5.6824  -60.8940 H   0  0  0  0  0  0  0  0  0  0  0  0
   12.0670    5.4699  -59.3998 H   0  0  0  0  0  0  0  0  0  0  0  0
   10.4313    3.4230  -60.9726 H   0  0  0  0  0  0  0  0  0  0  0  0
   12.0177    3.1998  -60.2532 H   0  0  0  0  0  0  0  0  0  0  0  0
    9.9410    2.1880  -58.8801 H   0  0  0  0  0  0  0  0  0  0  0  0
   12.3621    3.0408  -57.9857 H   0  0  0  0  0  0  0  0  0  0  0  0
   11.2002    3.9400  -56.9487 H   0  0  0  0  0  0  0  0  0  0  0  0
   10.6460    1.2390  -57.5090 H   0  0  0  0  0  0  0  0  0  0  0  0
    9.6619    0.2537  -55.6960 H   0  0  0  0  0  0  0  0  0  0  0  0
   11.2106   -1.0244  -53.7892 H   0  0  0  0  0  0  0  0  0  0  0  0
   10.3924   -2.4504  -53.0255 H   0  0  0  0  0  0  0  0  0  0  0  0
    9.8754   -4.4572  -54.3126 H   0  0  0  0  0  0  0  0  0  0  0  0
   10.5166   -5.8340  -56.3065 H   0  0  0  0  0  0  0  0  0  0  0  0
   11.8131   -4.7629  -58.1679 H   0  0  0  0  0  0  0  0  0  0  0  0
   12.4172   -2.3796  -57.9827 H   0  0  0  0  0  0  0  0  0  0  0  0
    7.2831   -4.0661  -53.7215 H   0  0  0  0  0  0  0  0  0  0  0  0
    7.1080   -5.7670  -51.9066 H   0  0  0  0  0  0  0  0  0  0  0  0
    7.6006   -5.1292  -49.5465 H   0  0  0  0  0  0  0  0  0  0  0  0
    8.2843   -2.7931  -49.0017 H   0  0  0  0  0  0  0  0  0  0  0  0
    8.4626   -1.0892  -50.8135 H   0  0  0  0  0  0  0  0  0  0  0  0
  1  2  1  0
  2  3  1  0
  3  4  1  0
  4  5  2  0
  4  6  1  0
  6  7  1  0
  7  8  1  0
  8  9  1  0
  9 10  1  0
 10 11  1  0
 11 12  1  0
 12 13  1  0
 13 14  1  0
 14 15  1  0
  3 16  2  0
 16 17  1  0
 17 18  1  0
 18 19  1  0
 19 20  2  0
 20 21  1  0
 21 22  2  0
 22 23  1  0
 23 24  2  0
 17 25  1  0
 25 26  1  0
 26 27  2  0
 27 28  1  0
 28 29  2  0
 29 30  1  0
 30 31  2  0
 25  2  2  0
 31 26  1  0
 13  9  1  0
 24 19  1  0
  1 32  1  0
  1 33  1  0
  1 34  1  0
  6 35  1  0
  7 36  1  0
  7 37  1  0
  8 38  1  0
  8 39  1  0
  9 40  1  6
 10 41  1  0
 10 42  1  0
 11 43  1  0
 11 44  1  0
 12 45  1  0
 12 46  1  0
 13 47  1  6
 14 48  1  0
 14 49  1  0
 15 50  1  0
 16 51  1  0
 18 52  1  0
 18 53  1  0
 20 54  1  0
 21 55  1  0
 22 56  1  0
 23 57  1  0
 27 58  1  0
 28 59  1  0
 29 60  1  0
 30 61  1  0
 31 62  1  0
M  CHG  1   9   1
M  END
>  <meeko>  (73) 
{"is_sidechain": false}

$$$$

     RDKit          3D

 76 80  0  0  0  0  0  0  0  0999 V2000
    8.1490   -1.3440  -54.6840 C   0  0  0  0  0  0  0  0  0  0  0  0
    9.5140   -0.6590  -54.6570 C   0  0  1  0  0  0  0  0  0  0  0  0
   10.5940   -1.6630  -54.9580 N   0  0  0  0  0  0  0  0  0  0  0  0
   10.1490   -3.0900  -55.0570 C   0  0  0  0  0  0  0  0  0  0  0  0
   11.0490   -3.9210  -55.9980 C   0  0  2  0  0  0  0  0  0  0  0  0
   12.1240   -4.7240  -55.2210 C   0  0  0  0  0  0  0  0  0  0  0  0
   13.0480   -5.4810  -56.1920 C   0  0  1  0  0  0  0  0  0  0  0  0
   12.2060   -6.4490  -57.0400 C   0  0  0  0  0  0  0  0  0  0  0  0
   11.1530   -5.6680  -57.8420 C   0  0  2  0  0  0  0  0  0  0  0  0
   11.8620   -4.6630  -58.7630 C   0  0  0  0  0  0  0  0  0  0  0  0
   12.7030   -3.6880  -57.9240 C   0  0  2  0  0  0  0  0  0  0  0  0
   13.7480   -4.4760  -57.1190 C   0  0  0  0  0  0  0  0  0  0  0  0
   11.7810   -2.9350  -56.9520 C   0  0  0  0  0  0  0  0  0  0  0  0
   10.2320   -4.9110  -56.8680 C   0  0  0  0  0  0  0  0  0  0  0  0
    9.5720    0.5080  -55.6300 C   0  0  0  0  0  0  0  0  0  0  0  0
    8.4230    1.2750  -55.8790 C   0  0  0  0  0  0  0  0  0  0  0  0
    8.4320    2.3070  -56.8310 C   0  0  0  0  0  0  0  0  0  0  0  0
    9.5840    2.6000  -57.5670 C   0  0  0  0  0  0  0  0  0  0  0  0
    9.6050    3.5900  -58.5900 N   0  0  0  0  0  0  0  0  0  0  0  0
   10.8030    4.3660  -58.8680 C   0  0  0  0  0  0  0  0  0  0  0  0
   10.3520    4.4840  -60.3170 C   0  0  0  0  0  0  0  0  0  0  0  0
    9.3490    3.3660  -60.0080 C   0  0  2  0  0  0  0  0  0  0  0  0
    7.8830    3.5900  -60.3760 C   0  0  0  0  0  0  0  0  0  0  0  0
    7.2390    2.4650  -61.1500 N   0  0  0  0  0  0  0  0  0  0  0  0
    5.7970    2.1330  -60.8490 C   0  0  0  0  0  0  0  0  0  0  0  0
    4.9000    2.1780  -62.0880 C   0  0  0  0  0  0  0  0  0  0  0  0
    5.4420    2.3240  -63.1860 O   0  0  0  0  0  0  0  0  0  0  0  0
    3.5400    1.9430  -61.9460 N   0  0  0  0  0  0  0  0  0  0  0  0
    2.7020    2.1090  -63.1310 C   0  0  0  0  0  0  0  0  0  0  0  0
    2.8260    1.9700  -60.6750 C   0  0  0  0  0  0  0  0  0  0  0  0
   10.7440    1.8660  -57.2780 C   0  0  0  0  0  0  0  0  0  0  0  0
   10.7410    0.8320  -56.3320 C   0  0  0  0  0  0  0  0  0  0  0  0
    7.8050   -1.5167  -53.6535 H   0  0  0  0  0  0  0  0  0  0  0  0
    7.4267   -0.7016  -55.2089 H   0  0  0  0  0  0  0  0  0  0  0  0
    8.2324   -2.3071  -55.2089 H   0  0  0  0  0  0  0  0  0  0  0  0
    9.6761   -0.2498  -53.6489 H   0  0  0  0  0  0  0  0  0  0  0  0
   11.2950   -1.5830  -54.2120 H   0  0  0  0  0  0  0  0  0  0  0  0
   11.0700   -1.3860  -55.8230 H   0  0  0  0  0  0  0  0  0  0  0  0
   10.1763   -3.5394  -54.0534 H   0  0  0  0  0  0  0  0  0  0  0  0
    9.1306   -3.0968  -55.4728 H   0  0  0  0  0  0  0  0  0  0  0  0
   12.7266   -4.0296  -54.6171 H   0  0  0  0  0  0  0  0  0  0  0  0
   11.6184   -5.4550  -54.5729 H   0  0  0  0  0  0  0  0  0  0  0  0
   13.8015   -6.0435  -55.6213 H   0  0  0  0  0  0  0  0  0  0  0  0
   12.8643   -6.9912  -57.7348 H   0  0  0  0  0  0  0  0  0  0  0  0
   11.6967   -7.1616  -56.3745 H   0  0  0  0  0  0  0  0  0  0  0  0
   10.5544   -6.3640  -58.4480 H   0  0  0  0  0  0  0  0  0  0  0  0
   12.5188   -5.2060  -59.4585 H   0  0  0  0  0  0  0  0  0  0  0  0
   11.1082   -4.0964  -59.3293 H   0  0  0  0  0  0  0  0  0  0  0  0
   13.2110   -2.9731  -58.5879 H   0  0  0  0  0  0  0  0  0  0  0  0
   14.4085   -5.0181  -57.8117 H   0  0  0  0  0  0  0  0  0  0  0  0
   14.3394   -3.7753  -56.5113 H   0  0  0  0  0  0  0  0  0  0  0  0
   12.3839   -2.2365  -56.3532 H   0  0  0  0  0  0  0  0  0  0  0  0
   11.0261   -2.3899  -57.5377 H   0  0  0  0  0  0  0  0  0  0  0  0
    9.4805   -4.3506  -57.4435 H   0  0  0  0  0  0  0  0  0  0  0  0
    9.7408   -5.6402  -56.2070 H   0  0  0  0  0  0  0  0  0  0  0  0
    7.5001    1.0640  -55.3189 H   0  0  0  0  0  0  0  0  0  0  0  0
    7.5177    2.8946  -57.0005 H   0  0  0  0  0  0  0  0  0  0  0  0
   10.8578    5.3241  -58.3304 H   0  0  0  0  0  0  0  0  0  0  0  0
   11.8010    3.9791  -58.6143 H   0  0  0  0  0  0  0  0  0  0  0  0
    9.8982    5.4505  -60.5815 H   0  0  0  0  0  0  0  0  0  0  0  0
   11.0601    4.4178  -61.1562 H   0  0  0  0  0  0  0  0  0  0  0  0
    9.4715    2.3941  -60.5085 H   0  0  0  0  0  0  0  0  0  0  0  0
    7.3154    3.7316  -59.4445 H   0  0  0  0  0  0  0  0  0  0  0  0
    7.8636    4.4683  -61.0380 H   0  0  0  0  0  0  0  0  0  0  0  0
    7.3170    2.6710  -62.1530 H   0  0  0  0  0  0  0  0  0  0  0  0
    7.8090    1.6300  -60.9510 H   0  0  0  0  0  0  0  0  0  0  0  0
    5.7527    1.1206  -60.4212 H   0  0  0  0  0  0  0  0  0  0  0  0
    5.4248    2.8933  -60.1465 H   0  0  0  0  0  0  0  0  0  0  0  0
    1.6664    2.3141  -62.8219 H   0  0  0  0  0  0  0  0  0  0  0  0
    3.0788    2.9500  -63.7317 H   0  0  0  0  0  0  0  0  0  0  0  0
    2.7298    1.1879  -63.7317 H   0  0  0  0  0  0  0  0  0  0  0  0
    3.5498    1.9426  -59.8472 H   0  0  0  0  0  0  0  0  0  0  0  0
    2.2287    2.8914  -60.6095 H   0  0  0  0  0  0  0  0  0  0  0  0
    2.1608    1.0964  -60.6095 H   0  0  0  0  0  0  0  0  0  0  0  0
   11.6780    2.1077  -57.8064 H   0  0  0  0  0  0  0  0  0  0  0  0
   11.6658    0.2688  -56.1384 H   0  0  0  0  0  0  0  0  0  0  0  0
  1  2  1  0
  2  3  1  0
  3  4  1  0
  5  4  1  1
  5  6  1  0
  6  7  1  0
  7  8  1  0
  8  9  1  0
  9 10  1  0
 10 11  1  0
 11 12  1  0
 11 13  1  0
  9 14  1  0
  2 15  1  0
 15 16  1  0
 16 17  2  0
 17 18  1  0
 18 19  1  0
 19 20  1  0
 20 21  1  0
 21 22  1  0
 22 23  1  0
 23 24  1  0
 24 25  1  0
 25 26  1  0
 26 27  2  0
 26 28  1  0
 28 29  1  0
 28 30  1  0
 18 31  2  0
 31 32  1  0
 13  5  1  0
 32 15  2  0
 14  5  1  0
 22 19  1  0
 12  7  1  0
  1 33  1  0
  1 34  1  0
  1 35  1  0
  2 36  1  1
  3 37  1  0
  3 38  1  0
  4 39  1  0
  4 40  1  0
  6 41  1  0
  6 42  1  0
  7 43  1  1
  8 44  1  0
  8 45  1  0
  9 46  1  6
 10 47  1  0
 10 48  1  0
 11 49  1  6
 12 50  1  0
 12 51  1  0
 13 52  1  0
 13 53  1  0
 14 54  1  0
 14 55  1  0
 16 56  1  0
 17 57  1  0
 20 58  1  0
 20 59  1  0
 21 60  1  0
 21 61  1  0
 22 62  1  6
 23 63  1  0
 23 64  1  0
 24 65  1  0
 24 66  1  0
 25 67  1  0
 25 68  1  0
 29 69  1  0
 29 70  1  0
 29 71  1  0
 30 72  1  0
 30 73  1  0
 30 74  1  0
 31 75  1  0
 32 76  1  0
M  CHG  2   3   1  24   1
M  END
>  <meeko>  (74) 
{"is_sidechain": false}

$$$$

     RDKit          3D

 76 80  0  0  0  0  0  0  0  0999 V2000
    7.8240   -2.4030  -54.0060 C   0  0  0  0  0  0  0  0  0  0  0  0
    8.8900   -1.3140  -54.1430 C   0  0  1  0  0  0  0  0  0  0  0  0
   10.1300   -1.9520  -54.7090 N   0  0  0  0  0  0  0  0  0  0  0  0
   10.1090   -3.4480  -54.7510 C   0  0  0  0  0  0  0  0  0  0  0  0
   11.0650   -4.0200  -55.8190 C   0  0  2  0  0  0  0  0  0  0  0  0
   11.6970   -2.9100  -56.6980 C   0  0  0  0  0  0  0  0  0  0  0  0
   12.5870   -3.5230  -57.7950 C   0  0  1  0  0  0  0  0  0  0  0  0
   13.7070   -4.3450  -57.1350 C   0  0  0  0  0  0  0  0  0  0  0  0
   13.1010   -5.4720  -56.2830 C   0  0  2  0  0  0  0  0  0  0  0  0
   12.2510   -6.3850  -57.1800 C   0  0  0  0  0  0  0  0  0  0  0  0
   11.1270   -5.5720  -57.8410 C   0  0  2  0  0  0  0  0  0  0  0  0
   11.7400   -4.4450  -58.6850 C   0  0  0  0  0  0  0  0  0  0  0  0
   10.2410   -4.9570  -56.7460 C   0  0  0  0  0  0  0  0  0  0  0  0
   12.2090   -4.8560  -55.1890 C   0  0  0  0  0  0  0  0  0  0  0  0
    8.3990   -0.1380  -54.9660 C   0  0  0  0  0  0  0  0  0  0  0  0
    7.0240    0.0500  -55.1610 C   0  0  0  0  0  0  0  0  0  0  0  0
    6.5500    1.0790  -55.9840 C   0  0  0  0  0  0  0  0  0  0  0  0
    7.4260    1.9500  -56.6500 C   0  0  0  0  0  0  0  0  0  0  0  0
    6.8930    2.9200  -57.5500 N   0  0  0  0  0  0  0  0  0  0  0  0
    5.6940    2.6160  -58.3310 C   0  0  0  0  0  0  0  0  0  0  0  0
    6.5710    2.6520  -59.5840 C   0  0  0  0  0  0  0  0  0  0  0  0
    7.5600    3.4620  -58.7350 C   0  0  1  0  0  0  0  0  0  0  0  0
    7.4180    4.9860  -58.8270 C   0  0  0  0  0  0  0  0  0  0  0  0
    8.7310    5.7270  -58.8050 N   0  0  0  0  0  0  0  0  0  0  0  0
    9.8720    5.0530  -58.0900 C   0  0  0  0  0  0  0  0  0  0  0  0
   11.1860    5.0980  -58.8710 C   0  0  0  0  0  0  0  0  0  0  0  0
   11.2900    5.9410  -59.7650 O   0  0  0  0  0  0  0  0  0  0  0  0
   12.2300    4.2730  -58.4830 N   0  0  0  0  0  0  0  0  0  0  0  0
   13.4360    4.2670  -59.3080 C   0  0  0  0  0  0  0  0  0  0  0  0
   12.1060    3.1520  -57.5590 C   0  0  0  0  0  0  0  0  0  0  0  0
    8.7940    1.8020  -56.4020 C   0  0  0  0  0  0  0  0  0  0  0  0
    9.2770    0.7710  -55.5780 C   0  0  0  0  0  0  0  0  0  0  0  0
    7.6335   -2.5976  -52.9402 H   0  0  0  0  0  0  0  0  0  0  0  0
    6.8942   -2.0689  -54.4896 H   0  0  0  0  0  0  0  0  0  0  0  0
    8.1779   -3.3254  -54.4896 H   0  0  0  0  0  0  0  0  0  0  0  0
    9.1236   -0.8854  -53.1572 H   0  0  0  0  0  0  0  0  0  0  0  0
   10.9410   -1.6230  -54.1730 H   0  0  0  0  0  0  0  0  0  0  0  0
   10.2580   -1.5980  -55.6650 H   0  0  0  0  0  0  0  0  0  0  0  0
   10.4092   -3.8333  -53.7654 H   0  0  0  0  0  0  0  0  0  0  0  0
    9.0877   -3.7619  -55.0124 H   0  0  0  0  0  0  0  0  0  0  0  0
   10.8952   -2.3232  -57.1699 H   0  0  0  0  0  0  0  0  0  0  0  0
   12.3180   -2.2647  -56.0593 H   0  0  0  0  0  0  0  0  0  0  0  0
   13.0241   -2.7205  -58.4074 H   0  0  0  0  0  0  0  0  0  0  0  0
   14.3462   -4.7825  -57.9160 H   0  0  0  0  0  0  0  0  0  0  0  0
   14.3052   -3.6859  -56.4886 H   0  0  0  0  0  0  0  0  0  0  0  0
   13.9057   -6.0594  -55.8168 H   0  0  0  0  0  0  0  0  0  0  0  0
   12.8890   -6.8259  -57.9601 H   0  0  0  0  0  0  0  0  0  0  0  0
   11.8072   -7.1829  -56.5665 H   0  0  0  0  0  0  0  0  0  0  0  0
   10.5248   -6.2294  -58.4854 H   0  0  0  0  0  0  0  0  0  0  0  0
   12.3775   -4.8817  -59.4679 H   0  0  0  0  0  0  0  0  0  0  0  0
   10.9315   -3.8587  -59.1460 H   0  0  0  0  0  0  0  0  0  0  0  0
    9.4359   -4.3761  -57.2196 H   0  0  0  0  0  0  0  0  0  0  0  0
    9.8233   -5.7718  -56.1364 H   0  0  0  0  0  0  0  0  0  0  0  0
   11.7737   -5.6631  -54.5814 H   0  0  0  0  0  0  0  0  0  0  0  0
   12.8252   -4.1950  -54.5617 H   0  0  0  0  0  0  0  0  0  0  0  0
    6.3081   -0.6192  -54.6613 H   0  0  0  0  0  0  0  0  0  0  0  0
    5.4650    1.2077  -56.1116 H   0  0  0  0  0  0  0  0  0  0  0  0
    5.2442    1.6356  -58.1155 H   0  0  0  0  0  0  0  0  0  0  0  0
    4.7830    3.2270  -58.2483 H   0  0  0  0  0  0  0  0  0  0  0  0
    6.9411    1.6723  -59.9206 H   0  0  0  0  0  0  0  0  0  0  0  0
    6.1989    3.0046  -60.5573 H   0  0  0  0  0  0  0  0  0  0  0  0
    8.6420    3.3751  -58.9131 H   0  0  0  0  0  0  0  0  0  0  0  0
    6.8995    5.2290  -59.7662 H   0  0  0  0  0  0  0  0  0  0  0  0
    6.8564    5.3074  -57.9375 H   0  0  0  0  0  0  0  0  0  0  0  0
    8.5440    6.6250  -58.3360 H   0  0  0  0  0  0  0  0  0  0  0  0
    9.0050    5.9330  -59.7720 H   0  0  0  0  0  0  0  0  0  0  0  0
   10.0232    5.5549  -57.1229 H   0  0  0  0  0  0  0  0  0  0  0  0
    9.6008    3.9938  -57.9693 H   0  0  0  0  0  0  0  0  0  0  0  0
   14.3242    4.2626  -58.6590 H   0  0  0  0  0  0  0  0  0  0  0  0
   13.4414    3.3688  -59.9430 H   0  0  0  0  0  0  0  0  0  0  0  0
   13.4503    5.1651  -59.9430 H   0  0  0  0  0  0  0  0  0  0  0  0
   12.1471    3.5234  -56.5244 H   0  0  0  0  0  0  0  0  0  0  0  0
   11.1460    2.6422  -57.7277 H   0  0  0  0  0  0  0  0  0  0  0  0
   12.9314    2.4447  -57.7277 H   0  0  0  0  0  0  0  0  0  0  0  0
    9.5051    2.5052  -56.8601 H   0  0  0  0  0  0  0  0  0  0  0  0
   10.3598    0.6746  -55.4099 H   0  0  0  0  0  0  0  0  0  0  0  0
  1  2  1  0
  2  3  1  0
  3  4  1  0
  5  4  1  1
  5  6  1  0
  6  7  1  0
  7  8  1  0
  8  9  1  0
  9 10  1  0
 10 11  1  0
 11 12  1  0
 11 13  1  0
  9 14  1  0
  2 15  1  0
 15 16  1  0
 16 17  2  0
 17 18  1  0
 18 19  1  0
 19 20  1  0
 20 21  1  0
 21 22  1  0
 22 23  1  0
 23 24  1  0
 24 25  1  0
 25 26  1  0
 26 27  2  0
 26 28  1  0
 28 29  1  0
 28 30  1  0
 18 31  2  0
 31 32  1  0
 13  5  1  0
 32 15  2  0
 14  5  1  0
 22 19  1  0
 12  7  1  0
  1 33  1  0
  1 34  1  0
  1 35  1  0
  2 36  1  1
  3 37  1  0
  3 38  1  0
  4 39  1  0
  4 40  1  0
  6 41  1  0
  6 42  1  0
  7 43  1  6
  8 44  1  0
  8 45  1  0
  9 46  1  1
 10 47  1  0
 10 48  1  0
 11 49  1  6
 12 50  1  0
 12 51  1  0
 13 52  1  0
 13 53  1  0
 14 54  1  0
 14 55  1  0
 16 56  1  0
 17 57  1  0
 20 58  1  0
 20 59  1  0
 21 60  1  0
 21 61  1  0
 22 62  1  1
 23 63  1  0
 23 64  1  0
 24 65  1  0
 24 66  1  0
 25 67  1  0
 25 68  1  0
 29 69  1  0
 29 70  1  0
 29 71  1  0
 30 72  1  0
 30 73  1  0
 30 74  1  0
 31 75  1  0
 32 76  1  0
M  CHG  2   3   1  24   1
M  END
>  <meeko>  (75) 
{"is_sidechain": false}

$$$$

     RDKit          3D

 67 72  0  0  0  0  0  0  0  0999 V2000
    6.6760   -0.1170  -53.4390 C   0  0  0  0  0  0  0  0  0  0  0  0
    7.9920   -0.5870  -53.9640 C   0  0  0  0  0  0  0  0  0  0  0  0
    8.7510    0.0490  -55.0070 C   0  0  0  0  0  0  0  0  0  0  0  0
    8.3870    1.2580  -55.7560 C   0  0  0  0  0  0  0  0  0  0  0  0
    7.2560    1.4520  -56.1900 O   0  0  0  0  0  0  0  0  0  0  0  0
    9.4120    2.1710  -55.9100 N   0  0  0  0  0  0  0  0  0  0  0  0
    9.1560    3.4780  -56.4790 C   0  0  0  0  0  0  0  0  0  0  0  0
   10.0620    3.8230  -57.6800 C   0  0  2  0  0  0  0  0  0  0  0  0
   10.0580    2.6870  -58.7350 C   0  0  0  0  0  0  0  0  0  0  0  0
   10.9300    3.0680  -59.9460 C   0  0  1  0  0  0  0  0  0  0  0  0
   10.3740    4.3500  -60.5870 C   0  0  0  0  0  0  0  0  0  0  0  0
   10.3930    5.4990  -59.5660 C   0  0  2  0  0  0  0  0  0  0  0  0
   11.8360    5.7400  -59.0970 C   0  0  0  0  0  0  0  0  0  0  0  0
   12.3980    4.4660  -58.4490 C   0  0  2  0  0  0  0  0  0  0  0  0
   12.3710    3.3200  -59.4730 C   0  0  0  0  0  0  0  0  0  0  0  0
   11.5260    4.0840  -57.2390 C   0  0  0  0  0  0  0  0  0  0  0  0
    9.5270    5.1130  -58.3560 C   0  0  0  0  0  0  0  0  0  0  0  0
    9.8860   -0.7260  -55.1820 C   0  0  0  0  0  0  0  0  0  0  0  0
    9.8580   -1.7690  -54.2870 N   0  0  0  0  0  0  0  0  0  0  0  0
   10.8790   -2.8150  -54.2280 C   0  0  0  0  0  0  0  0  0  0  0  0
   11.1550   -3.4360  -55.5760 C   0  0  0  0  0  0  0  0  0  0  0  0
   10.8220   -4.7780  -55.8160 C   0  0  0  0  0  0  0  0  0  0  0  0
   11.0630   -5.3580  -57.0630 C   0  0  0  0  0  0  0  0  0  0  0  0
   11.6350   -4.6050  -58.0840 C   0  0  0  0  0  0  0  0  0  0  0  0
   11.9650   -3.2690  -57.8620 C   0  0  0  0  0  0  0  0  0  0  0  0
   11.7250   -2.6870  -56.6160 C   0  0  0  0  0  0  0  0  0  0  0  0
    8.6990   -1.7100  -53.5420 C   0  0  0  0  0  0  0  0  0  0  0  0
    8.3460   -2.6850  -52.5140 C   0  0  0  0  0  0  0  0  0  0  0  0
    7.4300   -3.7040  -52.7940 C   0  0  0  0  0  0  0  0  0  0  0  0
    7.0940   -4.6370  -51.8110 C   0  0  0  0  0  0  0  0  0  0  0  0
    7.6690   -4.5510  -50.5430 C   0  0  0  0  0  0  0  0  0  0  0  0
    8.5770   -3.5320  -50.2560 C   0  0  0  0  0  0  0  0  0  0  0  0
    8.9120   -2.5980  -51.2380 C   0  0  0  0  0  0  0  0  0  0  0  0
    6.6962   -0.1242  -52.3392 H   0  0  0  0  0  0  0  0  0  0  0  0
    6.4831    0.9056  -53.7955 H   0  0  0  0  0  0  0  0  0  0  0  0
    5.8789   -0.7860  -53.7955 H   0  0  0  0  0  0  0  0  0  0  0  0
   10.1970    2.0630  -55.2860 H   0  0  0  0  0  0  0  0  0  0  0  0
    8.1087    3.5114  -56.8138 H   0  0  0  0  0  0  0  0  0  0  0  0
    9.3706    4.2171  -55.6931 H   0  0  0  0  0  0  0  0  0  0  0  0
   10.4551    1.7684  -58.2784 H   0  0  0  0  0  0  0  0  0  0  0  0
    9.0255    2.5260  -59.0784 H   0  0  0  0  0  0  0  0  0  0  0  0
   10.9197    2.2513  -60.6828 H   0  0  0  0  0  0  0  0  0  0  0  0
   10.9942    4.6225  -61.4537 H   0  0  0  0  0  0  0  0  0  0  0  0
    9.3380    4.1718  -60.9109 H   0  0  0  0  0  0  0  0  0  0  0  0
    9.9978    6.4140  -60.0315 H   0  0  0  0  0  0  0  0  0  0  0  0
   12.4588    6.0142  -59.9612 H   0  0  0  0  0  0  0  0  0  0  0  0
   11.8439    6.5545  -58.3577 H   0  0  0  0  0  0  0  0  0  0  0  0
   13.4323    4.6448  -58.1199 H   0  0  0  0  0  0  0  0  0  0  0  0
   12.9957    3.5896  -60.3373 H   0  0  0  0  0  0  0  0  0  0  0  0
   12.7599    2.4059  -59.0007 H   0  0  0  0  0  0  0  0  0  0  0  0
   11.9314    3.1728  -56.7749 H   0  0  0  0  0  0  0  0  0  0  0  0
   11.5359    4.9155  -56.5189 H   0  0  0  0  0  0  0  0  0  0  0  0
    9.5424    5.9352  -57.6254 H   0  0  0  0  0  0  0  0  0  0  0  0
    8.5003    4.9269  -58.7042 H   0  0  0  0  0  0  0  0  0  0  0  0
   10.6812   -0.5372  -55.9182 H   0  0  0  0  0  0  0  0  0  0  0  0
   11.8118   -2.3751  -53.8455 H   0  0  0  0  0  0  0  0  0  0  0  0
   10.5030   -3.6096  -53.5667 H   0  0  0  0  0  0  0  0  0  0  0  0
   10.3670   -5.3784  -55.0144 H   0  0  0  0  0  0  0  0  0  0  0  0
   10.8004   -6.4116  -57.2386 H   0  0  0  0  0  0  0  0  0  0  0  0
   11.8265   -5.0636  -59.0653 H   0  0  0  0  0  0  0  0  0  0  0  0
   12.4150   -2.6727  -58.6694 H   0  0  0  0  0  0  0  0  0  0  0  0
   11.9852   -1.6315  -56.4483 H   0  0  0  0  0  0  0  0  0  0  0  0
    6.9726   -3.7707  -53.7922 H   0  0  0  0  0  0  0  0  0  0  0  0
    6.3762   -5.4395  -52.0364 H   0  0  0  0  0  0  0  0  0  0  0  0
    7.4062   -5.2872  -49.7691 H   0  0  0  0  0  0  0  0  0  0  0  0
    9.0293   -3.4642  -49.2556 H   0  0  0  0  0  0  0  0  0  0  0  0
    9.6233   -1.7912  -51.0075 H   0  0  0  0  0  0  0  0  0  0  0  0
  1  2  1  0
  2  3  1  0
  3  4  1  0
  4  5  2  0
  4  6  1  0
  6  7  1  0
  8  7  1  1
  8  9  1  0
  9 10  1  0
 10 11  1  0
 11 12  1  0
 12 13  1  0
 13 14  1  0
 14 15  1  0
 14 16  1  0
 12 17  1  0
  3 18  2  0
 18 19  1  0
 19 20  1  0
 20 21  1  0
 21 22  2  0
 22 23  1  0
 23 24  2  0
 24 25  1  0
 25 26  2  0
 19 27  1  0
 27 28  1  0
 28 29  2  0
 29 30  1  0
 30 31  2  0
 31 32  1  0
 32 33  2  0
 27  2  2  0
 33 28  1  0
 16  8  1  0
 26 21  1  0
 17  8  1  0
 15 10  1  0
  1 34  1  0
  1 35  1  0
  1 36  1  0
  6 37  1  0
  7 38  1  0
  7 39  1  0
  9 40  1  0
  9 41  1  0
 10 42  1  6
 11 43  1  0
 11 44  1  0
 12 45  1  6
 13 46  1  0
 13 47  1  0
 14 48  1  1
 15 49  1  0
 15 50  1  0
 16 51  1  0
 16 52  1  0
 17 53  1  0
 17 54  1  0
 18 55  1  0
 20 56  1  0
 20 57  1  0
 22 58  1  0
 23 59  1  0
 24 60  1  0
 25 61  1  0
 26 62  1  0
 29 63  1  0
 30 64  1  0
 31 65  1  0
 32 66  1  0
 33 67  1  0
M  END
>  <meeko>  (76) 
{"is_sidechain": false}

$$$$

     RDKit          3D

 67 72  0  0  0  0  0  0  0  0999 V2000
    5.6720   -0.5660  -53.5440 C   0  0  0  0  0  0  0  0  0  0  0  0
    7.0960   -0.6500  -53.9810 C   0  0  0  0  0  0  0  0  0  0  0  0
    7.7400    0.1430  -54.9940 C   0  0  0  0  0  0  0  0  0  0  0  0
    7.2360    1.2460  -55.8150 C   0  0  0  0  0  0  0  0  0  0  0  0
    6.0400    1.3970  -56.0440 O   0  0  0  0  0  0  0  0  0  0  0  0
    8.2160    2.0560  -56.3430 N   0  0  0  0  0  0  0  0  0  0  0  0
    7.9200    3.1780  -57.2080 C   0  0  0  0  0  0  0  0  0  0  0  0
    9.1320    3.6410  -58.0450 C   0  0  2  0  0  0  0  0  0  0  0  0
    8.7880    4.8780  -58.9130 C   0  0  0  0  0  0  0  0  0  0  0  0
    9.9980    5.2960  -59.7680 C   0  0  1  0  0  0  0  0  0  0  0  0
   11.1760    5.6380  -58.8410 C   0  0  0  0  0  0  0  0  0  0  0  0
   11.5530    4.4120  -57.9930 C   0  0  2  0  0  0  0  0  0  0  0  0
   11.9440    3.2530  -58.9230 C   0  0  0  0  0  0  0  0  0  0  0  0
   10.7680    2.9010  -59.8480 C   0  0  2  0  0  0  0  0  0  0  0  0
   10.3970    4.1320  -60.6880 C   0  0  0  0  0  0  0  0  0  0  0  0
    9.5590    2.4880  -58.9920 C   0  0  0  0  0  0  0  0  0  0  0  0
   10.3410    3.9930  -57.1410 C   0  0  0  0  0  0  0  0  0  0  0  0
    9.0220   -0.3580  -55.1190 C   0  0  0  0  0  0  0  0  0  0  0  0
    9.2100   -1.3510  -54.1940 N   0  0  0  0  0  0  0  0  0  0  0  0
   10.4580   -2.0980  -54.0460 C   0  0  0  0  0  0  0  0  0  0  0  0
   10.8130   -2.8750  -55.2920 C   0  0  0  0  0  0  0  0  0  0  0  0
   10.4020   -4.2110  -55.4330 C   0  0  0  0  0  0  0  0  0  0  0  0
   10.7250   -4.9340  -56.5820 C   0  0  0  0  0  0  0  0  0  0  0  0
   11.4550   -4.3230  -57.5940 C   0  0  0  0  0  0  0  0  0  0  0  0
   11.7660   -5.0190  -58.6950 F   0  0  0  0  0  0  0  0  0  0  0  0
   11.8660   -3.0020  -57.4800 C   0  0  0  0  0  0  0  0  0  0  0  0
   11.5460   -2.2760  -56.3320 C   0  0  0  0  0  0  0  0  0  0  0  0
    8.0380   -1.5550  -53.4940 C   0  0  0  0  0  0  0  0  0  0  0  0
    7.8840   -2.5660  -52.4490 C   0  0  0  0  0  0  0  0  0  0  0  0
    8.1580   -2.2500  -51.1150 C   0  0  0  0  0  0  0  0  0  0  0  0
    8.0070   -3.2180  -50.1190 C   0  0  0  0  0  0  0  0  0  0  0  0
    7.5860   -4.5050  -50.4560 C   0  0  0  0  0  0  0  0  0  0  0  0
    7.3200   -4.8260  -51.7870 C   0  0  0  0  0  0  0  0  0  0  0  0
    7.4710   -3.8600  -52.7820 C   0  0  0  0  0  0  0  0  0  0  0  0
    5.6253   -0.5632  -52.4450 H   0  0  0  0  0  0  0  0  0  0  0  0
    5.2233    0.3602  -53.9324 H   0  0  0  0  0  0  0  0  0  0  0  0
    5.1175   -1.4330  -53.9324 H   0  0  0  0  0  0  0  0  0  0  0  0
    9.1770    1.7680  -56.2350 H   0  0  0  0  0  0  0  0  0  0  0  0
    7.1125    2.8854  -57.8953 H   0  0  0  0  0  0  0  0  0  0  0  0
    7.6300    4.0196  -56.5618 H   0  0  0  0  0  0  0  0  0  0  0  0
    7.9455    4.6311  -59.5758 H   0  0  0  0  0  0  0  0  0  0  0  0
    8.5190    5.7125  -58.2487 H   0  0  0  0  0  0  0  0  0  0  0  0
    9.7369    6.1740  -60.3770 H   0  0  0  0  0  0  0  0  0  0  0  0
   12.0416    5.9403  -59.4488 H   0  0  0  0  0  0  0  0  0  0  0  0
   10.8821    6.4614  -58.1735 H   0  0  0  0  0  0  0  0  0  0  0  0
   12.3996    4.6613  -57.3364 H   0  0  0  0  0  0  0  0  0  0  0  0
   12.8100    3.5512  -59.5322 H   0  0  0  0  0  0  0  0  0  0  0  0
   12.2007    2.3731  -58.3148 H   0  0  0  0  0  0  0  0  0  0  0  0
   11.0536    2.0725  -60.5128 H   0  0  0  0  0  0  0  0  0  0  0  0
   11.2620    4.4304  -61.2985 H   0  0  0  0  0  0  0  0  0  0  0  0
    9.5481    3.8808  -61.3408 H   0  0  0  0  0  0  0  0  0  0  0  0
    8.7179    2.2357  -59.6545 H   0  0  0  0  0  0  0  0  0  0  0  0
    9.8412    1.6176  -58.3814 H   0  0  0  0  0  0  0  0  0  0  0  0
   10.6099    3.1128  -56.5386 H   0  0  0  0  0  0  0  0  0  0  0  0
   10.0613    4.8319  -56.4867 H   0  0  0  0  0  0  0  0  0  0  0  0
    9.7725   -0.0140  -55.8460 H   0  0  0  0  0  0  0  0  0  0  0  0
   11.2705   -1.3894  -53.8276 H   0  0  0  0  0  0  0  0  0  0  0  0
   10.3229   -2.8196  -53.2268 H   0  0  0  0  0  0  0  0  0  0  0  0
    9.8211   -4.6908  -54.6315 H   0  0  0  0  0  0  0  0  0  0  0  0
   10.4037   -5.9809  -56.6858 H   0  0  0  0  0  0  0  0  0  0  0  0
   12.4409   -2.5300  -58.2903 H   0  0  0  0  0  0  0  0  0  0  0  0
   11.8691   -1.2286  -56.2400 H   0  0  0  0  0  0  0  0  0  0  0  0
    8.4933   -1.2367  -50.8489 H   0  0  0  0  0  0  0  0  0  0  0  0
    8.2199   -2.9658  -49.0697 H   0  0  0  0  0  0  0  0  0  0  0  0
    7.4639   -5.2666  -49.6717 H   0  0  0  0  0  0  0  0  0  0  0  0
    6.9909   -5.8415  -52.0523 H   0  0  0  0  0  0  0  0  0  0  0  0
    7.2646   -4.1168  -53.8315 H   0  0  0  0  0  0  0  0  0  0  0  0
  1  2  1  0
  2  3  1  0
  3  4  1  0
  4  5  2  0
  4  6  1  0
  6  7  1  0
  8  7  1  1
  8  9  1  0
  9 10  1  0
 10 11  1  0
 11 12  1  0
 12 13  1  0
 13 14  1  0
 14 15  1  0
 14 16  1  0
 12 17  1  0
  3 18  2  0
 18 19  1  0
 19 20  1  0
 20 21  1  0
 21 22  1  0
 22 23  2  0
 23 24  1  0
 24 25  1  0
 24 26  2  0
 26 27  1  0
 19 28  1  0
 28 29  1  0
 29 30  2  0
 30 31  1  0
 31 32  2  0
 32 33  1  0
 33 34  2  0
 28  2  2  0
 34 29  1  0
 16  8  1  0
 27 21  2  0
 17  8  1  0
 15 10  1  0
  1 35  1  0
  1 36  1  0
  1 37  1  0
  6 38  1  0
  7 39  1  0
  7 40  1  0
  9 41  1  0
  9 42  1  0
 10 43  1  6
 11 44  1  0
 11 45  1  0
 12 46  1  1
 13 47  1  0
 13 48  1  0
 14 49  1  6
 15 50  1  0
 15 51  1  0
 16 52  1  0
 16 53  1  0
 17 54  1  0
 17 55  1  0
 18 56  1  0
 20 57  1  0
 20 58  1  0
 22 59  1  0
 23 60  1  0
 26 61  1  0
 27 62  1  0
 30 63  1  0
 31 64  1  0
 32 65  1  0
 33 66  1  0
 34 67  1  0
M  END
>  <meeko>  (77) 
{"is_sidechain": false}

$$$$

     RDKit          3D

 47 51  0  0  0  0  0  0  0  0999 V2000
    5.9030    0.8190  -55.7100 O   0  0  0  0  0  0  0  0  0  0  0  0
    7.1070    0.7050  -55.5030 C   0  0  0  0  0  0  0  0  0  0  0  0
    8.0490    1.4420  -56.1930 N   0  0  0  0  0  0  0  0  0  0  0  0
    7.6750    2.4280  -57.1890 C   0  0  0  0  0  0  0  0  0  0  0  0
    8.8720    3.1540  -57.8450 C   0  0  2  0  0  0  0  0  0  0  0  0
   10.1750    2.3980  -57.4660 C   0  0  0  0  0  0  0  0  0  0  0  0
   11.4060    3.0810  -58.0840 C   0  0  1  0  0  0  0  0  0  0  0  0
   11.2600    3.0960  -59.6140 C   0  0  0  0  0  0  0  0  0  0  0  0
    9.9920    3.8660  -60.0130 C   0  0  2  0  0  0  0  0  0  0  0  0
   10.0880    5.3080  -59.4870 C   0  0  0  0  0  0  0  0  0  0  0  0
   10.2280    5.3020  -57.9560 C   0  0  2  0  0  0  0  0  0  0  0  0
   11.4950    4.5250  -57.5660 C   0  0  0  0  0  0  0  0  0  0  0  0
    8.9980    4.6140  -57.3370 C   0  0  0  0  0  0  0  0  0  0  0  0
    8.7620    3.1810  -59.3910 C   0  0  0  0  0  0  0  0  0  0  0  0
    7.6510   -0.1850  -54.5010 C   0  0  0  0  0  0  0  0  0  0  0  0
    8.9020   -0.7800  -54.4910 C   0  0  0  0  0  0  0  0  0  0  0  0
    9.0210   -1.5720  -53.3180 C   0  0  0  0  0  0  0  0  0  0  0  0
   10.0320   -2.3970  -52.7890 C   0  0  0  0  0  0  0  0  0  0  0  0
    9.8150   -3.0460  -51.5680 C   0  0  0  0  0  0  0  0  0  0  0  0
    8.6160   -2.8790  -50.8770 C   0  0  0  0  0  0  0  0  0  0  0  0
    7.6010   -2.0610  -51.3820 C   0  0  0  0  0  0  0  0  0  0  0  0
    7.8320   -1.4250  -52.6070 C   0  0  0  0  0  0  0  0  0  0  0  0
    7.0330   -0.5710  -53.3310 N   0  0  0  0  0  0  0  0  0  0  0  0
    8.9950    1.4690  -55.8470 H   0  0  0  0  0  0  0  0  0  0  0  0
    7.1046    1.9194  -57.9802 H   0  0  0  0  0  0  0  0  0  0  0  0
    7.0876    3.1972  -56.6663 H   0  0  0  0  0  0  0  0  0  0  0  0
   10.2803    2.3886  -56.3711 H   0  0  0  0  0  0  0  0  0  0  0  0
   10.1109    1.3711  -57.8550 H   0  0  0  0  0  0  0  0  0  0  0  0
   12.3172    2.5315  -57.8051 H   0  0  0  0  0  0  0  0  0  0  0  0
   12.1388    3.5856  -60.0590 H   0  0  0  0  0  0  0  0  0  0  0  0
   11.1844    2.0614  -59.9798 H   0  0  0  0  0  0  0  0  0  0  0  0
    9.8954    3.8754  -61.1087 H   0  0  0  0  0  0  0  0  0  0  0  0
   10.9661    5.7998  -59.9310 H   0  0  0  0  0  0  0  0  0  0  0  0
    9.1742    5.8544  -59.7635 H   0  0  0  0  0  0  0  0  0  0  0  0
   10.2994    6.3354  -57.5858 H   0  0  0  0  0  0  0  0  0  0  0  0
   12.3743    5.0168  -58.0074 H   0  0  0  0  0  0  0  0  0  0  0  0
   11.5868    4.5105  -56.4699 H   0  0  0  0  0  0  0  0  0  0  0  0
    9.1010    4.6075  -56.2419 H   0  0  0  0  0  0  0  0  0  0  0  0
    8.0961    5.1700  -57.6325 H   0  0  0  0  0  0  0  0  0  0  0  0
    7.8563    3.7350  -59.6788 H   0  0  0  0  0  0  0  0  0  0  0  0
    8.7100    2.1459  -59.7596 H   0  0  0  0  0  0  0  0  0  0  0  0
    9.6754   -0.6591  -55.2638 H   0  0  0  0  0  0  0  0  0  0  0  0
   10.9811   -2.5299  -53.3289 H   0  0  0  0  0  0  0  0  0  0  0  0
   10.5987   -3.6945  -51.1494 H   0  0  0  0  0  0  0  0  0  0  0  0
    8.4661   -3.3990  -49.9193 H   0  0  0  0  0  0  0  0  0  0  0  0
    6.6558   -1.9224  -50.8367 H   0  0  0  0  0  0  0  0  0  0  0  0
    6.1310   -0.2440  -53.0200 H   0  0  0  0  0  0  0  0  0  0  0  0
  1  2  2  0
  2  3  1  0
  3  4  1  0
  5  4  1  1
  5  6  1  0
  6  7  1  0
  7  8  1  0
  8  9  1  0
  9 10  1  0
 10 11  1  0
 11 12  1  0
 11 13  1  0
  9 14  1  0
  2 15  1  0
 15 16  2  0
 16 17  1  0
 17 18  2  0
 18 19  1  0
 19 20  2  0
 20 21  1  0
 21 22  2  0
 22 23  1  0
 13  5  1  0
 23 15  1  0
 14  5  1  0
 22 17  1  0
 12  7  1  0
  3 24  1  0
  4 25  1  0
  4 26  1  0
  6 27  1  0
  6 28  1  0
  7 29  1  6
  8 30  1  0
  8 31  1  0
  9 32  1  6
 10 33  1  0
 10 34  1  0
 11 35  1  1
 12 36  1  0
 12 37  1  0
 13 38  1  0
 13 39  1  0
 14 40  1  0
 14 41  1  0
 16 42  1  0
 18 43  1  0
 19 44  1  0
 20 45  1  0
 21 46  1  0
 23 47  1  0
M  END
>  <meeko>  (78) 
{"is_sidechain": false}

$$$$

     RDKit          3D

 67 72  0  0  0  0  0  0  0  0999 V2000
   12.6420   -5.8320  -56.4750 C   0  0  0  0  0  0  0  0  0  0  0  0
   12.6430   -5.2230  -55.1900 O   0  0  0  0  0  0  0  0  0  0  0  0
   11.6640   -4.3010  -54.9430 C   0  0  0  0  0  0  0  0  0  0  0  0
   10.5980   -4.3210  -55.8420 C   0  0  0  0  0  0  0  0  0  0  0  0
    9.5230   -3.4320  -55.7130 C   0  0  0  0  0  0  0  0  0  0  0  0
    9.5040   -2.4930  -54.6790 C   0  0  0  0  0  0  0  0  0  0  0  0
    8.4320   -1.5570  -54.4930 N   0  0  0  0  0  0  0  0  0  0  0  0
    8.1980   -0.6490  -55.4820 N   0  0  0  0  0  0  0  0  0  0  0  0
    7.2460    0.1720  -55.0090 C   0  0  0  0  0  0  0  0  0  0  0  0
    6.7810    1.3240  -55.8060 C   0  0  0  0  0  0  0  0  0  0  0  0
    5.5990    1.5450  -56.0510 O   0  0  0  0  0  0  0  0  0  0  0  0
    7.8170    2.1170  -56.2550 N   0  0  0  0  0  0  0  0  0  0  0  0
    7.6190    3.1660  -57.2270 C   0  0  0  0  0  0  0  0  0  0  0  0
    8.9030    3.5720  -57.9760 C   0  0  2  0  0  0  0  0  0  0  0  0
    9.4520    2.4110  -58.8440 C   0  0  0  0  0  0  0  0  0  0  0  0
   10.7100    2.8540  -59.6120 C   0  0  1  0  0  0  0  0  0  0  0  0
   10.3570    4.0380  -60.5260 C   0  0  0  0  0  0  0  0  0  0  0  0
    9.8330    5.2120  -59.6850 C   0  0  2  0  0  0  0  0  0  0  0  0
   10.9160    5.6410  -58.6810 C   0  0  0  0  0  0  0  0  0  0  0  0
   11.2710    4.4660  -57.7580 C   0  0  2  0  0  0  0  0  0  0  0  0
   11.7880    3.2930  -58.6070 C   0  0  0  0  0  0  0  0  0  0  0  0
   10.0140    4.0210  -56.9910 C   0  0  0  0  0  0  0  0  0  0  0  0
    8.5790    4.7640  -58.9160 C   0  0  0  0  0  0  0  0  0  0  0  0
    6.7860   -0.2540  -53.7380 C   0  0  0  0  0  0  0  0  0  0  0  0
    5.6980    0.3750  -52.9400 C   0  0  0  0  0  0  0  0  0  0  0  0
    7.5370   -1.3850  -53.4330 C   0  0  0  0  0  0  0  0  0  0  0  0
    7.3740   -2.2630  -52.2780 C   0  0  0  0  0  0  0  0  0  0  0  0
    7.9720   -1.9380  -51.0540 C   0  0  0  0  0  0  0  0  0  0  0  0
    7.8280   -2.7860  -49.9540 C   0  0  0  0  0  0  0  0  0  0  0  0
    7.0960   -3.9670  -50.0750 C   0  0  0  0  0  0  0  0  0  0  0  0
    6.5110   -4.3050  -51.2940 C   0  0  0  0  0  0  0  0  0  0  0  0
    6.6530   -3.4580  -52.3960 C   0  0  0  0  0  0  0  0  0  0  0  0
   10.5740   -2.4880  -53.7670 C   0  0  0  0  0  0  0  0  0  0  0  0
   11.6470   -3.3800  -53.8990 C   0  0  0  0  0  0  0  0  0  0  0  0
   12.6402   -6.9262  -56.3622 H   0  0  0  0  0  0  0  0  0  0  0  0
   11.7444   -5.5190  -57.0284 H   0  0  0  0  0  0  0  0  0  0  0  0
   13.5407   -5.5219  -57.0284 H   0  0  0  0  0  0  0  0  0  0  0  0
   10.6013   -5.0481  -56.6674 H   0  0  0  0  0  0  0  0  0  0  0  0
    8.6896   -3.4736  -56.4297 H   0  0  0  0  0  0  0  0  0  0  0  0
    8.7360    1.7100  -56.1020 H   0  0  0  0  0  0  0  0  0  0  0  0
    6.8817    2.8191  -57.9660 H   0  0  0  0  0  0  0  0  0  0  0  0
    7.2768    4.0535  -56.6745 H   0  0  0  0  0  0  0  0  0  0  0  0
    9.7069    1.5622  -58.1924 H   0  0  0  0  0  0  0  0  0  0  0  0
    8.6799    2.1163  -59.5699 H   0  0  0  0  0  0  0  0  0  0  0  0
   11.0868    2.0178  -60.2193 H   0  0  0  0  0  0  0  0  0  0  0  0
   11.2560    4.3555  -61.0747 H   0  0  0  0  0  0  0  0  0  0  0  0
    9.5774    3.7261  -61.2366 H   0  0  0  0  0  0  0  0  0  0  0  0
    9.5830    6.0568  -60.3437 H   0  0  0  0  0  0  0  0  0  0  0  0
   11.8154    5.9586  -59.2288 H   0  0  0  0  0  0  0  0  0  0  0  0
   10.5354    6.4753  -58.0736 H   0  0  0  0  0  0  0  0  0  0  0  0
   12.0473    4.7790  -57.0443 H   0  0  0  0  0  0  0  0  0  0  0  0
   12.6886    3.6087  -59.1540 H   0  0  0  0  0  0  0  0  0  0  0  0
   12.0295    2.4481  -57.9454 H   0  0  0  0  0  0  0  0  0  0  0  0
   10.2725    3.1804  -56.3303 H   0  0  0  0  0  0  0  0  0  0  0  0
    9.6410    4.8699  -56.3992 H   0  0  0  0  0  0  0  0  0  0  0  0
    8.2052    5.6058  -58.3146 H   0  0  0  0  0  0  0  0  0  0  0  0
    7.8174    4.4427  -59.6417 H   0  0  0  0  0  0  0  0  0  0  0  0
    5.9113    0.2517  -51.8679 H   0  0  0  0  0  0  0  0  0  0  0  0
    5.6389    1.4466  -53.1812 H   0  0  0  0  0  0  0  0  0  0  0  0
    4.7399   -0.1085  -53.1812 H   0  0  0  0  0  0  0  0  0  0  0  0
    8.5572   -1.0114  -50.9588 H   0  0  0  0  0  0  0  0  0  0  0  0
    8.2919   -2.5226  -48.9920 H   0  0  0  0  0  0  0  0  0  0  0  0
    6.9802   -4.6327  -49.2070 H   0  0  0  0  0  0  0  0  0  0  0  0
    5.9374   -5.2388  -51.3885 H   0  0  0  0  0  0  0  0  0  0  0  0
    6.1971   -3.7305  -53.3593 H   0  0  0  0  0  0  0  0  0  0  0  0
   10.5689   -1.7700  -52.9336 H   0  0  0  0  0  0  0  0  0  0  0  0
   12.4765   -3.3524  -53.1771 H   0  0  0  0  0  0  0  0  0  0  0  0
  1  2  1  0
  2  3  1  0
  3  4  1  0
  4  5  2  0
  5  6  1  0
  6  7  1  0
  7  8  1  0
  8  9  2  0
  9 10  1  0
 10 11  2  0
 10 12  1  0
 12 13  1  0
 14 13  1  1
 14 15  1  0
 15 16  1  0
 16 17  1  0
 17 18  1  0
 18 19  1  0
 19 20  1  0
 20 21  1  0
 20 22  1  0
 18 23  1  0
  9 24  1  0
 24 25  1  0
 24 26  2  0
 26 27  1  0
 27 28  2  0
 28 29  1  0
 29 30  2  0
 30 31  1  0
 31 32  2  0
  6 33  2  0
 33 34  1  0
 34  3  2  0
 26  7  1  0
 32 27  1  0
 22 14  1  0
 23 14  1  0
 21 16  1  0
  1 35  1  0
  1 36  1  0
  1 37  1  0
  4 38  1  0
  5 39  1  0
 12 40  1  0
 13 41  1  0
 13 42  1  0
 15 43  1  0
 15 44  1  0
 16 45  1  6
 17 46  1  0
 17 47  1  0
 18 48  1  6
 19 49  1  0
 19 50  1  0
 20 51  1  1
 21 52  1  0
 21 53  1  0
 22 54  1  0
 22 55  1  0
 23 56  1  0
 23 57  1  0
 25 58  1  0
 25 59  1  0
 25 60  1  0
 28 61  1  0
 29 62  1  0
 30 63  1  0
 31 64  1  0
 32 65  1  0
 33 66  1  0
 34 67  1  0
M  END
>  <meeko>  (79) 
{"is_sidechain": false}

$$$$

     RDKit          3D

 74 79  0  0  0  0  0  0  0  0999 V2000
    6.7180    0.1940  -53.3840 C   0  0  0  0  0  0  0  0  0  0  0  0
    7.9720   -0.3230  -54.0070 C   0  0  0  0  0  0  0  0  0  0  0  0
    8.6580    0.2810  -55.1200 C   0  0  0  0  0  0  0  0  0  0  0  0
    8.2750    1.5090  -55.8300 C   0  0  0  0  0  0  0  0  0  0  0  0
    7.1930    1.6290  -56.3970 O   0  0  0  0  0  0  0  0  0  0  0  0
    9.2260    2.5080  -55.8280 N   0  0  0  0  0  0  0  0  0  0  0  0
    9.0410    3.7630  -56.5260 C   0  0  0  0  0  0  0  0  0  0  0  0
    9.9910    3.9560  -57.7300 C   0  0  2  0  0  0  0  0  0  0  0  0
    9.8930    2.7840  -58.7390 C   0  0  0  0  0  0  0  0  0  0  0  0
   10.8160    3.0270  -59.9480 C   0  0  1  0  0  0  0  0  0  0  0  0
   10.4030    4.3300  -60.6500 C   0  0  0  0  0  0  0  0  0  0  0  0
   10.5190    5.5120  -59.6740 C   0  0  2  0  0  0  0  0  0  0  0  0
   11.9710    5.6270  -59.1850 C   0  0  0  0  0  0  0  0  0  0  0  0
   12.3920    4.3310  -58.4760 C   0  0  2  0  0  0  0  0  0  0  0  0
   12.2680    3.1540  -59.4570 C   0  0  0  0  0  0  0  0  0  0  0  0
   11.4670    4.0860  -57.2710 C   0  0  0  0  0  0  0  0  0  0  0  0
    9.5980    5.2630  -58.4680 C   0  0  0  0  0  0  0  0  0  0  0  0
    9.7520   -0.5280  -55.3760 C   0  0  0  0  0  0  0  0  0  0  0  0
    9.7700   -1.5600  -54.4680 N   0  0  0  0  0  0  0  0  0  0  0  0
   10.8120   -2.5820  -54.4500 C   0  0  0  0  0  0  0  0  0  0  0  0
   10.8840   -3.4130  -55.7450 C   0  0  0  0  0  0  0  0  0  0  0  0
   11.5370   -4.7750  -55.4770 C   0  0  0  0  0  0  0  0  0  0  0  0
   11.4960   -5.6820  -56.7090 C   0  0  0  0  0  0  0  0  0  0  0  0
   11.4470   -4.9180  -58.0320 C   0  0  0  0  0  0  0  0  0  0  0  0
   12.2020   -3.6000  -57.9480 C   0  0  0  0  0  0  0  0  0  0  0  0
   11.6390   -2.6740  -56.8650 C   0  0  0  0  0  0  0  0  0  0  0  0
    8.6760   -1.4680  -53.6370 C   0  0  0  0  0  0  0  0  0  0  0  0
    8.3700   -2.4200  -52.5700 C   0  0  0  0  0  0  0  0  0  0  0  0
    9.2520   -2.5910  -51.5070 C   0  0  0  0  0  0  0  0  0  0  0  0
    8.9180   -3.5090  -50.5300 C   0  0  0  0  0  0  0  0  0  0  0  0
    7.7830   -4.2430  -50.5400 N   0  0  0  0  0  0  0  0  0  0  0  0
    6.9330   -4.0460  -51.5610 C   0  0  0  0  0  0  0  0  0  0  0  0
    5.7740   -4.8190  -51.5610 N   0  0  0  0  0  0  0  0  0  0  0  0
    7.1850   -3.1550  -52.5920 C   0  0  0  0  0  0  0  0  0  0  0  0
    6.8101    0.1560  -52.2885 H   0  0  0  0  0  0  0  0  0  0  0  0
    6.5522    1.2338  -53.7022 H   0  0  0  0  0  0  0  0  0  0  0  0
    5.8675   -0.4268  -53.7022 H   0  0  0  0  0  0  0  0  0  0  0  0
   10.1240    2.3200  -55.4130 H   0  0  0  0  0  0  0  0  0  0  0  0
    8.0046    3.8062  -56.8922 H   0  0  0  0  0  0  0  0  0  0  0  0
    9.2689    4.5644  -55.8078 H   0  0  0  0  0  0  0  0  0  0  0  0
   10.1916    1.8510  -58.2387 H   0  0  0  0  0  0  0  0  0  0  0  0
    8.8551    2.7108  -59.0959 H   0  0  0  0  0  0  0  0  0  0  0  0
   10.7332    2.1861  -60.6523 H   0  0  0  0  0  0  0  0  0  0  0  0
   11.0627    4.5039  -61.5129 H   0  0  0  0  0  0  0  0  0  0  0  0
    9.3603    4.2427  -60.9894 H   0  0  0  0  0  0  0  0  0  0  0  0
   10.2249    6.4422  -60.1822 H   0  0  0  0  0  0  0  0  0  0  0  0
   12.6324    5.8022  -60.0463 H   0  0  0  0  0  0  0  0  0  0  0  0
   12.0480    6.4662  -58.4780 H   0  0  0  0  0  0  0  0  0  0  0  0
   13.4328    4.4194  -58.1313 H   0  0  0  0  0  0  0  0  0  0  0  0
   12.9297    3.3270  -60.3185 H   0  0  0  0  0  0  0  0  0  0  0  0
   12.5574    2.2251  -58.9438 H   0  0  0  0  0  0  0  0  0  0  0  0
   11.7710    3.1576  -56.7654 H   0  0  0  0  0  0  0  0  0  0  0  0
   11.5493    4.9401  -56.5827 H   0  0  0  0  0  0  0  0  0  0  0  0
    9.6818    6.1093  -57.7704 H   0  0  0  0  0  0  0  0  0  0  0  0
    8.5642    5.1639  -58.8306 H   0  0  0  0  0  0  0  0  0  0  0  0
   10.4887   -0.3703  -56.1775 H   0  0  0  0  0  0  0  0  0  0  0  0
   11.7826   -2.0863  -54.3006 H   0  0  0  0  0  0  0  0  0  0  0  0
   10.5671   -3.2776  -53.6338 H   0  0  0  0  0  0  0  0  0  0  0  0
    9.8504   -3.5695  -56.0874 H   0  0  0  0  0  0  0  0  0  0  0  0
   12.5863   -4.6152  -55.1882 H   0  0  0  0  0  0  0  0  0  0  0  0
   10.9740   -5.2695  -54.6717 H   0  0  0  0  0  0  0  0  0  0  0  0
   12.3966   -6.3135  -56.7056 H   0  0  0  0  0  0  0  0  0  0  0  0
   10.5700   -6.2721  -56.6436 H   0  0  0  0  0  0  0  0  0  0  0  0
   11.8997   -5.5387  -58.8193 H   0  0  0  0  0  0  0  0  0  0  0  0
   10.3943   -4.6965  -58.2617 H   0  0  0  0  0  0  0  0  0  0  0  0
   13.2571   -3.8109  -57.7193 H   0  0  0  0  0  0  0  0  0  0  0  0
   12.0946   -3.0890  -58.9161 H   0  0  0  0  0  0  0  0  0  0  0  0
   12.4754   -2.1210  -56.4127 H   0  0  0  0  0  0  0  0  0  0  0  0
   10.9123   -2.0110  -57.3572 H   0  0  0  0  0  0  0  0  0  0  0  0
   10.1861   -2.0132  -51.4466 H   0  0  0  0  0  0  0  0  0  0  0  0
    9.6180   -3.6512  -49.6935 H   0  0  0  0  0  0  0  0  0  0  0  0
    5.8220   -5.5530  -52.2600 H   0  0  0  0  0  0  0  0  0  0  0  0
    5.0010   -4.1820  -51.7380 H   0  0  0  0  0  0  0  0  0  0  0  0
    6.4635   -3.0297  -53.4128 H   0  0  0  0  0  0  0  0  0  0  0  0
  1  2  1  0
  2  3  1  0
  3  4  1  0
  4  5  2  0
  4  6  1  0
  6  7  1  0
  8  7  1  1
  8  9  1  0
  9 10  1  0
 10 11  1  0
 11 12  1  0
 12 13  1  0
 13 14  1  0
 14 15  1  0
 14 16  1  0
 12 17  1  0
  3 18  2  0
 18 19  1  0
 19 20  1  0
 20 21  1  0
 21 22  1  0
 22 23  1  0
 23 24  1  0
 24 25  1  0
 25 26  1  0
 19 27  1  0
 27 28  1  0
 28 29  2  0
 29 30  1  0
 30 31  2  0
 31 32  1  0
 32 33  1  0
 32 34  2  0
 27  2  2  0
 34 28  1  0
 16  8  1  0
 26 21  1  0
 17  8  1  0
 15 10  1  0
  1 35  1  0
  1 36  1  0
  1 37  1  0
  6 38  1  0
  7 39  1  0
  7 40  1  0
  9 41  1  0
  9 42  1  0
 10 43  1  6
 11 44  1  0
 11 45  1  0
 12 46  1  6
 13 47  1  0
 13 48  1  0
 14 49  1  1
 15 50  1  0
 15 51  1  0
 16 52  1  0
 16 53  1  0
 17 54  1  0
 17 55  1  0
 18 56  1  0
 20 57  1  0
 20 58  1  0
 21 59  1  0
 22 60  1  0
 22 61  1  0
 23 62  1  0
 23 63  1  0
 24 64  1  0
 24 65  1  0
 25 66  1  0
 25 67  1  0
 26 68  1  0
 26 69  1  0
 29 70  1  0
 30 71  1  0
 33 72  1  0
 33 73  1  0
 34 74  1  0
M  END
>  <meeko>  (80) 
{"is_sidechain": false}

$$$$

     RDKit          3D

 74 79  0  0  0  0  0  0  0  0999 V2000
    6.3940    0.3280  -53.9720 C   0  0  0  0  0  0  0  0  0  0  0  0
    7.7480   -0.0080  -54.5010 C   0  0  0  0  0  0  0  0  0  0  0  0
    8.5210    0.7480  -55.4520 C   0  0  0  0  0  0  0  0  0  0  0  0
    8.2470    2.0210  -56.1220 C   0  0  0  0  0  0  0  0  0  0  0  0
    7.2600    2.1910  -56.8310 O   0  0  0  0  0  0  0  0  0  0  0  0
    9.2170    2.9850  -55.9390 N   0  0  0  0  0  0  0  0  0  0  0  0
    9.1760    4.2250  -56.6860 C   0  0  0  0  0  0  0  0  0  0  0  0
   10.1770    4.2780  -57.8570 C   0  0  2  0  0  0  0  0  0  0  0  0
    9.8500    5.5140  -58.7380 C   0  0  0  0  0  0  0  0  0  0  0  0
   10.8260    5.6200  -59.9210 C   0  0  1  0  0  0  0  0  0  0  0  0
   12.2600    5.7500  -59.3830 C   0  0  0  0  0  0  0  0  0  0  0  0
   12.6150    4.5210  -58.5310 C   0  0  2  0  0  0  0  0  0  0  0  0
   12.4980    3.2540  -59.3950 C   0  0  0  0  0  0  0  0  0  0  0  0
   11.0650    3.1140  -59.9350 C   0  0  2  0  0  0  0  0  0  0  0  0
   10.7180    4.3500  -60.7790 C   0  0  0  0  0  0  0  0  0  0  0  0
   10.0870    3.0140  -58.7510 C   0  0  0  0  0  0  0  0  0  0  0  0
   11.6350    4.4210  -57.3480 C   0  0  0  0  0  0  0  0  0  0  0  0
    9.6720    0.0150  -55.6820 C   0  0  0  0  0  0  0  0  0  0  0  0
    9.6520   -1.1180  -54.9120 N   0  0  0  0  0  0  0  0  0  0  0  0
   10.7360   -2.0950  -54.9050 C   0  0  0  0  0  0  0  0  0  0  0  0
   10.7190   -3.0670  -56.1010 C   0  0  0  0  0  0  0  0  0  0  0  0
   11.7970   -2.7040  -57.1430 C   0  0  0  0  0  0  0  0  0  0  0  0
   12.1860   -3.9050  -57.9950 C   0  0  0  0  0  0  0  0  0  0  0  0
   12.7960   -5.0230  -57.1470 C   0  0  0  0  0  0  0  0  0  0  0  0
   12.2740   -5.0470  -55.7100 C   0  0  0  0  0  0  0  0  0  0  0  0
   10.8440   -4.5280  -55.6180 C   0  0  0  0  0  0  0  0  0  0  0  0
    8.4910   -1.1390  -54.1690 C   0  0  0  0  0  0  0  0  0  0  0  0
    8.2280   -2.2090  -53.2620 C   0  0  0  0  0  0  0  0  0  0  0  0
    7.7010   -3.5060  -53.7000 C   0  0  0  0  0  0  0  0  0  0  0  0
    7.4760   -4.4770  -52.8010 C   0  0  0  0  0  0  0  0  0  0  0  0
    7.7370   -4.2800  -51.4720 N   0  0  0  0  0  0  0  0  0  0  0  0
    8.2580   -3.1060  -50.9950 C   0  0  0  0  0  0  0  0  0  0  0  0
    8.5060   -2.9840  -49.7300 N   0  0  0  0  0  0  0  0  0  0  0  0
    8.5240   -1.9950  -51.9600 C   0  0  0  0  0  0  0  0  0  0  0  0
    6.4181    0.3220  -52.8723 H   0  0  0  0  0  0  0  0  0  0  0  0
    6.0991    1.3266  -54.3269 H   0  0  0  0  0  0  0  0  0  0  0  0
    5.6665   -0.4169  -54.3269 H   0  0  0  0  0  0  0  0  0  0  0  0
   10.1170    2.6360  -55.6440 H   0  0  0  0  0  0  0  0  0  0  0  0
    8.1612    4.3528  -57.0909 H   0  0  0  0  0  0  0  0  0  0  0  0
    9.4549    5.0289  -55.9889 H   0  0  0  0  0  0  0  0  0  0  0  0
    8.8246    5.4191  -59.1248 H   0  0  0  0  0  0  0  0  0  0  0  0
    9.9465    6.4198  -58.1213 H   0  0  0  0  0  0  0  0  0  0  0  0
   10.5785    6.5014  -60.5308 H   0  0  0  0  0  0  0  0  0  0  0  0
   12.9609    5.8225  -60.2277 H   0  0  0  0  0  0  0  0  0  0  0  0
   12.3316    6.6540  -58.7604 H   0  0  0  0  0  0  0  0  0  0  0  0
   13.6432    4.6181  -58.1522 H   0  0  0  0  0  0  0  0  0  0  0  0
   13.1999    3.3230  -60.2391 H   0  0  0  0  0  0  0  0  0  0  0  0
   12.7387    2.3746  -58.7795 H   0  0  0  0  0  0  0  0  0  0  0  0
   10.9882    2.2099  -60.5568 H   0  0  0  0  0  0  0  0  0  0  0  0
   11.4175    4.4214  -61.6249 H   0  0  0  0  0  0  0  0  0  0  0  0
    9.6881    4.2539  -61.1533 H   0  0  0  0  0  0  0  0  0  0  0  0
    9.0615    2.9171  -59.1370 H   0  0  0  0  0  0  0  0  0  0  0  0
   10.3523    2.1340  -58.1467 H   0  0  0  0  0  0  0  0  0  0  0  0
   11.8928    3.5424  -56.7384 H   0  0  0  0  0  0  0  0  0  0  0  0
   11.7118    5.3382  -56.7456 H   0  0  0  0  0  0  0  0  0  0  0  0
   10.4777    0.2980  -56.3753 H   0  0  0  0  0  0  0  0  0  0  0  0
   11.6915   -1.5501  -54.9170 H   0  0  0  0  0  0  0  0  0  0  0  0
   10.6048   -2.7059  -53.9997 H   0  0  0  0  0  0  0  0  0  0  0  0
    9.7481   -2.9683  -56.6085 H   0  0  0  0  0  0  0  0  0  0  0  0
   11.4056   -1.9131  -57.7998 H   0  0  0  0  0  0  0  0  0  0  0  0
   12.6928   -2.3622  -56.6039 H   0  0  0  0  0  0  0  0  0  0  0  0
   11.2881   -4.2898  -58.5007 H   0  0  0  0  0  0  0  0  0  0  0  0
   12.9393   -3.5782  -58.7269 H   0  0  0  0  0  0  0  0  0  0  0  0
   12.5605   -5.9878  -57.6200 H   0  0  0  0  0  0  0  0  0  0  0  0
   13.8793   -4.8390  -57.0966 H   0  0  0  0  0  0  0  0  0  0  0  0
   12.3016   -6.0820  -55.3385 H   0  0  0  0  0  0  0  0  0  0  0  0
   12.9152   -4.3914  -55.1026 H   0  0  0  0  0  0  0  0  0  0  0  0
   10.1964   -5.1630  -56.2404 H   0  0  0  0  0  0  0  0  0  0  0  0
   10.5416   -4.5601  -54.5609 H   0  0  0  0  0  0  0  0  0  0  0  0
    7.4902   -3.6828  -54.7650 H   0  0  0  0  0  0  0  0  0  0  0  0
    7.0761   -5.4450  -53.1372 H   0  0  0  0  0  0  0  0  0  0  0  0
    7.5830   -5.0260  -50.8070 H   0  0  0  0  0  0  0  0  0  0  0  0
    8.8910   -2.0570  -49.5270 H   0  0  0  0  0  0  0  0  0  0  0  0
    8.9459   -1.0368  -51.6224 H   0  0  0  0  0  0  0  0  0  0  0  0
  1  2  1  0
  2  3  1  0
  3  4  1  0
  4  5  2  0
  4  6  1  0
  6  7  1  0
  8  7  1  1
  8  9  1  0
  9 10  1  0
 10 11  1  0
 11 12  1  0
 12 13  1  0
 13 14  1  0
 14 15  1  0
 14 16  1  0
 12 17  1  0
  3 18  2  0
 18 19  1  0
 19 20  1  0
 20 21  1  0
 21 22  1  0
 22 23  1  0
 23 24  1  0
 24 25  1  0
 25 26  1  0
 19 27  1  0
 27 28  1  0
 28 29  1  0
 29 30  2  0
 30 31  1  0
 31 32  1  0
 32 33  2  3
 32 34  1  0
 27  2  2  0
 34 28  2  0
 16  8  1  0
 26 21  1  0
 17  8  1  0
 15 10  1  0
  1 35  1  0
  1 36  1  0
  1 37  1  0
  6 38  1  0
  7 39  1  0
  7 40  1  0
  9 41  1  0
  9 42  1  0
 10 43  1  6
 11 44  1  0
 11 45  1  0
 12 46  1  1
 13 47  1  0
 13 48  1  0
 14 49  1  6
 15 50  1  0
 15 51  1  0
 16 52  1  0
 16 53  1  0
 17 54  1  0
 17 55  1  0
 18 56  1  0
 20 57  1  0
 20 58  1  0
 21 59  1  0
 22 60  1  0
 22 61  1  0
 23 62  1  0
 23 63  1  0
 24 64  1  0
 24 65  1  0
 25 66  1  0
 25 67  1  0
 26 68  1  0
 26 69  1  0
 29 70  1  0
 30 71  1  0
 31 72  1  0
 33 73  1  0
 34 74  1  0
M  END
>  <meeko>  (81) 
{"is_sidechain": false}

$$$$

     RDKit          3D

 41 44  0  0  0  0  0  0  0  0999 V2000
    8.7810   -1.5880  -53.0530 O   0  0  0  0  0  0  0  0  0  0  0  0
    9.1250   -1.2200  -54.1690 C   0  0  0  0  0  0  0  0  0  0  0  0
    8.8160    0.1450  -54.6410 C   0  0  0  0  0  0  0  0  0  0  0  0
    9.4220    0.7060  -55.6970 C   0  0  0  0  0  0  0  0  0  0  0  0
    9.1310    2.1510  -56.2120 C   0  0  0  0  0  0  0  0  0  0  0  0
    9.9820    3.1930  -56.1050 N   0  0  0  0  0  0  0  0  0  0  0  0
    9.3330    4.2160  -56.7140 N   0  0  0  0  0  0  0  0  0  0  0  0
    8.1360    3.7800  -57.1680 N   0  0  0  0  0  0  0  0  0  0  0  0
    7.9900    2.4700  -56.8590 N   0  0  0  0  0  0  0  0  0  0  0  0
    9.8710   -1.9770  -55.0390 N   0  0  0  0  0  0  0  0  0  0  0  0
   10.3240   -3.3130  -54.7180 C   0  0  0  0  0  0  0  0  0  0  0  0
   11.1360   -3.9900  -55.8460 C   0  0  2  0  0  0  0  0  0  0  0  0
   10.2540   -4.9590  -56.6760 C   0  0  0  0  0  0  0  0  0  0  0  0
   11.0900   -5.6640  -57.7590 C   0  0  1  0  0  0  0  0  0  0  0  0
   11.7030   -4.6070  -58.6930 C   0  0  0  0  0  0  0  0  0  0  0  0
   12.6050   -3.6550  -57.8920 C   0  0  2  0  0  0  0  0  0  0  0  0
   13.7270   -4.4640  -57.2220 C   0  0  0  0  0  0  0  0  0  0  0  0
   13.1240   -5.5200  -56.2820 C   0  0  2  0  0  0  0  0  0  0  0  0
   12.2200   -6.4630  -57.0890 C   0  0  0  0  0  0  0  0  0  0  0  0
   12.2850   -4.8140  -55.2040 C   0  0  0  0  0  0  0  0  0  0  0  0
   11.7660   -2.9530  -56.8090 C   0  0  0  0  0  0  0  0  0  0  0  0
    8.0544    0.7274  -54.1018 H   0  0  0  0  0  0  0  0  0  0  0  0
   10.1731    0.1096  -56.2357 H   0  0  0  0  0  0  0  0  0  0  0  0
   10.2160   -1.5450  -55.8860 H   0  0  0  0  0  0  0  0  0  0  0  0
   10.9583   -3.2569  -53.8211 H   0  0  0  0  0  0  0  0  0  0  0  0
    9.4236   -3.9255  -54.5626 H   0  0  0  0  0  0  0  0  0  0  0  0
    9.8196   -5.7155  -56.0059 H   0  0  0  0  0  0  0  0  0  0  0  0
    9.4572   -4.3800  -57.1657 H   0  0  0  0  0  0  0  0  0  0  0  0
   10.4480   -6.3444  -58.3377 H   0  0  0  0  0  0  0  0  0  0  0  0
   12.3009   -5.1090  -59.4680 H   0  0  0  0  0  0  0  0  0  0  0  0
   10.8939   -4.0277  -59.1617 H   0  0  0  0  0  0  0  0  0  0  0  0
   13.0429   -2.9035  -58.5655 H   0  0  0  0  0  0  0  0  0  0  0  0
   14.3268   -4.9652  -57.9959 H   0  0  0  0  0  0  0  0  0  0  0  0
   14.3644   -3.7832  -56.6388 H   0  0  0  0  0  0  0  0  0  0  0  0
   13.9307   -6.0984  -55.8079 H   0  0  0  0  0  0  0  0  0  0  0  0
   12.8179   -6.9669  -57.8627 H   0  0  0  0  0  0  0  0  0  0  0  0
   11.7809   -7.2097  -56.4110 H   0  0  0  0  0  0  0  0  0  0  0  0
   11.8535   -5.5699  -54.5313 H   0  0  0  0  0  0  0  0  0  0  0  0
   12.9381   -4.1285  -54.6440 H   0  0  0  0  0  0  0  0  0  0  0  0
   12.4132   -2.2737  -56.2348 H   0  0  0  0  0  0  0  0  0  0  0  0
   10.9584   -2.3886  -57.2981 H   0  0  0  0  0  0  0  0  0  0  0  0
  1  2  2  0
  2  3  1  0
  3  4  2  0
  4  5  1  0
  5  6  1  0
  6  7  2  0
  7  8  1  0
  8  9  1  0
  2 10  1  0
 10 11  1  0
 12 11  1  1
 12 13  1  0
 13 14  1  0
 14 15  1  0
 15 16  1  0
 16 17  1  0
 17 18  1  0
 18 19  1  0
 18 20  1  0
 16 21  1  0
  9  5  2  0
 20 12  1  0
 21 12  1  0
 19 14  1  0
  3 22  1  0
  4 23  1  0
 10 24  1  0
 11 25  1  0
 11 26  1  0
 13 27  1  0
 13 28  1  0
 14 29  1  6
 15 30  1  0
 15 31  1  0
 16 32  1  6
 17 33  1  0
 17 34  1  0
 18 35  1  1
 19 36  1  0
 19 37  1  0
 20 38  1  0
 20 39  1  0
 21 40  1  0
 21 41  1  0
M  CHG  1   8  -1
M  END
>  <meeko>  (82) 
{"is_sidechain": false}

$$$$

     RDKit          3D

 58 62  0  0  0  0  0  0  0  0999 V2000
    9.0610    2.6050  -61.2300 C   0  0  0  0  0  0  0  0  0  0  0  0
    8.1830    2.2670  -60.0330 C   0  0  0  0  0  0  0  0  0  0  0  0
    6.7780    2.8470  -60.1370 C   0  0  0  0  0  0  0  0  0  0  0  0
    8.8810    2.6210  -58.6700 C   0  0  0  0  0  0  0  0  0  0  0  0
    8.5630    2.3020  -57.3950 C   0  0  0  0  0  0  0  0  0  0  0  0
    7.5360    1.5570  -56.6930 C   0  0  0  0  0  0  0  0  0  0  0  0
    6.3630    1.4550  -57.0330 O   0  0  0  0  0  0  0  0  0  0  0  0
    8.0230    0.9630  -55.5450 N   0  0  0  0  0  0  0  0  0  0  0  0
    7.1760    0.2170  -54.6350 C   0  0  0  0  0  0  0  0  0  0  0  0
    7.8430   -1.0480  -54.0510 C   0  0  2  0  0  0  0  0  0  0  0  0
    7.1270   -2.3460  -54.5080 C   0  0  0  0  0  0  0  0  0  0  0  0
    7.8410   -3.5880  -53.9480 C   0  0  1  0  0  0  0  0  0  0  0  0
    9.2930   -3.6110  -54.4530 C   0  0  0  0  0  0  0  0  0  0  0  0
   10.0310   -2.3460  -53.9860 C   0  0  2  0  0  0  0  0  0  0  0  0
   10.0200   -2.2870  -52.4510 C   0  0  0  0  0  0  0  0  0  0  0  0
    8.5720   -2.2570  -51.9360 C   0  0  2  0  0  0  0  0  0  0  0  0
    7.8390   -3.5230  -52.4120 C   0  0  0  0  0  0  0  0  0  0  0  0
    7.8560   -1.0160  -52.5000 C   0  0  0  0  0  0  0  0  0  0  0  0
    9.3130   -1.1080  -54.5460 C   0  0  0  0  0  0  0  0  0  0  0  0
    9.6440    3.1090  -56.8590 C   0  0  0  0  0  0  0  0  0  0  0  0
   10.0720    3.3860  -55.7590 O   0  0  0  0  0  0  0  0  0  0  0  0
   10.0080    3.3950  -58.1390 N   0  0  0  0  0  0  0  0  0  0  0  0
   11.0230    4.1630  -58.6940 C   0  0  0  0  0  0  0  0  0  0  0  0
   10.7810    5.3760  -59.3440 C   0  0  0  0  0  0  0  0  0  0  0  0
   11.8310    6.1210  -59.8950 C   0  0  0  0  0  0  0  0  0  0  0  0
   13.1330    5.6510  -59.8010 C   0  0  0  0  0  0  0  0  0  0  0  0
   14.1340    6.3650  -60.3300 F   0  0  0  0  0  0  0  0  0  0  0  0
   13.4020    4.4480  -59.1710 C   0  0  0  0  0  0  0  0  0  0  0  0
   12.3500    3.7070  -58.6220 C   0  0  0  0  0  0  0  0  0  0  0  0
   10.0334    2.9793  -60.8774 H   0  0  0  0  0  0  0  0  0  0  0  0
    9.2147    1.7018  -61.8387 H   0  0  0  0  0  0  0  0  0  0  0  0
    8.5693    3.3781  -61.8387 H   0  0  0  0  0  0  0  0  0  0  0  0
    8.0529    1.1748  -60.0498 H   0  0  0  0  0  0  0  0  0  0  0  0
    6.3744    3.0136  -59.1274 H   0  0  0  0  0  0  0  0  0  0  0  0
    6.8153    3.8033  -60.6794 H   0  0  0  0  0  0  0  0  0  0  0  0
    6.1299    2.1429  -60.6794 H   0  0  0  0  0  0  0  0  0  0  0  0
    8.9650    1.1690  -55.2470 H   0  0  0  0  0  0  0  0  0  0  0  0
    6.8978    0.8779  -53.8008 H   0  0  0  0  0  0  0  0  0  0  0  0
    6.3051   -0.1213  -55.2156 H   0  0  0  0  0  0  0  0  0  0  0  0
    6.0887   -2.3323  -54.1451 H   0  0  0  0  0  0  0  0  0  0  0  0
    7.1472   -2.3924  -55.6068 H   0  0  0  0  0  0  0  0  0  0  0  0
    7.3194   -4.4971  -54.2819 H   0  0  0  0  0  0  0  0  0  0  0  0
    9.8038   -4.4994  -54.0534 H   0  0  0  0  0  0  0  0  0  0  0  0
    9.2929   -3.6444  -55.5525 H   0  0  0  0  0  0  0  0  0  0  0  0
   11.0700   -2.3689  -54.3464 H   0  0  0  0  0  0  0  0  0  0  0  0
   10.5313   -3.1740  -52.0488 H   0  0  0  0  0  0  0  0  0  0  0  0
   10.5393   -1.3751  -52.1211 H   0  0  0  0  0  0  0  0  0  0  0  0
    8.5714   -2.2173  -50.8367 H   0  0  0  0  0  0  0  0  0  0  0  0
    8.3480   -4.4112  -52.0095 H   0  0  0  0  0  0  0  0  0  0  0  0
    6.7993   -3.4934  -52.0540 H   0  0  0  0  0  0  0  0  0  0  0  0
    6.8201   -0.9978  -52.1305 H   0  0  0  0  0  0  0  0  0  0  0  0
    8.3951   -0.1159  -52.1694 H   0  0  0  0  0  0  0  0  0  0  0  0
    9.8424   -0.2033  -54.2125 H   0  0  0  0  0  0  0  0  0  0  0  0
    9.3114   -1.1699  -55.6443 H   0  0  0  0  0  0  0  0  0  0  0  0
    9.7501    5.7514  -59.4241 H   0  0  0  0  0  0  0  0  0  0  0  0
   11.6242    7.0757  -60.4007 H   0  0  0  0  0  0  0  0  0  0  0  0
   14.4354    4.0774  -59.1026 H   0  0  0  0  0  0  0  0  0  0  0  0
   12.5657    2.7498  -58.1248 H   0  0  0  0  0  0  0  0  0  0  0  0
  1  2  1  0
  2  3  1  0
  2  4  1  0
  4  5  2  0
  5  6  1  0
  6  7  2  0
  6  8  1  0
  8  9  1  0
 10  9  1  6
 10 11  1  0
 11 12  1  0
 12 13  1  0
 13 14  1  0
 14 15  1  0
 15 16  1  0
 16 17  1  0
 16 18  1  0
 14 19  1  0
  5 20  1  0
 20 21  2  0
 20 22  1  0
 22 23  1  0
 23 24  1  0
 24 25  2  0
 25 26  1  0
 26 27  1  0
 26 28  2  0
 28 29  1  0
 22  4  1  0
 29 23  2  0
 18 10  1  0
 19 10  1  0
 17 12  1  0
  1 30  1  0
  1 31  1  0
  1 32  1  0
  2 33  1  0
  3 34  1  0
  3 35  1  0
  3 36  1  0
  8 37  1  0
  9 38  1  0
  9 39  1  0
 11 40  1  0
 11 41  1  0
 12 42  1  1
 13 43  1  0
 13 44  1  0
 14 45  1  6
 15 46  1  0
 15 47  1  0
 16 48  1  1
 17 49  1  0
 17 50  1  0
 18 51  1  0
 18 52  1  0
 19 53  1  0
 19 54  1  0
 24 55  1  0
 25 56  1  0
 28 57  1  0
 29 58  1  0
M  END
>  <meeko>  (83) 
{"is_sidechain": false}

$$$$

     RDKit          3D

 61 65  0  0  0  0  0  0  0  0999 V2000
   13.4440    4.3530  -59.4210 C   0  0  0  0  0  0  0  0  0  0  0  0
   12.3060    5.3430  -59.3120 C   0  0  0  0  0  0  0  0  0  0  0  0
   12.6810    6.7030  -59.8520 C   0  0  0  0  0  0  0  0  0  0  0  0
   11.0950    5.0480  -58.7760 C   0  0  0  0  0  0  0  0  0  0  0  0
    9.9930    6.0950  -58.6850 C   0  0  0  0  0  0  0  0  0  0  0  0
    8.6890    5.4890  -58.1720 C   0  0  2  0  0  0  0  0  0  0  0  0
    8.8590    4.6620  -56.8750 C   0  0  0  0  0  0  0  0  0  0  0  0
    9.3050    3.5040  -57.8310 C   0  0  2  0  0  0  0  0  0  0  0  0
    8.9930    2.0530  -57.3240 C   0  0  0  0  0  0  0  0  0  0  0  0
    7.8910    1.5220  -57.4890 O   0  0  0  0  0  0  0  0  0  0  0  0
   10.0690    1.4650  -56.6780 N   0  0  0  0  0  0  0  0  0  0  0  0
   10.1000    0.1980  -56.1180 C   0  0  0  0  0  0  0  0  0  0  0  0
   10.8560   -0.8720  -56.5210 C   0  0  0  0  0  0  0  0  0  0  0  0
   10.5790   -1.9770  -55.7360 N   0  0  0  0  0  0  0  0  0  0  0  0
   11.1610   -3.2700  -55.9530 C   0  0  0  0  0  0  0  0  0  0  0  0
   11.1230   -3.8470  -57.2350 C   0  0  0  0  0  0  0  0  0  0  0  0
   11.6810   -5.1080  -57.4650 C   0  0  0  0  0  0  0  0  0  0  0  0
   12.2720   -5.8130  -56.4210 C   0  0  0  0  0  0  0  0  0  0  0  0
   12.3030   -5.2590  -55.1450 C   0  0  0  0  0  0  0  0  0  0  0  0
   11.7470   -3.9960  -54.9090 C   0  0  0  0  0  0  0  0  0  0  0  0
    9.6520   -1.5750  -54.7670 C   0  0  0  0  0  0  0  0  0  0  0  0
    9.1910   -2.3870  -53.6350 C   0  0  0  0  0  0  0  0  0  0  0  0
    9.8110   -2.2800  -52.3840 C   0  0  0  0  0  0  0  0  0  0  0  0
    9.3570   -3.0410  -51.3050 C   0  0  0  0  0  0  0  0  0  0  0  0
    8.2770   -3.9080  -51.4670 C   0  0  0  0  0  0  0  0  0  0  0  0
    7.6450   -4.0120  -52.7060 C   0  0  0  0  0  0  0  0  0  0  0  0
    8.0970   -3.2510  -53.7860 C   0  0  0  0  0  0  0  0  0  0  0  0
    9.3420   -0.2300  -54.9960 C   0  0  0  0  0  0  0  0  0  0  0  0
    8.4050    0.6040  -54.1860 C   0  0  0  0  0  0  0  0  0  0  0  0
   10.7800    3.6540  -58.2440 C   0  0  0  0  0  0  0  0  0  0  0  0
    8.3130    4.1520  -58.8570 C   0  0  0  0  0  0  0  0  0  0  0  0
   13.7763    4.0639  -58.4130 H   0  0  0  0  0  0  0  0  0  0  0  0
   13.1022    3.4599  -59.9646 H   0  0  0  0  0  0  0  0  0  0  0  0
   14.2812    4.8151  -59.9646 H   0  0  0  0  0  0  0  0  0  0  0  0
   12.8706    7.3905  -59.0145 H   0  0  0  0  0  0  0  0  0  0  0  0
   13.5886    6.6157  -60.4674 H   0  0  0  0  0  0  0  0  0  0  0  0
   11.8569    7.0932  -60.4674 H   0  0  0  0  0  0  0  0  0  0  0  0
   10.3123    6.8917  -57.9970 H   0  0  0  0  0  0  0  0  0  0  0  0
    9.8143    6.4977  -59.6929 H   0  0  0  0  0  0  0  0  0  0  0  0
    8.0467    6.3804  -58.2252 H   0  0  0  0  0  0  0  0  0  0  0  0
    9.6361    5.0258  -56.1867 H   0  0  0  0  0  0  0  0  0  0  0  0
    8.0592    4.5477  -56.1285 H   0  0  0  0  0  0  0  0  0  0  0  0
   10.9190    2.0060  -56.5890 H   0  0  0  0  0  0  0  0  0  0  0  0
   11.5792   -0.8546  -57.3497 H   0  0  0  0  0  0  0  0  0  0  0  0
   10.6498   -3.3010  -58.0645 H   0  0  0  0  0  0  0  0  0  0  0  0
   11.6528   -5.5442  -58.4744 H   0  0  0  0  0  0  0  0  0  0  0  0
   12.7128   -6.8041  -56.6037 H   0  0  0  0  0  0  0  0  0  0  0  0
   12.7667   -5.8161  -54.3176 H   0  0  0  0  0  0  0  0  0  0  0  0
   11.7707   -3.5705  -53.8949 H   0  0  0  0  0  0  0  0  0  0  0  0
   10.6598   -1.5931  -52.2507 H   0  0  0  0  0  0  0  0  0  0  0  0
    9.8518   -2.9565  -50.3262 H   0  0  0  0  0  0  0  0  0  0  0  0
    7.9233   -4.5102  -50.6172 H   0  0  0  0  0  0  0  0  0  0  0  0
    6.7907   -4.6933  -52.8323 H   0  0  0  0  0  0  0  0  0  0  0  0
    7.5923   -3.3297  -54.7602 H   0  0  0  0  0  0  0  0  0  0  0  0
    8.5951    0.4348  -53.1159 H   0  0  0  0  0  0  0  0  0  0  0  0
    8.5619    1.6667  -54.4227 H   0  0  0  0  0  0  0  0  0  0  0  0
    7.3677    0.3249  -54.4227 H   0  0  0  0  0  0  0  0  0  0  0  0
   11.4142    3.4589  -57.3667 H   0  0  0  0  0  0  0  0  0  0  0  0
   10.9774    2.9339  -59.0517 H   0  0  0  0  0  0  0  0  0  0  0  0
    8.6100    4.0672  -59.9127 H   0  0  0  0  0  0  0  0  0  0  0  0
    7.2737    3.8138  -58.9814 H   0  0  0  0  0  0  0  0  0  0  0  0
  1  2  1  0
  2  3  1  0
  2  4  2  3
  4  5  1  0
  5  6  1  0
  6  7  1  0
  7  8  1  0
  8  9  1  6
  9 10  2  0
  9 11  1  0
 11 12  1  0
 12 13  2  0
 13 14  1  0
 14 15  1  0
 15 16  2  0
 16 17  1  0
 17 18  2  0
 18 19  1  0
 19 20  2  0
 14 21  1  0
 21 22  1  0
 22 23  2  0
 23 24  1  0
 24 25  2  0
 25 26  1  0
 26 27  2  0
 21 28  2  0
 28 29  1  0
  8 30  1  0
  8 31  1  0
 30  4  1  0
 31  6  1  0
 28 12  1  0
 20 15  1  0
 27 22  1  0
  1 32  1  0
  1 33  1  0
  1 34  1  0
  3 35  1  0
  3 36  1  0
  3 37  1  0
  5 38  1  0
  5 39  1  0
  6 40  1  6
  7 41  1  0
  7 42  1  0
 11 43  1  0
 13 44  1  0
 16 45  1  0
 17 46  1  0
 18 47  1  0
 19 48  1  0
 20 49  1  0
 23 50  1  0
 24 51  1  0
 25 52  1  0
 26 53  1  0
 27 54  1  0
 29 55  1  0
 29 56  1  0
 29 57  1  0
 30 58  1  0
 30 59  1  0
 31 60  1  0
 31 61  1  0
M  END
>  <meeko>  (84) 
{"is_sidechain": false}

$$$$

     RDKit          3D

 70 75  0  0  0  0  0  0  0  0999 V2000
    6.4970    1.5070  -56.2040 O   0  0  0  0  0  0  0  0  0  0  0  0
    7.6610    1.3600  -55.8410 C   0  0  0  0  0  0  0  0  0  0  0  0
    8.6550    2.2500  -56.1720 N   0  0  0  0  0  0  0  0  0  0  0  0
    8.4150    3.4590  -56.9320 C   0  0  0  0  0  0  0  0  0  0  0  0
    9.5230    3.7750  -57.9610 C   0  0  2  0  0  0  0  0  0  0  0  0
    9.8400    2.5430  -58.8480 C   0  0  0  0  0  0  0  0  0  0  0  0
   10.9070    2.8920  -59.9010 C   0  0  1  0  0  0  0  0  0  0  0  0
   10.3900    4.0320  -60.7920 C   0  0  0  0  0  0  0  0  0  0  0  0
   10.0940    5.2750  -59.9360 C   0  0  2  0  0  0  0  0  0  0  0  0
   11.3810    5.7200  -59.2240 C   0  0  0  0  0  0  0  0  0  0  0  0
   11.9020    4.5880  -58.3250 C   0  0  2  0  0  0  0  0  0  0  0  0
   12.1900    3.3480  -59.1880 C   0  0  0  0  0  0  0  0  0  0  0  0
   10.8340    4.2370  -57.2750 C   0  0  0  0  0  0  0  0  0  0  0  0
    9.0310    4.9220  -58.8840 C   0  0  0  0  0  0  0  0  0  0  0  0
    8.0750    0.2200  -55.0220 C   0  0  0  0  0  0  0  0  0  0  0  0
    9.2910   -0.4230  -55.2020 C   0  0  0  0  0  0  0  0  0  0  0  0
    9.4110   -1.4360  -54.2870 N   0  0  0  0  0  0  0  0  0  0  0  0
   10.5820   -2.2990  -54.1990 C   0  0  0  0  0  0  0  0  0  0  0  0
   10.7930   -3.1970  -55.4320 C   0  0  0  0  0  0  0  0  0  0  0  0
   11.4680   -4.5160  -55.0040 C   0  0  0  0  0  0  0  0  0  0  0  0
   12.2270   -5.2210  -56.1310 C   0  0  0  0  0  0  0  0  0  0  0  0
   11.6600   -4.8830  -57.5010 C   0  0  0  0  0  0  0  0  0  0  0  0
   11.7360   -3.3830  -57.7850 C   0  0  0  0  0  0  0  0  0  0  0  0
   11.6100   -2.5100  -56.5330 C   0  0  0  0  0  0  0  0  0  0  0  0
    8.2650   -1.5050  -53.5240 C   0  0  0  0  0  0  0  0  0  0  0  0
    8.0380   -2.4950  -52.4730 C   0  0  0  0  0  0  0  0  0  0  0  0
    7.4920   -3.7450  -52.7880 C   0  0  0  0  0  0  0  0  0  0  0  0
    7.2770   -4.6920  -51.7850 C   0  0  0  0  0  0  0  0  0  0  0  0
    7.6000   -4.3910  -50.4620 C   0  0  0  0  0  0  0  0  0  0  0  0
    8.1340   -3.1440  -50.1400 C   0  0  0  0  0  0  0  0  0  0  0  0
    8.3490   -2.1970  -51.1420 C   0  0  0  0  0  0  0  0  0  0  0  0
    7.4350   -0.4780  -53.9530 C   0  0  0  0  0  0  0  0  0  0  0  0
    5.8890   -0.1320  -53.3060 Cl  0  0  0  0  0  0  0  0  0  0  0  0
    9.5910    2.0770  -55.8270 H   0  0  0  0  0  0  0  0  0  0  0  0
    7.4623    3.3475  -57.4705 H   0  0  0  0  0  0  0  0  0  0  0  0
    8.3957    4.2920  -56.2139 H   0  0  0  0  0  0  0  0  0  0  0  0
   10.2133    1.7266  -58.2123 H   0  0  0  0  0  0  0  0  0  0  0  0
    8.9201    2.2331  -59.3654 H   0  0  0  0  0  0  0  0  0  0  0  0
   11.1194    2.0077  -60.5198 H   0  0  0  0  0  0  0  0  0  0  0  0
   11.1528    4.2810  -61.5444 H   0  0  0  0  0  0  0  0  0  0  0  0
    9.4649    3.7088  -61.2918 H   0  0  0  0  0  0  0  0  0  0  0  0
    9.7264    6.0884  -60.5788 H   0  0  0  0  0  0  0  0  0  0  0  0
   12.1450    5.9699  -59.9749 H   0  0  0  0  0  0  0  0  0  0  0  0
   11.1644    6.6027  -58.6044 H   0  0  0  0  0  0  0  0  0  0  0  0
   12.8238    4.9124  -57.8199 H   0  0  0  0  0  0  0  0  0  0  0  0
   12.9548    3.5966  -59.9386 H   0  0  0  0  0  0  0  0  0  0  0  0
   12.5512    2.5349  -58.5412 H   0  0  0  0  0  0  0  0  0  0  0  0
   11.2108    3.4268  -56.6334 H   0  0  0  0  0  0  0  0  0  0  0  0
   10.6217    5.1329  -56.6730 H   0  0  0  0  0  0  0  0  0  0  0  0
    8.8210    5.8116  -58.2720 H   0  0  0  0  0  0  0  0  0  0  0  0
    8.1204    4.5885  -59.4033 H   0  0  0  0  0  0  0  0  0  0  0  0
   10.0423   -0.1604  -55.9614 H   0  0  0  0  0  0  0  0  0  0  0  0
   11.4716   -1.6635  -54.0778 H   0  0  0  0  0  0  0  0  0  0  0  0
   10.4196   -2.9689  -53.3417 H   0  0  0  0  0  0  0  0  0  0  0  0
    9.8017   -3.4062  -55.8605 H   0  0  0  0  0  0  0  0  0  0  0  0
   12.1787   -4.2940  -54.1943 H   0  0  0  0  0  0  0  0  0  0  0  0
   10.6642   -5.1968  -54.6871 H   0  0  0  0  0  0  0  0  0  0  0  0
   13.2816   -4.9102  -56.0970 H   0  0  0  0  0  0  0  0  0  0  0  0
   12.1258   -6.3060  -55.9807 H   0  0  0  0  0  0  0  0  0  0  0  0
   12.2352   -5.4216  -58.2685 H   0  0  0  0  0  0  0  0  0  0  0  0
   10.6023   -5.1845  -57.5204 H   0  0  0  0  0  0  0  0  0  0  0  0
   12.7041   -3.1688  -58.2613 H   0  0  0  0  0  0  0  0  0  0  0  0
   10.8835   -3.1363  -58.4349 H   0  0  0  0  0  0  0  0  0  0  0  0
   12.6174   -2.2963  -56.1464 H   0  0  0  0  0  0  0  0  0  0  0  0
   11.0872   -1.5845  -56.8160 H   0  0  0  0  0  0  0  0  0  0  0  0
    7.2313   -3.9820  -53.8301 H   0  0  0  0  0  0  0  0  0  0  0  0
    6.8531   -5.6750  -52.0380 H   0  0  0  0  0  0  0  0  0  0  0  0
    7.4333   -5.1381  -49.6720 H   0  0  0  0  0  0  0  0  0  0  0  0
    8.3859   -2.9067  -49.0959 H   0  0  0  0  0  0  0  0  0  0  0  0
    8.7649   -1.2118  -50.8842 H   0  0  0  0  0  0  0  0  0  0  0  0
  1  2  2  0
  2  3  1  0
  3  4  1  0
  5  4  1  1
  5  6  1  0
  6  7  1  0
  7  8  1  0
  8  9  1  0
  9 10  1  0
 10 11  1  0
 11 12  1  0
 11 13  1  0
  9 14  1  0
  2 15  1  0
 15 16  2  0
 16 17  1  0
 17 18  1  0
 18 19  1  0
 19 20  1  0
 20 21  1  0
 21 22  1  0
 22 23  1  0
 23 24  1  0
 17 25  1  0
 25 26  1  0
 26 27  2  0
 27 28  1  0
 28 29  2  0
 29 30  1  0
 30 31  2  0
 25 32  2  0
 32 33  1  0
 13  5  1  0
 32 15  1  0
 14  5  1  0
 24 19  1  0
 31 26  1  0
 12  7  1  0
  3 34  1  0
  4 35  1  0
  4 36  1  0
  6 37  1  0
  6 38  1  0
  7 39  1  6
  8 40  1  0
  8 41  1  0
  9 42  1  6
 10 43  1  0
 10 44  1  0
 11 45  1  1
 12 46  1  0
 12 47  1  0
 13 48  1  0
 13 49  1  0
 14 50  1  0
 14 51  1  0
 16 52  1  0
 18 53  1  0
 18 54  1  0
 19 55  1  0
 20 56  1  0
 20 57  1  0
 21 58  1  0
 21 59  1  0
 22 60  1  0
 22 61  1  0
 23 62  1  0
 23 63  1  0
 24 64  1  0
 24 65  1  0
 27 66  1  0
 28 67  1  0
 29 68  1  0
 30 69  1  0
 31 70  1  0
M  END
>  <meeko>  (85) 
{"is_sidechain": false}

$$$$

     RDKit          3D

 70 75  0  0  0  0  0  0  0  0999 V2000
    6.8420    0.1300  -53.6260 C   0  0  0  0  0  0  0  0  0  0  0  0
    8.1300   -0.3830  -54.1840 C   0  0  0  0  0  0  0  0  0  0  0  0
    8.9100    0.2620  -55.2100 C   0  0  0  0  0  0  0  0  0  0  0  0
    8.5880    1.5160  -55.9030 C   0  0  0  0  0  0  0  0  0  0  0  0
    7.5110    1.6990  -56.4630 O   0  0  0  0  0  0  0  0  0  0  0  0
    9.5740    2.4790  -55.8620 N   0  0  0  0  0  0  0  0  0  0  0  0
    9.4060    3.7950  -56.4430 C   0  0  0  0  0  0  0  0  0  0  0  0
   10.2960    4.0520  -57.6800 C   0  0  2  0  0  0  0  0  0  0  0  0
   10.2250    2.8720  -58.6840 C   0  0  0  0  0  0  0  0  0  0  0  0
   11.0740    3.1680  -59.9330 C   0  0  1  0  0  0  0  0  0  0  0  0
   10.5490    4.4400  -60.6150 C   0  0  0  0  0  0  0  0  0  0  0  0
   10.6350    5.6300  -59.6470 C   0  0  2  0  0  0  0  0  0  0  0  0
   12.0990    5.8390  -59.2260 C   0  0  0  0  0  0  0  0  0  0  0  0
   12.6310    4.5730  -58.5370 C   0  0  2  0  0  0  0  0  0  0  0  0
   12.5360    3.3870  -59.5100 C   0  0  0  0  0  0  0  0  0  0  0  0
   11.7800    4.2740  -57.2900 C   0  0  0  0  0  0  0  0  0  0  0  0
    9.7890    5.3300  -58.4000 C   0  0  0  0  0  0  0  0  0  0  0  0
   10.0120   -0.5510  -55.4140 C   0  0  0  0  0  0  0  0  0  0  0  0
    9.9270   -1.6400  -54.5810 N   0  0  0  0  0  0  0  0  0  0  0  0
   10.9190   -2.7070  -54.5440 C   0  0  0  0  0  0  0  0  0  0  0  0
   10.8270   -3.6590  -55.7350 C   0  0  0  0  0  0  0  0  0  0  0  0
   11.6340   -4.9370  -55.5200 C   0  0  0  0  0  0  0  0  0  0  0  0
   11.7630   -5.5290  -56.9190 C   0  0  0  0  0  0  0  0  0  0  0  0
   11.6760   -4.3480  -57.8860 C   0  0  0  0  0  0  0  0  0  0  0  0
   11.4350   -3.1110  -57.0260 C   0  0  0  0  0  0  0  0  0  0  0  0
    8.7900   -1.5490  -53.8080 C   0  0  0  0  0  0  0  0  0  0  0  0
    8.4010   -2.5430  -52.8110 C   0  0  0  0  0  0  0  0  0  0  0  0
    7.4950   -3.5560  -53.1470 C   0  0  0  0  0  0  0  0  0  0  0  0
    7.1210   -4.5070  -52.1950 C   0  0  0  0  0  0  0  0  0  0  0  0
    7.6480   -4.4330  -50.9110 C   0  0  0  0  0  0  0  0  0  0  0  0
    7.2900   -5.3450  -49.9980 F   0  0  0  0  0  0  0  0  0  0  0  0
    8.5400   -3.4270  -50.5580 C   0  0  0  0  0  0  0  0  0  0  0  0
    8.9170   -2.4770  -51.5100 C   0  0  0  0  0  0  0  0  0  0  0  0
    6.8857    0.1126  -52.5270 H   0  0  0  0  0  0  0  0  0  0  0  0
    6.6785    1.1619  -53.9701 H   0  0  0  0  0  0  0  0  0  0  0  0
    6.0138   -0.5069  -53.9701 H   0  0  0  0  0  0  0  0  0  0  0  0
   10.4060    2.2970  -55.3230 H   0  0  0  0  0  0  0  0  0  0  0  0
    8.3540    3.9091  -56.7435 H   0  0  0  0  0  0  0  0  0  0  0  0
    9.7076    4.5234  -55.6759 H   0  0  0  0  0  0  0  0  0  0  0  0
   10.6037    1.9609  -58.1977 H   0  0  0  0  0  0  0  0  0  0  0  0
    9.1784    2.7332  -58.9928 H   0  0  0  0  0  0  0  0  0  0  0  0
   11.0117    2.3211  -60.6322 H   0  0  0  0  0  0  0  0  0  0  0  0
   11.1563    4.6519  -61.5073 H   0  0  0  0  0  0  0  0  0  0  0  0
    9.4992    4.2865  -60.9055 H   0  0  0  0  0  0  0  0  0  0  0  0
   10.2590    6.5373  -60.1425 H   0  0  0  0  0  0  0  0  0  0  0  0
   12.7078    6.0525  -60.1170 H   0  0  0  0  0  0  0  0  0  0  0  0
   12.1569    6.6844  -58.5247 H   0  0  0  0  0  0  0  0  0  0  0  0
   13.6791    4.7278  -58.2412 H   0  0  0  0  0  0  0  0  0  0  0  0
   13.1452    3.5977  -60.4013 H   0  0  0  0  0  0  0  0  0  0  0  0
   12.9064    2.4799  -59.0100 H   0  0  0  0  0  0  0  0  0  0  0  0
   12.1640    3.3674  -56.7996 H   0  0  0  0  0  0  0  0  0  0  0  0
   11.8412    5.1330  -56.6056 H   0  0  0  0  0  0  0  0  0  0  0  0
    9.8531    6.1825  -57.7079 H   0  0  0  0  0  0  0  0  0  0  0  0
    8.7474    5.1665  -58.7135 H   0  0  0  0  0  0  0  0  0  0  0  0
   10.8253   -0.3561  -56.1286 H   0  0  0  0  0  0  0  0  0  0  0  0
   11.9206   -2.2524  -54.5369 H   0  0  0  0  0  0  0  0  0  0  0  0
   10.7264   -3.2996  -53.6375 H   0  0  0  0  0  0  0  0  0  0  0  0
    9.7418   -3.8181  -55.8186 H   0  0  0  0  0  0  0  0  0  0  0  0
   12.6242   -4.7084  -55.0989 H   0  0  0  0  0  0  0  0  0  0  0  0
   11.1546   -5.6270  -54.8100 H   0  0  0  0  0  0  0  0  0  0  0  0
   12.7295   -6.0427  -57.0290 H   0  0  0  0  0  0  0  0  0  0  0  0
   10.9751   -6.2706  -57.1169 H   0  0  0  0  0  0  0  0  0  0  0  0
   12.6162   -4.2448  -58.4475 H   0  0  0  0  0  0  0  0  0  0  0  0
   10.8691   -4.4894  -58.6201 H   0  0  0  0  0  0  0  0  0  0  0  0
   12.3814   -2.5896  -56.8200 H   0  0  0  0  0  0  0  0  0  0  0  0
   10.7805   -2.3777  -57.5198 H   0  0  0  0  0  0  0  0  0  0  0  0
    7.0767   -3.6030  -54.1633 H   0  0  0  0  0  0  0  0  0  0  0  0
    6.4150   -5.3081  -52.4592 H   0  0  0  0  0  0  0  0  0  0  0  0
    8.9459   -3.3795  -49.5367 H   0  0  0  0  0  0  0  0  0  0  0  0
    9.6200   -1.6759  -51.2380 H   0  0  0  0  0  0  0  0  0  0  0  0
  1  2  1  0
  2  3  1  0
  3  4  1  0
  4  5  2  0
  4  6  1  0
  6  7  1  0
  8  7  1  1
  8  9  1  0
  9 10  1  0
 10 11  1  0
 11 12  1  0
 12 13  1  0
 13 14  1  0
 14 15  1  0
 14 16  1  0
 12 17  1  0
  3 18  2  0
 18 19  1  0
 19 20  1  0
 20 21  1  0
 21 22  1  0
 22 23  1  0
 23 24  1  0
 24 25  1  0
 19 26  1  0
 26 27  1  0
 27 28  1  0
 28 29  2  0
 29 30  1  0
 30 31  1  0
 30 32  2  0
 32 33  1  0
 26  2  2  0
 33 27  2  0
 16  8  1  0
 25 21  1  0
 17  8  1  0
 15 10  1  0
  1 34  1  0
  1 35  1  0
  1 36  1  0
  6 37  1  0
  7 38  1  0
  7 39  1  0
  9 40  1  0
  9 41  1  0
 10 42  1  6
 11 43  1  0
 11 44  1  0
 12 45  1  6
 13 46  1  0
 13 47  1  0
 14 48  1  1
 15 49  1  0
 15 50  1  0
 16 51  1  0
 16 52  1  0
 17 53  1  0
 17 54  1  0
 18 55  1  0
 20 56  1  0
 20 57  1  0
 21 58  1  0
 22 59  1  0
 22 60  1  0
 23 61  1  0
 23 62  1  0
 24 63  1  0
 24 64  1  0
 25 65  1  0
 25 66  1  0
 28 67  1  0
 29 68  1  0
 32 69  1  0
 33 70  1  0
M  END
>  <meeko>  (86) 
{"is_sidechain": false}

$$$$

     RDKit          3D

 64 69  0  0  0  0  0  0  0  0999 V2000
    5.6200   -0.5420  -53.5650 C   0  0  0  0  0  0  0  0  0  0  0  0
    7.0420   -0.6310  -54.0070 C   0  0  0  0  0  0  0  0  0  0  0  0
    7.6830    0.1550  -55.0300 C   0  0  0  0  0  0  0  0  0  0  0  0
    7.1760    1.2490  -55.8610 C   0  0  0  0  0  0  0  0  0  0  0  0
    5.9770    1.4190  -56.0550 O   0  0  0  0  0  0  0  0  0  0  0  0
    8.1530    2.0270  -56.4390 N   0  0  0  0  0  0  0  0  0  0  0  0
    7.8510    3.1370  -57.3180 C   0  0  0  0  0  0  0  0  0  0  0  0
    9.0650    3.6080  -58.1470 C   0  0  2  0  0  0  0  0  0  0  0  0
    9.4850    2.4680  -59.1130 C   0  0  0  0  0  0  0  0  0  0  0  0
   10.6970    2.8890  -59.9620 C   0  0  1  0  0  0  0  0  0  0  0  0
   10.3300    4.1350  -60.7830 C   0  0  0  0  0  0  0  0  0  0  0  0
    9.9370    5.2860  -59.8440 C   0  0  2  0  0  0  0  0  0  0  0  0
   11.1170    5.6080  -58.9130 C   0  0  0  0  0  0  0  0  0  0  0  0
   11.4890    4.3670  -58.0840 C   0  0  2  0  0  0  0  0  0  0  0  0
   11.8750    3.2210  -59.0330 C   0  0  0  0  0  0  0  0  0  0  0  0
   10.2760    3.9410  -57.2390 C   0  0  0  0  0  0  0  0  0  0  0  0
    8.7250    4.8600  -58.9960 C   0  0  0  0  0  0  0  0  0  0  0  0
    8.9670   -0.3440  -55.1510 C   0  0  0  0  0  0  0  0  0  0  0  0
    9.1450   -1.3540  -54.2430 N   0  0  0  0  0  0  0  0  0  0  0  0
   10.4040   -2.0820  -54.0700 C   0  0  0  0  0  0  0  0  0  0  0  0
   10.6910   -2.9930  -55.2280 C   0  0  0  0  0  0  0  0  0  0  0  0
   10.2960   -4.3010  -55.4350 C   0  0  0  0  0  0  0  0  0  0  0  0
   10.7670   -4.8250  -56.6740 C   0  0  0  0  0  0  0  0  0  0  0  0
   11.4950   -3.8970  -57.3810 C   0  0  0  0  0  0  0  0  0  0  0  0
   11.6050   -2.4030  -56.5570 S   0  0  0  0  0  0  0  0  0  0  0  0
    7.9870   -1.5270  -53.5140 C   0  0  0  0  0  0  0  0  0  0  0  0
    7.8430   -2.5220  -52.4530 C   0  0  0  0  0  0  0  0  0  0  0  0
    7.4660   -3.8320  -52.7660 C   0  0  0  0  0  0  0  0  0  0  0  0
    7.3250   -4.7840  -51.7540 C   0  0  0  0  0  0  0  0  0  0  0  0
    7.5630   -4.4300  -50.4270 C   0  0  0  0  0  0  0  0  0  0  0  0
    7.9470   -3.1270  -50.1090 C   0  0  0  0  0  0  0  0  0  0  0  0
    8.0900   -2.1760  -51.1210 C   0  0  0  0  0  0  0  0  0  0  0  0
    5.5772   -0.5393  -52.4658 H   0  0  0  0  0  0  0  0  0  0  0  0
    5.1732    0.3859  -53.9516 H   0  0  0  0  0  0  0  0  0  0  0  0
    5.0610   -1.4069  -53.9516 H   0  0  0  0  0  0  0  0  0  0  0  0
    9.1130    1.7260  -56.3520 H   0  0  0  0  0  0  0  0  0  0  0  0
    7.0545    2.8271  -58.0105 H   0  0  0  0  0  0  0  0  0  0  0  0
    7.5434    3.9808  -56.6829 H   0  0  0  0  0  0  0  0  0  0  0  0
    9.7488    1.5764  -58.5253 H   0  0  0  0  0  0  0  0  0  0  0  0
    8.6429    2.2483  -59.7858 H   0  0  0  0  0  0  0  0  0  0  0  0
   10.9798    2.0694  -60.6389 H   0  0  0  0  0  0  0  0  0  0  0  0
   11.1955    4.4393  -61.3899 H   0  0  0  0  0  0  0  0  0  0  0  0
    9.4794    3.8976  -61.4389 H   0  0  0  0  0  0  0  0  0  0  0  0
    9.6798    6.1753  -60.4382 H   0  0  0  0  0  0  0  0  0  0  0  0
   11.9836    5.9156  -59.5167 H   0  0  0  0  0  0  0  0  0  0  0  0
   10.8274    6.4224  -58.2326 H   0  0  0  0  0  0  0  0  0  0  0  0
   12.3368    4.6015  -57.4235 H   0  0  0  0  0  0  0  0  0  0  0  0
   12.7417    3.5254  -59.6382 H   0  0  0  0  0  0  0  0  0  0  0  0
   12.1289    2.3304  -58.4393 H   0  0  0  0  0  0  0  0  0  0  0  0
   10.5412    3.0507  -56.6500 H   0  0  0  0  0  0  0  0  0  0  0  0
   10.0003    4.7716  -56.5726 H   0  0  0  0  0  0  0  0  0  0  0  0
    8.4447    5.6859  -58.3257 H   0  0  0  0  0  0  0  0  0  0  0  0
    7.8900    4.6156  -59.6691 H   0  0  0  0  0  0  0  0  0  0  0  0
    9.7251    0.0134  -55.8634 H   0  0  0  0  0  0  0  0  0  0  0  0
   11.2246   -1.3553  -53.9781 H   0  0  0  0  0  0  0  0  0  0  0  0
   10.3169   -2.7007  -53.1647 H   0  0  0  0  0  0  0  0  0  0  0  0
    9.6854   -4.8745  -54.7221 H   0  0  0  0  0  0  0  0  0  0  0  0
   10.5715   -5.8497  -57.0231 H   0  0  0  0  0  0  0  0  0  0  0  0
   11.9529   -4.0929  -58.3618 H   0  0  0  0  0  0  0  0  0  0  0  0
    7.2799   -4.1134  -53.8130 H   0  0  0  0  0  0  0  0  0  0  0  0
    7.0263   -5.8127  -52.0040 H   0  0  0  0  0  0  0  0  0  0  0  0
    7.4479   -5.1789  -49.6296 H   0  0  0  0  0  0  0  0  0  0  0  0
    8.1369   -2.8492  -49.0617 H   0  0  0  0  0  0  0  0  0  0  0  0
    8.3982   -1.1505  -50.8695 H   0  0  0  0  0  0  0  0  0  0  0  0
  1  2  1  0
  2  3  1  0
  3  4  1  0
  4  5  2  0
  4  6  1  0
  6  7  1  0
  8  7  1  1
  8  9  1  0
  9 10  1  0
 10 11  1  0
 11 12  1  0
 12 13  1  0
 13 14  1  0
 14 15  1  0
 14 16  1  0
 12 17  1  0
  3 18  2  0
 18 19  1  0
 19 20  1  0
 20 21  1  0
 21 22  2  0
 22 23  1  0
 23 24  2  0
 24 25  1  0
 19 26  1  0
 26 27  1  0
 27 28  2  0
 28 29  1  0
 29 30  2  0
 30 31  1  0
 31 32  2  0
 26  2  2  0
 32 27  1  0
 16  8  1  0
 25 21  1  0
 17  8  1  0
 15 10  1  0
  1 33  1  0
  1 34  1  0
  1 35  1  0
  6 36  1  0
  7 37  1  0
  7 38  1  0
  9 39  1  0
  9 40  1  0
 10 41  1  6
 11 42  1  0
 11 43  1  0
 12 44  1  6
 13 45  1  0
 13 46  1  0
 14 47  1  1
 15 48  1  0
 15 49  1  0
 16 50  1  0
 16 51  1  0
 17 52  1  0
 17 53  1  0
 18 54  1  0
 20 55  1  0
 20 56  1  0
 22 57  1  0
 23 58  1  0
 24 59  1  0
 28 60  1  0
 29 61  1  0
 30 62  1  0
 31 63  1  0
 32 64  1  0
M  END
>  <meeko>  (87) 
{"is_sidechain": false}

$$$$

     RDKit          3D

 36 37  0  0  0  0  0  0  0  0999 V2000
    8.7990    4.0210  -57.2950 O   0  0  0  0  0  0  0  0  0  0  0  0
    8.4250    2.8950  -57.6080 C   0  0  0  0  0  0  0  0  0  0  0  0
    8.3730    2.4930  -58.9300 N   0  0  0  0  0  0  0  0  0  0  0  0
    8.9120    3.3550  -59.9670 C   0  0  0  0  0  0  0  0  0  0  0  0
   10.3420    2.9700  -60.4080 C   0  0  0  0  0  0  0  0  0  0  0  0
   11.4220    3.8670  -59.8540 N   0  0  0  0  0  0  0  0  0  0  0  0
   11.0590    5.3440  -59.8220 C   0  0  0  0  0  0  0  0  0  0  0  0
   12.3360    6.1680  -59.5670 C   0  0  0  0  0  0  0  0  0  0  0  0
   13.3960    5.3910  -58.9840 O   0  0  0  0  0  0  0  0  0  0  0  0
   12.9120    4.5290  -57.9500 C   0  0  0  0  0  0  0  0  0  0  0  0
   12.0560    3.4070  -58.5540 C   0  0  0  0  0  0  0  0  0  0  0  0
    8.0340    1.8970  -56.5750 C   0  0  0  0  0  0  0  0  0  0  0  0
    6.6840    1.5340  -56.4800 C   0  0  0  0  0  0  0  0  0  0  0  0
    6.2710    0.6000  -55.5260 C   0  0  0  0  0  0  0  0  0  0  0  0
    7.2090    0.0210  -54.6750 C   0  0  0  0  0  0  0  0  0  0  0  0
    6.6530   -1.2450  -53.3880 Br  0  0  0  0  0  0  0  0  0  0  0  0
    8.5580    0.3630  -54.7710 C   0  0  0  0  0  0  0  0  0  0  0  0
    8.9740    1.2990  -55.7230 C   0  0  0  0  0  0  0  0  0  0  0  0
    8.3310    1.4950  -59.1140 H   0  0  0  0  0  0  0  0  0  0  0  0
    8.2505    3.2997  -60.8442 H   0  0  0  0  0  0  0  0  0  0  0  0
    8.9655    4.3705  -59.5477 H   0  0  0  0  0  0  0  0  0  0  0  0
   10.5416    1.9417  -60.0723 H   0  0  0  0  0  0  0  0  0  0  0  0
   10.3745    3.0744  -61.5026 H   0  0  0  0  0  0  0  0  0  0  0  0
   12.1950    3.8360  -60.5350 H   0  0  0  0  0  0  0  0  0  0  0  0
   10.6176    5.6364  -60.7862 H   0  0  0  0  0  0  0  0  0  0  0  0
   10.3295    5.5306  -59.0201 H   0  0  0  0  0  0  0  0  0  0  0  0
   12.6871    6.5770  -60.5259 H   0  0  0  0  0  0  0  0  0  0  0  0
   12.0783    6.9636  -58.8524 H   0  0  0  0  0  0  0  0  0  0  0  0
   13.7660    4.0872  -57.4156 H   0  0  0  0  0  0  0  0  0  0  0  0
   12.2958    5.1153  -57.2525 H   0  0  0  0  0  0  0  0  0  0  0  0
   12.6923    2.5316  -58.7509 H   0  0  0  0  0  0  0  0  0  0  0  0
   11.2598    3.1430  -57.8424 H   0  0  0  0  0  0  0  0  0  0  0  0
    5.9462    1.9861  -57.1592 H   0  0  0  0  0  0  0  0  0  0  0  0
    5.2093    0.3233  -55.4476 H   0  0  0  0  0  0  0  0  0  0  0  0
    9.2935   -0.1030  -54.0988 H   0  0  0  0  0  0  0  0  0  0  0  0
   10.0380    1.5662  -55.8036 H   0  0  0  0  0  0  0  0  0  0  0  0
  1  2  2  0
  2  3  1  0
  3  4  1  0
  4  5  1  0
  5  6  1  0
  6  7  1  0
  7  8  1  0
  8  9  1  0
  9 10  1  0
 10 11  1  0
  2 12  1  0
 12 13  1  0
 13 14  2  0
 14 15  1  0
 15 16  1  0
 15 17  2  0
 17 18  1  0
 11  6  1  0
 18 12  2  0
  3 19  1  0
  4 20  1  0
  4 21  1  0
  5 22  1  0
  5 23  1  0
  6 24  1  0
  7 25  1  0
  7 26  1  0
  8 27  1  0
  8 28  1  0
 10 29  1  0
 10 30  1  0
 11 31  1  0
 11 32  1  0
 13 33  1  0
 14 34  1  0
 17 35  1  0
 18 36  1  0
M  CHG  1   6   1
M  END
>  <meeko>  (88) 
{"is_sidechain": false}

$$$$

     RDKit          3D

 61 64  0  0  0  0  0  0  0  0999 V2000
    7.7540   -5.9600  -50.0910 C   0  0  0  0  0  0  0  0  0  0  0  0
    6.7270   -4.8530  -49.9010 C   0  0  0  0  0  0  0  0  0  0  0  0
    6.6560   -3.8800  -51.0920 C   0  0  1  0  0  0  0  0  0  0  0  0
    7.5740   -2.6740  -50.8600 C   0  0  0  0  0  0  0  0  0  0  0  0
    7.4210   -1.6160  -51.9570 C   0  0  0  0  0  0  0  0  0  0  0  0
    6.9980   -2.1950  -53.3170 C   0  0  1  0  0  0  0  0  0  0  0  0
    7.4470   -1.3350  -54.4030 N   0  0  0  0  0  0  0  0  0  0  0  0
    6.6260   -0.3670  -54.9480 C   0  0  0  0  0  0  0  0  0  0  0  0
    5.4500   -0.2290  -54.6270 O   0  0  0  0  0  0  0  0  0  0  0  0
    7.3190    0.5130  -55.9790 C   0  0  1  0  0  0  0  0  0  0  0  0
    6.7060    1.9160  -56.0180 C   0  0  0  0  0  0  0  0  0  0  0  0
    7.3340    2.7390  -57.1400 C   0  0  0  0  0  0  0  0  0  0  0  0
    8.8410    2.6690  -57.1550 C   0  0  0  0  0  0  0  0  0  0  0  0
    9.5590    3.6190  -57.9020 C   0  0  0  0  0  0  0  0  0  0  0  0
   10.9610    3.5960  -57.9730 C   0  0  0  0  0  0  0  0  0  0  0  0
   11.6990    4.6010  -58.7540 C   0  0  0  0  0  0  0  0  0  0  0  0
   11.0230    5.5770  -59.5040 C   0  0  0  0  0  0  0  0  0  0  0  0
   11.7220    6.5320  -60.2470 C   0  0  0  0  0  0  0  0  0  0  0  0
   13.1210    6.5440  -60.2500 C   0  0  0  0  0  0  0  0  0  0  0  0
   13.8720    7.5470  -61.0740 C   0  0  0  0  0  0  0  0  0  0  0  0
   13.8050    5.5680  -59.5200 C   0  0  0  0  0  0  0  0  0  0  0  0
   13.1030    4.6140  -58.7780 C   0  0  0  0  0  0  0  0  0  0  0  0
   11.6370    2.5850  -57.2750 C   0  0  0  0  0  0  0  0  0  0  0  0
   10.9350    1.6270  -56.5380 C   0  0  0  0  0  0  0  0  0  0  0  0
    9.5360    1.6510  -56.4830 C   0  0  0  0  0  0  0  0  0  0  0  0
    8.8150    0.6140  -55.6560 C   0  0  0  0  0  0  0  0  0  0  0  0
    7.5320   -3.6140  -53.4980 C   0  0  0  0  0  0  0  0  0  0  0  0
    6.9960   -4.5700  -52.4260 C   0  0  0  0  0  0  0  0  0  0  0  0
    8.0895   -6.3216  -49.1078 H   0  0  0  0  0  0  0  0  0  0  0  0
    7.2990   -6.7901  -50.6513 H   0  0  0  0  0  0  0  0  0  0  0  0
    8.6158   -5.5684  -50.6513 H   0  0  0  0  0  0  0  0  0  0  0  0
    5.7372   -5.3138  -49.7666 H   0  0  0  0  0  0  0  0  0  0  0  0
    7.0345   -4.2697  -49.0205 H   0  0  0  0  0  0  0  0  0  0  0  0
    5.6164   -3.5275  -51.1624 H   0  0  0  0  0  0  0  0  0  0  0  0
    7.3238   -2.2188  -49.8904 H   0  0  0  0  0  0  0  0  0  0  0  0
    8.6142   -3.0313  -50.8757 H   0  0  0  0  0  0  0  0  0  0  0  0
    6.6592   -0.8902  -51.6361 H   0  0  0  0  0  0  0  0  0  0  0  0
    8.4085   -1.1522  -52.0973 H   0  0  0  0  0  0  0  0  0  0  0  0
    5.8992   -2.2396  -53.3409 H   0  0  0  0  0  0  0  0  0  0  0  0
    8.4350   -1.3140  -54.6170 H   0  0  0  0  0  0  0  0  0  0  0  0
    7.1816    0.0501  -56.9674 H   0  0  0  0  0  0  0  0  0  0  0  0
    5.6228    1.8338  -56.1912 H   0  0  0  0  0  0  0  0  0  0  0  0
    6.8978    2.4165  -55.0574 H   0  0  0  0  0  0  0  0  0  0  0  0
    6.9568    2.3634  -58.1026 H   0  0  0  0  0  0  0  0  0  0  0  0
    7.0568    3.7898  -56.9698 H   0  0  0  0  0  0  0  0  0  0  0  0
    9.0080    4.4009  -58.4451 H   0  0  0  0  0  0  0  0  0  0  0  0
    9.9231    5.5900  -59.5067 H   0  0  0  0  0  0  0  0  0  0  0  0
   11.1683    7.2797  -60.8338 H   0  0  0  0  0  0  0  0  0  0  0  0
   14.3972    8.2484  -60.4090 H   0  0  0  0  0  0  0  0  0  0  0  0
   14.6038    7.0258  -61.7087 H   0  0  0  0  0  0  0  0  0  0  0  0
   13.1659    8.1025  -61.7087 H   0  0  0  0  0  0  0  0  0  0  0  0
   14.9048    5.5505  -59.5295 H   0  0  0  0  0  0  0  0  0  0  0  0
   13.6602    3.8600  -58.2026 H   0  0  0  0  0  0  0  0  0  0  0  0
   12.7358    2.5453  -57.3079 H   0  0  0  0  0  0  0  0  0  0  0  0
   11.4875    0.8458  -55.9953 H   0  0  0  0  0  0  0  0  0  0  0  0
    9.2793   -0.3656  -55.8423 H   0  0  0  0  0  0  0  0  0  0  0  0
    8.9009    0.9199  -54.6029 H   0  0  0  0  0  0  0  0  0  0  0  0
    7.2281   -3.9843  -54.4882 H   0  0  0  0  0  0  0  0  0  0  0  0
    8.6276   -3.5793  -53.4055 H   0  0  0  0  0  0  0  0  0  0  0  0
    6.0833   -5.0474  -52.8121 H   0  0  0  0  0  0  0  0  0  0  0  0
    7.7948   -5.2967  -52.2164 H   0  0  0  0  0  0  0  0  0  0  0  0
  1  2  1  0
  2  3  1  0
  3  4  1  0
  4  5  1  0
  5  6  1  0
  6  7  1  0
  7  8  1  0
  8  9  2  0
  8 10  1  0
 10 11  1  0
 11 12  1  0
 12 13  1  0
 13 14  1  0
 14 15  2  0
 15 16  1  0
 16 17  1  0
 17 18  2  0
 18 19  1  0
 19 20  1  0
 19 21  2  0
 21 22  1  0
 15 23  1  0
 23 24  2  0
 24 25  1  0
 25 26  1  0
  6 27  1  0
 27 28  1  0
 28  3  1  0
 26 10  1  0
 25 13  2  0
 22 16  2  0
  1 29  1  0
  1 30  1  0
  1 31  1  0
  2 32  1  0
  2 33  1  0
  3 34  1  6
  4 35  1  0
  4 36  1  0
  5 37  1  0
  5 38  1  0
  6 39  1  1
  7 40  1  0
 10 41  1  6
 11 42  1  0
 11 43  1  0
 12 44  1  0
 12 45  1  0
 14 46  1  0
 17 47  1  0
 18 48  1  0
 20 49  1  0
 20 50  1  0
 20 51  1  0
 21 52  1  0
 22 53  1  0
 23 54  1  0
 24 55  1  0
 26 56  1  0
 26 57  1  0
 27 58  1  0
 27 59  1  0
 28 60  1  0
 28 61  1  0
M  END
>  <meeko>  (89) 
{"is_sidechain": false}

$$$$

     RDKit          3D

 63 65  0  0  0  0  0  0  0  0999 V2000
    9.2370   -3.3680  -52.3980 C   0  0  0  0  0  0  0  0  0  0  0  0
    8.6130   -1.9710  -52.5450 C   0  0  0  0  0  0  0  0  0  0  0  0
    7.5890   -1.7660  -51.4300 C   0  0  0  0  0  0  0  0  0  0  0  0
    8.1000   -1.7540  -53.9960 C   0  0  1  0  0  0  0  0  0  0  0  0
    6.6950   -1.1450  -54.1070 C   0  0  0  0  0  0  0  0  0  0  0  0
    6.8900    0.3640  -54.2140 C   0  0  0  0  0  0  0  0  0  0  0  0
    8.3110    0.5780  -54.7500 C   0  0  2  0  0  0  0  0  0  0  0  0
    8.3430    1.3800  -56.0480 C   0  0  0  0  0  0  0  0  0  0  0  0
    7.3910    1.3760  -56.8240 O   0  0  0  0  0  0  0  0  0  0  0  0
    9.4850    2.1210  -56.2570 N   0  0  0  0  0  0  0  0  0  0  0  0
    9.6220    3.0630  -57.3660 C   0  0  2  0  0  0  0  0  0  0  0  0
   10.6540    2.5230  -58.3720 C   0  0  0  0  0  0  0  0  0  0  0  0
   12.0620    3.0230  -58.0720 C   0  0  0  0  0  0  0  0  0  0  0  0
   12.1480    4.5470  -58.1520 C   0  0  0  0  0  0  0  0  0  0  0  0
   10.8270    5.2520  -57.8320 C   0  0  0  0  0  0  0  0  0  0  0  0
    9.9930    4.4650  -56.8150 C   0  0  1  0  0  0  0  0  0  0  0  0
    8.7490    5.2580  -56.4120 C   0  0  0  0  0  0  0  0  0  0  0  0
    8.9190   -0.8290  -54.9270 C   0  0  1  0  0  0  0  0  0  0  0  0
   10.4450   -0.8370  -54.7710 C   0  0  0  0  0  0  0  0  0  0  0  0
   11.1680   -1.0410  -56.1070 C   0  0  0  0  0  0  0  0  0  0  0  0
   11.3920   -2.5040  -56.3970 C   0  0  0  0  0  0  0  0  0  0  0  0
   11.1280   -3.4720  -55.4170 C   0  0  0  0  0  0  0  0  0  0  0  0
   11.3190   -4.8280  -55.6920 C   0  0  0  0  0  0  0  0  0  0  0  0
   11.7720   -5.2210  -56.9500 C   0  0  0  0  0  0  0  0  0  0  0  0
   12.0320   -7.0550  -57.3220 Br  0  0  0  0  0  0  0  0  0  0  0  0
   12.0330   -4.2710  -57.9350 C   0  0  0  0  0  0  0  0  0  0  0  0
   11.8400   -2.9160  -57.6600 C   0  0  0  0  0  0  0  0  0  0  0  0
    9.3454   -3.6107  -51.3306 H   0  0  0  0  0  0  0  0  0  0  0  0
    8.5860   -4.1128  -52.8791 H   0  0  0  0  0  0  0  0  0  0  0  0
   10.2261   -3.3802  -52.8791 H   0  0  0  0  0  0  0  0  0  0  0  0
    9.3589   -1.1740  -52.4094 H   0  0  0  0  0  0  0  0  0  0  0  0
    8.0854   -1.8654  -50.4534 H   0  0  0  0  0  0  0  0  0  0  0  0
    7.1484   -0.7618  -51.5169 H   0  0  0  0  0  0  0  0  0  0  0  0
    6.7958   -2.5232  -51.5169 H   0  0  0  0  0  0  0  0  0  0  0  0
    8.1684   -2.8046  -54.3148 H   0  0  0  0  0  0  0  0  0  0  0  0
    6.1837   -1.5275  -55.0027 H   0  0  0  0  0  0  0  0  0  0  0  0
    6.0755   -1.4075  -53.2368 H   0  0  0  0  0  0  0  0  0  0  0  0
    6.1526    0.7950  -54.9072 H   0  0  0  0  0  0  0  0  0  0  0  0
    6.7525    0.8548  -53.2392 H   0  0  0  0  0  0  0  0  0  0  0  0
    8.8984    1.1820  -54.0428 H   0  0  0  0  0  0  0  0  0  0  0  0
   10.1900    2.1450  -55.5330 H   0  0  0  0  0  0  0  0  0  0  0  0
    8.6685    3.1702  -57.9039 H   0  0  0  0  0  0  0  0  0  0  0  0
   10.6509    1.4239  -58.3280 H   0  0  0  0  0  0  0  0  0  0  0  0
   10.3725    2.8828  -59.3726 H   0  0  0  0  0  0  0  0  0  0  0  0
   12.3462    2.7023  -57.0589 H   0  0  0  0  0  0  0  0  0  0  0  0
   12.7443    2.6004  -58.8243 H   0  0  0  0  0  0  0  0  0  0  0  0
   12.9084    4.8907  -57.4353 H   0  0  0  0  0  0  0  0  0  0  0  0
   12.4070    4.8019  -59.1902 H   0  0  0  0  0  0  0  0  0  0  0  0
   11.0459    6.2476  -57.4186 H   0  0  0  0  0  0  0  0  0  0  0  0
   10.2466    5.3292  -58.7632 H   0  0  0  0  0  0  0  0  0  0  0  0
   10.6013    4.3115  -55.9115 H   0  0  0  0  0  0  0  0  0  0  0  0
    8.6812    5.3012  -55.3149 H   0  0  0  0  0  0  0  0  0  0  0  0
    8.8183    6.2789  -56.8156 H   0  0  0  0  0  0  0  0  0  0  0  0
    7.8527    4.7642  -56.8156 H   0  0  0  0  0  0  0  0  0  0  0  0
    8.8296   -1.2161  -55.9528 H   0  0  0  0  0  0  0  0  0  0  0  0
   10.7612    0.1251  -54.3415 H   0  0  0  0  0  0  0  0  0  0  0  0
   10.7105   -1.6784  -54.1141 H   0  0  0  0  0  0  0  0  0  0  0  0
   10.5588   -0.6061  -56.9131 H   0  0  0  0  0  0  0  0  0  0  0  0
   12.1490   -0.5470  -56.0472 H   0  0  0  0  0  0  0  0  0  0  0  0
   10.7681   -3.1612  -54.4251 H   0  0  0  0  0  0  0  0  0  0  0  0
   11.1127   -5.5827  -54.9188 H   0  0  0  0  0  0  0  0  0  0  0  0
   12.3900   -4.5875  -58.9262 H   0  0  0  0  0  0  0  0  0  0  0  0
   12.0408   -2.1664  -58.4396 H   0  0  0  0  0  0  0  0  0  0  0  0
  1  2  1  0
  2  3  1  0
  2  4  1  0
  4  5  1  0
  5  6  1  0
  6  7  1  0
  7  8  1  0
  8  9  2  0
  8 10  1  0
 10 11  1  0
 11 12  1  0
 12 13  1  0
 13 14  1  0
 14 15  1  0
 15 16  1  0
 16 17  1  0
  7 18  1  0
 18 19  1  0
 19 20  1  0
 20 21  1  0
 21 22  1  0
 22 23  2  0
 23 24  1  0
 24 25  1  0
 24 26  2  0
 26 27  1  0
 18  4  1  0
 27 21  2  0
 16 11  1  0
  1 28  1  0
  1 29  1  0
  1 30  1  0
  2 31  1  0
  3 32  1  0
  3 33  1  0
  3 34  1  0
  4 35  1  6
  5 36  1  0
  5 37  1  0
  6 38  1  0
  6 39  1  0
  7 40  1  1
 10 41  1  0
 11 42  1  6
 12 43  1  0
 12 44  1  0
 13 45  1  0
 13 46  1  0
 14 47  1  0
 14 48  1  0
 15 49  1  0
 15 50  1  0
 16 51  1  1
 17 52  1  0
 17 53  1  0
 17 54  1  0
 18 55  1  6
 19 56  1  0
 19 57  1  0
 20 58  1  0
 20 59  1  0
 22 60  1  0
 23 61  1  0
 26 62  1  0
 27 63  1  0
M  END
>  <meeko>  (90) 
{"is_sidechain": false}

$$$$

     RDKit          3D

 63 65  0  0  0  0  0  0  0  0999 V2000
   11.5930    4.5100  -57.3670 C   0  0  0  0  0  0  0  0  0  0  0  0
   10.3630    5.2800  -57.8760 C   0  0  0  0  0  0  0  0  0  0  0  0
    9.3540    5.3540  -56.7280 C   0  0  0  0  0  0  0  0  0  0  0  0
    9.8600    4.6450  -59.1940 C   0  0  1  0  0  0  0  0  0  0  0  0
   10.8680    3.7970  -59.9890 C   0  0  0  0  0  0  0  0  0  0  0  0
   10.0210    2.9260  -60.9270 C   0  0  0  0  0  0  0  0  0  0  0  0
    8.5660    3.3160  -60.6550 C   0  0  1  0  0  0  0  0  0  0  0  0
    7.4970    2.2910  -61.0230 C   0  0  0  0  0  0  0  0  0  0  0  0
    7.7650    1.1250  -61.2980 O   0  0  0  0  0  0  0  0  0  0  0  0
    6.2020    2.7530  -60.9090 N   0  0  0  0  0  0  0  0  0  0  0  0
    5.0620    1.9270  -61.2920 C   0  0  2  0  0  0  0  0  0  0  0  0
    4.8180    2.0530  -62.8090 C   0  0  0  0  0  0  0  0  0  0  0  0
    3.3600    1.8490  -63.2230 C   0  0  0  0  0  0  0  0  0  0  0  0
    2.6500    0.8710  -62.3030 C   0  0  0  0  0  0  0  0  0  0  0  0
    2.6230    1.3650  -60.8560 C   0  0  0  0  0  0  0  0  0  0  0  0
    3.8000    2.2910  -60.4860 C   0  0  1  0  0  0  0  0  0  0  0  0
    4.0320    2.2440  -58.9720 C   0  0  0  0  0  0  0  0  0  0  0  0
    8.5830    3.7620  -59.1680 C   0  0  1  0  0  0  0  0  0  0  0  0
    8.6280    2.5720  -58.1820 C   0  0  0  0  0  0  0  0  0  0  0  0
    7.3310    2.4410  -57.3720 C   0  0  0  0  0  0  0  0  0  0  0  0
    7.4690    1.4360  -56.2530 C   0  0  0  0  0  0  0  0  0  0  0  0
    6.3460    0.7670  -55.7490 C   0  0  0  0  0  0  0  0  0  0  0  0
    6.4790   -0.1490  -54.7040 C   0  0  0  0  0  0  0  0  0  0  0  0
    7.7360   -0.3990  -54.1580 C   0  0  0  0  0  0  0  0  0  0  0  0
    7.9160   -1.6400  -52.7430 Br  0  0  0  0  0  0  0  0  0  0  0  0
    8.8620    0.2600  -54.6460 C   0  0  0  0  0  0  0  0  0  0  0  0
    8.7280    1.1770  -55.6910 C   0  0  0  0  0  0  0  0  0  0  0  0
   11.5953    4.5086  -56.2670 H   0  0  0  0  0  0  0  0  0  0  0  0
   11.5552    3.4741  -57.7350 H   0  0  0  0  0  0  0  0  0  0  0  0
   12.5083    4.9966  -57.7350 H   0  0  0  0  0  0  0  0  0  0  0  0
   10.5859    6.3211  -58.1526 H   0  0  0  0  0  0  0  0  0  0  0  0
    9.8882    5.3148  -55.7672 H   0  0  0  0  0  0  0  0  0  0  0  0
    8.7899    6.2959  -56.7958 H   0  0  0  0  0  0  0  0  0  0  0  0
    8.6585    4.5044  -56.7958 H   0  0  0  0  0  0  0  0  0  0  0  0
    9.6449    5.6113  -59.6735 H   0  0  0  0  0  0  0  0  0  0  0  0
   11.5417    4.4444  -60.5694 H   0  0  0  0  0  0  0  0  0  0  0  0
   11.5008    3.1878  -59.3268 H   0  0  0  0  0  0  0  0  0  0  0  0
   10.2820    3.1270  -61.9765 H   0  0  0  0  0  0  0  0  0  0  0  0
   10.1932    1.8540  -60.7507 H   0  0  0  0  0  0  0  0  0  0  0  0
    8.2382    4.1188  -61.3319 H   0  0  0  0  0  0  0  0  0  0  0  0
    6.0480    3.7470  -60.8210 H   0  0  0  0  0  0  0  0  0  0  0  0
    5.2944    0.8779  -61.0565 H   0  0  0  0  0  0  0  0  0  0  0  0
    5.1307    3.0584  -63.1274 H   0  0  0  0  0  0  0  0  0  0  0  0
    5.4010    1.2554  -63.2927 H   0  0  0  0  0  0  0  0  0  0  0  0
    2.8392    2.8172  -63.1853 H   0  0  0  0  0  0  0  0  0  0  0  0
    3.3460    1.4353  -64.2422 H   0  0  0  0  0  0  0  0  0  0  0  0
    1.6155    0.7403  -62.6534 H   0  0  0  0  0  0  0  0  0  0  0  0
    3.2007   -0.0809  -62.3277 H   0  0  0  0  0  0  0  0  0  0  0  0
    1.6852    1.9174  -60.6967 H   0  0  0  0  0  0  0  0  0  0  0  0
    2.7051    0.4750  -60.2148 H   0  0  0  0  0  0  0  0  0  0  0  0
    3.5520    3.3283  -60.7553 H   0  0  0  0  0  0  0  0  0  0  0  0
    3.0833    2.4362  -58.4495 H   0  0  0  0  0  0  0  0  0  0  0  0
    4.4113    1.2508  -58.6898 H   0  0  0  0  0  0  0  0  0  0  0  0
    4.7680    3.0113  -58.6898 H   0  0  0  0  0  0  0  0  0  0  0  0
    7.6843    4.2841  -58.8079 H   0  0  0  0  0  0  0  0  0  0  0  0
    8.7844    1.6448  -58.7527 H   0  0  0  0  0  0  0  0  0  0  0  0
    9.4513    2.7504  -57.4747 H   0  0  0  0  0  0  0  0  0  0  0  0
    7.0794    3.4214  -56.9413 H   0  0  0  0  0  0  0  0  0  0  0  0
    6.5378    2.0922  -58.0497 H   0  0  0  0  0  0  0  0  0  0  0  0
    5.3532    0.9647  -56.1794 H   0  0  0  0  0  0  0  0  0  0  0  0
    5.5938   -0.6719  -54.3128 H   0  0  0  0  0  0  0  0  0  0  0  0
    9.8519    0.0592  -54.2105 H   0  0  0  0  0  0  0  0  0  0  0  0
    9.6159    1.6998  -56.0760 H   0  0  0  0  0  0  0  0  0  0  0  0
  1  2  1  0
  2  3  1  0
  2  4  1  0
  4  5  1  0
  5  6  1  0
  6  7  1  0
  7  8  1  0
  8  9  2  0
  8 10  1  0
 10 11  1  0
 11 12  1  0
 12 13  1  0
 13 14  1  0
 14 15  1  0
 15 16  1  0
 16 17  1  0
  7 18  1  0
 18 19  1  0
 19 20  1  0
 20 21  1  0
 21 22  1  0
 22 23  2  0
 23 24  1  0
 24 25  1  0
 24 26  2  0
 26 27  1  0
 18  4  1  0
 27 21  2  0
 16 11  1  0
  1 28  1  0
  1 29  1  0
  1 30  1  0
  2 31  1  0
  3 32  1  0
  3 33  1  0
  3 34  1  0
  4 35  1  6
  5 36  1  0
  5 37  1  0
  6 38  1  0
  6 39  1  0
  7 40  1  6
 10 41  1  0
 11 42  1  6
 12 43  1  0
 12 44  1  0
 13 45  1  0
 13 46  1  0
 14 47  1  0
 14 48  1  0
 15 49  1  0
 15 50  1  0
 16 51  1  6
 17 52  1  0
 17 53  1  0
 17 54  1  0
 18 55  1  1
 19 56  1  0
 19 57  1  0
 20 58  1  0
 20 59  1  0
 22 60  1  0
 23 61  1  0
 26 62  1  0
 27 63  1  0
M  END
>  <meeko>  (91) 
{"is_sidechain": false}

$$$$

     RDKit          3D

 42 44  0  0  0  0  0  0  0  0999 V2000
   10.4940    2.5310  -57.5140 C   0  0  0  0  0  0  0  0  0  0  0  0
    9.0970    2.7890  -57.4680 O   0  0  0  0  0  0  0  0  0  0  0  0
    8.3410    1.9690  -56.6800 C   0  0  0  0  0  0  0  0  0  0  0  0
    9.0600    1.2650  -55.7100 C   0  0  0  0  0  0  0  0  0  0  0  0
    8.4120    0.3880  -54.8340 C   0  0  0  0  0  0  0  0  0  0  0  0
    7.0280    0.2080  -54.9200 C   0  0  0  0  0  0  0  0  0  0  0  0
    6.2800   -0.7070  -54.0160 C   0  0  0  0  0  0  0  0  0  0  0  0
    5.5120   -0.3200  -53.1490 O   0  0  0  0  0  0  0  0  0  0  0  0
    6.5810   -2.0000  -54.2890 O   0  0  0  0  0  0  0  0  0  0  0  0
    6.8250   -2.8370  -53.1440 C   0  0  0  0  0  0  0  0  0  0  0  0
    8.1340   -2.4530  -52.4600 C   0  0  0  0  0  0  0  0  0  0  0  0
    9.3190   -2.8290  -53.2720 C   0  0  0  0  0  0  0  0  0  0  0  0
    9.3660   -3.4200  -54.5170 C   0  0  0  0  0  0  0  0  0  0  0  0
   10.7020   -3.5610  -54.8400 N   0  0  0  0  0  0  0  0  0  0  0  0
   11.2360   -4.1260  -56.0360 C   0  0  0  0  0  0  0  0  0  0  0  0
   11.4190   -5.5150  -56.1410 C   0  0  0  0  0  0  0  0  0  0  0  0
   11.9410   -6.0660  -57.3110 C   0  0  0  0  0  0  0  0  0  0  0  0
   12.1090   -7.3910  -57.3920 F   0  0  0  0  0  0  0  0  0  0  0  0
   12.2900   -5.2680  -58.3910 C   0  0  0  0  0  0  0  0  0  0  0  0
   12.1140   -3.8910  -58.3000 C   0  0  0  0  0  0  0  0  0  0  0  0
   11.5920   -3.3280  -57.1320 C   0  0  0  0  0  0  0  0  0  0  0  0
   11.4510   -1.9960  -57.1190 F   0  0  0  0  0  0  0  0  0  0  0  0
   11.3840   -3.0400  -53.7600 C   0  0  0  0  0  0  0  0  0  0  0  0
   10.5850   -2.5960  -52.8150 N   0  0  0  0  0  0  0  0  0  0  0  0
    6.3070    0.9150  -55.8910 C   0  0  0  0  0  0  0  0  0  0  0  0
    6.9600    1.7910  -56.7680 C   0  0  0  0  0  0  0  0  0  0  0  0
   10.8874    2.4583  -56.4893 H   0  0  0  0  0  0  0  0  0  0  0  0
   10.6748    1.5843  -58.0441 H   0  0  0  0  0  0  0  0  0  0  0  0
   11.0010    3.3507  -58.0441 H   0  0  0  0  0  0  0  0  0  0  0  0
   10.1488    1.4023  -55.6346 H   0  0  0  0  0  0  0  0  0  0  0  0
    8.9916   -0.1605  -54.0769 H   0  0  0  0  0  0  0  0  0  0  0  0
    5.9971   -2.7204  -52.4292 H   0  0  0  0  0  0  0  0  0  0  0  0
    6.8967   -3.8818  -53.4804 H   0  0  0  0  0  0  0  0  0  0  0  0
    8.1446   -1.3648  -52.2996 H   0  0  0  0  0  0  0  0  0  0  0  0
    8.1903   -2.9973  -51.5058 H   0  0  0  0  0  0  0  0  0  0  0  0
    8.5063   -3.7210  -55.1337 H   0  0  0  0  0  0  0  0  0  0  0  0
   11.1500   -6.1693  -55.2986 H   0  0  0  0  0  0  0  0  0  0  0  0
   12.7004   -5.7181  -59.3070 H   0  0  0  0  0  0  0  0  0  0  0  0
   12.3858   -3.2449  -59.1477 H   0  0  0  0  0  0  0  0  0  0  0  0
   12.4814   -3.0002  -53.6961 H   0  0  0  0  0  0  0  0  0  0  0  0
    5.2177    0.7811  -55.9656 H   0  0  0  0  0  0  0  0  0  0  0  0
    6.3829    2.3393  -57.5272 H   0  0  0  0  0  0  0  0  0  0  0  0
  1  2  1  0
  2  3  1  0
  3  4  1  0
  4  5  2  0
  5  6  1  0
  6  7  1  0
  7  8  2  0
  7  9  1  0
  9 10  1  0
 10 11  1  0
 11 12  1  0
 12 13  2  0
 13 14  1  0
 14 15  1  0
 15 16  1  0
 16 17  2  0
 17 18  1  0
 17 19  1  0
 19 20  2  0
 20 21  1  0
 21 22  1  0
 14 23  1  0
 23 24  2  0
  6 25  2  0
 25 26  1  0
 26  3  2  0
 24 12  1  0
 21 15  2  0
  1 27  1  0
  1 28  1  0
  1 29  1  0
  4 30  1  0
  5 31  1  0
 10 32  1  0
 10 33  1  0
 11 34  1  0
 11 35  1  0
 13 36  1  0
 16 37  1  0
 19 38  1  0
 20 39  1  0
 23 40  1  0
 25 41  1  0
 26 42  1  0
M  END
>  <meeko>  (92) 
{"is_sidechain": false}

$$$$

     RDKit          3D

 43 45  0  0  0  0  0  0  0  0999 V2000
    9.7910    2.4530  -59.1370 C   0  0  0  0  0  0  0  0  0  0  0  0
    9.0090    3.0720  -58.1240 O   0  0  0  0  0  0  0  0  0  0  0  0
    8.4160    2.2540  -57.2040 C   0  0  0  0  0  0  0  0  0  0  0  0
    9.3030    1.6480  -56.3090 C   0  0  0  0  0  0  0  0  0  0  0  0
    8.8370    0.7850  -55.3130 C   0  0  0  0  0  0  0  0  0  0  0  0
    7.4680    0.5190  -55.2040 C   0  0  0  0  0  0  0  0  0  0  0  0
    6.9130   -0.3870  -54.1630 C   0  0  0  0  0  0  0  0  0  0  0  0
    5.7610   -0.8010  -54.1590 O   0  0  0  0  0  0  0  0  0  0  0  0
    7.8420   -0.6690  -53.2170 O   0  0  0  0  0  0  0  0  0  0  0  0
    7.4100   -1.4370  -52.0750 C   0  0  0  0  0  0  0  0  0  0  0  0
    7.9000   -2.8840  -52.1510 C   0  0  0  0  0  0  0  0  0  0  0  0
    9.0750   -3.0610  -53.0420 C   0  0  0  0  0  0  0  0  0  0  0  0
    9.2040   -3.6410  -54.2850 C   0  0  0  0  0  0  0  0  0  0  0  0
   10.5390   -3.5320  -54.6890 N   0  0  0  0  0  0  0  0  0  0  0  0
   11.1480   -4.0170  -55.9470 C   0  0  0  0  0  0  0  0  0  0  0  0
   11.3640   -5.3820  -56.1110 C   0  0  0  0  0  0  0  0  0  0  0  0
   11.9370   -5.8340  -57.2980 C   0  0  0  0  0  0  0  0  0  0  0  0
   12.1430   -7.1450  -57.4600 F   0  0  0  0  0  0  0  0  0  0  0  0
   12.2960   -4.9550  -58.3150 C   0  0  0  0  0  0  0  0  0  0  0  0
   12.0790   -3.5890  -58.1480 C   0  0  0  0  0  0  0  0  0  0  0  0
   11.5070   -3.1240  -56.9650 C   0  0  0  0  0  0  0  0  0  0  0  0
   11.3350   -1.8030  -56.8320 F   0  0  0  0  0  0  0  0  0  0  0  0
   11.2100   -2.8860  -53.7160 C   0  0  0  0  0  0  0  0  0  0  0  0
   10.3390   -2.6100  -52.7440 N   0  0  0  0  0  0  0  0  0  0  0  0
    6.5790    1.1250  -56.1020 C   0  0  0  0  0  0  0  0  0  0  0  0
    7.0520    1.9890  -57.0980 C   0  0  0  0  0  0  0  0  0  0  0  0
   10.5722    1.8347  -58.6707 H   0  0  0  0  0  0  0  0  0  0  0  0
    9.1455    1.8185  -59.7621 H   0  0  0  0  0  0  0  0  0  0  0  0
   10.2604    3.2269  -59.7621 H   0  0  0  0  0  0  0  0  0  0  0  0
   10.3807    1.8529  -56.3897 H   0  0  0  0  0  0  0  0  0  0  0  0
    9.5462    0.3154  -54.6155 H   0  0  0  0  0  0  0  0  0  0  0  0
    7.8089   -0.9727  -51.1611 H   0  0  0  0  0  0  0  0  0  0  0  0
    6.3101   -1.4466  -52.0632 H   0  0  0  0  0  0  0  0  0  0  0  0
    8.1773   -3.2122  -51.1384 H   0  0  0  0  0  0  0  0  0  0  0  0
    7.0794   -3.4839  -52.5714 H   0  0  0  0  0  0  0  0  0  0  0  0
    8.3940   -4.1106  -54.8624 H   0  0  0  0  0  0  0  0  0  0  0  0
   11.0872   -6.0917  -55.3174 H   0  0  0  0  0  0  0  0  0  0  0  0
   12.7474   -5.3354  -59.2432 H   0  0  0  0  0  0  0  0  0  0  0  0
   12.3571   -2.8825  -58.9440 H   0  0  0  0  0  0  0  0  0  0  0  0
   12.2804   -2.6324  -53.7218 H   0  0  0  0  0  0  0  0  0  0  0  0
   10.5930   -2.1270  -51.8690 H   0  0  0  0  0  0  0  0  0  0  0  0
    5.5010    0.9205  -56.0241 H   0  0  0  0  0  0  0  0  0  0  0  0
    6.3454    2.4592  -57.7978 H   0  0  0  0  0  0  0  0  0  0  0  0
  1  2  1  0
  2  3  1  0
  3  4  1  0
  4  5  2  0
  5  6  1  0
  6  7  1  0
  7  8  2  0
  7  9  1  0
  9 10  1  0
 10 11  1  0
 11 12  1  0
 12 13  2  0
 13 14  1  0
 14 15  1  0
 15 16  1  0
 16 17  2  0
 17 18  1  0
 17 19  1  0
 19 20  2  0
 20 21  1  0
 21 22  1  0
 14 23  1  0
 23 24  2  0
  6 25  2  0
 25 26  1  0
 26  3  2  0
 24 12  1  0
 21 15  2  0
  1 27  1  0
  1 28  1  0
  1 29  1  0
  4 30  1  0
  5 31  1  0
 10 32  1  0
 10 33  1  0
 11 34  1  0
 11 35  1  0
 13 36  1  0
 16 37  1  0
 19 38  1  0
 20 39  1  0
 23 40  1  0
 24 41  1  0
 25 42  1  0
 26 43  1  0
M  CHG  1  24   1
M  END
>  <meeko>  (93) 
{"is_sidechain": false}

$$$$

     RDKit          3D

 62 67  0  0  0  0  0  0  0  0999 V2000
    5.6100   -0.4190  -53.5550 O   0  0  0  0  0  0  0  0  0  0  0  0
    6.8000   -0.1560  -53.7040 C   0  0  0  0  0  0  0  0  0  0  0  0
    7.8170   -0.8710  -53.1120 N   0  0  0  0  0  0  0  0  0  0  0  0
    7.6200   -2.0660  -52.2790 C   0  0  2  0  0  0  0  0  0  0  0  0
    7.3720   -1.6980  -50.7900 C   0  0  0  0  0  0  0  0  0  0  0  0
    7.2160   -2.9650  -49.9270 C   0  0  2  0  0  0  0  0  0  0  0  0
    8.4900   -3.8120  -50.0300 C   0  0  0  0  0  0  0  0  0  0  0  0
    8.7120   -4.1900  -51.4960 C   0  0  2  0  0  0  0  0  0  0  0  0
    8.8990   -2.9350  -52.3480 C   0  0  0  0  0  0  0  0  0  0  0  0
    7.5800   -4.9310  -51.9820 O   0  0  0  0  0  0  0  0  0  0  0  0
    6.3480   -4.1910  -51.9200 C   0  0  1  0  0  0  0  0  0  0  0  0
    6.0520   -3.8060  -50.4670 C   0  0  0  0  0  0  0  0  0  0  0  0
    6.4600   -2.9400  -52.7950 C   0  0  0  0  0  0  0  0  0  0  0  0
    7.2320    1.0140  -54.5720 C   0  0  1  0  0  0  0  0  0  0  0  0
    8.5990    0.8080  -55.2190 C   0  0  0  0  0  0  0  0  0  0  0  0
    8.5760    1.7560  -56.3920 C   0  0  0  0  0  0  0  0  0  0  0  0
    9.7010    2.1420  -57.0240 C   0  0  0  0  0  0  0  0  0  0  0  0
    9.7700    3.0660  -58.1380 C   0  0  0  0  0  0  0  0  0  0  0  0
    9.9000    2.5020  -59.3890 N   0  0  0  0  0  0  0  0  0  0  0  0
   10.0260    3.2160  -60.5530 C   0  0  0  0  0  0  0  0  0  0  0  0
   10.1670    2.6840  -61.6470 O   0  0  0  0  0  0  0  0  0  0  0  0
    9.9810    4.6920  -60.4160 C   0  0  0  0  0  0  0  0  0  0  0  0
    9.8310    5.2390  -59.2010 C   0  0  0  0  0  0  0  0  0  0  0  0
    9.7240    4.4090  -58.0180 C   0  0  0  0  0  0  0  0  0  0  0  0
    9.5690    5.2220  -56.5010 Cl  0  0  0  0  0  0  0  0  0  0  0  0
    7.1420    2.1820  -56.6820 C   0  0  1  0  0  0  0  0  0  0  0  0
    6.6880    2.0650  -58.1220 C   0  0  0  0  0  0  0  0  0  0  0  0
    6.3570    0.8270  -58.6980 C   0  0  0  0  0  0  0  0  0  0  0  0
    5.9540    0.7460  -60.0310 C   0  0  0  0  0  0  0  0  0  0  0  0
    5.8690    1.9000  -60.8060 C   0  0  0  0  0  0  0  0  0  0  0  0
    6.1860    3.1360  -60.2490 C   0  0  0  0  0  0  0  0  0  0  0  0
    6.5910    3.2190  -58.9150 C   0  0  0  0  0  0  0  0  0  0  0  0
    6.3030    1.2960  -55.7490 C   0  0  0  0  0  0  0  0  0  0  0  0
    8.7670   -0.6610  -53.3890 H   0  0  0  0  0  0  0  0  0  0  0  0
    8.2249   -1.1117  -50.4174 H   0  0  0  0  0  0  0  0  0  0  0  0
    6.4434   -1.1121  -50.7236 H   0  0  0  0  0  0  0  0  0  0  0  0
    7.0313   -2.6685  -48.8839 H   0  0  0  0  0  0  0  0  0  0  0  0
    9.3501   -3.2327  -49.6630 H   0  0  0  0  0  0  0  0  0  0  0  0
    8.3849   -4.7218  -49.4206 H   0  0  0  0  0  0  0  0  0  0  0  0
    9.6188   -4.8087  -51.5660 H   0  0  0  0  0  0  0  0  0  0  0  0
    9.7547   -2.3581  -51.9673 H   0  0  0  0  0  0  0  0  0  0  0  0
    9.0870   -3.2265  -53.3919 H   0  0  0  0  0  0  0  0  0  0  0  0
    5.5216   -4.8129  -52.2945 H   0  0  0  0  0  0  0  0  0  0  0  0
    5.1220   -3.2203  -50.4226 H   0  0  0  0  0  0  0  0  0  0  0  0
    5.9354   -4.7145  -49.8578 H   0  0  0  0  0  0  0  0  0  0  0  0
    6.6561   -3.2352  -53.8363 H   0  0  0  0  0  0  0  0  0  0  0  0
    5.5194   -2.3714  -52.7508 H   0  0  0  0  0  0  0  0  0  0  0  0
    7.2292    1.8453  -53.8516 H   0  0  0  0  0  0  0  0  0  0  0  0
    9.4083    1.0659  -54.5201 H   0  0  0  0  0  0  0  0  0  0  0  0
    8.7822   -0.2359  -55.5136 H   0  0  0  0  0  0  0  0  0  0  0  0
   10.6501    1.7190  -56.6630 H   0  0  0  0  0  0  0  0  0  0  0  0
    9.9330    1.4960  -59.4830 H   0  0  0  0  0  0  0  0  0  0  0  0
   10.0701    5.3336  -61.3050 H   0  0  0  0  0  0  0  0  0  0  0  0
    9.7886    6.3336  -59.1008 H   0  0  0  0  0  0  0  0  0  0  0  0
    7.0320    3.2621  -56.5048 H   0  0  0  0  0  0  0  0  0  0  0  0
    6.4163   -0.0885  -58.0911 H   0  0  0  0  0  0  0  0  0  0  0  0
    5.7030   -0.2306  -60.4706 H   0  0  0  0  0  0  0  0  0  0  0  0
    5.5517    1.8350  -61.8572 H   0  0  0  0  0  0  0  0  0  0  0  0
    6.1174    4.0480  -60.8602 H   0  0  0  0  0  0  0  0  0  0  0  0
    6.8366    4.1995  -58.4811 H   0  0  0  0  0  0  0  0  0  0  0  0
    5.3989    1.8262  -55.4150 H   0  0  0  0  0  0  0  0  0  0  0  0
    5.9525    0.3767  -56.2409 H   0  0  0  0  0  0  0  0  0  0  0  0
  1  2  2  0
  2  3  1  0
  4  3  1  6
  4  5  1  0
  5  6  1  0
  6  7  1  0
  7  8  1  0
  8  9  1  0
  8 10  1  0
 10 11  1  0
 11 12  1  0
 11 13  1  0
  2 14  1  0
 14 15  1  0
 15 16  1  0
 16 17  2  0
 17 18  1  0
 18 19  1  0
 19 20  1  0
 20 21  2  0
 20 22  1  0
 22 23  2  0
 23 24  1  0
 24 25  1  0
 16 26  1  0
 26 27  1  0
 27 28  2  0
 28 29  1  0
 29 30  2  0
 30 31  1  0
 31 32  2  0
 26 33  1  0
  9  4  1  0
 33 14  1  0
 13  4  1  0
 24 18  2  0
 32 27  1  0
 12  6  1  0
  3 34  1  0
  5 35  1  0
  5 36  1  0
  6 37  1  1
  7 38  1  0
  7 39  1  0
  8 40  1  1
  9 41  1  0
  9 42  1  0
 11 43  1  6
 12 44  1  0
 12 45  1  0
 13 46  1  0
 13 47  1  0
 14 48  1  1
 15 49  1  0
 15 50  1  0
 17 51  1  0
 19 52  1  0
 22 53  1  0
 23 54  1  0
 26 55  1  1
 28 56  1  0
 29 57  1  0
 30 58  1  0
 31 59  1  0
 32 60  1  0
 33 61  1  0
 33 62  1  0
M  END
>  <meeko>  (94) 
{"is_sidechain": false}

$$$$

     RDKit          3D

 62 67  0  0  0  0  0  0  0  0999 V2000
    5.6400   -0.4050  -53.5160 O   0  0  0  0  0  0  0  0  0  0  0  0
    6.8250   -0.1660  -53.7100 C   0  0  0  0  0  0  0  0  0  0  0  0
    7.8570   -0.9300  -53.2030 N   0  0  0  0  0  0  0  0  0  0  0  0
    7.6810   -2.1030  -52.3390 C   0  0  2  0  0  0  0  0  0  0  0  0
    7.4380   -1.6960  -50.8610 C   0  0  0  0  0  0  0  0  0  0  0  0
    7.2090   -2.9370  -49.9770 C   0  0  2  0  0  0  0  0  0  0  0  0
    8.4290   -3.8630  -50.0770 C   0  0  0  0  0  0  0  0  0  0  0  0
    8.6150   -4.2840  -51.5390 C   0  0  2  0  0  0  0  0  0  0  0  0
    8.8870   -3.0620  -52.4180 C   0  0  0  0  0  0  0  0  0  0  0  0
    7.4290   -4.9540  -52.0010 O   0  0  0  0  0  0  0  0  0  0  0  0
    6.2520   -4.1310  -51.9410 C   0  0  1  0  0  0  0  0  0  0  0  0
    5.9920   -3.7120  -50.4920 C   0  0  0  0  0  0  0  0  0  0  0  0
    6.4480   -2.9000  -52.8270 C   0  0  0  0  0  0  0  0  0  0  0  0
    7.3030    0.9900  -54.5740 C   0  0  1  0  0  0  0  0  0  0  0  0
    8.5830    0.6580  -55.3370 C   0  0  0  0  0  0  0  0  0  0  0  0
    8.5700    1.6580  -56.4640 C   0  0  0  0  0  0  0  0  0  0  0  0
    9.6890    2.0640  -57.0920 C   0  0  0  0  0  0  0  0  0  0  0  0
    9.7230    3.0830  -58.1490 C   0  0  0  0  0  0  0  0  0  0  0  0
    9.8320    2.5940  -59.4130 N   0  0  0  0  0  0  0  0  0  0  0  0
    9.8870    3.4890  -60.4130 C   0  0  0  0  0  0  0  0  0  0  0  0
   10.0160    2.9450  -61.6570 O   0  0  0  0  0  0  0  0  0  0  0  0
    9.8280    4.8600  -60.2360 C   0  0  0  0  0  0  0  0  0  0  0  0
    9.7030    5.3460  -58.9370 C   0  0  0  0  0  0  0  0  0  0  0  0
    9.6480    4.4500  -57.8710 C   0  0  0  0  0  0  0  0  0  0  0  0
    9.5080    5.0800  -56.2720 Cl  0  0  0  0  0  0  0  0  0  0  0  0
    7.1520    2.1510  -56.6960 C   0  0  1  0  0  0  0  0  0  0  0  0
    6.6300    1.9960  -58.1110 C   0  0  0  0  0  0  0  0  0  0  0  0
    6.4870    3.1290  -58.9260 C   0  0  0  0  0  0  0  0  0  0  0  0
    6.0150    3.0120  -60.2340 C   0  0  0  0  0  0  0  0  0  0  0  0
    5.6780    1.7600  -60.7440 C   0  0  0  0  0  0  0  0  0  0  0  0
    5.8120    0.6260  -59.9480 C   0  0  0  0  0  0  0  0  0  0  0  0
    6.2830    0.7420  -58.6390 C   0  0  0  0  0  0  0  0  0  0  0  0
    6.3180    1.3430  -55.6870 C   0  0  0  0  0  0  0  0  0  0  0  0
    8.8030   -0.6670  -53.4500 H   0  0  0  0  0  0  0  0  0  0  0  0
    8.3161   -1.1472  -50.4900 H   0  0  0  0  0  0  0  0  0  0  0  0
    6.5399   -1.0625  -50.8151 H   0  0  0  0  0  0  0  0  0  0  0  0
    7.0501   -2.6133  -48.9378 H   0  0  0  0  0  0  0  0  0  0  0  0
    9.3263   -3.3302  -49.7293 H   0  0  0  0  0  0  0  0  0  0  0  0
    8.2732   -4.7533  -49.4500 H   0  0  0  0  0  0  0  0  0  0  0  0
    9.4761   -4.9654  -51.6041 H   0  0  0  0  0  0  0  0  0  0  0  0
    9.7912   -2.5465  -52.0621 H   0  0  0  0  0  0  0  0  0  0  0  0
    9.0379   -3.3817  -53.4596 H   0  0  0  0  0  0  0  0  0  0  0  0
    5.3823   -4.6974  -52.3054 H   0  0  0  0  0  0  0  0  0  0  0  0
    5.0992   -3.0710  -50.4469 H   0  0  0  0  0  0  0  0  0  0  0  0
    5.8251   -4.6032  -49.8691 H   0  0  0  0  0  0  0  0  0  0  0  0
    6.6063   -3.2190  -53.8678 H   0  0  0  0  0  0  0  0  0  0  0  0
    5.5537   -2.2620  -52.7705 H   0  0  0  0  0  0  0  0  0  0  0  0
    7.4354    1.8082  -53.8508 H   0  0  0  0  0  0  0  0  0  0  0  0
    9.4697    0.7910  -54.6998 H   0  0  0  0  0  0  0  0  0  0  0  0
    8.6256   -0.3857  -55.6819 H   0  0  0  0  0  0  0  0  0  0  0  0
   10.6416    1.6018  -56.7937 H   0  0  0  0  0  0  0  0  0  0  0  0
    9.1340    2.7130  -61.9780 H   0  0  0  0  0  0  0  0  0  0  0  0
    9.8783    5.5451  -61.0951 H   0  0  0  0  0  0  0  0  0  0  0  0
    9.6481    6.4292  -58.7536 H   0  0  0  0  0  0  0  0  0  0  0  0
    7.0982    3.2404  -56.5534 H   0  0  0  0  0  0  0  0  0  0  0  0
    6.7499    4.1208  -58.5295 H   0  0  0  0  0  0  0  0  0  0  0  0
    5.9090    3.9085  -60.8626 H   0  0  0  0  0  0  0  0  0  0  0  0
    5.3062    1.6677  -61.7752 H   0  0  0  0  0  0  0  0  0  0  0  0
    5.5465   -0.3626  -60.3508 H   0  0  0  0  0  0  0  0  0  0  0  0
    6.3833   -0.1582  -58.0148 H   0  0  0  0  0  0  0  0  0  0  0  0
    5.4883    1.9491  -55.2944 H   0  0  0  0  0  0  0  0  0  0  0  0
    5.8613    0.4509  -56.1405 H   0  0  0  0  0  0  0  0  0  0  0  0
  1  2  2  0
  2  3  1  0
  4  3  1  6
  4  5  1  0
  5  6  1  0
  6  7  1  0
  7  8  1  0
  8  9  1  0
  8 10  1  0
 10 11  1  0
 11 12  1  0
 11 13  1  0
  2 14  1  0
 14 15  1  0
 15 16  1  0
 16 17  2  0
 17 18  1  0
 18 19  1  0
 19 20  2  0
 20 21  1  0
 20 22  1  0
 22 23  2  0
 23 24  1  0
 24 25  1  0
 16 26  1  0
 26 27  1  0
 27 28  2  0
 28 29  1  0
 29 30  2  0
 30 31  1  0
 31 32  2  0
 26 33  1  0
  9  4  1  0
 33 14  1  0
 13  4  1  0
 24 18  2  0
 32 27  1  0
 12  6  1  0
  3 34  1  0
  5 35  1  0
  5 36  1  0
  6 37  1  1
  7 38  1  0
  7 39  1  0
  8 40  1  1
  9 41  1  0
  9 42  1  0
 11 43  1  6
 12 44  1  0
 12 45  1  0
 13 46  1  0
 13 47  1  0
 14 48  1  1
 15 49  1  0
 15 50  1  0
 17 51  1  0
 21 52  1  0
 22 53  1  0
 23 54  1  0
 26 55  1  1
 28 56  1  0
 29 57  1  0
 30 58  1  0
 31 59  1  0
 32 60  1  0
 33 61  1  0
 33 62  1  0
M  END
>  <meeko>  (95) 
{"is_sidechain": false}

$$$$

     RDKit          3D

 53 55  0  0  0  0  0  0  0  0999 V2000
    9.9570    4.6650  -59.2870 C   0  0  0  0  0  0  0  0  0  0  0  0
    8.8860    5.2050  -58.3360 C   0  0  0  0  0  0  0  0  0  0  0  0
    8.0190    6.2400  -59.0620 C   0  0  0  0  0  0  0  0  0  0  0  0
    8.0260    4.1050  -57.6460 C   0  0  2  0  0  0  0  0  0  0  0  0
    8.9080    3.2080  -56.7440 C   0  0  0  0  0  0  0  0  0  0  0  0
    9.9070    3.6220  -56.1660 O   0  0  0  0  0  0  0  0  0  0  0  0
    8.4130    1.9100  -56.6510 N   0  0  0  0  0  0  0  0  0  0  0  0
    8.9410    0.8380  -55.9020 C   0  0  0  0  0  0  0  0  0  0  0  0
   10.1530    0.2100  -56.1760 C   0  0  0  0  0  0  0  0  0  0  0  0
   10.6010   -0.8510  -55.3790 C   0  0  0  0  0  0  0  0  0  0  0  0
    9.8500   -1.3180  -54.2830 C   0  0  0  0  0  0  0  0  0  0  0  0
   10.3960   -2.4900  -53.4370 C   0  0  2  0  0  0  0  0  0  0  0  0
   11.4140   -1.9160  -52.5880 O   0  0  0  0  0  0  0  0  0  0  0  0
   11.0390   -3.5660  -54.2510 C   0  0  0  0  0  0  0  0  0  0  0  0
   11.5430   -4.3780  -54.9140 N   0  0  0  0  0  0  0  0  0  0  0  0
    9.2960   -3.1100  -52.5540 C   0  0  0  0  0  0  0  0  0  0  0  0
    9.3640   -3.0070  -51.1460 C   0  0  0  0  0  0  0  0  0  0  0  0
    8.3650   -3.5560  -50.3380 C   0  0  0  0  0  0  0  0  0  0  0  0
    7.2870   -4.2050  -50.9240 C   0  0  0  0  0  0  0  0  0  0  0  0
    6.3300   -4.7300  -50.1470 F   0  0  0  0  0  0  0  0  0  0  0  0
    7.1850   -4.3140  -52.3040 C   0  0  0  0  0  0  0  0  0  0  0  0
    8.1820   -3.7680  -53.1150 C   0  0  0  0  0  0  0  0  0  0  0  0
    8.6330   -0.6720  -54.0120 C   0  0  0  0  0  0  0  0  0  0  0  0
    8.1870    0.3880  -54.8120 C   0  0  0  0  0  0  0  0  0  0  0  0
    7.0770    3.3450  -58.5720 C   0  0  0  0  0  0  0  0  0  0  0  0
    7.4360    2.9620  -59.8730 C   0  0  0  0  0  0  0  0  0  0  0  0
    6.5350    2.2830  -60.6990 C   0  0  0  0  0  0  0  0  0  0  0  0
    5.2600    1.9820  -60.2310 C   0  0  0  0  0  0  0  0  0  0  0  0
    4.0410    1.0650  -61.3470 Br  0  0  0  0  0  0  0  0  0  0  0  0
    4.8790    2.3510  -58.9460 C   0  0  0  0  0  0  0  0  0  0  0  0
    5.7820    3.0290  -58.1220 C   0  0  0  0  0  0  0  0  0  0  0  0
   10.7889    4.2456  -58.7022 H   0  0  0  0  0  0  0  0  0  0  0  0
    9.5215    3.8787  -59.9211 H   0  0  0  0  0  0  0  0  0  0  0  0
   10.3302    5.4827  -59.9211 H   0  0  0  0  0  0  0  0  0  0  0  0
    9.4181    5.6936  -57.5064 H   0  0  0  0  0  0  0  0  0  0  0  0
    7.4962    6.8641  -58.3222 H   0  0  0  0  0  0  0  0  0  0  0  0
    8.6578    6.8760  -59.6924 H   0  0  0  0  0  0  0  0  0  0  0  0
    7.2808    5.7226  -59.6924 H   0  0  0  0  0  0  0  0  0  0  0  0
    7.3178    4.6287  -56.9870 H   0  0  0  0  0  0  0  0  0  0  0  0
    7.5790    1.7010  -57.1850 H   0  0  0  0  0  0  0  0  0  0  0  0
   10.7637    0.5499  -57.0254 H   0  0  0  0  0  0  0  0  0  0  0  0
   11.5623   -1.3309  -55.6147 H   0  0  0  0  0  0  0  0  0  0  0  0
   12.1570   -1.6750  -53.1670 H   0  0  0  0  0  0  0  0  0  0  0  0
   10.2146   -2.4878  -50.6802 H   0  0  0  0  0  0  0  0  0  0  0  0
    8.4325   -3.4743  -49.2431 H   0  0  0  0  0  0  0  0  0  0  0  0
    6.3237   -4.8276  -52.7562 H   0  0  0  0  0  0  0  0  0  0  0  0
    8.0971   -3.8525  -54.2085 H   0  0  0  0  0  0  0  0  0  0  0  0
    8.0214   -1.0029  -53.1597 H   0  0  0  0  0  0  0  0  0  0  0  0
    7.2283    0.8748  -54.5797 H   0  0  0  0  0  0  0  0  0  0  0  0
    8.4420    3.1996  -60.2492 H   0  0  0  0  0  0  0  0  0  0  0  0
    6.8334    1.9878  -61.7157 H   0  0  0  0  0  0  0  0  0  0  0  0
    3.8704    2.1103  -58.5789 H   0  0  0  0  0  0  0  0  0  0  0  0
    5.4754    3.3199  -57.1064 H   0  0  0  0  0  0  0  0  0  0  0  0
  1  2  1  0
  2  3  1  0
  2  4  1  0
  4  5  1  0
  5  6  2  0
  5  7  1  0
  7  8  1  0
  8  9  1  0
  9 10  2  0
 10 11  1  0
 11 12  1  0
 12 13  1  0
 12 14  1  6
 14 15  3  0
 12 16  1  0
 16 17  1  0
 17 18  2  0
 18 19  1  0
 19 20  1  0
 19 21  2  0
 21 22  1  0
 11 23  2  0
 23 24  1  0
  4 25  1  0
 25 26  1  0
 26 27  2  0
 27 28  1  0
 28 29  1  0
 28 30  2  0
 30 31  1  0
 24  8  2  0
 31 25  2  0
 22 16  2  0
  1 32  1  0
  1 33  1  0
  1 34  1  0
  2 35  1  0
  3 36  1  0
  3 37  1  0
  3 38  1  0
  4 39  1  1
  7 40  1  0
  9 41  1  0
 10 42  1  0
 13 43  1  0
 17 44  1  0
 18 45  1  0
 21 46  1  0
 22 47  1  0
 23 48  1  0
 24 49  1  0
 26 50  1  0
 27 51  1  0
 30 52  1  0
 31 53  1  0
M  END
>  <meeko>  (96) 
{"is_sidechain": false}

$$$$

     RDKit          3D

 53 55  0  0  0  0  0  0  0  0999 V2000
    6.2210    1.2880  -59.4580 C   0  0  0  0  0  0  0  0  0  0  0  0
    5.8040    2.7250  -59.1060 C   0  0  0  0  0  0  0  0  0  0  0  0
    4.3020    2.7190  -58.7890 C   0  0  0  0  0  0  0  0  0  0  0  0
    6.6360    3.2860  -57.9140 C   0  0  1  0  0  0  0  0  0  0  0  0
    6.8170    2.2350  -56.7980 C   0  0  0  0  0  0  0  0  0  0  0  0
    5.8540    1.8940  -56.1140 O   0  0  0  0  0  0  0  0  0  0  0  0
    8.1070    1.7410  -56.6940 N   0  0  0  0  0  0  0  0  0  0  0  0
    8.5810    0.7460  -55.8170 C   0  0  0  0  0  0  0  0  0  0  0  0
    9.8020    0.1440  -56.1350 C   0  0  0  0  0  0  0  0  0  0  0  0
   10.3420   -0.8580  -55.3210 C   0  0  0  0  0  0  0  0  0  0  0  0
    9.6710   -1.2920  -54.1620 C   0  0  0  0  0  0  0  0  0  0  0  0
   10.2750   -2.3890  -53.2690 C   0  0  2  0  0  0  0  0  0  0  0  0
   11.2240   -1.7960  -52.3580 O   0  0  0  0  0  0  0  0  0  0  0  0
   11.0150   -3.3720  -54.1190 C   0  0  0  0  0  0  0  0  0  0  0  0
   11.5790   -4.1660  -54.7540 N   0  0  0  0  0  0  0  0  0  0  0  0
    9.1950   -3.0350  -52.3700 C   0  0  0  0  0  0  0  0  0  0  0  0
    8.1410   -3.7590  -52.9730 C   0  0  0  0  0  0  0  0  0  0  0  0
    7.1480   -4.3660  -52.2050 C   0  0  0  0  0  0  0  0  0  0  0  0
    7.1960   -4.2620  -50.8210 C   0  0  0  0  0  0  0  0  0  0  0  0
    6.2440   -4.8450  -50.0810 F   0  0  0  0  0  0  0  0  0  0  0  0
    8.2180   -3.5610  -50.1960 C   0  0  0  0  0  0  0  0  0  0  0  0
    9.2160   -2.9510  -50.9630 C   0  0  0  0  0  0  0  0  0  0  0  0
    8.4480   -0.6740  -53.8520 C   0  0  0  0  0  0  0  0  0  0  0  0
    7.9100    0.3280  -54.6700 C   0  0  0  0  0  0  0  0  0  0  0  0
    7.9880    3.9170  -58.2570 C   0  0  0  0  0  0  0  0  0  0  0  0
    8.4880    3.7530  -59.5620 C   0  0  0  0  0  0  0  0  0  0  0  0
    9.7000    4.3310  -59.9470 C   0  0  0  0  0  0  0  0  0  0  0  0
   10.4250    5.0850  -59.0290 C   0  0  0  0  0  0  0  0  0  0  0  0
   12.0660    5.8680  -59.5430 Br  0  0  0  0  0  0  0  0  0  0  0  0
    9.9470    5.2680  -57.7350 C   0  0  0  0  0  0  0  0  0  0  0  0
    8.7310    4.6910  -57.3520 C   0  0  0  0  0  0  0  0  0  0  0  0
    6.3867    0.7171  -58.5324 H   0  0  0  0  0  0  0  0  0  0  0  0
    5.4248    0.8090  -60.0467 H   0  0  0  0  0  0  0  0  0  0  0  0
    7.1499    1.3096  -60.0467 H   0  0  0  0  0  0  0  0  0  0  0  0
    6.0030    3.3901  -59.9593 H   0  0  0  0  0  0  0  0  0  0  0  0
    4.1574    2.7184  -57.6985 H   0  0  0  0  0  0  0  0  0  0  0  0
    3.8326    3.6153  -59.2207 H   0  0  0  0  0  0  0  0  0  0  0  0
    3.8397    1.8190  -59.2207 H   0  0  0  0  0  0  0  0  0  0  0  0
    6.0155    4.1225  -57.5600 H   0  0  0  0  0  0  0  0  0  0  0  0
    8.8070    2.1900  -57.2690 H   0  0  0  0  0  0  0  0  0  0  0  0
   10.3454    0.4621  -57.0369 H   0  0  0  0  0  0  0  0  0  0  0  0
   11.3060   -1.3138  -55.5910 H   0  0  0  0  0  0  0  0  0  0  0  0
   10.9430   -2.0480  -51.4610 H   0  0  0  0  0  0  0  0  0  0  0  0
    8.1036   -3.8451  -54.0690 H   0  0  0  0  0  0  0  0  0  0  0  0
    6.3334   -4.9226  -52.6914 H   0  0  0  0  0  0  0  0  0  0  0  0
    8.2431   -3.4853  -49.0989 H   0  0  0  0  0  0  0  0  0  0  0  0
   10.0260   -2.3998  -50.4629 H   0  0  0  0  0  0  0  0  0  0  0  0
    7.9018   -0.9832  -52.9486 H   0  0  0  0  0  0  0  0  0  0  0  0
    6.9476    0.7895  -54.4038 H   0  0  0  0  0  0  0  0  0  0  0  0
    7.9154    3.1603  -60.2905 H   0  0  0  0  0  0  0  0  0  0  0  0
   10.0793    4.1910  -60.9700 H   0  0  0  0  0  0  0  0  0  0  0  0
   10.5243    5.8655  -57.0141 H   0  0  0  0  0  0  0  0  0  0  0  0
    8.3533    4.8457  -56.3305 H   0  0  0  0  0  0  0  0  0  0  0  0
  1  2  1  0
  2  3  1  0
  2  4  1  0
  4  5  1  0
  5  6  2  0
  5  7  1  0
  7  8  1  0
  8  9  1  0
  9 10  2  0
 10 11  1  0
 11 12  1  0
 12 13  1  0
 12 14  1  6
 14 15  3  0
 12 16  1  0
 16 17  1  0
 17 18  2  0
 18 19  1  0
 19 20  1  0
 19 21  2  0
 21 22  1  0
 11 23  2  0
 23 24  1  0
  4 25  1  0
 25 26  1  0
 26 27  2  0
 27 28  1  0
 28 29  1  0
 28 30  2  0
 30 31  1  0
 24  8  2  0
 31 25  2  0
 22 16  2  0
  1 32  1  0
  1 33  1  0
  1 34  1  0
  2 35  1  0
  3 36  1  0
  3 37  1  0
  3 38  1  0
  4 39  1  1
  7 40  1  0
  9 41  1  0
 10 42  1  0
 13 43  1  0
 17 44  1  0
 18 45  1  0
 21 46  1  0
 22 47  1  0
 23 48  1  0
 24 49  1  0
 26 50  1  0
 27 51  1  0
 30 52  1  0
 31 53  1  0
M  END
>  <meeko>  (97) 
{"is_sidechain": false}

$$$$

     RDKit          3D

 53 55  0  0  0  0  0  0  0  0999 V2000
   11.7510    6.1130  -59.4660 C   0  0  0  0  0  0  0  0  0  0  0  0
   11.7480    4.7080  -58.8530 C   0  0  0  0  0  0  0  0  0  0  0  0
   12.9420    4.5420  -57.9080 C   0  0  0  0  0  0  0  0  0  0  0  0
   10.3640    4.3540  -58.2370 C   0  0  2  0  0  0  0  0  0  0  0  0
   10.3890    3.3770  -57.0370 C   0  0  0  0  0  0  0  0  0  0  0  0
   10.4080    3.7610  -55.8730 O   0  0  0  0  0  0  0  0  0  0  0  0
   10.3740    2.0480  -57.4460 N   0  0  0  0  0  0  0  0  0  0  0  0
   10.3580    0.8950  -56.6350 C   0  0  0  0  0  0  0  0  0  0  0  0
   11.4380    0.0150  -56.7560 C   0  0  0  0  0  0  0  0  0  0  0  0
   11.5020   -1.1540  -55.9890 C   0  0  0  0  0  0  0  0  0  0  0  0
   10.4810   -1.4780  -55.0760 C   0  0  0  0  0  0  0  0  0  0  0  0
   10.5550   -2.7690  -54.2420 C   0  0  1  0  0  0  0  0  0  0  0  0
   11.5300   -2.6010  -53.1890 O   0  0  0  0  0  0  0  0  0  0  0  0
    9.2300   -3.0210  -53.5970 C   0  0  0  0  0  0  0  0  0  0  0  0
    8.2040   -3.2550  -53.1010 N   0  0  0  0  0  0  0  0  0  0  0  0
   11.0690   -3.9540  -55.0910 C   0  0  0  0  0  0  0  0  0  0  0  0
   12.3400   -4.5360  -54.9110 C   0  0  0  0  0  0  0  0  0  0  0  0
   12.7520   -5.6120  -55.7030 C   0  0  0  0  0  0  0  0  0  0  0  0
   11.9040   -6.1200  -56.6760 C   0  0  0  0  0  0  0  0  0  0  0  0
   12.3050   -7.1510  -57.4300 F   0  0  0  0  0  0  0  0  0  0  0  0
   10.6440   -5.5740  -56.8770 C   0  0  0  0  0  0  0  0  0  0  0  0
   10.2280   -4.4990  -56.0890 C   0  0  0  0  0  0  0  0  0  0  0  0
    9.3960   -0.5920  -54.9730 C   0  0  0  0  0  0  0  0  0  0  0  0
    9.3370    0.5790  -55.7410 C   0  0  0  0  0  0  0  0  0  0  0  0
    9.3610    3.9350  -59.3150 C   0  0  0  0  0  0  0  0  0  0  0  0
    9.7780    3.4140  -60.5510 C   0  0  0  0  0  0  0  0  0  0  0  0
    8.8430    3.0380  -61.5160 C   0  0  0  0  0  0  0  0  0  0  0  0
    7.4830    3.1880  -61.2590 C   0  0  0  0  0  0  0  0  0  0  0  0
    6.2160    2.6810  -62.5670 Br  0  0  0  0  0  0  0  0  0  0  0  0
    7.0490    3.7130  -60.0440 C   0  0  0  0  0  0  0  0  0  0  0  0
    7.9850    4.0880  -59.0770 C   0  0  0  0  0  0  0  0  0  0  0  0
   11.7526    6.8638  -58.6621 H   0  0  0  0  0  0  0  0  0  0  0  0
   12.6494    6.2398  -60.0879 H   0  0  0  0  0  0  0  0  0  0  0  0
   10.8531    6.2436  -60.0879 H   0  0  0  0  0  0  0  0  0  0  0  0
   11.8878    3.9577  -59.6452 H   0  0  0  0  0  0  0  0  0  0  0  0
   12.5941    4.5904  -56.8656 H   0  0  0  0  0  0  0  0  0  0  0  0
   13.4210    3.5686  -58.0899 H   0  0  0  0  0  0  0  0  0  0  0  0
   13.6684    5.3478  -58.0899 H   0  0  0  0  0  0  0  0  0  0  0  0
   10.0159    5.2949  -57.7859 H   0  0  0  0  0  0  0  0  0  0  0  0
   10.4430    1.8840  -58.4440 H   0  0  0  0  0  0  0  0  0  0  0  0
   12.2483    0.2446  -57.4636 H   0  0  0  0  0  0  0  0  0  0  0  0
   12.3629   -1.8294  -56.1014 H   0  0  0  0  0  0  0  0  0  0  0  0
   12.0550   -3.4210  -53.1660 H   0  0  0  0  0  0  0  0  0  0  0  0
   13.0154   -4.1392  -54.1387 H   0  0  0  0  0  0  0  0  0  0  0  0
   13.7477   -6.0553  -55.5546 H   0  0  0  0  0  0  0  0  0  0  0  0
    9.9786   -5.9847  -57.6507 H   0  0  0  0  0  0  0  0  0  0  0  0
    9.2283   -4.0683  -56.2472 H   0  0  0  0  0  0  0  0  0  0  0  0
    8.5766   -0.8216  -54.2760 H   0  0  0  0  0  0  0  0  0  0  0  0
    8.4759    1.2555  -55.6369 H   0  0  0  0  0  0  0  0  0  0  0  0
   10.8520    3.3013  -60.7602 H   0  0  0  0  0  0  0  0  0  0  0  0
    9.1798    2.6239  -62.4778 H   0  0  0  0  0  0  0  0  0  0  0  0
    5.9734    3.8319  -59.8466 H   0  0  0  0  0  0  0  0  0  0  0  0
    7.6411    4.5072  -58.1199 H   0  0  0  0  0  0  0  0  0  0  0  0
  1  2  1  0
  2  3  1  0
  2  4  1  0
  4  5  1  0
  5  6  2  0
  5  7  1  0
  7  8  1  0
  8  9  1  0
  9 10  2  0
 10 11  1  0
 11 12  1  0
 12 13  1  0
 12 14  1  1
 14 15  3  0
 12 16  1  0
 16 17  1  0
 17 18  2  0
 18 19  1  0
 19 20  1  0
 19 21  2  0
 21 22  1  0
 11 23  2  0
 23 24  1  0
  4 25  1  0
 25 26  1  0
 26 27  2  0
 27 28  1  0
 28 29  1  0
 28 30  2  0
 30 31  1  0
 24  8  2  0
 31 25  2  0
 22 16  2  0
  1 32  1  0
  1 33  1  0
  1 34  1  0
  2 35  1  0
  3 36  1  0
  3 37  1  0
  3 38  1  0
  4 39  1  1
  7 40  1  0
  9 41  1  0
 10 42  1  0
 13 43  1  0
 17 44  1  0
 18 45  1  0
 21 46  1  0
 22 47  1  0
 23 48  1  0
 24 49  1  0
 26 50  1  0
 27 51  1  0
 30 52  1  0
 31 53  1  0
M  END
>  <meeko>  (98) 
{"is_sidechain": false}

$$$$

     RDKit          3D

 53 55  0  0  0  0  0  0  0  0999 V2000
    4.0190    2.7060  -58.4410 C   0  0  0  0  0  0  0  0  0  0  0  0
    5.2990    3.1610  -59.1520 C   0  0  0  0  0  0  0  0  0  0  0  0
    5.4840    2.4260  -60.4840 C   0  0  0  0  0  0  0  0  0  0  0  0
    6.5950    3.1790  -58.2880 C   0  0  1  0  0  0  0  0  0  0  0  0
    6.8600    1.7640  -57.7270 C   0  0  0  0  0  0  0  0  0  0  0  0
    6.5940    0.7770  -58.4090 O   0  0  0  0  0  0  0  0  0  0  0  0
    7.4530    1.7470  -56.4760 N   0  0  0  0  0  0  0  0  0  0  0  0
    7.8470    0.6240  -55.7200 C   0  0  0  0  0  0  0  0  0  0  0  0
    9.2170    0.3530  -55.6480 C   0  0  0  0  0  0  0  0  0  0  0  0
    9.7000   -0.7450  -54.9220 C   0  0  0  0  0  0  0  0  0  0  0  0
    8.8190   -1.6070  -54.2490 C   0  0  0  0  0  0  0  0  0  0  0  0
    9.2890   -2.8270  -53.4290 C   0  0  1  0  0  0  0  0  0  0  0  0
    9.4660   -3.8940  -54.3880 O   0  0  0  0  0  0  0  0  0  0  0  0
   10.5990   -2.6180  -52.7410 C   0  0  0  0  0  0  0  0  0  0  0  0
   11.6270   -2.4270  -52.2290 N   0  0  0  0  0  0  0  0  0  0  0  0
    8.2330   -3.2550  -52.3920 C   0  0  0  0  0  0  0  0  0  0  0  0
    7.2040   -4.1550  -52.7470 C   0  0  0  0  0  0  0  0  0  0  0  0
    6.2350   -4.5410  -51.8180 C   0  0  0  0  0  0  0  0  0  0  0  0
    6.2780   -4.0270  -50.5290 C   0  0  0  0  0  0  0  0  0  0  0  0
    5.3470   -4.3970  -49.6390 F   0  0  0  0  0  0  0  0  0  0  0  0
    7.2700   -3.1330  -50.1510 C   0  0  0  0  0  0  0  0  0  0  0  0
    8.2410   -2.7460  -51.0780 C   0  0  0  0  0  0  0  0  0  0  0  0
    7.4420   -1.3180  -54.3270 C   0  0  0  0  0  0  0  0  0  0  0  0
    6.9640   -0.2200  -55.0540 C   0  0  0  0  0  0  0  0  0  0  0  0
    7.8760    3.8540  -58.7840 C   0  0  0  0  0  0  0  0  0  0  0  0
    8.5530    3.5160  -59.9620 C   0  0  0  0  0  0  0  0  0  0  0  0
    9.7370    4.1700  -60.3280 C   0  0  0  0  0  0  0  0  0  0  0  0
   10.2590    5.1710  -59.5150 C   0  0  0  0  0  0  0  0  0  0  0  0
   11.8580    6.0470  -60.0120 Br  0  0  0  0  0  0  0  0  0  0  0  0
    9.6080    5.5300  -58.3420 C   0  0  0  0  0  0  0  0  0  0  0  0
    8.4260    4.8760  -57.9820 C   0  0  0  0  0  0  0  0  0  0  0  0
    4.1660    2.7583  -57.3521 H   0  0  0  0  0  0  0  0  0  0  0  0
    3.1855    3.3629  -58.7304 H   0  0  0  0  0  0  0  0  0  0  0  0
    3.7872    1.6704  -58.7304 H   0  0  0  0  0  0  0  0  0  0  0  0
    5.1344    4.2285  -59.3603 H   0  0  0  0  0  0  0  0  0  0  0  0
    5.7483    1.3760  -60.2898 H   0  0  0  0  0  0  0  0  0  0  0  0
    4.5473    2.4680  -61.0591 H   0  0  0  0  0  0  0  0  0  0  0  0
    6.2892    2.9064  -61.0591 H   0  0  0  0  0  0  0  0  0  0  0  0
    6.3293    3.9114  -57.5115 H   0  0  0  0  0  0  0  0  0  0  0  0
    7.5830    2.6460  -56.0260 H   0  0  0  0  0  0  0  0  0  0  0  0
    9.9271    1.0118  -56.1693 H   0  0  0  0  0  0  0  0  0  0  0  0
   10.7829   -0.9336  -54.8790 H   0  0  0  0  0  0  0  0  0  0  0  0
   10.2030   -3.6310  -54.9650 H   0  0  0  0  0  0  0  0  0  0  0  0
    7.1651   -4.5578  -53.7699 H   0  0  0  0  0  0  0  0  0  0  0  0
    5.4428   -5.2478  -52.1059 H   0  0  0  0  0  0  0  0  0  0  0  0
    7.2916   -2.7313  -49.1272 H   0  0  0  0  0  0  0  0  0  0  0  0
    9.0233   -2.0334  -50.7777 H   0  0  0  0  0  0  0  0  0  0  0  0
    6.7259   -1.9696  -53.8050 H   0  0  0  0  0  0  0  0  0  0  0  0
    5.8826   -0.0237  -55.0986 H   0  0  0  0  0  0  0  0  0  0  0  0
    8.1491    2.7246  -60.6104 H   0  0  0  0  0  0  0  0  0  0  0  0
   10.2538    3.8919  -61.2583 H   0  0  0  0  0  0  0  0  0  0  0  0
   10.0195    6.3233  -57.7007 H   0  0  0  0  0  0  0  0  0  0  0  0
    7.9133    5.1648  -57.0526 H   0  0  0  0  0  0  0  0  0  0  0  0
  1  2  1  0
  2  3  1  0
  2  4  1  0
  4  5  1  0
  5  6  2  0
  5  7  1  0
  7  8  1  0
  8  9  1  0
  9 10  2  0
 10 11  1  0
 11 12  1  0
 12 13  1  0
 12 14  1  1
 14 15  3  0
 12 16  1  0
 16 17  1  0
 17 18  2  0
 18 19  1  0
 19 20  1  0
 19 21  2  0
 21 22  1  0
 11 23  2  0
 23 24  1  0
  4 25  1  0
 25 26  1  0
 26 27  2  0
 27 28  1  0
 28 29  1  0
 28 30  2  0
 30 31  1  0
 24  8  2  0
 31 25  2  0
 22 16  2  0
  1 32  1  0
  1 33  1  0
  1 34  1  0
  2 35  1  0
  3 36  1  0
  3 37  1  0
  3 38  1  0
  4 39  1  1
  7 40  1  0
  9 41  1  0
 10 42  1  0
 13 43  1  0
 17 44  1  0
 18 45  1  0
 21 46  1  0
 22 47  1  0
 23 48  1  0
 24 49  1  0
 26 50  1  0
 27 51  1  0
 30 52  1  0
 31 53  1  0
M  END
>  <meeko>  (99) 
{"is_sidechain": false}

$$$$

     RDKit          3D

 64 67  0  0  0  0  0  0  0  0999 V2000
    8.5350    0.9750  -55.4840 O   0  0  0  0  0  0  0  0  0  0  0  0
    7.6620    0.2910  -54.9550 C   0  0  0  0  0  0  0  0  0  0  0  0
    6.2050    0.3490  -55.3860 C   0  0  0  0  0  0  0  0  0  0  0  0
    5.9130    1.4170  -56.4450 C   0  0  0  0  0  0  0  0  0  0  0  0
    6.0530    0.8750  -57.8770 C   0  0  0  0  0  0  0  0  0  0  0  0
    6.8110    1.7730  -58.8890 C   0  0  2  0  0  0  0  0  0  0  0  0
    7.2230    3.1290  -58.2730 C   0  0  0  0  0  0  0  0  0  0  0  0
    6.5270    4.1410  -58.3050 O   0  0  0  0  0  0  0  0  0  0  0  0
    8.4590    3.1000  -57.6480 N   0  0  0  0  0  0  0  0  0  0  0  0
    8.9310    4.2200  -56.8360 C   0  0  2  0  0  0  0  0  0  0  0  0
    8.6150    5.5590  -57.5030 C   0  0  0  0  0  0  0  0  0  0  0  0
    9.3660    5.7430  -58.8240 C   0  0  0  0  0  0  0  0  0  0  0  0
   10.8020    5.2770  -58.7870 C   0  0  0  0  0  0  0  0  0  0  0  0
   11.6490    5.6090  -59.8560 C   0  0  0  0  0  0  0  0  0  0  0  0
   12.9800    5.1950  -59.8650 C   0  0  0  0  0  0  0  0  0  0  0  0
   13.4800    4.4400  -58.8080 C   0  0  0  0  0  0  0  0  0  0  0  0
   12.6450    4.0900  -57.7480 C   0  0  0  0  0  0  0  0  0  0  0  0
   11.3000    4.4920  -57.7340 C   0  0  0  0  0  0  0  0  0  0  0  0
   10.4380    4.1300  -56.5450 C   0  0  0  0  0  0  0  0  0  0  0  0
    6.1510    1.9490  -60.2600 C   0  0  0  0  0  0  0  0  0  0  0  0
    6.7930    2.4280  -61.3530 C   0  0  0  0  0  0  0  0  0  0  0  0
    8.5880    2.9910  -61.3760 Br  0  0  0  0  0  0  0  0  0  0  0  0
    6.1350    2.5970  -62.7040 C   0  0  0  0  0  0  0  0  0  0  0  0
    4.7760    1.9120  -62.8220 C   0  0  0  0  0  0  0  0  0  0  0  0
    3.9550    2.1460  -61.5660 C   0  0  0  0  0  0  0  0  0  0  0  0
    4.6800    1.5840  -60.3440 C   0  0  0  0  0  0  0  0  0  0  0  0
    8.0440   -0.6430  -53.8510 C   0  0  0  0  0  0  0  0  0  0  0  0
    7.0900   -0.9470  -52.8710 C   0  0  0  0  0  0  0  0  0  0  0  0
    7.4000   -1.8170  -51.8220 C   0  0  0  0  0  0  0  0  0  0  0  0
    8.6710   -2.3910  -51.7410 C   0  0  0  0  0  0  0  0  0  0  0  0
    8.9900   -3.4590  -50.4230 Cl  0  0  0  0  0  0  0  0  0  0  0  0
    9.6290   -2.0900  -52.7150 C   0  0  0  0  0  0  0  0  0  0  0  0
   11.2230   -2.7590  -52.6810 Cl  0  0  0  0  0  0  0  0  0  0  0  0
    9.3170   -1.2170  -53.7650 C   0  0  0  0  0  0  0  0  0  0  0  0
    5.9262   -0.6323  -55.7976 H   0  0  0  0  0  0  0  0  0  0  0  0
    5.6185    0.6149  -54.4942 H   0  0  0  0  0  0  0  0  0  0  0  0
    4.8850    1.7824  -56.3043 H   0  0  0  0  0  0  0  0  0  0  0  0
    6.6484    2.2252  -56.3185 H   0  0  0  0  0  0  0  0  0  0  0  0
    6.5855   -0.0858  -57.8195 H   0  0  0  0  0  0  0  0  0  0  0  0
    5.0252    0.8073  -58.2629 H   0  0  0  0  0  0  0  0  0  0  0  0
    7.7220    1.1963  -59.1068 H   0  0  0  0  0  0  0  0  0  0  0  0
    8.8770    2.1950  -57.4860 H   0  0  0  0  0  0  0  0  0  0  0  0
    8.3933    4.1591  -55.8783 H   0  0  0  0  0  0  0  0  0  0  0  0
    7.5341    5.6090  -57.7009 H   0  0  0  0  0  0  0  0  0  0  0  0
    8.9363    6.3588  -56.8196 H   0  0  0  0  0  0  0  0  0  0  0  0
    8.8382    5.1741  -59.6036 H   0  0  0  0  0  0  0  0  0  0  0  0
    9.3884    6.8236  -59.0283 H   0  0  0  0  0  0  0  0  0  0  0  0
   11.2581    6.2023  -60.6958 H   0  0  0  0  0  0  0  0  0  0  0  0
   13.6347    5.4648  -60.7068 H   0  0  0  0  0  0  0  0  0  0  0  0
   14.5324    4.1200  -58.8091 H   0  0  0  0  0  0  0  0  0  0  0  0
   13.0438    3.4931  -56.9145 H   0  0  0  0  0  0  0  0  0  0  0  0
   10.6743    3.0988  -56.2436 H   0  0  0  0  0  0  0  0  0  0  0  0
   10.6598    4.8560  -55.7489 H   0  0  0  0  0  0  0  0  0  0  0  0
    5.9977    3.6724  -62.8899 H   0  0  0  0  0  0  0  0  0  0  0  0
    6.7969    2.1209  -63.4424 H   0  0  0  0  0  0  0  0  0  0  0  0
    4.2373    2.3222  -63.6889 H   0  0  0  0  0  0  0  0  0  0  0  0
    4.9312    0.8306  -62.9508 H   0  0  0  0  0  0  0  0  0  0  0  0
    3.7999    3.2265  -61.4304 H   0  0  0  0  0  0  0  0  0  0  0  0
    2.9863    1.6358  -61.6724 H   0  0  0  0  0  0  0  0  0  0  0  0
    4.1794    1.9661  -59.4421 H   0  0  0  0  0  0  0  0  0  0  0  0
    4.6346    0.4884  -60.4306 H   0  0  0  0  0  0  0  0  0  0  0  0
    6.0879   -0.4969  -52.9277 H   0  0  0  0  0  0  0  0  0  0  0  0
    6.6423   -2.0500  -51.0593 H   0  0  0  0  0  0  0  0  0  0  0  0
   10.0763   -0.9817  -54.5254 H   0  0  0  0  0  0  0  0  0  0  0  0
  1  2  2  0
  2  3  1  0
  3  4  1  0
  4  5  1  0
  5  6  1  0
  6  7  1  0
  7  8  2  0
  7  9  1  0
  9 10  1  0
 10 11  1  0
 11 12  1  0
 12 13  1  0
 13 14  2  0
 14 15  1  0
 15 16  2  0
 16 17  1  0
 17 18  2  0
 18 19  1  0
  6 20  1  0
 20 21  2  0
 21 22  1  0
 21 23  1  0
 23 24  1  0
 24 25  1  0
 25 26  1  0
  2 27  1  0
 27 28  1  0
 28 29  2  0
 29 30  1  0
 30 31  1  0
 30 32  2  0
 32 33  1  0
 32 34  1  0
 19 10  1  0
 26 20  1  0
 34 27  2  0
 18 13  1  0
  3 35  1  0
  3 36  1  0
  4 37  1  0
  4 38  1  0
  5 39  1  0
  5 40  1  0
  6 41  1  6
  9 42  1  0
 10 43  1  1
 11 44  1  0
 11 45  1  0
 12 46  1  0
 12 47  1  0
 14 48  1  0
 15 49  1  0
 16 50  1  0
 17 51  1  0
 19 52  1  0
 19 53  1  0
 23 54  1  0
 23 55  1  0
 24 56  1  0
 24 57  1  0
 25 58  1  0
 25 59  1  0
 26 60  1  0
 26 61  1  0
 28 62  1  0
 29 63  1  0
 34 64  1  0
M  END
>  <meeko>  (100) 
{"is_sidechain": false}

$$$$

     RDKit          3D

 55 58  0  0  0  0  0  0  0  0999 V2000
    7.5700    1.0860  -55.7180 O   0  0  0  0  0  0  0  0  0  0  0  0
    8.7940    0.9990  -55.6710 C   0  0  0  0  0  0  0  0  0  0  0  0
    9.6320    1.7270  -56.4820 N   0  0  0  0  0  0  0  0  0  0  0  0
    9.1260    2.5470  -57.5610 C   0  0  0  0  0  0  0  0  0  0  0  0
   10.2560    3.2970  -58.2200 C   0  0  0  0  0  0  0  0  0  0  0  0
   10.0040    4.2290  -59.2360 C   0  0  0  0  0  0  0  0  0  0  0  0
   11.0560    4.9370  -59.8210 C   0  0  0  0  0  0  0  0  0  0  0  0
   12.3650    4.7260  -59.3920 C   0  0  0  0  0  0  0  0  0  0  0  0
   12.6250    3.8060  -58.3780 C   0  0  0  0  0  0  0  0  0  0  0  0
   11.5770    3.0960  -57.7920 C   0  0  0  0  0  0  0  0  0  0  0  0
    9.4840    0.0580  -54.6920 C   0  0  2  0  0  0  0  0  0  0  0  0
   10.0500   -1.1990  -55.3640 C   0  0  0  0  0  0  0  0  0  0  0  0
    9.7720   -2.3430  -54.3780 C   0  0  2  0  0  0  0  0  0  0  0  0
    9.7550   -3.7290  -55.0370 C   0  0  0  0  0  0  0  0  0  0  0  0
   10.9890   -3.9970  -55.8620 C   0  0  0  0  0  0  0  0  0  0  0  0
   11.9490   -4.9240  -55.4340 C   0  0  0  0  0  0  0  0  0  0  0  0
   13.0810   -5.1790  -56.2110 C   0  0  0  0  0  0  0  0  0  0  0  0
   13.2650   -4.5110  -57.4200 C   0  0  0  0  0  0  0  0  0  0  0  0
   12.3160   -3.5870  -57.8540 C   0  0  0  0  0  0  0  0  0  0  0  0
   11.1830   -3.3320  -57.0800 C   0  0  0  0  0  0  0  0  0  0  0  0
    8.4040   -1.9430  -53.7940 C   0  0  1  0  0  0  0  0  0  0  0  0
    7.9890   -2.6850  -52.5440 C   0  0  0  0  0  0  0  0  0  0  0  0
    8.8220   -2.6610  -51.4140 C   0  0  0  0  0  0  0  0  0  0  0  0
    8.4620   -3.3360  -50.2460 C   0  0  0  0  0  0  0  0  0  0  0  0
    7.2670   -4.0470  -50.1900 C   0  0  0  0  0  0  0  0  0  0  0  0
    6.4320   -4.0860  -51.3040 C   0  0  0  0  0  0  0  0  0  0  0  0
    6.7900   -3.4120  -52.4730 C   0  0  0  0  0  0  0  0  0  0  0  0
    8.5430   -0.4290  -53.5800 C   0  0  0  0  0  0  0  0  0  0  0  0
   10.6120    1.4920  -56.5160 H   0  0  0  0  0  0  0  0  0  0  0  0
    8.6337    1.9042  -58.3056 H   0  0  0  0  0  0  0  0  0  0  0  0
    8.4047    3.2707  -57.1536 H   0  0  0  0  0  0  0  0  0  0  0  0
    8.9720    4.4037  -59.5744 H   0  0  0  0  0  0  0  0  0  0  0  0
   10.8510    5.6626  -60.6219 H   0  0  0  0  0  0  0  0  0  0  0  0
   13.1923    5.2852  -59.8534 H   0  0  0  0  0  0  0  0  0  0  0  0
   13.6582    3.6395  -58.0392 H   0  0  0  0  0  0  0  0  0  0  0  0
   11.7876    2.3740  -56.9893 H   0  0  0  0  0  0  0  0  0  0  0  0
   10.2999    0.6658  -54.2739 H   0  0  0  0  0  0  0  0  0  0  0  0
    9.5440   -1.3848  -56.3229 H   0  0  0  0  0  0  0  0  0  0  0  0
   11.1228   -1.0989  -55.5855 H   0  0  0  0  0  0  0  0  0  0  0  0
   10.5599   -2.4545  -53.6185 H   0  0  0  0  0  0  0  0  0  0  0  0
    9.6864   -4.4927  -54.2483 H   0  0  0  0  0  0  0  0  0  0  0  0
    8.8888   -3.7641  -55.7141 H   0  0  0  0  0  0  0  0  0  0  0  0
   11.8100   -5.4540  -54.4802 H   0  0  0  0  0  0  0  0  0  0  0  0
   13.8291   -5.9088  -55.8679 H   0  0  0  0  0  0  0  0  0  0  0  0
   14.1575   -4.7125  -58.0307 H   0  0  0  0  0  0  0  0  0  0  0  0
   12.4602   -3.0581  -58.8077 H   0  0  0  0  0  0  0  0  0  0  0  0
   10.4365   -2.6033  -57.4288 H   0  0  0  0  0  0  0  0  0  0  0  0
    7.5857   -2.2167  -54.4763 H   0  0  0  0  0  0  0  0  0  0  0  0
    9.7697   -2.1037  -51.4493 H   0  0  0  0  0  0  0  0  0  0  0  0
    9.1243   -3.3057  -49.3683 H   0  0  0  0  0  0  0  0  0  0  0  0
    6.9828   -4.5766  -49.2687 H   0  0  0  0  0  0  0  0  0  0  0  0
    5.4881   -4.6493  -51.2627 H   0  0  0  0  0  0  0  0  0  0  0  0
    6.1251   -3.4510  -53.3484 H   0  0  0  0  0  0  0  0  0  0  0  0
    7.5625    0.0626  -53.6634 H   0  0  0  0  0  0  0  0  0  0  0  0
    8.9361   -0.1926  -52.5802 H   0  0  0  0  0  0  0  0  0  0  0  0
  1  2  2  0
  2  3  1  0
  3  4  1  0
  4  5  1  0
  5  6  2  0
  6  7  1  0
  7  8  2  0
  8  9  1  0
  9 10  2  0
  2 11  1  0
 11 12  1  0
 12 13  1  0
 13 14  1  0
 14 15  1  0
 15 16  2  0
 16 17  1  0
 17 18  2  0
 18 19  1  0
 19 20  2  0
 13 21  1  0
 21 22  1  0
 22 23  2  0
 23 24  1  0
 24 25  2  0
 25 26  1  0
 26 27  2  0
 21 28  1  0
 10  5  1  0
 28 11  1  0
 20 15  1  0
 27 22  1  0
  3 29  1  0
  4 30  1  0
  4 31  1  0
  6 32  1  0
  7 33  1  0
  8 34  1  0
  9 35  1  0
 10 36  1  0
 11 37  1  1
 12 38  1  0
 12 39  1  0
 13 40  1  1
 14 41  1  0
 14 42  1  0
 16 43  1  0
 17 44  1  0
 18 45  1  0
 19 46  1  0
 20 47  1  0
 21 48  1  6
 23 49  1  0
 24 50  1  0
 25 51  1  0
 26 52  1  0
 27 53  1  0
 28 54  1  0
 28 55  1  0
M  END
>  <meeko>  (101) 
{"is_sidechain": false}

$$$$

     RDKit          3D

 65 70  0  0  0  0  0  0  0  0999 V2000
    7.3100    1.7500  -57.5050 O   0  0  0  0  0  0  0  0  0  0  0  0
    8.0520    1.7580  -56.5290 C   0  0  0  0  0  0  0  0  0  0  0  0
    9.2850    2.3900  -56.5130 N   0  0  0  0  0  0  0  0  0  0  0  0
    9.8640    3.1240  -57.6440 C   0  0  2  0  0  0  0  0  0  0  0  0
    9.0380    4.3870  -57.9950 C   0  0  0  0  0  0  0  0  0  0  0  0
    9.6980    5.1630  -59.1500 C   0  0  1  0  0  0  0  0  0  0  0  0
   11.1090    5.5990  -58.7280 C   0  0  0  0  0  0  0  0  0  0  0  0
   11.9610    4.3650  -58.3910 C   0  0  2  0  0  0  0  0  0  0  0  0
   12.0520    3.4570  -59.6280 C   0  0  0  0  0  0  0  0  0  0  0  0
   10.6470    3.0080  -60.0560 C   0  0  2  0  0  0  0  0  0  0  0  0
    9.7960    4.2480  -60.3820 C   0  0  0  0  0  0  0  0  0  0  0  0
    9.9880    2.2300  -58.9030 C   0  0  0  0  0  0  0  0  0  0  0  0
   11.2920    3.5880  -57.2460 C   0  0  0  0  0  0  0  0  0  0  0  0
    7.7130    1.0420  -55.2040 C   0  0  1  0  0  0  0  0  0  0  0  0
    6.8900   -0.2160  -55.4360 C   0  0  0  0  0  0  0  0  0  0  0  0
    7.2810   -1.1050  -54.2700 C   0  0  2  0  0  0  0  0  0  0  0  0
    6.4800   -0.7820  -52.9990 C   0  0  0  0  0  0  0  0  0  0  0  0
    7.3120   -1.0440  -51.8670 O   0  0  0  0  0  0  0  0  0  0  0  0
    7.3340   -2.3260  -51.3930 C   0  0  0  0  0  0  0  0  0  0  0  0
    8.5100   -2.6810  -50.7270 C   0  0  0  0  0  0  0  0  0  0  0  0
    8.6680   -3.9600  -50.1930 C   0  0  0  0  0  0  0  0  0  0  0  0
    7.6450   -4.8970  -50.3230 C   0  0  0  0  0  0  0  0  0  0  0  0
    6.4690   -4.5500  -50.9850 C   0  0  0  0  0  0  0  0  0  0  0  0
    6.3110   -3.2680  -51.5190 C   0  0  0  0  0  0  0  0  0  0  0  0
    8.7540   -0.7430  -54.0780 C   0  0  1  0  0  0  0  0  0  0  0  0
    9.7040   -1.6150  -54.8830 C   0  0  0  0  0  0  0  0  0  0  0  0
    9.6040   -3.0150  -54.7980 C   0  0  0  0  0  0  0  0  0  0  0  0
   10.4690   -3.8430  -55.5180 C   0  0  0  0  0  0  0  0  0  0  0  0
   11.4540   -3.2860  -56.3270 C   0  0  0  0  0  0  0  0  0  0  0  0
   11.5790   -1.9010  -56.4100 C   0  0  0  0  0  0  0  0  0  0  0  0
   10.7150   -1.0740  -55.6880 C   0  0  0  0  0  0  0  0  0  0  0  0
    8.8580    0.6480  -54.4350 O   0  0  0  0  0  0  0  0  0  0  0  0
    9.8770    2.2450  -55.7060 H   0  0  0  0  0  0  0  0  0  0  0  0
    8.0243    4.0838  -58.2960 H   0  0  0  0  0  0  0  0  0  0  0  0
    8.9934    5.0387  -57.1099 H   0  0  0  0  0  0  0  0  0  0  0  0
    9.0951    6.0503  -59.3934 H   0  0  0  0  0  0  0  0  0  0  0  0
   11.5809    6.1535  -59.5525 H   0  0  0  0  0  0  0  0  0  0  0  0
   11.0375    6.2426  -57.8388 H   0  0  0  0  0  0  0  0  0  0  0  0
   12.9696    4.6830  -58.0885 H   0  0  0  0  0  0  0  0  0  0  0  0
   12.5240    4.0113  -60.4526 H   0  0  0  0  0  0  0  0  0  0  0  0
   12.6543    2.5703  -59.3809 H   0  0  0  0  0  0  0  0  0  0  0  0
   10.7192    2.3629  -60.9441 H   0  0  0  0  0  0  0  0  0  0  0  0
   10.2629    4.8018  -61.2098 H   0  0  0  0  0  0  0  0  0  0  0  0
    8.7850    3.9241  -60.6702 H   0  0  0  0  0  0  0  0  0  0  0  0
    8.9850    1.9026  -59.2143 H   0  0  0  0  0  0  0  0  0  0  0  0
   10.6137    1.3587  -58.6595 H   0  0  0  0  0  0  0  0  0  0  0  0
   11.9027    2.7051  -57.0061 H   0  0  0  0  0  0  0  0  0  0  0  0
   11.2126    4.2523  -56.3728 H   0  0  0  0  0  0  0  0  0  0  0  0
    7.1474    1.7988  -54.6408 H   0  0  0  0  0  0  0  0  0  0  0  0
    5.8132    0.0080  -55.4177 H   0  0  0  0  0  0  0  0  0  0  0  0
    7.0782   -0.6806  -56.4152 H   0  0  0  0  0  0  0  0  0  0  0  0
    7.0905   -2.1715  -54.4603 H   0  0  0  0  0  0  0  0  0  0  0  0
    6.1829    0.2771  -53.0054 H   0  0  0  0  0  0  0  0  0  0  0  0
    5.5724   -1.4020  -52.9546 H   0  0  0  0  0  0  0  0  0  0  0  0
    9.3199   -1.9440  -50.6227 H   0  0  0  0  0  0  0  0  0  0  0  0
    9.5981   -4.2282  -49.6705 H   0  0  0  0  0  0  0  0  0  0  0  0
    7.7653   -5.9071  -49.9045 H   0  0  0  0  0  0  0  0  0  0  0  0
    5.6607   -5.2889  -51.0879 H   0  0  0  0  0  0  0  0  0  0  0  0
    5.3794   -3.0008  -52.0393 H   0  0  0  0  0  0  0  0  0  0  0  0
    9.0609   -0.9225  -53.0370 H   0  0  0  0  0  0  0  0  0  0  0  0
    8.8332   -3.4651  -54.1550 H   0  0  0  0  0  0  0  0  0  0  0  0
   10.3710   -4.9362  -55.4450 H   0  0  0  0  0  0  0  0  0  0  0  0
   12.1317   -3.9367  -56.8991 H   0  0  0  0  0  0  0  0  0  0  0  0
   12.3597   -1.4576  -57.0455 H   0  0  0  0  0  0  0  0  0  0  0  0
   10.8302    0.0180  -55.7525 H   0  0  0  0  0  0  0  0  0  0  0  0
  1  2  2  0
  2  3  1  0
  4  3  1  1
  4  5  1  0
  5  6  1  0
  6  7  1  0
  7  8  1  0
  8  9  1  0
  9 10  1  0
 10 11  1  0
 10 12  1  0
  8 13  1  0
  2 14  1  0
 14 15  1  0
 15 16  1  0
 16 17  1  0
 17 18  1  0
 18 19  1  0
 19 20  2  0
 20 21  1  0
 21 22  2  0
 22 23  1  0
 23 24  2  0
 16 25  1  0
 25 26  1  0
 26 27  2  0
 27 28  1  0
 28 29  2  0
 29 30  1  0
 30 31  2  0
 25 32  1  0
 12  4  1  0
 32 14  1  0
 13  4  1  0
 24 19  1  0
 31 26  1  0
 11  6  1  0
  3 33  1  0
  5 34  1  0
  5 35  1  0
  6 36  1  6
  7 37  1  0
  7 38  1  0
  8 39  1  1
  9 40  1  0
  9 41  1  0
 10 42  1  6
 11 43  1  0
 11 44  1  0
 12 45  1  0
 12 46  1  0
 13 47  1  0
 13 48  1  0
 14 49  1  1
 15 50  1  0
 15 51  1  0
 16 52  1  6
 17 53  1  0
 17 54  1  0
 20 55  1  0
 21 56  1  0
 22 57  1  0
 23 58  1  0
 24 59  1  0
 25 60  1  1
 27 61  1  0
 28 62  1  0
 29 63  1  0
 30 64  1  0
 31 65  1  0
M  END
>  <meeko>  (102) 
{"is_sidechain": false}

$$$$

     RDKit          3D

 52 54  0  0  0  0  0  0  0  0999 V2000
   10.9500    5.6350  -59.4530 O   0  0  0  0  0  0  0  0  0  0  0  0
   10.9480    5.1150  -58.3400 C   0  0  0  0  0  0  0  0  0  0  0  0
   12.0550    4.5070  -57.8040 N   0  0  0  0  0  0  0  0  0  0  0  0
   13.2420    4.6290  -58.5640 O   0  0  0  0  0  0  0  0  0  0  0  0
    9.7080    5.0440  -57.4730 C   0  0  2  0  0  0  0  0  0  0  0  0
    9.6510    3.7260  -56.6940 C   0  0  0  0  0  0  0  0  0  0  0  0
    8.2560    3.1510  -56.9560 C   0  0  2  0  0  0  0  0  0  0  0  0
    8.1130    1.6310  -56.7320 C   0  0  0  0  0  0  0  0  0  0  0  0
    6.6400    1.1600  -56.7360 C   0  0  0  0  0  0  0  0  0  0  0  0
    6.0640    1.0290  -55.3310 C   0  0  0  0  0  0  0  0  0  0  0  0
    6.8310    0.0030  -54.4960 C   0  0  0  0  0  0  0  0  0  0  0  0
    8.3080   -0.1010  -54.8770 C   0  0  0  0  0  0  0  0  0  0  0  0
    8.8370    1.2170  -55.4280 C   0  0  0  0  0  0  0  0  0  0  0  0
    7.9440    3.6340  -58.3670 N   0  0  2  0  0  0  0  0  0  0  0  0
    8.5200    2.7980  -59.5100 C   0  0  0  0  0  0  0  0  0  0  0  0
    8.0320    3.2790  -60.8800 C   0  0  0  0  0  0  0  0  0  0  0  0
    6.7200    2.6250  -61.2370 C   0  0  0  0  0  0  0  0  0  0  0  0
    6.0170    1.8870  -60.2720 C   0  0  0  0  0  0  0  0  0  0  0  0
    4.7890    1.3020  -60.5880 C   0  0  0  0  0  0  0  0  0  0  0  0
    4.2580    1.4520  -61.8650 C   0  0  0  0  0  0  0  0  0  0  0  0
    2.7450    0.7330  -62.2530 Cl  0  0  0  0  0  0  0  0  0  0  0  0
    4.9460    2.1810  -62.8320 C   0  0  0  0  0  0  0  0  0  0  0  0
    6.1740    2.7680  -62.5200 C   0  0  0  0  0  0  0  0  0  0  0  0
    8.4480    5.0720  -58.3320 C   0  0  0  0  0  0  0  0  0  0  0  0
   12.1990    4.3800  -56.8060 H   0  0  0  0  0  0  0  0  0  0  0  0
   13.2470    3.8250  -59.1260 H   0  0  0  0  0  0  0  0  0  0  0  0
    9.7565    5.9068  -56.7924 H   0  0  0  0  0  0  0  0  0  0  0  0
   10.4255    3.0332  -57.0548 H   0  0  0  0  0  0  0  0  0  0  0  0
    9.8318    3.8805  -55.6200 H   0  0  0  0  0  0  0  0  0  0  0  0
    7.5170    3.5035  -56.2214 H   0  0  0  0  0  0  0  0  0  0  0  0
    8.5931    1.1252  -57.5827 H   0  0  0  0  0  0  0  0  0  0  0  0
    6.0380    1.8899  -57.2972 H   0  0  0  0  0  0  0  0  0  0  0  0
    6.6092    0.1647  -57.2034 H   0  0  0  0  0  0  0  0  0  0  0  0
    6.1187    2.0073  -54.8311 H   0  0  0  0  0  0  0  0  0  0  0  0
    5.0220    0.6877  -55.4192 H   0  0  0  0  0  0  0  0  0  0  0  0
    6.7627    0.2928  -53.4371 H   0  0  0  0  0  0  0  0  0  0  0  0
    6.3746   -0.9797  -54.6859 H   0  0  0  0  0  0  0  0  0  0  0  0
    8.8891   -0.3738  -53.9838 H   0  0  0  0  0  0  0  0  0  0  0  0
    8.4092   -0.8675  -55.6595 H   0  0  0  0  0  0  0  0  0  0  0  0
    8.6874    2.0033  -54.6734 H   0  0  0  0  0  0  0  0  0  0  0  0
    9.9045    1.0856  -55.6584 H   0  0  0  0  0  0  0  0  0  0  0  0
    6.9230    3.6510  -58.4940 H   0  0  0  0  0  0  0  0  0  0  0  0
    9.6175    2.8660  -59.4807 H   0  0  0  0  0  0  0  0  0  0  0  0
    8.1800    1.7606  -59.3749 H   0  0  0  0  0  0  0  0  0  0  0  0
    7.8961    4.3702  -60.8525 H   0  0  0  0  0  0  0  0  0  0  0  0
    8.7811    3.0074  -61.6383 H   0  0  0  0  0  0  0  0  0  0  0  0
    6.4355    1.7688  -59.2616 H   0  0  0  0  0  0  0  0  0  0  0  0
    4.2425    0.7236  -59.8285 H   0  0  0  0  0  0  0  0  0  0  0  0
    4.5223    2.2943  -63.8408 H   0  0  0  0  0  0  0  0  0  0  0  0
    6.7151    3.3451  -63.2843 H   0  0  0  0  0  0  0  0  0  0  0  0
    8.6837    5.4211  -59.3481 H   0  0  0  0  0  0  0  0  0  0  0  0
    7.6919    5.7586  -57.9234 H   0  0  0  0  0  0  0  0  0  0  0  0
  1  2  2  0
  2  3  1  0
  3  4  1  0
  2  5  1  0
  5  6  1  0
  6  7  1  0
  7  8  1  0
  8  9  1  0
  9 10  1  0
 10 11  1  0
 11 12  1  0
 12 13  1  0
  7 14  1  0
 14 15  1  0
 15 16  1  0
 16 17  1  0
 17 18  1  0
 18 19  2  0
 19 20  1  0
 20 21  1  0
 20 22  2  0
 22 23  1  0
 14 24  1  0
 24  5  1  0
 13  8  1  0
 23 17  2  0
  3 25  1  0
  4 26  1  0
  5 27  1  1
  6 28  1  0
  6 29  1  0
  7 30  1  1
  8 31  1  0
  9 32  1  0
  9 33  1  0
 10 34  1  0
 10 35  1  0
 11 36  1  0
 11 37  1  0
 12 38  1  0
 12 39  1  0
 13 40  1  0
 13 41  1  0
 14 42  1  6
 15 43  1  0
 15 44  1  0
 16 45  1  0
 16 46  1  0
 18 47  1  0
 19 48  1  0
 22 49  1  0
 23 50  1  0
 24 51  1  0
 24 52  1  0
M  CHG  1  14   1
M  END
>  <meeko>  (103) 
{"is_sidechain": false}

$$$$

     RDKit          3D

 52 54  0  0  0  0  0  0  0  0999 V2000
    3.0660    2.2470  -60.7900 O   0  0  0  0  0  0  0  0  0  0  0  0
    3.9760    1.6660  -61.3750 C   0  0  0  0  0  0  0  0  0  0  0  0
    3.8500    1.2060  -62.6660 N   0  0  0  0  0  0  0  0  0  0  0  0
    2.5480    1.3420  -63.2060 O   0  0  0  0  0  0  0  0  0  0  0  0
    5.3510    1.4880  -60.7830 C   0  0  2  0  0  0  0  0  0  0  0  0
    5.3880    1.6350  -59.2710 C   0  0  0  0  0  0  0  0  0  0  0  0
    6.8530    1.9420  -58.9540 C   0  0  2  0  0  0  0  0  0  0  0  0
    7.0350    2.7930  -57.6710 C   0  0  0  0  0  0  0  0  0  0  0  0
    6.2760    2.2010  -56.4640 C   0  0  0  0  0  0  0  0  0  0  0  0
    6.9200    0.9240  -55.9300 C   0  0  0  0  0  0  0  0  0  0  0  0
    8.3850    1.1480  -55.5650 C   0  0  0  0  0  0  0  0  0  0  0  0
    9.1730    1.7480  -56.7250 C   0  0  0  0  0  0  0  0  0  0  0  0
    8.5070    3.0120  -57.2680 C   0  0  0  0  0  0  0  0  0  0  0  0
    7.3410    2.7120  -60.1980 N   0  0  1  0  0  0  0  0  0  0  0  0
    8.6800    2.2240  -60.7270 C   0  0  0  0  0  0  0  0  0  0  0  0
    9.4940    3.3900  -61.2990 C   0  0  0  0  0  0  0  0  0  0  0  0
   10.5210    3.8630  -60.3030 C   0  0  0  0  0  0  0  0  0  0  0  0
   10.7760    5.2320  -60.1410 C   0  0  0  0  0  0  0  0  0  0  0  0
   11.7490    5.6680  -59.2380 C   0  0  0  0  0  0  0  0  0  0  0  0
   12.4710    4.7390  -58.4930 C   0  0  0  0  0  0  0  0  0  0  0  0
   13.6710    5.2760  -57.3860 Cl  0  0  0  0  0  0  0  0  0  0  0  0
   12.2280    3.3750  -58.6430 C   0  0  0  0  0  0  0  0  0  0  0  0
   11.2550    2.9370  -59.5470 C   0  0  0  0  0  0  0  0  0  0  0  0
    6.2230    2.6410  -61.2340 C   0  0  0  0  0  0  0  0  0  0  0  0
    4.3370    0.3700  -62.9810 H   0  0  0  0  0  0  0  0  0  0  0  0
    2.2820    2.2550  -62.9550 H   0  0  0  0  0  0  0  0  0  0  0  0
    5.6719    0.4836  -61.0963 H   0  0  0  0  0  0  0  0  0  0  0  0
    4.7379    2.4600  -58.9441 H   0  0  0  0  0  0  0  0  0  0  0  0
    5.0270    0.7341  -58.7533 H   0  0  0  0  0  0  0  0  0  0  0  0
    7.4214    1.0222  -58.7519 H   0  0  0  0  0  0  0  0  0  0  0  0
    6.6073    3.7707  -57.9377 H   0  0  0  0  0  0  0  0  0  0  0  0
    6.2584    2.9495  -55.6581 H   0  0  0  0  0  0  0  0  0  0  0  0
    5.2618    1.9440  -56.8036 H   0  0  0  0  0  0  0  0  0  0  0  0
    6.3741    0.5962  -55.0331 H   0  0  0  0  0  0  0  0  0  0  0  0
    6.8734    0.1579  -56.7179 H   0  0  0  0  0  0  0  0  0  0  0  0
    8.4371    1.8340  -54.7067 H   0  0  0  0  0  0  0  0  0  0  0  0
    8.8289    0.1721  -55.3190 H   0  0  0  0  0  0  0  0  0  0  0  0
   10.1850    2.0005  -56.3755 H   0  0  0  0  0  0  0  0  0  0  0  0
    9.2093    1.0048  -57.5352 H   0  0  0  0  0  0  0  0  0  0  0  0
    8.5455    3.7897  -56.4910 H   0  0  0  0  0  0  0  0  0  0  0  0
    9.0551    3.3088  -58.1743 H   0  0  0  0  0  0  0  0  0  0  0  0
    7.4470    3.7030  -59.9310 H   0  0  0  0  0  0  0  0  0  0  0  0
    9.2445    1.7580  -59.9059 H   0  0  0  0  0  0  0  0  0  0  0  0
    8.4984    1.4927  -61.5284 H   0  0  0  0  0  0  0  0  0  0  0  0
   10.0053    3.0583  -62.2147 H   0  0  0  0  0  0  0  0  0  0  0  0
    8.8101    4.2218  -61.5232 H   0  0  0  0  0  0  0  0  0  0  0  0
   10.2066    5.9674  -60.7284 H   0  0  0  0  0  0  0  0  0  0  0  0
   11.9444    6.7436  -59.1157 H   0  0  0  0  0  0  0  0  0  0  0  0
   12.8001    2.6447  -58.0519 H   0  0  0  0  0  0  0  0  0  0  0  0
   11.0642    1.8602  -59.6659 H   0  0  0  0  0  0  0  0  0  0  0  0
    5.6483    3.5788  -61.2489 H   0  0  0  0  0  0  0  0  0  0  0  0
    6.6099    2.4953  -62.2534 H   0  0  0  0  0  0  0  0  0  0  0  0
  1  2  2  0
  2  3  1  0
  3  4  1  0
  2  5  1  0
  5  6  1  0
  6  7  1  0
  7  8  1  0
  8  9  1  0
  9 10  1  0
 10 11  1  0
 11 12  1  0
 12 13  1  0
  7 14  1  0
 14 15  1  0
 15 16  1  0
 16 17  1  0
 17 18  1  0
 18 19  2  0
 19 20  1  0
 20 21  1  0
 20 22  2  0
 22 23  1  0
 14 24  1  0
 24  5  1  0
 13  8  1  0
 23 17  2  0
  3 25  1  0
  4 26  1  0
  5 27  1  1
  6 28  1  0
  6 29  1  0
  7 30  1  1
  8 31  1  0
  9 32  1  0
  9 33  1  0
 10 34  1  0
 10 35  1  0
 11 36  1  0
 11 37  1  0
 12 38  1  0
 12 39  1  0
 13 40  1  0
 13 41  1  0
 14 42  1  1
 15 43  1  0
 15 44  1  0
 16 45  1  0
 16 46  1  0
 18 47  1  0
 19 48  1  0
 22 49  1  0
 23 50  1  0
 24 51  1  0
 24 52  1  0
M  CHG  1  14   1
M  END
>  <meeko>  (104) 
{"is_sidechain": false}

$$$$

     RDKit          3D

 51 53  0  0  0  0  0  0  0  0999 V2000
   10.8140    5.6670  -59.5270 O   0  0  0  0  0  0  0  0  0  0  0  0
   10.7590    5.1540  -58.4140 C   0  0  0  0  0  0  0  0  0  0  0  0
   11.7680    4.5120  -57.7120 N   0  0  0  0  0  0  0  0  0  0  0  0
   13.0440    4.5800  -58.2180 O   0  0  0  0  0  0  0  0  0  0  0  0
    9.5260    5.2990  -57.5440 C   0  0  2  0  0  0  0  0  0  0  0  0
    9.3310    4.1330  -56.5700 C   0  0  0  0  0  0  0  0  0  0  0  0
    8.1020    3.3520  -57.0570 C   0  0  2  0  0  0  0  0  0  0  0  0
    8.1260    1.8280  -56.8100 C   0  0  0  0  0  0  0  0  0  0  0  0
    8.9450    1.5030  -55.5370 C   0  0  0  0  0  0  0  0  0  0  0  0
    8.5790    0.1430  -54.9550 C   0  0  0  0  0  0  0  0  0  0  0  0
    7.1200    0.0990  -54.5060 C   0  0  0  0  0  0  0  0  0  0  0  0
    6.2150    1.0370  -55.3050 C   0  0  0  0  0  0  0  0  0  0  0  0
    6.7070    1.2140  -56.7370 C   0  0  0  0  0  0  0  0  0  0  0  0
    7.9170    3.7730  -58.5070 N   0  0  2  0  0  0  0  0  0  0  0  0
    8.6930    2.9570  -59.5470 C   0  0  0  0  0  0  0  0  0  0  0  0
    8.2290    3.2300  -60.9810 C   0  0  0  0  0  0  0  0  0  0  0  0
    6.8660    2.6280  -61.2240 C   0  0  0  0  0  0  0  0  0  0  0  0
    6.2240    1.8680  -60.2360 C   0  0  0  0  0  0  0  0  0  0  0  0
    4.9750    1.2970  -60.4920 C   0  0  0  0  0  0  0  0  0  0  0  0
    4.3650    1.4840  -61.7310 C   0  0  0  0  0  0  0  0  0  0  0  0
    2.8260    0.7750  -62.0390 Cl  0  0  0  0  0  0  0  0  0  0  0  0
    4.9920    2.2360  -62.7200 C   0  0  0  0  0  0  0  0  0  0  0  0
    6.2410    2.8070  -62.4670 C   0  0  0  0  0  0  0  0  0  0  0  0
    8.3090    5.2460  -58.4540 C   0  0  0  0  0  0  0  0  0  0  0  0
   11.5820    3.6690  -57.1770 H   0  0  0  0  0  0  0  0  0  0  0  0
    9.6462    6.2359  -56.9803 H   0  0  0  0  0  0  0  0  0  0  0  0
   10.2188    3.4835  -56.5736 H   0  0  0  0  0  0  0  0  0  0  0  0
    9.1870    4.4963  -55.5418 H   0  0  0  0  0  0  0  0  0  0  0  0
    7.2197    3.6082  -56.4521 H   0  0  0  0  0  0  0  0  0  0  0  0
    8.6187    1.3633  -57.6767 H   0  0  0  0  0  0  0  0  0  0  0  0
   10.0148    1.5035  -55.7931 H   0  0  0  0  0  0  0  0  0  0  0  0
    8.7167    2.2688  -54.7811 H   0  0  0  0  0  0  0  0  0  0  0  0
    8.7401   -0.6288  -55.7221 H   0  0  0  0  0  0  0  0  0  0  0  0
    9.2155   -0.0383  -54.0763 H   0  0  0  0  0  0  0  0  0  0  0  0
    6.7487   -0.9297  -54.6243 H   0  0  0  0  0  0  0  0  0  0  0  0
    7.0906    0.4311  -53.4577 H   0  0  0  0  0  0  0  0  0  0  0  0
    5.1983    0.6177  -55.3270 H   0  0  0  0  0  0  0  0  0  0  0  0
    6.2258    2.0220  -54.8154 H   0  0  0  0  0  0  0  0  0  0  0  0
    6.7240    0.2295  -57.2274 H   0  0  0  0  0  0  0  0  0  0  0  0
    6.0185    1.9081  -57.2412 H   0  0  0  0  0  0  0  0  0  0  0  0
    6.9270    3.7190  -58.7650 H   0  0  0  0  0  0  0  0  0  0  0  0
    9.7603    3.2113  -59.4684 H   0  0  0  0  0  0  0  0  0  0  0  0
    8.5109    1.8928  -59.3365 H   0  0  0  0  0  0  0  0  0  0  0  0
    8.1780    4.3167  -61.1434 H   0  0  0  0  0  0  0  0  0  0  0  0
    8.9469    2.7734  -61.6782 H   0  0  0  0  0  0  0  0  0  0  0  0
    6.7047    1.7211  -59.2575 H   0  0  0  0  0  0  0  0  0  0  0  0
    4.4733    0.7001  -59.7161 H   0  0  0  0  0  0  0  0  0  0  0  0
    4.5061    2.3799  -63.6963 H   0  0  0  0  0  0  0  0  0  0  0  0
    6.7382    3.4013  -63.2478 H   0  0  0  0  0  0  0  0  0  0  0  0
    8.5618    5.6148  -59.4590 H   0  0  0  0  0  0  0  0  0  0  0  0
    7.4887    5.8779  -58.0828 H   0  0  0  0  0  0  0  0  0  0  0  0
  1  2  2  0
  2  3  1  0
  3  4  1  0
  2  5  1  0
  5  6  1  0
  6  7  1  0
  7  8  1  0
  8  9  1  0
  9 10  1  0
 10 11  1  0
 11 12  1  0
 12 13  1  0
  7 14  1  0
 14 15  1  0
 15 16  1  0
 16 17  1  0
 17 18  1  0
 18 19  2  0
 19 20  1  0
 20 21  1  0
 20 22  2  0
 22 23  1  0
 14 24  1  0
 24  5  1  0
 13  8  1  0
 23 17  2  0
  3 25  1  0
  5 26  1  1
  6 27  1  0
  6 28  1  0
  7 29  1  1
  8 30  1  0
  9 31  1  0
  9 32  1  0
 10 33  1  0
 10 34  1  0
 11 35  1  0
 11 36  1  0
 12 37  1  0
 12 38  1  0
 13 39  1  0
 13 40  1  0
 14 41  1  6
 15 42  1  0
 15 43  1  0
 16 44  1  0
 16 45  1  0
 18 46  1  0
 19 47  1  0
 22 48  1  0
 23 49  1  0
 24 50  1  0
 24 51  1  0
M  CHG  2   4  -1  14   1
M  END
>  <meeko>  (105) 
{"is_sidechain": false}

$$$$

     RDKit          3D

 51 53  0  0  0  0  0  0  0  0999 V2000
   10.1350   -4.4140  -54.9860 O   0  0  0  0  0  0  0  0  0  0  0  0
   10.9670   -3.5610  -55.3000 C   0  0  0  0  0  0  0  0  0  0  0  0
   11.5070   -3.2960  -56.5400 N   0  0  0  0  0  0  0  0  0  0  0  0
   11.0890   -4.0650  -57.5990 O   0  0  0  0  0  0  0  0  0  0  0  0
   11.2620   -2.4380  -54.3320 C   0  0  2  0  0  0  0  0  0  0  0  0
   10.5330   -2.6050  -52.9960 C   0  0  0  0  0  0  0  0  0  0  0  0
    9.2440   -1.7690  -53.1000 C   0  0  2  0  0  0  0  0  0  0  0  0
    7.9640   -2.3850  -52.4920 C   0  0  0  0  0  0  0  0  0  0  0  0
    7.7830   -3.8910  -52.7480 C   0  0  0  0  0  0  0  0  0  0  0  0
    6.6350   -4.4510  -51.9160 C   0  0  0  0  0  0  0  0  0  0  0  0
    6.8870   -4.3080  -50.4150 C   0  0  0  0  0  0  0  0  0  0  0  0
    7.9190   -3.2370  -50.0690 C   0  0  0  0  0  0  0  0  0  0  0  0
    7.8250   -2.0270  -50.9920 C   0  0  0  0  0  0  0  0  0  0  0  0
    9.1290   -1.4480  -54.5730 N   0  0  1  0  0  0  0  0  0  0  0  0
    8.1990   -0.3460  -54.9690 C   0  0  0  0  0  0  0  0  0  0  0  0
    8.9050    1.0130  -54.9620 C   0  0  0  0  0  0  0  0  0  0  0  0
    8.9020    1.6240  -56.3430 C   0  0  0  0  0  0  0  0  0  0  0  0
    7.6940    2.0030  -56.9470 C   0  0  0  0  0  0  0  0  0  0  0  0
    7.6920    2.5950  -58.2130 C   0  0  0  0  0  0  0  0  0  0  0  0
    8.8970    2.8110  -58.8790 C   0  0  0  0  0  0  0  0  0  0  0  0
    8.8940    3.5450  -60.4340 Cl  0  0  0  0  0  0  0  0  0  0  0  0
   10.1030    2.4380  -58.2910 C   0  0  0  0  0  0  0  0  0  0  0  0
   10.1070    1.8470  -57.0250 C   0  0  0  0  0  0  0  0  0  0  0  0
   10.5840   -1.2550  -54.9970 C   0  0  0  0  0  0  0  0  0  0  0  0
   12.4100   -2.8520  -56.6710 H   0  0  0  0  0  0  0  0  0  0  0  0
   12.3416   -2.3683  -54.1330 H   0  0  0  0  0  0  0  0  0  0  0  0
   10.2877   -3.6637  -52.8256 H   0  0  0  0  0  0  0  0  0  0  0  0
   11.1587   -2.2723  -52.1546 H   0  0  0  0  0  0  0  0  0  0  0  0
    9.3269   -0.8720  -52.4687 H   0  0  0  0  0  0  0  0  0  0  0  0
    7.1324   -1.9174  -53.0395 H   0  0  0  0  0  0  0  0  0  0  0  0
    7.5663   -4.0514  -53.8145 H   0  0  0  0  0  0  0  0  0  0  0  0
    8.7098   -4.4097  -52.4615 H   0  0  0  0  0  0  0  0  0  0  0  0
    5.7132   -3.9089  -52.1738 H   0  0  0  0  0  0  0  0  0  0  0  0
    6.5451   -5.5236  -52.1429 H   0  0  0  0  0  0  0  0  0  0  0  0
    5.9370   -4.0467  -49.9260 H   0  0  0  0  0  0  0  0  0  0  0  0
    7.2881   -5.2694  -50.0616 H   0  0  0  0  0  0  0  0  0  0  0  0
    7.7526   -2.9062  -49.0332 H   0  0  0  0  0  0  0  0  0  0  0  0
    8.9187   -3.6790  -50.1924 H   0  0  0  0  0  0  0  0  0  0  0  0
    6.8480   -1.5458  -50.8375 H   0  0  0  0  0  0  0  0  0  0  0  0
    8.6620   -1.3598  -50.7387 H   0  0  0  0  0  0  0  0  0  0  0  0
    8.8380   -2.3280  -55.0530 H   0  0  0  0  0  0  0  0  0  0  0  0
    7.8183   -0.5459  -55.9815 H   0  0  0  0  0  0  0  0  0  0  0  0
    7.3751   -0.3110  -54.2410 H   0  0  0  0  0  0  0  0  0  0  0  0
    8.3826    1.6876  -54.2677 H   0  0  0  0  0  0  0  0  0  0  0  0
    9.9474    0.8680  -54.6420 H   0  0  0  0  0  0  0  0  0  0  0  0
    6.7428    1.8333  -56.4212 H   0  0  0  0  0  0  0  0  0  0  0  0
    6.7419    2.8897  -58.6825 H   0  0  0  0  0  0  0  0  0  0  0  0
   11.0509    2.6084  -58.8224 H   0  0  0  0  0  0  0  0  0  0  0  0
   11.0605    1.5550  -56.5607 H   0  0  0  0  0  0  0  0  0  0  0  0
   10.6909   -1.2954  -56.0911 H   0  0  0  0  0  0  0  0  0  0  0  0
   11.0059   -0.2808  -54.7090 H   0  0  0  0  0  0  0  0  0  0  0  0
  1  2  2  0
  2  3  1  0
  3  4  1  0
  2  5  1  0
  5  6  1  0
  6  7  1  0
  7  8  1  0
  8  9  1  0
  9 10  1  0
 10 11  1  0
 11 12  1  0
 12 13  1  0
  7 14  1  0
 14 15  1  0
 15 16  1  0
 16 17  1  0
 17 18  1  0
 18 19  2  0
 19 20  1  0
 20 21  1  0
 20 22  2  0
 22 23  1  0
 14 24  1  0
 24  5  1  0
 13  8  1  0
 23 17  2  0
  3 25  1  0
  5 26  1  1
  6 27  1  0
  6 28  1  0
  7 29  1  1
  8 30  1  0
  9 31  1  0
  9 32  1  0
 10 33  1  0
 10 34  1  0
 11 35  1  0
 11 36  1  0
 12 37  1  0
 12 38  1  0
 13 39  1  0
 13 40  1  0
 14 41  1  6
 15 42  1  0
 15 43  1  0
 16 44  1  0
 16 45  1  0
 18 46  1  0
 19 47  1  0
 22 48  1  0
 23 49  1  0
 24 50  1  0
 24 51  1  0
M  CHG  2   4  -1  14   1
M  END
>  <meeko>  (106) 
{"is_sidechain": false}

$$$$

     RDKit          3D

 45 48  0  0  0  0  0  0  0  0999 V2000
    6.4760    0.3870  -52.7340 C   0  0  0  0  0  0  0  0  0  0  0  0
    7.4670   -0.7310  -52.5600 C   0  0  0  0  0  0  0  0  0  0  0  0
    7.3490   -1.5600  -51.4370 C   0  0  0  0  0  0  0  0  0  0  0  0
    8.2510   -2.5910  -51.2600 C   0  0  0  0  0  0  0  0  0  0  0  0
    9.2540   -2.8580  -52.1140 N   0  0  0  0  0  0  0  0  0  0  0  0
    9.3700   -2.0470  -53.2130 C   0  0  0  0  0  0  0  0  0  0  0  0
   10.5320   -2.4300  -54.1120 C   0  0  0  0  0  0  0  0  0  0  0  0
   11.6200   -1.8720  -54.0750 O   0  0  0  0  0  0  0  0  0  0  0  0
   10.2340   -3.4700  -54.9720 N   0  0  0  0  0  0  0  0  0  0  0  0
   11.1340   -4.0650  -55.9560 C   0  0  2  0  0  0  0  0  0  0  0  0
   12.2800   -4.8550  -55.2760 C   0  0  0  0  0  0  0  0  0  0  0  0
   13.1850   -5.5120  -56.3330 C   0  0  1  0  0  0  0  0  0  0  0  0
   12.3510   -6.4820  -57.1850 C   0  0  0  0  0  0  0  0  0  0  0  0
   11.2170   -5.7210  -57.8880 C   0  0  2  0  0  0  0  0  0  0  0  0
   11.8190   -4.6330  -58.7920 C   0  0  0  0  0  0  0  0  0  0  0  0
   12.6500   -3.6510  -57.9500 C   0  0  2  0  0  0  0  0  0  0  0  0
   13.7780   -4.4210  -57.2420 C   0  0  0  0  0  0  0  0  0  0  0  0
   11.7440   -2.9930  -56.8930 C   0  0  0  0  0  0  0  0  0  0  0  0
   10.3220   -5.0580  -56.8300 C   0  0  0  0  0  0  0  0  0  0  0  0
    8.5070   -0.9720  -53.4850 C   0  0  0  0  0  0  0  0  0  0  0  0
    8.6830   -0.1170  -54.7100 C   0  0  0  0  0  0  0  0  0  0  0  0
    6.1548    0.7493  -51.7463 H   0  0  0  0  0  0  0  0  0  0  0  0
    6.9463    1.2104  -53.2915 H   0  0  0  0  0  0  0  0  0  0  0  0
    5.6021    0.0189  -53.2915 H   0  0  0  0  0  0  0  0  0  0  0  0
    6.5464   -1.3917  -50.7038 H   0  0  0  0  0  0  0  0  0  0  0  0
    8.1424   -3.2291  -50.3706 H   0  0  0  0  0  0  0  0  0  0  0  0
    9.2840   -3.8250  -54.8790 H   0  0  0  0  0  0  0  0  0  0  0  0
   12.8804   -4.1662  -54.6636 H   0  0  0  0  0  0  0  0  0  0  0  0
   11.8425   -5.6422  -54.6444 H   0  0  0  0  0  0  0  0  0  0  0  0
   13.9967   -6.0617  -55.8341 H   0  0  0  0  0  0  0  0  0  0  0  0
   12.9978   -6.9517  -57.9407 H   0  0  0  0  0  0  0  0  0  0  0  0
   11.9177   -7.2547  -56.5329 H   0  0  0  0  0  0  0  0  0  0  0  0
   10.6226   -6.4203  -58.4944 H   0  0  0  0  0  0  0  0  0  0  0  0
   12.4659   -5.1035  -59.5471 H   0  0  0  0  0  0  0  0  0  0  0  0
   11.0049   -4.0843  -59.2882 H   0  0  0  0  0  0  0  0  0  0  0  0
   13.0804   -2.8764  -58.6017 H   0  0  0  0  0  0  0  0  0  0  0  0
   14.4276   -4.8894  -57.9961 H   0  0  0  0  0  0  0  0  0  0  0  0
   14.3620   -3.7196  -56.6281 H   0  0  0  0  0  0  0  0  0  0  0  0
   12.3392   -2.2868  -56.2955 H   0  0  0  0  0  0  0  0  0  0  0  0
   10.9275   -2.4631  -57.4054 H   0  0  0  0  0  0  0  0  0  0  0  0
    9.5116   -4.5124  -57.3355 H   0  0  0  0  0  0  0  0  0  0  0  0
    9.9108   -5.8427  -56.1780 H   0  0  0  0  0  0  0  0  0  0  0  0
    8.8962    0.9187  -54.4068 H   0  0  0  0  0  0  0  0  0  0  0  0
    9.5205   -0.5033  -55.3095 H   0  0  0  0  0  0  0  0  0  0  0  0
    7.7611   -0.1411  -55.3095 H   0  0  0  0  0  0  0  0  0  0  0  0
  1  2  1  0
  2  3  2  0
  3  4  1  0
  4  5  2  0
  5  6  1  0
  6  7  1  0
  7  8  2  0
  7  9  1  0
 10  9  1  1
 10 11  1  0
 11 12  1  0
 12 13  1  0
 13 14  1  0
 14 15  1  0
 15 16  1  0
 16 17  1  0
 16 18  1  0
 14 19  1  0
  6 20  2  0
 20 21  1  0
 20  2  1  0
 18 10  1  0
 19 10  1  0
 17 12  1  0
  1 22  1  0
  1 23  1  0
  1 24  1  0
  3 25  1  0
  4 26  1  0
  9 27  1  0
 11 28  1  0
 11 29  1  0
 12 30  1  1
 13 31  1  0
 13 32  1  0
 14 33  1  6
 15 34  1  0
 15 35  1  0
 16 36  1  6
 17 37  1  0
 17 38  1  0
 18 39  1  0
 18 40  1  0
 19 41  1  0
 19 42  1  0
 21 43  1  0
 21 44  1  0
 21 45  1  0
M  END
>  <meeko>  (107) 
{"is_sidechain": false}

$$$$

     RDKit          3D

 49 53  0  0  0  0  0  0  0  0999 V2000
   11.1660   -2.2290  -52.7880 O   0  0  0  0  0  0  0  0  0  0  0  0
   10.1010   -2.3880  -53.3820 C   0  0  0  0  0  0  0  0  0  0  0  0
    8.9270   -2.9130  -52.6190 C   0  0  0  0  0  0  0  0  0  0  0  0
    9.0050   -2.9320  -51.2180 C   0  0  0  0  0  0  0  0  0  0  0  0
    7.9360   -3.4090  -50.4550 C   0  0  0  0  0  0  0  0  0  0  0  0
    6.7830   -3.8630  -51.0900 C   0  0  0  0  0  0  0  0  0  0  0  0
    5.4640   -4.4510  -50.1540 Cl  0  0  0  0  0  0  0  0  0  0  0  0
    6.6900   -3.8410  -52.4800 C   0  0  0  0  0  0  0  0  0  0  0  0
    7.7600   -3.3640  -53.2470 C   0  0  0  0  0  0  0  0  0  0  0  0
    9.9380   -2.0360  -54.8570 C   0  0  1  0  0  0  0  0  0  0  0  0
    9.3780   -0.6130  -55.0120 C   0  0  0  0  0  0  0  0  0  0  0  0
   10.4840    0.2010  -55.6950 C   0  0  2  0  0  0  0  0  0  0  0  0
    9.9870    1.3790  -56.4650 C   0  0  0  0  0  0  0  0  0  0  0  0
    8.8140    1.9540  -56.1710 N   0  0  0  0  0  0  0  0  0  0  0  0
    8.6220    3.2170  -57.2500 S   0  0  0  0  0  0  0  0  0  0  0  0
   10.1160    2.9120  -58.0200 C   0  0  0  0  0  0  0  0  0  0  0  0
   10.6600    3.7420  -59.2180 C   0  0  0  0  0  0  0  0  0  0  0  0
   10.1480    3.4520  -60.6070 C   0  0  0  0  0  0  0  0  0  0  0  0
    9.7450    4.7190  -59.9120 C   0  0  0  0  0  0  0  0  0  0  0  0
   10.7590    1.8890  -57.5030 N   0  0  0  0  0  0  0  0  0  0  0  0
   11.2130   -0.8360  -56.5470 C   0  0  0  0  0  0  0  0  0  0  0  0
   11.2930   -2.0410  -55.6030 C   0  0  2  0  0  0  0  0  0  0  0  0
   11.5900   -3.3710  -56.2610 C   0  0  0  0  0  0  0  0  0  0  0  0
   11.6200   -3.4490  -57.6620 C   0  0  0  0  0  0  0  0  0  0  0  0
   11.9150   -4.6510  -58.3080 C   0  0  0  0  0  0  0  0  0  0  0  0
   12.1920   -5.7930  -57.5600 C   0  0  0  0  0  0  0  0  0  0  0  0
   12.1790   -5.7300  -56.1690 C   0  0  0  0  0  0  0  0  0  0  0  0
   11.8840   -4.5270  -55.5230 C   0  0  0  0  0  0  0  0  0  0  0  0
    9.9143   -2.5687  -50.7168 H   0  0  0  0  0  0  0  0  0  0  0  0
    8.0050   -3.4258  -49.3573 H   0  0  0  0  0  0  0  0  0  0  0  0
    5.7752   -4.1986  -52.9753 H   0  0  0  0  0  0  0  0  0  0  0  0
    7.6835   -3.3436  -54.3441 H   0  0  0  0  0  0  0  0  0  0  0  0
    9.2605   -2.7937  -55.2776 H   0  0  0  0  0  0  0  0  0  0  0  0
    8.4711   -0.6243  -55.6344 H   0  0  0  0  0  0  0  0  0  0  0  0
    9.0993   -0.1802  -54.0399 H   0  0  0  0  0  0  0  0  0  0  0  0
   11.1512    0.6873  -54.9681 H   0  0  0  0  0  0  0  0  0  0  0  0
   11.6535    3.8017  -58.7496 H   0  0  0  0  0  0  0  0  0  0  0  0
   10.8351    3.4905  -61.4652 H   0  0  0  0  0  0  0  0  0  0  0  0
    9.6067    2.6177  -61.0771 H   0  0  0  0  0  0  0  0  0  0  0  0
   10.1367    5.6858  -60.2612 H   0  0  0  0  0  0  0  0  0  0  0  0
    8.7861    5.1968  -59.6625 H   0  0  0  0  0  0  0  0  0  0  0  0
   10.6406   -1.0788  -57.4544 H   0  0  0  0  0  0  0  0  0  0  0  0
   12.1944   -0.4957  -56.9090 H   0  0  0  0  0  0  0  0  0  0  0  0
   12.1578   -1.9352  -54.9315 H   0  0  0  0  0  0  0  0  0  0  0  0
   11.4080   -2.5502  -58.2596 H   0  0  0  0  0  0  0  0  0  0  0  0
   11.9287   -4.6962  -59.4070 H   0  0  0  0  0  0  0  0  0  0  0  0
   12.4204   -6.7422  -58.0669 H   0  0  0  0  0  0  0  0  0  0  0  0
   12.4017   -6.6301  -55.5771 H   0  0  0  0  0  0  0  0  0  0  0  0
   11.8823   -4.4859  -54.4238 H   0  0  0  0  0  0  0  0  0  0  0  0
  1  2  2  0
  2  3  1  0
  3  4  1  0
  4  5  2  0
  5  6  1  0
  6  7  1  0
  6  8  2  0
  8  9  1  0
  2 10  1  0
 10 11  1  0
 11 12  1  0
 12 13  1  0
 13 14  2  0
 14 15  1  0
 15 16  1  0
 16 17  1  0
 17 18  1  0
 18 19  1  0
 16 20  2  0
 12 21  1  0
 21 22  1  0
 22 23  1  0
 23 24  2  0
 24 25  1  0
 25 26  2  0
 26 27  1  0
 27 28  2  0
  9  3  2  0
 22 10  1  0
 28 23  1  0
 20 13  1  0
 19 17  1  0
  4 29  1  0
  5 30  1  0
  8 31  1  0
  9 32  1  0
 10 33  1  6
 11 34  1  0
 11 35  1  0
 12 36  1  1
 17 37  1  0
 18 38  1  0
 18 39  1  0
 19 40  1  0
 19 41  1  0
 21 42  1  0
 21 43  1  0
 22 44  1  1
 24 45  1  0
 25 46  1  0
 26 47  1  0
 27 48  1  0
 28 49  1  0
M  END
>  <meeko>  (108) 
{"is_sidechain": false}

$$$$

     RDKit          3D

 52 56  0  0  0  0  0  0  0  0999 V2000
    6.9380   -0.2130  -56.2470 O   0  0  0  0  0  0  0  0  0  0  0  0
    7.1910    0.5920  -55.3610 C   0  0  0  0  0  0  0  0  0  0  0  0
    7.8080    1.8050  -55.5830 N   0  0  0  0  0  0  0  0  0  0  0  0
    8.2030    2.3060  -56.9050 C   0  0  2  0  0  0  0  0  0  0  0  0
    7.1610    1.9420  -57.9940 C   0  0  0  0  0  0  0  0  0  0  0  0
    7.5740    2.5250  -59.3560 C   0  0  1  0  0  0  0  0  0  0  0  0
    7.6610    4.0550  -59.2500 C   0  0  0  0  0  0  0  0  0  0  0  0
    8.7020    4.4480  -58.1900 C   0  0  2  0  0  0  0  0  0  0  0  0
   10.0740    3.8840  -58.5920 C   0  0  0  0  0  0  0  0  0  0  0  0
   10.0020    2.3520  -58.6940 C   0  0  2  0  0  0  0  0  0  0  0  0
    8.9510    1.9640  -59.7490 C   0  0  0  0  0  0  0  0  0  0  0  0
    9.5920    1.7700  -57.3310 C   0  0  0  0  0  0  0  0  0  0  0  0
    8.2890    3.8550  -56.8340 C   0  0  0  0  0  0  0  0  0  0  0  0
    6.9040    0.3080  -53.8880 C   0  0  1  0  0  0  0  0  0  0  0  0
    6.0060   -0.9070  -53.6680 C   0  0  0  0  0  0  0  0  0  0  0  0
    6.9780   -1.9980  -53.3040 C   0  0  0  0  0  0  0  0  0  0  0  0
    6.6260   -3.1620  -53.1390 O   0  0  0  0  0  0  0  0  0  0  0  0
    8.4010   -1.5050  -53.1660 C   0  0  1  0  0  0  0  0  0  0  0  0
    9.3470   -1.9220  -54.2750 C   0  0  0  0  0  0  0  0  0  0  0  0
    9.3760   -3.2730  -54.6670 C   0  0  0  0  0  0  0  0  0  0  0  0
   10.2330   -3.7130  -55.6780 C   0  0  0  0  0  0  0  0  0  0  0  0
   11.0680   -2.8040  -56.3180 C   0  0  0  0  0  0  0  0  0  0  0  0
   12.2320   -3.3940  -57.6850 Br  0  0  0  0  0  0  0  0  0  0  0  0
   11.0470   -1.4590  -55.9590 C   0  0  0  0  0  0  0  0  0  0  0  0
   10.1890   -1.0210  -54.9470 C   0  0  0  0  0  0  0  0  0  0  0  0
    8.1650    0.0140  -53.0690 C   0  0  0  0  0  0  0  0  0  0  0  0
    8.1810    2.2950  -54.7800 H   0  0  0  0  0  0  0  0  0  0  0  0
    7.0911    0.8473  -58.0757 H   0  0  0  0  0  0  0  0  0  0  0  0
    6.1869    2.3656  -57.7080 H   0  0  0  0  0  0  0  0  0  0  0  0
    6.8294    2.2502  -60.1176 H   0  0  0  0  0  0  0  0  0  0  0  0
    7.9571    4.4717  -60.2240 H   0  0  0  0  0  0  0  0  0  0  0  0
    6.6785    4.4540  -58.9578 H   0  0  0  0  0  0  0  0  0  0  0  0
    8.7601    5.5439  -58.1152 H   0  0  0  0  0  0  0  0  0  0  0  0
   10.3680    4.3008  -59.5666 H   0  0  0  0  0  0  0  0  0  0  0  0
   10.8164    4.1611  -57.8291 H   0  0  0  0  0  0  0  0  0  0  0  0
   10.9851    1.9533  -58.9849 H   0  0  0  0  0  0  0  0  0  0  0  0
    9.2464    2.3760  -60.7252 H   0  0  0  0  0  0  0  0  0  0  0  0
    8.8889    0.8674  -59.8083 H   0  0  0  0  0  0  0  0  0  0  0  0
    9.5493    0.6733  -57.4043 H   0  0  0  0  0  0  0  0  0  0  0  0
   10.3349    2.0725  -56.5783 H   0  0  0  0  0  0  0  0  0  0  0  0
    9.0334    4.1392  -56.0757 H   0  0  0  0  0  0  0  0  0  0  0  0
    7.2969    4.2485  -56.5678 H   0  0  0  0  0  0  0  0  0  0  0  0
    6.4146    1.2360  -53.5572 H   0  0  0  0  0  0  0  0  0  0  0  0
    5.2927   -0.7264  -52.8503 H   0  0  0  0  0  0  0  0  0  0  0  0
    5.3937   -1.1534  -54.5480 H   0  0  0  0  0  0  0  0  0  0  0  0
    8.9326   -1.9404  -52.3071 H   0  0  0  0  0  0  0  0  0  0  0  0
    8.7123   -3.9949  -54.1686 H   0  0  0  0  0  0  0  0  0  0  0  0
   10.2474   -4.7743  -55.9668 H   0  0  0  0  0  0  0  0  0  0  0  0
   11.7052   -0.7420  -56.4715 H   0  0  0  0  0  0  0  0  0  0  0  0
   10.1728    0.0442  -54.6728 H   0  0  0  0  0  0  0  0  0  0  0  0
    8.0151    0.3097  -52.0201 H   0  0  0  0  0  0  0  0  0  0  0  0
    9.0292    0.5774  -53.4507 H   0  0  0  0  0  0  0  0  0  0  0  0
  1  2  2  0
  2  3  1  0
  4  3  1  1
  4  5  1  0
  5  6  1  0
  6  7  1  0
  7  8  1  0
  8  9  1  0
  9 10  1  0
 10 11  1  0
 10 12  1  0
  8 13  1  0
  2 14  1  0
 14 15  1  0
 15 16  1  0
 16 17  2  0
 16 18  1  0
 18 19  1  0
 19 20  1  0
 20 21  2  0
 21 22  1  0
 22 23  1  0
 22 24  2  0
 24 25  1  0
 18 26  1  0
 12  4  1  0
 26 14  1  0
 13  4  1  0
 25 19  2  0
 11  6  1  0
  3 27  1  0
  5 28  1  0
  5 29  1  0
  6 30  1  6
  7 31  1  0
  7 32  1  0
  8 33  1  1
  9 34  1  0
  9 35  1  0
 10 36  1  6
 11 37  1  0
 11 38  1  0
 12 39  1  0
 12 40  1  0
 13 41  1  0
 13 42  1  0
 14 43  1  1
 15 44  1  0
 15 45  1  0
 18 46  1  1
 20 47  1  0
 21 48  1  0
 24 49  1  0
 25 50  1  0
 26 51  1  0
 26 52  1  0
M  END
>  <meeko>  (109) 
{"is_sidechain": false}

$$$$

     RDKit          3D

 53 57  0  0  0  0  0  0  0  0999 V2000
    9.3150    0.3750  -55.3310 O   0  0  0  0  0  0  0  0  0  0  0  0
    8.1500    0.6060  -55.6310 C   0  0  0  0  0  0  0  0  0  0  0  0
    7.7550    1.6380  -56.4580 N   0  0  0  0  0  0  0  0  0  0  0  0
    8.6620    2.6020  -57.0890 C   0  0  2  0  0  0  0  0  0  0  0  0
    7.8150    3.7840  -57.6350 C   0  0  0  0  0  0  0  0  0  0  0  0
    8.7080    4.8370  -58.3110 C   0  0  1  0  0  0  0  0  0  0  0  0
    9.7200    5.3730  -57.2850 C   0  0  0  0  0  0  0  0  0  0  0  0
   10.5860    4.2220  -56.7520 C   0  0  2  0  0  0  0  0  0  0  0  0
   11.3340    3.5630  -57.9230 C   0  0  0  0  0  0  0  0  0  0  0  0
   10.3300    3.0230  -58.9560 C   0  0  2  0  0  0  0  0  0  0  0  0
    9.4650    4.1820  -59.4770 C   0  0  0  0  0  0  0  0  0  0  0  0
    9.4260    1.9760  -58.2830 C   0  0  0  0  0  0  0  0  0  0  0  0
    9.6820    3.1750  -56.0750 C   0  0  0  0  0  0  0  0  0  0  0  0
    6.9770   -0.2290  -55.1160 C   0  0  2  0  0  0  0  0  0  0  0  0
    6.2550    0.4110  -53.9340 C   0  0  0  0  0  0  0  0  0  0  0  0
    7.0720    0.0170  -52.7020 C   0  0  0  0  0  0  0  0  0  0  0  0
    7.8700   -1.2380  -53.1020 C   0  0  1  0  0  0  0  0  0  0  0  0
    7.7130   -2.4130  -52.1650 C   0  0  0  0  0  0  0  0  0  0  0  0
    8.5330   -2.5720  -51.0370 C   0  0  0  0  0  0  0  0  0  0  0  0
    8.3630   -3.6600  -50.1780 C   0  0  0  0  0  0  0  0  0  0  0  0
    7.3700   -4.6030  -50.4330 C   0  0  0  0  0  0  0  0  0  0  0  0
    6.5460   -4.4570  -51.5460 C   0  0  0  0  0  0  0  0  0  0  0  0
    6.7160   -3.3690  -52.4060 C   0  0  0  0  0  0  0  0  0  0  0  0
    7.4380   -1.5670  -54.5420 C   0  0  0  0  0  0  0  0  0  0  0  0
    6.7610    1.7930  -56.5680 H   0  0  0  0  0  0  0  0  0  0  0  0
    7.0930    3.3994  -58.3703 H   0  0  0  0  0  0  0  0  0  0  0  0
    7.2915    4.2583  -56.7918 H   0  0  0  0  0  0  0  0  0  0  0  0
    8.0896    5.6645  -58.6889 H   0  0  0  0  0  0  0  0  0  0  0  0
   10.3657    6.1219  -57.7670 H   0  0  0  0  0  0  0  0  0  0  0  0
    9.1759    5.8338  -56.4474 H   0  0  0  0  0  0  0  0  0  0  0  0
   11.3105    4.6134  -56.0227 H   0  0  0  0  0  0  0  0  0  0  0  0
   11.9852    4.3078  -58.4037 H   0  0  0  0  0  0  0  0  0  0  0  0
   11.9390    2.7284  -57.5391 H   0  0  0  0  0  0  0  0  0  0  0  0
   10.8719    2.5610  -59.7944 H   0  0  0  0  0  0  0  0  0  0  0  0
   10.1109    4.9309  -59.9587 H   0  0  0  0  0  0  0  0  0  0  0  0
    8.7391    3.7921  -60.2057 H   0  0  0  0  0  0  0  0  0  0  0  0
    8.7004    1.5985  -59.0185 H   0  0  0  0  0  0  0  0  0  0  0  0
   10.0533    1.1528  -57.9103 H   0  0  0  0  0  0  0  0  0  0  0  0
   10.3050    2.3560  -55.6863 H   0  0  0  0  0  0  0  0  0  0  0  0
    9.1333    3.6574  -55.2527 H   0  0  0  0  0  0  0  0  0  0  0  0
    6.3298   -0.3261  -56.0001 H   0  0  0  0  0  0  0  0  0  0  0  0
    6.2283    1.5050  -54.0451 H   0  0  0  0  0  0  0  0  0  0  0  0
    5.2107    0.0736  -53.8592 H   0  0  0  0  0  0  0  0  0  0  0  0
    7.7564    0.8312  -52.4214 H   0  0  0  0  0  0  0  0  0  0  0  0
    6.4233   -0.1786  -51.8354 H   0  0  0  0  0  0  0  0  0  0  0  0
    8.9476   -1.0273  -53.0353 H   0  0  0  0  0  0  0  0  0  0  0  0
    9.3186   -1.8312  -50.8271 H   0  0  0  0  0  0  0  0  0  0  0  0
    9.0143   -3.7724  -49.2987 H   0  0  0  0  0  0  0  0  0  0  0  0
    7.2371   -5.4606  -49.7571 H   0  0  0  0  0  0  0  0  0  0  0  0
    5.7600   -5.1994  -51.7485 H   0  0  0  0  0  0  0  0  0  0  0  0
    6.0600   -3.2612  -53.2824 H   0  0  0  0  0  0  0  0  0  0  0  0
    8.2837   -1.9677  -55.1200 H   0  0  0  0  0  0  0  0  0  0  0  0
    6.6490   -2.3327  -54.5782 H   0  0  0  0  0  0  0  0  0  0  0  0
  1  2  2  0
  2  3  1  0
  4  3  1  1
  4  5  1  0
  5  6  1  0
  6  7  1  0
  7  8  1  0
  8  9  1  0
  9 10  1  0
 10 11  1  0
 10 12  1  0
  8 13  1  0
  2 14  1  0
 14 15  1  0
 15 16  1  0
 16 17  1  0
 17 18  1  0
 18 19  2  0
 19 20  1  0
 20 21  2  0
 21 22  1  0
 22 23  2  0
 17 24  1  0
 12  4  1  0
 24 14  1  0
 13  4  1  0
 23 18  1  0
 11  6  1  0
  3 25  1  0
  5 26  1  0
  5 27  1  0
  6 28  1  6
  7 29  1  0
  7 30  1  0
  8 31  1  1
  9 32  1  0
  9 33  1  0
 10 34  1  6
 11 35  1  0
 11 36  1  0
 12 37  1  0
 12 38  1  0
 13 39  1  0
 13 40  1  0
 14 41  1  6
 15 42  1  0
 15 43  1  0
 16 44  1  0
 16 45  1  0
 17 46  1  6
 19 47  1  0
 20 48  1  0
 21 49  1  0
 22 50  1  0
 23 51  1  0
 24 52  1  0
 24 53  1  0
M  END
>  <meeko>  (110) 
{"is_sidechain": false}

$$$$

     RDKit          3D

 70 75  0  0  0  0  0  0  0  0999 V2000
   12.9930    7.8780  -60.5230 C   0  0  0  0  0  0  0  0  0  0  0  0
   13.4000    6.8820  -59.5940 O   0  0  0  0  0  0  0  0  0  0  0  0
   12.6700    5.7250  -59.5680 C   0  0  0  0  0  0  0  0  0  0  0  0
   13.0900    4.5000  -59.0520 C   0  0  0  0  0  0  0  0  0  0  0  0
   12.2370    3.3910  -59.0880 C   0  0  0  0  0  0  0  0  0  0  0  0
   10.9510    3.4910  -59.6330 C   0  0  0  0  0  0  0  0  0  0  0  0
   10.0300    2.2960  -59.6710 C   0  0  0  0  0  0  0  0  0  0  0  0
    8.9120    2.2360  -58.6170 C   0  0  1  0  0  0  0  0  0  0  0  0
    9.3340    2.5970  -57.1900 C   0  0  0  0  0  0  0  0  0  0  0  0
    7.9990    2.6860  -56.4440 C   0  0  2  0  0  0  0  0  0  0  0  0
    7.5830    1.3100  -55.9180 C   0  0  0  0  0  0  0  0  0  0  0  0
    6.6020    0.7030  -56.3280 O   0  0  0  0  0  0  0  0  0  0  0  0
    8.4450    0.8230  -54.9560 N   0  0  0  0  0  0  0  0  0  0  0  0
    8.2950   -0.4670  -54.2720 C   0  0  2  0  0  0  0  0  0  0  0  0
    7.8710   -0.2860  -52.7930 C   0  0  0  0  0  0  0  0  0  0  0  0
    7.7730   -1.6510  -52.0880 C   0  0  1  0  0  0  0  0  0  0  0  0
    6.7400   -2.5250  -52.8200 C   0  0  0  0  0  0  0  0  0  0  0  0
    7.1700   -2.7430  -54.2810 C   0  0  2  0  0  0  0  0  0  0  0  0
    8.5450   -3.4300  -54.3070 C   0  0  0  0  0  0  0  0  0  0  0  0
    9.5820   -2.5560  -53.5860 C   0  0  2  0  0  0  0  0  0  0  0  0
    9.1440   -2.3440  -52.1280 C   0  0  0  0  0  0  0  0  0  0  0  0
    9.6680   -1.1920  -54.2900 C   0  0  0  0  0  0  0  0  0  0  0  0
    7.2690   -1.3800  -54.9880 C   0  0  0  0  0  0  0  0  0  0  0  0
    7.0130    3.2660  -57.4700 C   0  0  0  0  0  0  0  0  0  0  0  0
    7.7000    3.1630  -58.8510 C   0  0  2  0  0  0  0  0  0  0  0  0
    6.7650    2.7170  -59.9520 C   0  0  0  0  0  0  0  0  0  0  0  0
    6.9950    3.0470  -61.2970 C   0  0  0  0  0  0  0  0  0  0  0  0
    6.1150    2.6270  -62.2960 C   0  0  0  0  0  0  0  0  0  0  0  0
    4.9960    1.8650  -61.9670 C   0  0  0  0  0  0  0  0  0  0  0  0
    4.7600    1.5200  -60.6390 C   0  0  0  0  0  0  0  0  0  0  0  0
    5.6390    1.9390  -59.6400 C   0  0  0  0  0  0  0  0  0  0  0  0
   10.5420    4.7210  -60.1630 C   0  0  0  0  0  0  0  0  0  0  0  0
   11.3950    5.8260  -60.1250 C   0  0  0  0  0  0  0  0  0  0  0  0
   12.6316    8.7623  -59.9776 H   0  0  0  0  0  0  0  0  0  0  0  0
   13.8476    8.1609  -61.1551 H   0  0  0  0  0  0  0  0  0  0  0  0
   12.1848    7.4815  -61.1551 H   0  0  0  0  0  0  0  0  0  0  0  0
   14.0950    4.4047  -58.6151 H   0  0  0  0  0  0  0  0  0  0  0  0
   12.5814    2.4281  -58.6828 H   0  0  0  0  0  0  0  0  0  0  0  0
    9.5521    2.2780  -60.6616 H   0  0  0  0  0  0  0  0  0  0  0  0
   10.6756    1.4336  -59.4486 H   0  0  0  0  0  0  0  0  0  0  0  0
    8.6481    1.1743  -58.7321 H   0  0  0  0  0  0  0  0  0  0  0  0
    9.9760    1.8149  -56.7584 H   0  0  0  0  0  0  0  0  0  0  0  0
    9.9223    3.5248  -57.1351 H   0  0  0  0  0  0  0  0  0  0  0  0
    8.0452    3.3250  -55.5498 H   0  0  0  0  0  0  0  0  0  0  0  0
    9.1730    1.4430  -54.6250 H   0  0  0  0  0  0  0  0  0  0  0  0
    8.6172    0.3353  -52.2762 H   0  0  0  0  0  0  0  0  0  0  0  0
    6.8850    0.2008  -52.7631 H   0  0  0  0  0  0  0  0  0  0  0  0
    7.4632   -1.5068  -51.0424 H   0  0  0  0  0  0  0  0  0  0  0  0
    6.6641   -3.4989  -52.3142 H   0  0  0  0  0  0  0  0  0  0  0  0
    5.7643   -2.0173  -52.8045 H   0  0  0  0  0  0  0  0  0  0  0  0
    6.4311   -3.3746  -54.7958 H   0  0  0  0  0  0  0  0  0  0  0  0
    8.4751   -4.4044  -53.8014 H   0  0  0  0  0  0  0  0  0  0  0  0
    8.8574   -3.5737  -55.3519 H   0  0  0  0  0  0  0  0  0  0  0  0
   10.5639   -3.0513  -53.6090 H   0  0  0  0  0  0  0  0  0  0  0  0
    9.0746   -3.3187  -51.6228 H   0  0  0  0  0  0  0  0  0  0  0  0
    9.8842   -1.7112  -51.6164 H   0  0  0  0  0  0  0  0  0  0  0  0
   10.4112   -0.5671  -53.7732 H   0  0  0  0  0  0  0  0  0  0  0  0
    9.9628   -1.3567  -55.3369 H   0  0  0  0  0  0  0  0  0  0  0  0
    7.5882   -1.5353  -56.0292 H   0  0  0  0  0  0  0  0  0  0  0  0
    6.2825   -0.8941  -54.9605 H   0  0  0  0  0  0  0  0  0  0  0  0
    6.0780    2.6866  -57.4672 H   0  0  0  0  0  0  0  0  0  0  0  0
    6.7594    4.3092  -57.2302 H   0  0  0  0  0  0  0  0  0  0  0  0
    8.0286    4.1437  -59.2256 H   0  0  0  0  0  0  0  0  0  0  0  0
    7.8790    3.6435  -61.5669 H   0  0  0  0  0  0  0  0  0  0  0  0
    6.3054    2.8982  -63.3449 H   0  0  0  0  0  0  0  0  0  0  0  0
    4.3011    1.5370  -62.7541 H   0  0  0  0  0  0  0  0  0  0  0  0
    3.8788    0.9159  -60.3770 H   0  0  0  0  0  0  0  0  0  0  0  0
    5.4473    1.6561  -58.5944 H   0  0  0  0  0  0  0  0  0  0  0  0
    9.5425    4.8174  -60.6121 H   0  0  0  0  0  0  0  0  0  0  0  0
   11.0575    6.7875  -60.5392 H   0  0  0  0  0  0  0  0  0  0  0  0
  1  2  1  0
  2  3  1  0
  3  4  1  0
  4  5  2  0
  5  6  1  0
  6  7  1  0
  7  8  1  0
  8  9  1  0
  9 10  1  0
 10 11  1  0
 11 12  2  0
 11 13  1  0
 14 13  1  6
 14 15  1  0
 15 16  1  0
 16 17  1  0
 17 18  1  0
 18 19  1  0
 19 20  1  0
 20 21  1  0
 20 22  1  0
 18 23  1  0
 10 24  1  0
 24 25  1  0
 25 26  1  0
 26 27  2  0
 27 28  1  0
 28 29  2  0
 29 30  1  0
 30 31  2  0
  6 32  2  0
 32 33  1  0
 33  3  2  0
 25  8  1  0
 31 26  1  0
 22 14  1  0
 23 14  1  0
 21 16  1  0
  1 34  1  0
  1 35  1  0
  1 36  1  0
  4 37  1  0
  5 38  1  0
  7 39  1  0
  7 40  1  0
  8 41  1  1
  9 42  1  0
  9 43  1  0
 10 44  1  1
 13 45  1  0
 15 46  1  0
 15 47  1  0
 16 48  1  1
 17 49  1  0
 17 50  1  0
 18 51  1  6
 19 52  1  0
 19 53  1  0
 20 54  1  1
 21 55  1  0
 21 56  1  0
 22 57  1  0
 22 58  1  0
 23 59  1  0
 23 60  1  0
 24 61  1  0
 24 62  1  0
 25 63  1  6
 27 64  1  0
 28 65  1  0
 29 66  1  0
 30 67  1  0
 31 68  1  0
 32 69  1  0
 33 70  1  0
M  END
>  <meeko>  (111) 
{"is_sidechain": false}

$$$$

     RDKit          3D

 56 60  0  0  0  0  0  0  0  0999 V2000
    6.6480    1.9480  -56.3580 O   0  0  0  0  0  0  0  0  0  0  0  0
    7.8580    1.8540  -56.5270 C   0  0  0  0  0  0  0  0  0  0  0  0
    8.6620    0.9530  -55.8580 N   0  0  0  0  0  0  0  0  0  0  0  0
    8.1840   -0.0490  -54.8990 C   0  0  2  0  0  0  0  0  0  0  0  0
    6.8200   -0.6460  -55.3280 C   0  0  0  0  0  0  0  0  0  0  0  0
    6.3670   -1.7310  -54.3350 C   0  0  1  0  0  0  0  0  0  0  0  0
    7.4130   -2.8570  -54.3010 C   0  0  0  0  0  0  0  0  0  0  0  0
    8.7730   -2.2980  -53.8570 C   0  0  2  0  0  0  0  0  0  0  0  0
    8.6390   -1.6830  -52.4560 C   0  0  0  0  0  0  0  0  0  0  0  0
    7.6010   -0.5490  -52.4780 C   0  0  2  0  0  0  0  0  0  0  0  0
    6.2440   -1.1120  -52.9320 C   0  0  0  0  0  0  0  0  0  0  0  0
    8.0560    0.5370  -53.4700 C   0  0  0  0  0  0  0  0  0  0  0  0
    9.2160   -1.2070  -54.8450 C   0  0  0  0  0  0  0  0  0  0  0  0
    8.6430    2.7620  -57.4770 C   0  0  1  0  0  0  0  0  0  0  0  0
    7.9720    2.8630  -58.8590 C   0  0  0  0  0  0  0  0  0  0  0  0
    7.2450    4.1860  -59.0640 C   0  0  0  0  0  0  0  0  0  0  0  0
    8.1630    5.4000  -58.8980 C   0  0  0  0  0  0  0  0  0  0  0  0
    9.2170    5.2530  -57.7780 C   0  0  2  0  0  0  0  0  0  0  0  0
   10.6710    5.1150  -58.2190 C   0  0  0  0  0  0  0  0  0  0  0  0
   11.6590    4.4820  -57.4540 C   0  0  0  0  0  0  0  0  0  0  0  0
   12.9800    4.4070  -57.9060 C   0  0  0  0  0  0  0  0  0  0  0  0
   13.3360    4.9640  -59.1310 C   0  0  0  0  0  0  0  0  0  0  0  0
   12.3710    5.5970  -59.9070 C   0  0  0  0  0  0  0  0  0  0  0  0
   11.0520    5.6720  -59.4540 C   0  0  0  0  0  0  0  0  0  0  0  0
    8.8360    4.1310  -56.8000 C   0  0  0  0  0  0  0  0  0  0  0  0
    9.6260    0.8850  -56.1560 H   0  0  0  0  0  0  0  0  0  0  0  0
    6.0672    0.1556  -55.3557 H   0  0  0  0  0  0  0  0  0  0  0  0
    6.9293   -1.1002  -56.3239 H   0  0  0  0  0  0  0  0  0  0  0  0
    5.3946   -2.1384  -54.6489 H   0  0  0  0  0  0  0  0  0  0  0  0
    7.0894   -3.6334  -53.5922 H   0  0  0  0  0  0  0  0  0  0  0  0
    7.5115   -3.2886  -55.3080 H   0  0  0  0  0  0  0  0  0  0  0  0
    9.5164   -3.1085  -53.8356 H   0  0  0  0  0  0  0  0  0  0  0  0
    8.3160   -2.4591  -51.7466 H   0  0  0  0  0  0  0  0  0  0  0  0
    9.6125   -1.2761  -52.1451 H   0  0  0  0  0  0  0  0  0  0  0  0
    7.5051   -0.1157  -51.4715 H   0  0  0  0  0  0  0  0  0  0  0  0
    5.9155   -1.8849  -52.2216 H   0  0  0  0  0  0  0  0  0  0  0  0
    5.5092   -0.2941  -52.9642 H   0  0  0  0  0  0  0  0  0  0  0  0
    7.3170    1.3517  -53.4782 H   0  0  0  0  0  0  0  0  0  0  0  0
    9.0383    0.9176  -53.1534 H   0  0  0  0  0  0  0  0  0  0  0  0
   10.1891   -0.8062  -54.5249 H   0  0  0  0  0  0  0  0  0  0  0  0
    9.2923   -1.6537  -55.8473 H   0  0  0  0  0  0  0  0  0  0  0  0
    9.6340    2.3266  -57.6729 H   0  0  0  0  0  0  0  0  0  0  0  0
    8.7460    2.7629  -59.6342 H   0  0  0  0  0  0  0  0  0  0  0  0
    7.2241    2.0591  -58.9249 H   0  0  0  0  0  0  0  0  0  0  0  0
    6.8227    4.2011  -60.0796 H   0  0  0  0  0  0  0  0  0  0  0  0
    6.4617    4.2558  -58.2949 H   0  0  0  0  0  0  0  0  0  0  0  0
    8.6914    5.5646  -59.8486 H   0  0  0  0  0  0  0  0  0  0  0  0
    7.5186    6.2452  -58.6145 H   0  0  0  0  0  0  0  0  0  0  0  0
    9.1863    6.2285  -57.2706 H   0  0  0  0  0  0  0  0  0  0  0  0
   11.3918    4.0376  -56.4839 H   0  0  0  0  0  0  0  0  0  0  0  0
   13.7415    3.9055  -57.2907 H   0  0  0  0  0  0  0  0  0  0  0  0
   14.3762    4.9037  -59.4838 H   0  0  0  0  0  0  0  0  0  0  0  0
   12.6462    6.0381  -60.8764 H   0  0  0  0  0  0  0  0  0  0  0  0
   10.2964    6.1761  -60.0744 H   0  0  0  0  0  0  0  0  0  0  0  0
    9.6346    4.0381  -56.0493 H   0  0  0  0  0  0  0  0  0  0  0  0
    7.8704    4.4080  -56.3518 H   0  0  0  0  0  0  0  0  0  0  0  0
  1  2  2  0
  2  3  1  0
  4  3  1  6
  4  5  1  0
  5  6  1  0
  6  7  1  0
  7  8  1  0
  8  9  1  0
  9 10  1  0
 10 11  1  0
 10 12  1  0
  8 13  1  0
  2 14  1  0
 14 15  1  0
 15 16  1  0
 16 17  1  0
 17 18  1  0
 18 19  1  0
 19 20  2  0
 20 21  1  0
 21 22  2  0
 22 23  1  0
 23 24  2  0
 18 25  1  0
 12  4  1  0
 25 14  1  0
 13  4  1  0
 24 19  1  0
 11  6  1  0
  3 26  1  0
  5 27  1  0
  5 28  1  0
  6 29  1  6
  7 30  1  0
  7 31  1  0
  8 32  1  1
  9 33  1  0
  9 34  1  0
 10 35  1  1
 11 36  1  0
 11 37  1  0
 12 38  1  0
 12 39  1  0
 13 40  1  0
 13 41  1  0
 14 42  1  6
 15 43  1  0
 15 44  1  0
 16 45  1  0
 16 46  1  0
 17 47  1  0
 17 48  1  0
 18 49  1  1
 20 50  1  0
 21 51  1  0
 22 52  1  0
 23 53  1  0
 24 54  1  0
 25 55  1  0
 25 56  1  0
M  END
>  <meeko>  (112) 
{"is_sidechain": false}

$$$$

     RDKit          3D

 66 71  0  0  0  0  0  0  0  0999 V2000
    7.4100    0.5750  -56.2480 O   0  0  0  0  0  0  0  0  0  0  0  0
    8.4080    0.9600  -55.6510 C   0  0  0  0  0  0  0  0  0  0  0  0
    9.1970    2.0120  -56.0680 N   0  0  0  0  0  0  0  0  0  0  0  0
    8.9960    2.7730  -57.3060 C   0  0  2  0  0  0  0  0  0  0  0  0
    9.4640    1.9750  -58.5480 C   0  0  0  0  0  0  0  0  0  0  0  0
    9.2920    2.8120  -59.8270 C   0  0  1  0  0  0  0  0  0  0  0  0
    7.8110    3.1960  -59.9860 C   0  0  0  0  0  0  0  0  0  0  0  0
    7.3450    4.0230  -58.7750 C   0  0  2  0  0  0  0  0  0  0  0  0
    8.2020    5.2940  -58.6690 C   0  0  0  0  0  0  0  0  0  0  0  0
    9.6820    4.9160  -58.5010 C   0  0  2  0  0  0  0  0  0  0  0  0
   10.1370    4.0910  -59.7140 C   0  0  0  0  0  0  0  0  0  0  0  0
    9.8440    4.0720  -57.2270 C   0  0  0  0  0  0  0  0  0  0  0  0
    7.5150    3.1860  -57.4950 C   0  0  0  0  0  0  0  0  0  0  0  0
    8.8930    0.3270  -54.3510 C   0  0  1  0  0  0  0  0  0  0  0  0
    8.1760   -0.9840  -54.0070 C   0  0  0  0  0  0  0  0  0  0  0  0
    9.2400   -1.8450  -53.3280 C   0  0  1  0  0  0  0  0  0  0  0  0
    8.8280   -3.3210  -53.2390 C   0  0  0  0  0  0  0  0  0  0  0  0
    7.6930   -3.5970  -52.2780 C   0  0  0  0  0  0  0  0  0  0  0  0
    6.5730   -4.3270  -52.7040 C   0  0  0  0  0  0  0  0  0  0  0  0
    5.5170   -4.5820  -51.8280 C   0  0  0  0  0  0  0  0  0  0  0  0
    5.5740   -4.0980  -50.5280 C   0  0  0  0  0  0  0  0  0  0  0  0
    4.5620   -4.3440  -49.6860 F   0  0  0  0  0  0  0  0  0  0  0  0
    6.6660   -3.3600  -50.0890 C   0  0  0  0  0  0  0  0  0  0  0  0
    7.7240   -3.1040  -50.9640 C   0  0  0  0  0  0  0  0  0  0  0  0
   10.5400   -1.5110  -54.0890 C   0  0  1  0  0  0  0  0  0  0  0  0
   10.8650   -2.3290  -55.3270 C   0  0  0  0  0  0  0  0  0  0  0  0
   11.5940   -1.8250  -56.4150 C   0  0  0  0  0  0  0  0  0  0  0  0
   11.8670   -2.6240  -57.5300 C   0  0  0  0  0  0  0  0  0  0  0  0
   11.4160   -3.9400  -57.5700 C   0  0  0  0  0  0  0  0  0  0  0  0
   11.7480   -4.9190  -58.9430 Cl  0  0  0  0  0  0  0  0  0  0  0  0
   10.6980   -4.4650  -56.5020 C   0  0  0  0  0  0  0  0  0  0  0  0
   10.4270   -3.6650  -55.3880 C   0  0  0  0  0  0  0  0  0  0  0  0
   10.3970   -0.0060  -54.3900 C   0  0  0  0  0  0  0  0  0  0  0  0
   10.0070    2.2440  -55.5080 H   0  0  0  0  0  0  0  0  0  0  0  0
   10.5252    1.7109  -58.4290 H   0  0  0  0  0  0  0  0  0  0  0  0
    8.8523    1.0649  -58.6354 H   0  0  0  0  0  0  0  0  0  0  0  0
    9.6197    2.2272  -60.6991 H   0  0  0  0  0  0  0  0  0  0  0  0
    7.6861    3.7912  -60.9026 H   0  0  0  0  0  0  0  0  0  0  0  0
    7.2066    2.2791  -60.0492 H   0  0  0  0  0  0  0  0  0  0  0  0
    6.2876    4.2998  -58.8989 H   0  0  0  0  0  0  0  0  0  0  0  0
    8.0803    5.8930  -59.5836 H   0  0  0  0  0  0  0  0  0  0  0  0
    7.8765    5.8778  -57.7954 H   0  0  0  0  0  0  0  0  0  0  0  0
   10.2916    5.8285  -58.4249 H   0  0  0  0  0  0  0  0  0  0  0  0
   10.0150    4.6901  -60.6284 H   0  0  0  0  0  0  0  0  0  0  0  0
   11.1942    3.8151  -59.5869 H   0  0  0  0  0  0  0  0  0  0  0  0
   10.9037    3.8026  -57.1067 H   0  0  0  0  0  0  0  0  0  0  0  0
    9.4962    4.6649  -56.3682 H   0  0  0  0  0  0  0  0  0  0  0  0
    7.1924    3.7815  -56.6282 H   0  0  0  0  0  0  0  0  0  0  0  0
    6.9018    2.2769  -57.5818 H   0  0  0  0  0  0  0  0  0  0  0  0
    8.6714    1.0904  -53.5907 H   0  0  0  0  0  0  0  0  0  0  0  0
    7.3345   -0.7975  -53.3236 H   0  0  0  0  0  0  0  0  0  0  0  0
    7.7536   -1.4721  -54.8977 H   0  0  0  0  0  0  0  0  0  0  0  0
    9.3883   -1.6247  -52.2606 H   0  0  0  0  0  0  0  0  0  0  0  0
    8.5184   -3.6526  -54.2411 H   0  0  0  0  0  0  0  0  0  0  0  0
    9.7024   -3.8681  -52.8568 H   0  0  0  0  0  0  0  0  0  0  0  0
    6.5269   -4.7015  -53.7373 H   0  0  0  0  0  0  0  0  0  0  0  0
    4.6456   -5.1624  -52.1652 H   0  0  0  0  0  0  0  0  0  0  0  0
    6.6972   -2.9792  -49.0575 H   0  0  0  0  0  0  0  0  0  0  0  0
    8.5862   -2.5129  -50.6217 H   0  0  0  0  0  0  0  0  0  0  0  0
   11.4075   -1.7772  -53.4672 H   0  0  0  0  0  0  0  0  0  0  0  0
   11.9560   -0.7865  -56.3906 H   0  0  0  0  0  0  0  0  0  0  0  0
   12.4381   -2.2123  -58.3752 H   0  0  0  0  0  0  0  0  0  0  0  0
   10.3443   -5.5061  -56.5332 H   0  0  0  0  0  0  0  0  0  0  0  0
    9.8614   -4.0873  -54.5443 H   0  0  0  0  0  0  0  0  0  0  0  0
   10.9329    0.5825  -53.6307 H   0  0  0  0  0  0  0  0  0  0  0  0
   10.8248    0.2373  -55.3738 H   0  0  0  0  0  0  0  0  0  0  0  0
  1  2  2  0
  2  3  1  0
  4  3  1  1
  4  5  1  0
  5  6  1  0
  6  7  1  0
  7  8  1  0
  8  9  1  0
  9 10  1  0
 10 11  1  0
 10 12  1  0
  8 13  1  0
  2 14  1  0
 14 15  1  0
 15 16  1  0
 16 17  1  0
 17 18  1  0
 18 19  1  0
 19 20  2  0
 20 21  1  0
 21 22  1  0
 21 23  2  0
 23 24  1  0
 16 25  1  0
 25 26  1  0
 26 27  1  0
 27 28  2  0
 28 29  1  0
 29 30  1  0
 29 31  2  0
 31 32  1  0
 25 33  1  0
 12  4  1  0
 33 14  1  0
 13  4  1  0
 24 18  2  0
 32 26  2  0
 11  6  1  0
  3 34  1  0
  5 35  1  0
  5 36  1  0
  6 37  1  6
  7 38  1  0
  7 39  1  0
  8 40  1  6
  9 41  1  0
  9 42  1  0
 10 43  1  1
 11 44  1  0
 11 45  1  0
 12 46  1  0
 12 47  1  0
 13 48  1  0
 13 49  1  0
 14 50  1  1
 15 51  1  0
 15 52  1  0
 16 53  1  1
 17 54  1  0
 17 55  1  0
 19 56  1  0
 20 57  1  0
 23 58  1  0
 24 59  1  0
 25 60  1  1
 27 61  1  0
 28 62  1  0
 31 63  1  0
 32 64  1  0
 33 65  1  0
 33 66  1  0
M  END
>  <meeko>  (113) 
{"is_sidechain": false}

$$$$
