9GF
  CCTOOLS-0919241037

 67 68  0  0  1  0  0  0  0  0999 V2000
    9.4380    0.4620   -1.7630 C   0  0  0  0  0
    7.9440    0.3050   -2.0580 C   0  0  0  0  0
    7.1730    0.1980   -0.7410 C   0  0  0  0  0
    5.6800    0.0410   -1.0360 C   0  0  0  0  0
    4.9080   -0.0670    0.2800 C   0  0  0  0  0
    3.4150   -0.2240   -0.0150 C   0  0  0  0  0
    2.6440   -0.3320    1.3020 C   0  0  0  0  0
    3.1390   -1.5490    2.0850 C   0  0  0  0  0
    2.8690    0.9340    2.1310 C   0  0  0  0  0
    1.1730   -0.4870    1.0110 C   0  0  0  0  0
    0.7260   -0.5120   -0.2970 C   0  0  0  0  0
   -0.6220   -0.6530   -0.5670 C   0  0  0  0  0
   -1.5270   -0.7700    0.4700 C   0  0  0  0  0
   -2.9970   -0.9240    0.1750 C   0  0  0  0  0
   -3.2210   -2.1890   -0.6550 C   0  0  0  0  0
   -4.7130   -2.3460   -0.9540 C   0  0  0  0  0
   -5.2060   -1.1280   -1.7390 C   0  0  0  0  0
   -4.9820    0.1380   -0.9090 C   0  0  0  0  0
   -3.4900    0.2940   -0.6100 C   0  0  0  0  0
   -3.2660    1.5600    0.2200 C   0  0  0  0  0
   -3.6430    2.7880   -0.6120 C   0  0  0  0  0
   -3.4190    4.0540    0.2180 C   0  0  0  0  0
   -1.0810   -0.7460    1.7840 C   0  0  0  0  0
    0.2730   -0.6090    2.0520 C   0  0  0  0  0
   -4.9220   -3.5280   -1.7290 O   0  0  0  0  0
   -3.7710    5.2010   -0.5590 O   0  0  0  0  0
   -1.9690   -0.8660    2.8060 O   0  0  0  0  0
    9.9870    0.5390   -2.7010 H   0  0  0  0  0
    9.5980    1.3640   -1.1730 H   0  0  0  0  0
    9.7910   -0.4050   -1.2050 H   0  0  0  0  0
    7.5910    1.1730   -2.6160 H   0  0  0  0  0
    7.7840   -0.5970   -2.6480 H   0  0  0  0  0
    7.5260   -0.6700   -0.1830 H   0  0  0  0  0
    7.3340    1.1000   -0.1510 H   0  0  0  0  0
    5.3270    0.9080   -1.5940 H   0  0  0  0  0
    5.5190   -0.8620   -1.6270 H   0  0  0  0  0
    5.2610   -0.9340    0.8380 H   0  0  0  0  0
    5.0690    0.8350    0.8710 H   0  0  0  0  0
    3.0620    0.6430   -0.5730 H   0  0  0  0  0
    3.2540   -1.1260   -0.6050 H   0  0  0  0  0
    4.2030   -1.4380    2.2950 H   0  0  0  0  0
    2.5890   -1.6260    3.0230 H   0  0  0  0  0
    2.9780   -2.4510    1.4950 H   0  0  0  0  0
    3.9330    1.0460    2.3410 H   0  0  0  0  0
    2.5160    1.8010    1.5720 H   0  0  0  0  0
    2.3190    0.8570    3.0690 H   0  0  0  0  0
    1.4320   -0.4200   -1.1090 H   0  0  0  0  0
   -0.9690   -0.6710   -1.5900 H   0  0  0  0  0
   -3.5490   -1.0000    1.1110 H   0  0  0  0  0
   -2.6680   -2.1130   -1.5910 H   0  0  0  0  0
   -2.8690   -3.0570   -0.0960 H   0  0  0  0  0
   -5.2650   -2.4220   -0.0180 H   0  0  0  0  0
   -4.6530   -1.0510   -2.6750 H   0  0  0  0  0
   -6.2690   -1.2390   -1.9520 H   0  0  0  0  0
   -5.3330    1.0050   -1.4680 H   0  0  0  0  0
   -5.5350    0.0610    0.0270 H   0  0  0  0  0
   -2.9370    0.3710   -1.5460 H   0  0  0  0  0
   -3.8870    1.5230    1.1150 H   0  0  0  0  0
   -2.2170    1.6250    0.5080 H   0  0  0  0  0
   -3.0210    2.8250   -1.5060 H   0  0  0  0  0
   -4.6920    2.7230   -0.9000 H   0  0  0  0  0
   -4.0400    4.0160    1.1130 H   0  0  0  0  0
   -2.3700    4.1180    0.5070 H   0  0  0  0  0
    0.6220   -0.5900    3.0740 H   0  0  0  0  0
   -5.8480   -3.6910   -1.9560 H   0  0  0  0  0
   -3.6540    6.0410   -0.0950 H   0  0  0  0  0
   -2.3190   -0.0230    3.1240 H   0  0  0  0  0
  1 28  1  0  0  0
  1 29  1  0  0  0
  1 30  1  0  0  0
  2  1  1  0  0  0
  2 31  1  0  0  0
  2 32  1  0  0  0
  3  2  1  0  0  0
  3 33  1  0  0  0
  3 34  1  0  0  0
  4  3  1  0  0  0
  4 35  1  0  0  0
  4 36  1  0  0  0
  5  4  1  0  0  0
  5 37  1  0  0  0
  5 38  1  0  0  0
  6  5  1  0  0  0
  6 39  1  0  0  0
  6 40  1  0  0  0
  7  8  1  0  0  0
  7  6  1  0  0  0
  8 41  1  0  0  0
  8 42  1  0  0  0
  8 43  1  0  0  0
  9  7  1  0  0  0
  9 44  1  0  0  0
  9 45  1  0  0  0
  9 46  1  0  0  0
 10  7  1  0  0  0
 10 11  2  0  0  0
 11 47  1  0  0  0
 12 11  1  0  0  0
 12 48  1  0  0  0
 13 12  2  0  0  0
 14 13  1  0  0  0
 14 19  1  0  0  0
 14 49  1  0  0  0
 15 14  1  0  0  0
 15 50  1  0  0  0
 15 51  1  0  0  0
 16 25  1  0  0  0
 16 15  1  0  0  0
 16 17  1  0  0  0
 16 52  1  0  0  0
 17 18  1  0  0  0
 17 53  1  0  0  0
 17 54  1  0  0  0
 18 19  1  0  0  0
 18 55  1  0  0  0
 18 56  1  0  0  0
 19 57  1  0  0  0
 20 19  1  0  0  0
 20 21  1  0  0  0
 20 58  1  0  0  0
 20 59  1  0  0  0
 21 22  1  0  0  0
 21 60  1  0  0  0
 21 61  1  0  0  0
 22 26  1  0  0  0
 22 62  1  0  0  0
 22 63  1  0  0  0
 23 24  2  0  0  0
 23 13  1  0  0  0
 24 10  1  0  0  0
 24 64  1  0  0  0
 25 65  1  0  0  0
 26 66  1  0  0  0
 27 23  1  0  0  0
 27 67  1  0  0  0
M  END
$$$$
