
     RDKit          3D

 67 68  0  0  0  0  0  0  0  0999 V2000
  133.8120  147.3290  169.7870 C   0  0  0  0  0  0  0  0  0  0  0  0
  133.2060  146.9760  168.4520 C   0  0  0  0  0  0  0  0  0  0  0  0
  132.9350  145.5060  168.2590 C   0  0  0  0  0  0  0  0  0  0  0  0
  134.1330  144.6050  168.4320 C   0  0  0  0  0  0  0  0  0  0  0  0
  133.9260  143.1970  167.9260 C   0  0  0  0  0  0  0  0  0  0  0  0
  135.0800  142.2210  168.1300 C   0  0  0  0  0  0  0  0  0  0  0  0
  135.0860  141.4310  169.4630 C   0  0  1  0  0  0  0  0  0  0  0  0
  133.6730  141.3880  170.0540 C   0  0  0  0  0  0  0  0  0  0  0  0
  135.4810  139.9850  169.1530 C   0  0  0  0  0  0  0  0  0  0  0  0
  136.0810  142.0050  170.4790 C   0  0  0  0  0  0  0  0  0  0  0  0
  136.4920  143.3320  170.4150 C   0  0  0  0  0  0  0  0  0  0  0  0
  137.3850  143.8550  171.3340 C   0  0  0  0  0  0  0  0  0  0  0  0
  137.9010  143.0600  172.3460 C   0  0  0  0  0  0  0  0  0  0  0  0
  138.8900  143.5990  173.3600 C   0  0  2  0  0  0  0  0  0  0  0  0
  138.2070  144.2740  174.5550 C   0  0  0  0  0  0  0  0  0  0  0  0
  139.1930  144.7530  175.6060 C   0  0  1  0  0  0  0  0  0  0  0  0
  140.2110  145.6950  174.9970 C   0  0  0  0  0  0  0  0  0  0  0  0
  140.9290  145.0280  173.8250 C   0  0  0  0  0  0  0  0  0  0  0  0
  139.9520  144.5350  172.7580 C   0  0  1  0  0  0  0  0  0  0  0  0
  140.6760  143.8600  171.6000 C   0  0  0  0  0  0  0  0  0  0  0  0
  141.5700  144.7670  170.7690 C   0  0  0  0  0  0  0  0  0  0  0  0
  142.0140  144.1110  169.5010 C   0  0  0  0  0  0  0  0  0  0  0  0
  137.4910  141.7240  172.4110 C   0  0  0  0  0  0  0  0  0  0  0  0
  138.4930  145.3970  176.6730 O   0  0  0  0  0  0  0  0  0  0  0  0
  140.9060  143.7910  168.6770 O   0  0  0  0  0  0  0  0  0  0  0  0
  137.9980  140.9370  173.4080 O   0  0  0  0  0  0  0  0  0  0  0  0
  136.5940  141.2040  171.4930 C   0  0  0  0  0  0  0  0  0  0  0  0
  133.1660  146.9527  170.5939 H   0  0  0  0  0  0  0  0  0  0  0  0
  134.8081  146.8698  169.8704 H   0  0  0  0  0  0  0  0  0  0  0  0
  133.9039  148.4220  169.8704 H   0  0  0  0  0  0  0  0  0  0  0  0
  132.2534  147.5171  168.3530 H   0  0  0  0  0  0  0  0  0  0  0  0
  133.9437  147.2616  167.6876 H   0  0  0  0  0  0  0  0  0  0  0  0
  132.1716  145.2016  168.9901 H   0  0  0  0  0  0  0  0  0  0  0  0
  132.6128  145.3891  167.2138 H   0  0  0  0  0  0  0  0  0  0  0  0
  134.9791  145.0472  167.8856 H   0  0  0  0  0  0  0  0  0  0  0  0
  134.3179  144.5286  169.5137 H   0  0  0  0  0  0  0  0  0  0  0  0
  133.0451  142.7841  168.4394 H   0  0  0  0  0  0  0  0  0  0  0  0
  133.8177  143.2939  166.8356 H   0  0  0  0  0  0  0  0  0  0  0  0
  135.0499  141.4906  167.3081 H   0  0  0  0  0  0  0  0  0  0  0  0
  135.9875  142.8421  168.1541 H   0  0  0  0  0  0  0  0  0  0  0  0
  133.7347  141.3899  171.1523 H   0  0  0  0  0  0  0  0  0  0  0  0
  133.1076  142.2694  169.7170 H   0  0  0  0  0  0  0  0  0  0  0  0
  133.1623  140.4739  169.7170 H   0  0  0  0  0  0  0  0  0  0  0  0
  135.6310  139.4360  170.0943 H   0  0  0  0  0  0  0  0  0  0  0  0
  134.6815  139.5033  168.5709 H   0  0  0  0  0  0  0  0  0  0  0  0
  136.4143  139.9766  168.5709 H   0  0  0  0  0  0  0  0  0  0  0  0
  136.0991  143.9795  169.6173 H   0  0  0  0  0  0  0  0  0  0  0  0
  137.6878  144.9100  171.2609 H   0  0  0  0  0  0  0  0  0  0  0  0
  139.4165  142.7039  173.7228 H   0  0  0  0  0  0  0  0  0  0  0  0
  137.6354  145.1398  174.1895 H   0  0  0  0  0  0  0  0  0  0  0  0
  137.5564  143.5248  175.0298 H   0  0  0  0  0  0  0  0  0  0  0  0
  139.7309  143.8810  176.0065 H   0  0  0  0  0  0  0  0  0  0  0  0
  139.6974  146.5993  174.6386 H   0  0  0  0  0  0  0  0  0  0  0  0
  140.9541  145.9575  175.7644 H   0  0  0  0  0  0  0  0  0  0  0  0
  141.6151  145.7565  173.3683 H   0  0  0  0  0  0  0  0  0  0  0  0
  141.4745  144.1556  174.2140 H   0  0  0  0  0  0  0  0  0  0  0  0
  139.4367  145.4207  172.3579 H   0  0  0  0  0  0  0  0  0  0  0  0
  141.3011  143.0551  172.0141 H   0  0  0  0  0  0  0  0  0  0  0  0
  139.8894  143.5044  170.9182 H   0  0  0  0  0  0  0  0  0  0  0  0
  141.0126  145.6817  170.5188 H   0  0  0  0  0  0  0  0  0  0  0  0
  142.4666  144.9959  171.3638 H   0  0  0  0  0  0  0  0  0  0  0  0
  142.6807  144.7959  168.9565 H   0  0  0  0  0  0  0  0  0  0  0  0
  142.5408  143.1795  169.7554 H   0  0  0  0  0  0  0  0  0  0  0  0
  138.8441  145.0739  177.5404 H   0  0  0  0  0  0  0  0  0  0  0  0
  140.1267  143.5659  169.2446 H   0  0  0  0  0  0  0  0  0  0  0  0
  137.7246  139.9880  173.4770 H   0  0  0  0  0  0  0  0  0  0  0  0
  136.2855  140.1507  171.5665 H   0  0  0  0  0  0  0  0  0  0  0  0
  1  2  1  0
  2  3  1  0
  3  4  1  0
  4  5  1  0
  5  6  1  0
  7  6  1  6
  7  8  1  0
  7  9  1  0
  7 10  1  0
 10 11  1  0
 10 27  2  0
 11 12  2  0
 12 13  1  0
 13 14  1  0
 13 23  2  0
 14 15  1  0
 14 19  1  0
 15 16  1  0
 16 17  1  0
 16 24  1  0
 17 18  1  0
 18 19  1  0
 19 20  1  0
 20 21  1  0
 21 22  1  0
 22 25  1  0
 23 26  1  0
 23 27  1  0
  1 28  1  0
  1 29  1  0
  1 30  1  0
  2 31  1  0
  2 32  1  0
  3 33  1  0
  3 34  1  0
  4 35  1  0
  4 36  1  0
  5 37  1  0
  5 38  1  0
  6 39  1  0
  6 40  1  0
  8 41  1  0
  8 42  1  0
  8 43  1  0
  9 44  1  0
  9 45  1  0
  9 46  1  0
 11 47  1  0
 12 48  1  0
 14 49  1  1
 15 50  1  0
 15 51  1  0
 16 52  1  1
 17 53  1  0
 17 54  1  0
 18 55  1  0
 18 56  1  0
 19 57  1  6
 20 58  1  0
 20 59  1  0
 21 60  1  0
 21 61  1  0
 22 62  1  0
 22 63  1  0
 24 64  1  0
 25 65  1  0
 26 66  1  0
 27 67  1  0
M  END
$$$$
