
     RDKit          3D

 67 68  0  0  0  0  0  0  0  0999 V2000
    8.3031    2.8923   -0.9766 C   0  0  0  0  0  0  0  0  0  0  0  0
    6.8259    2.5626   -1.1201 C   0  0  0  0  0  0  0  0  0  0  0  0
    6.3202    1.7325    0.0595 C   0  0  0  0  0  0  0  0  0  0  0  0
    4.8331    1.4024   -0.0889 C   0  0  0  0  0  0  0  0  0  0  0  0
    4.3277    0.5764    1.0985 C   0  0  0  0  0  0  0  0  0  0  0  0
    2.8310    0.2363    1.0033 C   0  0  0  0  0  0  0  0  0  0  0  0
    2.4499   -1.1726    0.4451 C   0  0  0  0  0  0  0  0  0  0  0  0
    3.1109   -1.4072   -0.9314 C   0  0  0  0  0  0  0  0  0  0  0  0
    2.9769   -2.2904    1.3795 C   0  0  0  0  0  0  0  0  0  0  0  0
    0.9042   -1.2446    0.3838 C   0  0  0  0  0  0  0  0  0  0  0  0
    0.1482   -1.2795    1.5690 C   0  0  0  0  0  0  0  0  0  0  0  0
   -1.2502   -1.3315    1.5462 C   0  0  0  0  0  0  0  0  0  0  0  0
   -1.9566   -1.3418    0.3355 C   0  0  0  0  0  0  0  0  0  0  0  0
   -3.4792   -1.3989    0.3760 C   0  0  2  0  0  0  0  0  0  0  0  0
   -3.9783   -2.7441   -0.1830 C   0  0  0  0  0  0  0  0  0  0  0  0
   -5.4942   -2.8690   -0.0735 C   0  0  1  0  0  0  0  0  0  0  0  0
   -6.1879   -1.7055   -0.7686 C   0  0  0  0  0  0  0  0  0  0  0  0
   -5.7259   -0.3617   -0.2166 C   0  0  0  0  0  0  0  0  0  0  0  0
   -4.1948   -0.1855   -0.2937 C   0  0  1  0  0  0  0  0  0  0  0  0
   -3.7537    1.1501    0.3541 C   0  0  0  0  0  0  0  0  0  0  0  0
   -4.3534    2.3894   -0.3134 C   0  0  0  0  0  0  0  0  0  0  0  0
   -3.7493    3.6714    0.2478 C   0  0  0  0  0  0  0  0  0  0  0  0
   -1.2102   -1.3002   -0.8454 C   0  0  0  0  0  0  0  0  0  0  0  0
   -5.9265   -4.0826   -0.6809 O   0  0  0  0  0  0  0  0  0  0  0  0
   -4.3501    4.8002   -0.3735 O   0  0  0  0  0  0  0  0  0  0  0  0
   -1.8601   -1.3089   -2.0479 O   0  0  0  0  0  0  0  0  0  0  0  0
    0.1907   -1.2478   -0.8262 C   0  0  0  0  0  0  0  0  0  0  0  0
    8.6437    3.4861   -1.8306 H   0  0  0  0  0  0  0  0  0  0  0  0
    8.4895    3.4696   -0.0654 H   0  0  0  0  0  0  0  0  0  0  0  0
    8.9065    1.9798   -0.9351 H   0  0  0  0  0  0  0  0  0  0  0  0
    6.6693    2.0139   -2.0561 H   0  0  0  0  0  0  0  0  0  0  0  0
    6.2545    3.4955   -1.1912 H   0  0  0  0  0  0  0  0  0  0  0  0
    6.4834    2.2839    0.9935 H   0  0  0  0  0  0  0  0  0  0  0  0
    6.8974    0.8023    0.1280 H   0  0  0  0  0  0  0  0  0  0  0  0
    4.2585    2.3344   -0.1555 H   0  0  0  0  0  0  0  0  0  0  0  0
    4.6763    0.8626   -1.0275 H   0  0  0  0  0  0  0  0  0  0  0  0
    4.9376   -0.3232    1.2232 H   0  0  0  0  0  0  0  0  0  0  0  0
    4.4787    1.1745    2.0069 H   0  0  0  0  0  0  0  0  0  0  0  0
    2.4238    0.3248    2.0203 H   0  0  0  0  0  0  0  0  0  0  0  0
    2.3190    1.0137    0.4195 H   0  0  0  0  0  0  0  0  0  0  0  0
    4.2024   -1.4588   -0.8527 H   0  0  0  0  0  0  0  0  0  0  0  0
    2.7843   -2.3556   -1.3749 H   0  0  0  0  0  0  0  0  0  0  0  0
    2.8725   -0.6040   -1.6376 H   0  0  0  0  0  0  0  0  0  0  0  0
    2.5710   -3.2676    1.0907 H   0  0  0  0  0  0  0  0  0  0  0  0
    4.0685   -2.3716    1.3429 H   0  0  0  0  0  0  0  0  0  0  0  0
    2.7080   -2.1172    2.4270 H   0  0  0  0  0  0  0  0  0  0  0  0
    0.6375   -1.2588    2.5405 H   0  0  0  0  0  0  0  0  0  0  0  0
   -1.7831   -1.3583    2.4946 H   0  0  0  0  0  0  0  0  0  0  0  0
   -3.7778   -1.3804    1.4353 H   0  0  0  0  0  0  0  0  0  0  0  0
   -3.5068   -3.5780    0.3542 H   0  0  0  0  0  0  0  0  0  0  0  0
   -3.6845   -2.8769   -1.2317 H   0  0  0  0  0  0  0  0  0  0  0  0
   -5.7934   -2.9013    0.9808 H   0  0  0  0  0  0  0  0  0  0  0  0
   -7.2747   -1.8022   -0.6557 H   0  0  0  0  0  0  0  0  0  0  0  0
   -5.9984   -1.7503   -1.8491 H   0  0  0  0  0  0  0  0  0  0  0  0
   -6.2292    0.4279   -0.7849 H   0  0  0  0  0  0  0  0  0  0  0  0
   -6.0573   -0.2657    0.8252 H   0  0  0  0  0  0  0  0  0  0  0  0
   -3.9265   -0.1469   -1.3565 H   0  0  0  0  0  0  0  0  0  0  0  0
   -4.0181    1.1485    1.4192 H   0  0  0  0  0  0  0  0  0  0  0  0
   -2.6623    1.2368    0.3016 H   0  0  0  0  0  0  0  0  0  0  0  0
   -5.4393    2.4235   -0.1707 H   0  0  0  0  0  0  0  0  0  0  0  0
   -4.1882    2.3541   -1.3972 H   0  0  0  0  0  0  0  0  0  0  0  0
   -3.9259    3.7460    1.3253 H   0  0  0  0  0  0  0  0  0  0  0  0
   -2.6695    3.7140    0.0728 H   0  0  0  0  0  0  0  0  0  0  0  0
   -5.4256   -4.8096   -0.2732 H   0  0  0  0  0  0  0  0  0  0  0  0
   -4.1863    4.7276   -1.3293 H   0  0  0  0  0  0  0  0  0  0  0  0
   -1.2044   -1.3304   -2.7632 H   0  0  0  0  0  0  0  0  0  0  0  0
    0.7176   -1.2046   -1.7734 H   0  0  0  0  0  0  0  0  0  0  0  0
  1  2  1  0
  2  3  1  0
  3  4  1  0
  4  5  1  0
  5  6  1  0
  7  6  1  0
  7  8  1  0
  7  9  1  0
  7 10  1  0
 10 11  1  0
 10 27  2  0
 11 12  2  0
 12 13  1  0
 13 14  1  0
 13 23  2  0
 14 15  1  0
 14 19  1  0
 15 16  1  0
 16 17  1  0
 16 24  1  0
 17 18  1  0
 18 19  1  0
 19 20  1  0
 20 21  1  0
 21 22  1  0
 22 25  1  0
 23 26  1  0
 23 27  1  0
  1 28  1  0
  1 29  1  0
  1 30  1  0
  2 31  1  0
  2 32  1  0
  3 33  1  0
  3 34  1  0
  4 35  1  0
  4 36  1  0
  5 37  1  0
  5 38  1  0
  6 39  1  0
  6 40  1  0
  8 41  1  0
  8 42  1  0
  8 43  1  0
  9 44  1  0
  9 45  1  0
  9 46  1  0
 11 47  1  0
 12 48  1  0
 14 49  1  1
 15 50  1  0
 15 51  1  0
 16 52  1  1
 17 53  1  0
 17 54  1  0
 18 55  1  0
 18 56  1  0
 19 57  1  6
 20 58  1  0
 20 59  1  0
 21 60  1  0
 21 61  1  0
 22 62  1  0
 22 63  1  0
 24 64  1  0
 25 65  1  0
 26 66  1  0
 27 67  1  0
M  END
>  <pka_props_0>  (1) 
{'name': 'alcohol', 'atom': 23, 'pKa': 15.9}

>  <pka_props_1>  (1) 
{'name': 'alcohol', 'atom': 24, 'pKa': 15.9}

>  <pka_props_2>  (1) 
{'name': 'phenol', 'atom': 25, 'pKa': 10.0}

>  <ScrubInfo>  (1) 
{"isomerGroup": 0, "isomerId": 0, "confId": 0, "nr_conformers:": 1, "nr_isomers:": 1}

$$$$
