
     RDKit          3D

 41 43  0  0  0  0  0  0  0  0999 V2000
   11.4620   -1.2940  -56.4920 O   0  0  0  0  0  0  0  0  0  0  0  0
   11.3900   -2.3630  -55.8760 C   0  0  0  0  0  0  0  0  0  0  0  0
   10.8620   -2.3680  -54.5250 C   0  0  0  0  0  0  0  0  0  0  0  0
   11.4980   -2.1440  -53.3920 N   0  0  0  0  0  0  0  0  0  0  0  0
   10.5990   -2.2720  -52.3590 N   0  0  0  0  0  0  0  0  0  0  0  0
    9.4290   -2.5890  -52.8710 C   0  0  0  0  0  0  0  0  0  0  0  0
    8.1560   -2.8360  -52.1250 C   0  0  0  0  0  0  0  0  0  0  0  0
    7.4440   -4.0990  -52.6300 C   0  0  0  0  0  0  0  0  0  0  0  0
    6.1490   -4.3550  -51.8620 C   0  0  0  0  0  0  0  0  0  0  0  0
    6.3890   -4.4160  -50.3560 C   0  0  0  0  0  0  0  0  0  0  0  0
    7.0980   -3.1640  -49.8480 C   0  0  0  0  0  0  0  0  0  0  0  0
    8.3960   -2.9030  -50.6090 C   0  0  0  0  0  0  0  0  0  0  0  0
    9.5560   -2.6640  -54.2300 N   0  0  0  0  0  0  0  0  0  0  0  0
   11.8060   -3.5580  -56.4760 N   0  0  0  0  0  0  0  0  0  0  0  0
   12.1820   -3.5440  -57.8890 C   0  0  0  0  0  0  0  0  0  0  0  0
   11.7150   -4.8110  -58.5950 C   0  0  0  0  0  0  0  0  0  0  0  0
   12.2690   -6.0810  -57.9470 C   0  0  0  0  0  0  0  0  0  0  0  0
   12.7730   -5.8530  -56.5230 C   0  0  0  0  0  0  0  0  0  0  0  0
   11.9230   -4.8360  -55.7680 C   0  0  0  0  0  0  0  0  0  0  0  0
    7.4928   -1.9802  -52.3193 H   0  0  0  0  0  0  0  0  0  0  0  0
    7.2082   -3.9741  -53.6972 H   0  0  0  0  0  0  0  0  0  0  0  0
    8.1132   -4.9582  -52.4753 H   0  0  0  0  0  0  0  0  0  0  0  0
    5.4400   -3.5420  -52.0774 H   0  0  0  0  0  0  0  0  0  0  0  0
    5.7450   -5.3259  -52.1846 H   0  0  0  0  0  0  0  0  0  0  0  0
    5.4201   -4.5099  -49.8438 H   0  0  0  0  0  0  0  0  0  0  0  0
    7.0311   -5.2839  -50.1453 H   0  0  0  0  0  0  0  0  0  0  0  0
    6.4300   -2.2994  -49.9752 H   0  0  0  0  0  0  0  0  0  0  0  0
    7.3466   -3.3168  -48.7874 H   0  0  0  0  0  0  0  0  0  0  0  0
    8.8219   -1.9464  -50.2719 H   0  0  0  0  0  0  0  0  0  0  0  0
    9.0884   -3.7332  -50.4055 H   0  0  0  0  0  0  0  0  0  0  0  0
    8.8460   -2.8950  -54.9110 H   0  0  0  0  0  0  0  0  0  0  0  0
   11.7205   -2.6715  -58.3747 H   0  0  0  0  0  0  0  0  0  0  0  0
   13.2786   -3.4905  -57.9576 H   0  0  0  0  0  0  0  0  0  0  0  0
   10.6161   -4.8486  -58.5619 H   0  0  0  0  0  0  0  0  0  0  0  0
   12.0875   -4.7738  -59.6293 H   0  0  0  0  0  0  0  0  0  0  0  0
   11.4708   -6.8374  -57.9195 H   0  0  0  0  0  0  0  0  0  0  0  0
   13.1270   -6.4114  -58.5509 H   0  0  0  0  0  0  0  0  0  0  0  0
   12.7467   -6.8095  -55.9803 H   0  0  0  0  0  0  0  0  0  0  0  0
   13.7974   -5.4572  -56.5862 H   0  0  0  0  0  0  0  0  0  0  0  0
   10.9153   -5.2543  -55.6285 H   0  0  0  0  0  0  0  0  0  0  0  0
   12.4187   -4.6382  -54.8062 H   0  0  0  0  0  0  0  0  0  0  0  0
  1  2  2  0
  2  3  1  0
  3  4  2  0
  4  5  1  0
  5  6  2  0
  6  7  1  0
  7  8  1  0
  8  9  1  0
  9 10  1  0
 10 11  1  0
 11 12  1  0
  6 13  1  0
  2 14  1  0
 14 15  1  0
 15 16  1  0
 16 17  1  0
 17 18  1  0
 18 19  1  0
 13  3  1  0
 19 14  1  0
 12  7  1  0
  7 20  1  0
  8 21  1  0
  8 22  1  0
  9 23  1  0
  9 24  1  0
 10 25  1  0
 10 26  1  0
 11 27  1  0
 11 28  1  0
 12 29  1  0
 12 30  1  0
 13 31  1  0
 15 32  1  0
 15 33  1  0
 16 34  1  0
 16 35  1  0
 17 36  1  0
 17 37  1  0
 18 38  1  0
 18 39  1  0
 19 40  1  0
 19 41  1  0
M  END
>  <meeko>  (1) 
{"is_sidechain": false}

$$$$

     RDKit          3D

 41 43  0  0  0  0  0  0  0  0999 V2000
   11.4280   -1.2700  -56.3230 O   0  0  0  0  0  0  0  0  0  0  0  0
   11.2950   -2.3710  -55.7810 C   0  0  0  0  0  0  0  0  0  0  0  0
   10.6470   -2.4530  -54.4860 C   0  0  0  0  0  0  0  0  0  0  0  0
    9.3620   -2.3970  -54.1870 N   0  0  0  0  0  0  0  0  0  0  0  0
    9.3410   -2.5060  -52.8190 C   0  0  0  0  0  0  0  0  0  0  0  0
    8.0600   -2.4960  -52.0420 C   0  0  0  0  0  0  0  0  0  0  0  0
    7.0380   -3.4810  -52.6440 C   0  0  0  0  0  0  0  0  0  0  0  0
    5.9640   -3.8590  -51.6320 C   0  0  0  0  0  0  0  0  0  0  0  0
    6.5570   -4.5650  -50.4110 C   0  0  0  0  0  0  0  0  0  0  0  0
    7.9970   -4.1500  -50.1040 C   0  0  0  0  0  0  0  0  0  0  0  0
    8.2810   -2.7140  -50.5310 C   0  0  0  0  0  0  0  0  0  0  0  0
   10.5480   -2.6220  -52.2490 N   0  0  0  0  0  0  0  0  0  0  0  0
   11.3540   -2.5760  -53.3230 N   0  0  0  0  0  0  0  0  0  0  0  0
   11.7540   -3.5360  -56.4100 N   0  0  0  0  0  0  0  0  0  0  0  0
   12.2590   -3.4450  -57.7780 C   0  0  0  0  0  0  0  0  0  0  0  0
   11.8360   -4.6590  -58.6000 C   0  0  0  0  0  0  0  0  0  0  0  0
   12.3050   -5.9760  -57.9810 C   0  0  0  0  0  0  0  0  0  0  0  0
   12.6850   -5.8430  -56.5090 C   0  0  0  0  0  0  0  0  0  0  0  0
   11.7880   -4.8540  -55.7700 C   0  0  0  0  0  0  0  0  0  0  0  0
    7.6301   -1.4875  -52.1323 H   0  0  0  0  0  0  0  0  0  0  0  0
    6.5586   -3.0106  -53.5151 H   0  0  0  0  0  0  0  0  0  0  0  0
    7.5726   -4.3963  -52.9380 H   0  0  0  0  0  0  0  0  0  0  0  0
    5.4501   -2.9448  -51.3000 H   0  0  0  0  0  0  0  0  0  0  0  0
    5.2627   -4.5517  -52.1203 H   0  0  0  0  0  0  0  0  0  0  0  0
    5.9331   -4.3298  -49.5361 H   0  0  0  0  0  0  0  0  0  0  0  0
    6.5722   -5.6416  -50.6362 H   0  0  0  0  0  0  0  0  0  0  0  0
    8.1691   -4.2392  -49.0212 H   0  0  0  0  0  0  0  0  0  0  0  0
    8.6693   -4.8119  -50.6696 H   0  0  0  0  0  0  0  0  0  0  0  0
    7.6115   -2.0411  -49.9752 H   0  0  0  0  0  0  0  0  0  0  0  0
    9.3379   -2.5015  -50.3122 H   0  0  0  0  0  0  0  0  0  0  0  0
   12.3610   -2.6290  -53.2130 H   0  0  0  0  0  0  0  0  0  0  0  0
   11.8592   -2.5349  -58.2490 H   0  0  0  0  0  0  0  0  0  0  0  0
   13.3579   -3.4110  -57.7439 H   0  0  0  0  0  0  0  0  0  0  0  0
   10.7383   -4.6729  -58.6698 H   0  0  0  0  0  0  0  0  0  0  0  0
   12.3027   -4.5705  -59.5922 H   0  0  0  0  0  0  0  0  0  0  0  0
   11.4927   -6.7126  -58.0678 H   0  0  0  0  0  0  0  0  0  0  0  0
   13.2070   -6.2919  -58.5257 H   0  0  0  0  0  0  0  0  0  0  0  0
   12.5959   -6.8290  -56.0295 H   0  0  0  0  0  0  0  0  0  0  0  0
   13.7171   -5.4658  -56.4591 H   0  0  0  0  0  0  0  0  0  0  0  0
   10.7655   -5.2586  -55.7424 H   0  0  0  0  0  0  0  0  0  0  0  0
   12.2000   -4.7224  -54.7586 H   0  0  0  0  0  0  0  0  0  0  0  0
  1  2  2  0
  2  3  1  0
  3  4  2  0
  4  5  1  0
  5  6  1  0
  6  7  1  0
  7  8  1  0
  8  9  1  0
  9 10  1  0
 10 11  1  0
  5 12  2  0
 12 13  1  0
  2 14  1  0
 14 15  1  0
 15 16  1  0
 16 17  1  0
 17 18  1  0
 18 19  1  0
 13  3  1  0
 19 14  1  0
 11  6  1  0
  6 20  1  0
  7 21  1  0
  7 22  1  0
  8 23  1  0
  8 24  1  0
  9 25  1  0
  9 26  1  0
 10 27  1  0
 10 28  1  0
 11 29  1  0
 11 30  1  0
 13 31  1  0
 15 32  1  0
 15 33  1  0
 16 34  1  0
 16 35  1  0
 17 36  1  0
 17 37  1  0
 18 38  1  0
 18 39  1  0
 19 40  1  0
 19 41  1  0
M  END
>  <meeko>  (2) 
{"is_sidechain": false}

$$$$

     RDKit          3D

 41 43  0  0  0  0  0  0  0  0999 V2000
    6.8310    2.6730  -63.1680 O   0  0  0  0  0  0  0  0  0  0  0  0
    6.6240    2.6460  -61.9510 C   0  0  0  0  0  0  0  0  0  0  0  0
    7.6180    3.2070  -61.0010 C   0  0  0  0  0  0  0  0  0  0  0  0
    7.3070    3.8780  -59.8710 N   0  0  0  0  0  0  0  0  0  0  0  0
    8.5120    4.2500  -59.4180 N   0  0  0  0  0  0  0  0  0  0  0  0
    9.5150    3.8180  -60.2360 C   0  0  0  0  0  0  0  0  0  0  0  0
   10.9590    4.0950  -59.9770 C   0  0  0  0  0  0  0  0  0  0  0  0
   11.4420    3.3450  -58.7210 C   0  0  0  0  0  0  0  0  0  0  0  0
   12.6270    4.0190  -58.0230 C   0  0  0  0  0  0  0  0  0  0  0  0
   13.4990    4.7940  -59.0020 C   0  0  0  0  0  0  0  0  0  0  0  0
   12.7160    5.9040  -59.7050 C   0  0  0  0  0  0  0  0  0  0  0  0
   11.2240    5.5990  -59.8590 C   0  0  0  0  0  0  0  0  0  0  0  0
    8.9820    3.1670  -61.2450 N   0  0  0  0  0  0  0  0  0  0  0  0
    5.4230    2.1080  -61.4550 N   0  0  0  0  0  0  0  0  0  0  0  0
    4.3980    1.7460  -62.4280 C   0  0  0  0  0  0  0  0  0  0  0  0
    3.0870    1.3010  -61.7790 C   0  0  0  0  0  0  0  0  0  0  0  0
    2.7530    2.1640  -60.5650 C   0  0  0  0  0  0  0  0  0  0  0  0
    3.8940    2.1950  -59.5400 C   0  0  0  0  0  0  0  0  0  0  0  0
    5.2070    1.6440  -60.0900 C   0  0  0  0  0  0  0  0  0  0  0  0
    8.5770    4.7900  -58.5640 H   0  0  0  0  0  0  0  0  0  0  0  0
   11.5347    3.7243  -60.8379 H   0  0  0  0  0  0  0  0  0  0  0  0
   10.6062    3.2858  -58.0083 H   0  0  0  0  0  0  0  0  0  0  0  0
   11.7828    2.3519  -59.0490 H   0  0  0  0  0  0  0  0  0  0  0  0
   12.2426    4.7143  -57.2622 H   0  0  0  0  0  0  0  0  0  0  0  0
   13.2451    3.2321  -57.5661 H   0  0  0  0  0  0  0  0  0  0  0  0
   14.3384    5.2441  -58.4518 H   0  0  0  0  0  0  0  0  0  0  0  0
   13.8594    4.0920  -59.7683 H   0  0  0  0  0  0  0  0  0  0  0  0
   12.8231    6.8292  -59.1198 H   0  0  0  0  0  0  0  0  0  0  0  0
   13.1319    5.9994  -60.7189 H   0  0  0  0  0  0  0  0  0  0  0  0
   10.6889    5.9867  -58.9796 H   0  0  0  0  0  0  0  0  0  0  0  0
   10.8704    6.0815  -60.7821 H   0  0  0  0  0  0  0  0  0  0  0  0
    4.1949    2.6199  -63.0644 H   0  0  0  0  0  0  0  0  0  0  0  0
    4.7825    0.8947  -63.0089 H   0  0  0  0  0  0  0  0  0  0  0  0
    2.2744    1.3872  -62.5154 H   0  0  0  0  0  0  0  0  0  0  0  0
    3.1987    0.2586  -61.4460 H   0  0  0  0  0  0  0  0  0  0  0  0
    2.5552    3.1912  -60.9051 H   0  0  0  0  0  0  0  0  0  0  0  0
    1.8715    1.7263  -60.0737 H   0  0  0  0  0  0  0  0  0  0  0  0
    4.0553    3.2371  -59.2269 H   0  0  0  0  0  0  0  0  0  0  0  0
    3.5960    1.5536  -58.6975 H   0  0  0  0  0  0  0  0  0  0  0  0
    6.0376    1.9867  -59.4554 H   0  0  0  0  0  0  0  0  0  0  0  0
    5.1592    0.5450  -60.0910 H   0  0  0  0  0  0  0  0  0  0  0  0
  1  2  2  0
  2  3  1  0
  3  4  2  0
  4  5  1  0
  5  6  1  0
  6  7  1  0
  7  8  1  0
  8  9  1  0
  9 10  1  0
 10 11  1  0
 11 12  1  0
  6 13  2  0
  2 14  1  0
 14 15  1  0
 15 16  1  0
 16 17  1  0
 17 18  1  0
 18 19  1  0
 13  3  1  0
 19 14  1  0
 12  7  1  0
  5 20  1  0
  7 21  1  0
  8 22  1  0
  8 23  1  0
  9 24  1  0
  9 25  1  0
 10 26  1  0
 10 27  1  0
 11 28  1  0
 11 29  1  0
 12 30  1  0
 12 31  1  0
 15 32  1  0
 15 33  1  0
 16 34  1  0
 16 35  1  0
 17 36  1  0
 17 37  1  0
 18 38  1  0
 18 39  1  0
 19 40  1  0
 19 41  1  0
M  END
>  <meeko>  (3) 
{"is_sidechain": false}

$$$$

     RDKit          3D

 38 40  0  0  0  0  0  0  0  0999 V2000
    6.5960   -2.6490  -54.3300 O   0  0  0  0  0  0  0  0  0  0  0  0
    7.6700   -2.6630  -53.7210 C   0  0  0  0  0  0  0  0  0  0  0  0
    8.9060   -2.3850  -54.4220 C   0  0  0  0  0  0  0  0  0  0  0  0
    9.4620   -1.2160  -54.6680 N   0  0  0  0  0  0  0  0  0  0  0  0
   10.6350   -1.4290  -55.3530 N   0  0  0  0  0  0  0  0  0  0  0  0
   10.7840   -2.7280  -55.5120 C   0  0  0  0  0  0  0  0  0  0  0  0
   11.9070   -3.4490  -56.1890 C   0  0  0  0  0  0  0  0  0  0  0  0
   11.6960   -3.4450  -57.7150 C   0  0  0  0  0  0  0  0  0  0  0  0
   12.4310   -4.5980  -58.3850 C   0  0  0  0  0  0  0  0  0  0  0  0
   11.9240   -5.9550  -57.8950 C   0  0  0  0  0  0  0  0  0  0  0  0
   11.3900   -5.9270  -56.4620 C   0  0  0  0  0  0  0  0  0  0  0  0
   12.0870   -4.8680  -55.6140 C   0  0  0  0  0  0  0  0  0  0  0  0
    9.7180   -3.3630  -54.9370 N   0  0  0  0  0  0  0  0  0  0  0  0
    7.7030   -2.9460  -52.3650 N   0  0  0  0  0  0  0  0  0  0  0  0
    8.8620   -2.9390  -51.4830 C   0  0  0  0  0  0  0  0  0  0  0  0
    8.2770   -3.0800  -50.0830 C   0  0  0  0  0  0  0  0  0  0  0  0
    6.9960   -3.8670  -50.3230 C   0  0  0  0  0  0  0  0  0  0  0  0
    6.4950   -3.2980  -51.6420 C   0  0  0  0  0  0  0  0  0  0  0  0
   12.8481   -2.9165  -55.9873 H   0  0  0  0  0  0  0  0  0  0  0  0
   10.6205   -3.5359  -57.9270 H   0  0  0  0  0  0  0  0  0  0  0  0
   12.0968   -2.5021  -58.1155 H   0  0  0  0  0  0  0  0  0  0  0  0
   12.2797   -4.5328  -59.4726 H   0  0  0  0  0  0  0  0  0  0  0  0
   13.4979   -4.5185  -58.1291 H   0  0  0  0  0  0  0  0  0  0  0  0
   11.1139   -6.2852  -58.5618 H   0  0  0  0  0  0  0  0  0  0  0  0
   12.7817   -6.6437  -57.9067 H   0  0  0  0  0  0  0  0  0  0  0  0
   10.3123   -5.7081  -56.4886 H   0  0  0  0  0  0  0  0  0  0  0  0
   11.5849   -6.9094  -56.0071 H   0  0  0  0  0  0  0  0  0  0  0  0
   11.6660   -4.8944  -54.5981 H   0  0  0  0  0  0  0  0  0  0  0  0
   13.1632   -5.0954  -55.6079 H   0  0  0  0  0  0  0  0  0  0  0  0
    9.5380   -4.3550  -54.8830 H   0  0  0  0  0  0  0  0  0  0  0  0
    9.5300   -3.7824  -51.7120 H   0  0  0  0  0  0  0  0  0  0  0  0
    9.4664   -2.0266  -51.5938 H   0  0  0  0  0  0  0  0  0  0  0  0
    8.9618   -3.6319  -49.4224 H   0  0  0  0  0  0  0  0  0  0  0  0
    8.1047   -2.1137  -49.5865 H   0  0  0  0  0  0  0  0  0  0  0  0
    7.2025   -4.9440  -50.4087 H   0  0  0  0  0  0  0  0  0  0  0  0
    6.2677   -3.7752  -49.5037 H   0  0  0  0  0  0  0  0  0  0  0  0
    5.9154   -4.0512  -52.1958 H   0  0  0  0  0  0  0  0  0  0  0  0
    5.8253   -2.4370  -51.4999 H   0  0  0  0  0  0  0  0  0  0  0  0
  1  2  2  0
  2  3  1  0
  3  4  2  0
  4  5  1  0
  5  6  2  0
  6  7  1  0
  7  8  1  0
  8  9  1  0
  9 10  1  0
 10 11  1  0
 11 12  1  0
  6 13  1  0
  2 14  1  0
 14 15  1  0
 15 16  1  0
 16 17  1  0
 17 18  1  0
 13  3  1  0
 18 14  1  0
 12  7  1  0
  7 19  1  0
  8 20  1  0
  8 21  1  0
  9 22  1  0
  9 23  1  0
 10 24  1  0
 10 25  1  0
 11 26  1  0
 11 27  1  0
 12 28  1  0
 12 29  1  0
 13 30  1  0
 15 31  1  0
 15 32  1  0
 16 33  1  0
 16 34  1  0
 17 35  1  0
 17 36  1  0
 18 37  1  0
 18 38  1  0
M  END
>  <meeko>  (4) 
{"is_sidechain": false}

$$$$

     RDKit          3D

 38 40  0  0  0  0  0  0  0  0999 V2000
    6.4450   -2.5730  -54.1730 O   0  0  0  0  0  0  0  0  0  0  0  0
    7.5310   -2.6860  -53.6010 C   0  0  0  0  0  0  0  0  0  0  0  0
    8.7660   -2.5900  -54.3500 C   0  0  0  0  0  0  0  0  0  0  0  0
    9.4840   -3.5550  -54.8950 N   0  0  0  0  0  0  0  0  0  0  0  0
   10.5300   -2.8870  -55.4810 C   0  0  0  0  0  0  0  0  0  0  0  0
   11.6200   -3.5910  -56.2230 C   0  0  0  0  0  0  0  0  0  0  0  0
   12.1020   -4.8410  -55.4610 C   0  0  0  0  0  0  0  0  0  0  0  0
   12.7110   -5.9160  -56.3650 C   0  0  0  0  0  0  0  0  0  0  0  0
   13.3620   -5.3160  -57.6030 C   0  0  0  0  0  0  0  0  0  0  0  0
   12.3540   -4.5470  -58.4580 C   0  0  0  0  0  0  0  0  0  0  0  0
   11.1970   -3.9490  -57.6540 C   0  0  0  0  0  0  0  0  0  0  0  0
   10.5010   -1.5570  -55.3300 N   0  0  0  0  0  0  0  0  0  0  0  0
    9.3730   -1.3970  -54.6170 N   0  0  0  0  0  0  0  0  0  0  0  0
    7.5840   -2.9120  -52.2340 N   0  0  0  0  0  0  0  0  0  0  0  0
    6.3740   -3.0860  -51.4520 C   0  0  0  0  0  0  0  0  0  0  0  0
    6.8580   -3.6530  -50.1270 C   0  0  0  0  0  0  0  0  0  0  0  0
    8.2320   -3.0150  -49.9710 C   0  0  0  0  0  0  0  0  0  0  0  0
    8.7720   -3.0030  -51.3960 C   0  0  0  0  0  0  0  0  0  0  0  0
   12.4653   -2.8908  -56.2942 H   0  0  0  0  0  0  0  0  0  0  0  0
   12.8629   -4.5302  -54.7299 H   0  0  0  0  0  0  0  0  0  0  0  0
   11.2175   -5.2867  -54.9824 H   0  0  0  0  0  0  0  0  0  0  0  0
   13.4725   -6.4694  -55.7958 H   0  0  0  0  0  0  0  0  0  0  0  0
   11.9004   -6.5820  -56.6956 H   0  0  0  0  0  0  0  0  0  0  0  0
   14.1599   -4.6276  -57.2876 H   0  0  0  0  0  0  0  0  0  0  0  0
   13.7673   -6.1394  -58.2095 H   0  0  0  0  0  0  0  0  0  0  0  0
   12.8833   -3.7280  -58.9670 H   0  0  0  0  0  0  0  0  0  0  0  0
   11.9165   -5.2667  -59.1655 H   0  0  0  0  0  0  0  0  0  0  0  0
   10.8462   -3.0374  -58.1598 H   0  0  0  0  0  0  0  0  0  0  0  0
   10.3975   -4.7022  -57.5950 H   0  0  0  0  0  0  0  0  0  0  0  0
    9.0660   -0.4700  -54.3420 H   0  0  0  0  0  0  0  0  0  0  0  0
    5.8664   -2.1219  -51.3006 H   0  0  0  0  0  0  0  0  0  0  0  0
    5.6452   -3.7437  -51.9482 H   0  0  0  0  0  0  0  0  0  0  0  0
    6.1897   -3.3617  -49.3032 H   0  0  0  0  0  0  0  0  0  0  0  0
    6.8826   -4.7525  -50.1059 H   0  0  0  0  0  0  0  0  0  0  0  0
    8.1498   -1.9935  -49.5713 H   0  0  0  0  0  0  0  0  0  0  0  0
    8.8820   -3.5554  -49.2671 H   0  0  0  0  0  0  0  0  0  0  0  0
    9.4284   -2.1349  -51.5560 H   0  0  0  0  0  0  0  0  0  0  0  0
    9.3769   -3.8935  -51.6222 H   0  0  0  0  0  0  0  0  0  0  0  0
  1  2  2  0
  2  3  1  0
  3  4  2  0
  4  5  1  0
  5  6  1  0
  6  7  1  0
  7  8  1  0
  8  9  1  0
  9 10  1  0
 10 11  1  0
  5 12  2  0
 12 13  1  0
  2 14  1  0
 14 15  1  0
 15 16  1  0
 16 17  1  0
 17 18  1  0
 13  3  1  0
 18 14  1  0
 11  6  1  0
  6 19  1  0
  7 20  1  0
  7 21  1  0
  8 22  1  0
  8 23  1  0
  9 24  1  0
  9 25  1  0
 10 26  1  0
 10 27  1  0
 11 28  1  0
 11 29  1  0
 13 30  1  0
 15 31  1  0
 15 32  1  0
 16 33  1  0
 16 34  1  0
 17 35  1  0
 17 36  1  0
 18 37  1  0
 18 38  1  0
M  END
>  <meeko>  (5) 
{"is_sidechain": false}

$$$$

     RDKit          3D

 38 40  0  0  0  0  0  0  0  0999 V2000
    6.3380   -2.6090  -54.1410 O   0  0  0  0  0  0  0  0  0  0  0  0
    7.4350   -2.6640  -53.5760 C   0  0  0  0  0  0  0  0  0  0  0  0
    8.6980   -2.4410  -54.3340 C   0  0  0  0  0  0  0  0  0  0  0  0
    9.2850   -1.2450  -54.5540 N   0  0  0  0  0  0  0  0  0  0  0  0
   10.3850   -1.5840  -55.2400 N   0  0  0  0  0  0  0  0  0  0  0  0
   10.4680   -2.9310  -55.4320 C   0  0  0  0  0  0  0  0  0  0  0  0
   11.5810   -3.6110  -56.1630 C   0  0  0  0  0  0  0  0  0  0  0  0
   11.1850   -3.9840  -57.5960 C   0  0  0  0  0  0  0  0  0  0  0  0
   12.3740   -4.5400  -58.3860 C   0  0  0  0  0  0  0  0  0  0  0  0
   13.4000   -5.2700  -57.5170 C   0  0  0  0  0  0  0  0  0  0  0  0
   12.7600   -5.8880  -56.2820 C   0  0  0  0  0  0  0  0  0  0  0  0
   12.1020   -4.8340  -55.3870 C   0  0  0  0  0  0  0  0  0  0  0  0
    9.4240   -3.4960  -54.8720 N   0  0  0  0  0  0  0  0  0  0  0  0
    7.4900   -2.9430  -52.2110 N   0  0  0  0  0  0  0  0  0  0  0  0
    8.6540   -2.9340  -51.3380 C   0  0  0  0  0  0  0  0  0  0  0  0
    8.0740   -2.9940  -49.9290 C   0  0  0  0  0  0  0  0  0  0  0  0
    6.7670   -3.7500  -50.1270 C   0  0  0  0  0  0  0  0  0  0  0  0
    6.2770   -3.2250  -51.4670 C   0  0  0  0  0  0  0  0  0  0  0  0
   11.0260   -0.8590  -55.5420 H   0  0  0  0  0  0  0  0  0  0  0  0
   12.4059   -2.8869  -56.2352 H   0  0  0  0  0  0  0  0  0  0  0  0
   10.3931   -4.7466  -57.5599 H   0  0  0  0  0  0  0  0  0  0  0  0
   10.8326   -3.0733  -58.1024 H   0  0  0  0  0  0  0  0  0  0  0  0
   11.9919   -5.2449  -59.1391 H   0  0  0  0  0  0  0  0  0  0  0  0
   12.8893   -3.6808  -58.8401 H   0  0  0  0  0  0  0  0  0  0  0  0
   13.8671   -6.0681  -58.1127 H   0  0  0  0  0  0  0  0  0  0  0  0
   14.1477   -4.5358  -57.1825 H   0  0  0  0  0  0  0  0  0  0  0  0
   11.9941   -6.6095  -56.6026 H   0  0  0  0  0  0  0  0  0  0  0  0
   13.5526   -6.3805  -55.6996 H   0  0  0  0  0  0  0  0  0  0  0  0
   11.2550   -5.3012  -54.8633 H   0  0  0  0  0  0  0  0  0  0  0  0
   12.8732   -4.4722  -54.6911 H   0  0  0  0  0  0  0  0  0  0  0  0
    9.2932   -3.8077  -51.5330 H   0  0  0  0  0  0  0  0  0  0  0  0
    9.2866   -2.0475  -51.4929 H   0  0  0  0  0  0  0  0  0  0  0  0
    8.7456   -3.5375  -49.2481 H   0  0  0  0  0  0  0  0  0  0  0  0
    7.9357   -2.0016  -49.4751 H   0  0  0  0  0  0  0  0  0  0  0  0
    6.9387   -4.8358  -50.1652 H   0  0  0  0  0  0  0  0  0  0  0  0
    6.0470   -3.5988  -49.3092 H   0  0  0  0  0  0  0  0  0  0  0  0
    5.6711   -3.9837  -51.9840 H   0  0  0  0  0  0  0  0  0  0  0  0
    5.6357   -2.3377  -51.3599 H   0  0  0  0  0  0  0  0  0  0  0  0
  1  2  2  0
  2  3  1  0
  3  4  2  0
  4  5  1  0
  5  6  1  0
  6  7  1  0
  7  8  1  0
  8  9  1  0
  9 10  1  0
 10 11  1  0
 11 12  1  0
  6 13  2  0
  2 14  1  0
 14 15  1  0
 15 16  1  0
 16 17  1  0
 17 18  1  0
 13  3  1  0
 18 14  1  0
 12  7  1  0
  5 19  1  0
  7 20  1  0
  8 21  1  0
  8 22  1  0
  9 23  1  0
  9 24  1  0
 10 25  1  0
 10 26  1  0
 11 27  1  0
 11 28  1  0
 12 29  1  0
 12 30  1  0
 15 31  1  0
 15 32  1  0
 16 33  1  0
 16 34  1  0
 17 35  1  0
 17 36  1  0
 18 37  1  0
 18 38  1  0
M  END
>  <meeko>  (6) 
{"is_sidechain": false}

$$$$

     RDKit          3D

 44 46  0  0  0  0  0  0  0  0999 V2000
    8.4770    4.6980  -56.4840 O   0  0  0  0  0  0  0  0  0  0  0  0
    8.4510    4.1300  -57.5720 C   0  0  0  0  0  0  0  0  0  0  0  0
    9.4610    4.2270  -58.5040 N   0  0  0  0  0  0  0  0  0  0  0  0
   10.5860    5.1370  -58.3590 C   0  0  0  0  0  0  0  0  0  0  0  0
   11.7050    4.4820  -57.5310 C   0  0  0  0  0  0  0  0  0  0  0  0
   12.7330    3.7860  -58.4160 C   0  0  0  0  0  0  0  0  0  0  0  0
   13.4150    4.7670  -59.3730 C   0  0  0  0  0  0  0  0  0  0  0  0
   12.5440    5.9680  -59.7420 C   0  0  0  0  0  0  0  0  0  0  0  0
   11.0640    5.6090  -59.7440 C   0  0  0  0  0  0  0  0  0  0  0  0
    7.3460    3.3050  -57.9920 C   0  0  0  0  0  0  0  0  0  0  0  0
    6.5300    2.6490  -57.1910 N   0  0  0  0  0  0  0  0  0  0  0  0
    5.6210    1.9770  -57.9760 N   0  0  0  0  0  0  0  0  0  0  0  0
    5.8990    2.2340  -59.2380 C   0  0  0  0  0  0  0  0  0  0  0  0
    5.1910    1.7310  -60.4540 C   0  0  0  0  0  0  0  0  0  0  0  0
    3.6730    1.9150  -60.3130 C   0  0  0  0  0  0  0  0  0  0  0  0
    2.9320    1.4540  -61.5660 C   0  0  0  0  0  0  0  0  0  0  0  0
    3.4590    2.1460  -62.8190 C   0  0  0  0  0  0  0  0  0  0  0  0
    4.9680    1.9700  -62.9660 C   0  0  0  0  0  0  0  0  0  0  0  0
    5.7140    2.4330  -61.7160 C   0  0  0  0  0  0  0  0  0  0  0  0
    6.9830    3.0670  -59.2880 N   0  0  0  0  0  0  0  0  0  0  0  0
    9.2660    3.8100  -59.4110 H   0  0  0  0  0  0  0  0  0  0  0  0
   10.2683    6.0324  -57.8046 H   0  0  0  0  0  0  0  0  0  0  0  0
   12.2120    5.2592  -56.9404 H   0  0  0  0  0  0  0  0  0  0  0  0
   11.2475    3.7239  -56.8784 H   0  0  0  0  0  0  0  0  0  0  0  0
   13.4982    3.3223  -57.7761 H   0  0  0  0  0  0  0  0  0  0  0  0
   12.2096    3.0285  -59.0179 H   0  0  0  0  0  0  0  0  0  0  0  0
   14.3336    5.1376  -58.8947 H   0  0  0  0  0  0  0  0  0  0  0  0
   13.6200    4.2190  -60.3045 H   0  0  0  0  0  0  0  0  0  0  0  0
   12.7153    6.7712  -59.0102 H   0  0  0  0  0  0  0  0  0  0  0  0
   12.8199    6.2940  -60.7557 H   0  0  0  0  0  0  0  0  0  0  0  0
   10.4833    6.4960  -60.0374 H   0  0  0  0  0  0  0  0  0  0  0  0
   10.9143    4.7838  -60.4558 H   0  0  0  0  0  0  0  0  0  0  0  0
    5.3962    0.6548  -60.5528 H   0  0  0  0  0  0  0  0  0  0  0  0
    3.3205    1.3266  -59.4530 H   0  0  0  0  0  0  0  0  0  0  0  0
    3.4684    2.9859  -60.1668 H   0  0  0  0  0  0  0  0  0  0  0  0
    3.0617    0.3674  -61.6775 H   0  0  0  0  0  0  0  0  0  0  0  0
    1.8694    1.7142  -61.4515 H   0  0  0  0  0  0  0  0  0  0  0  0
    2.9619    1.7151  -63.7006 H   0  0  0  0  0  0  0  0  0  0  0  0
    3.2449    3.2216  -62.7336 H   0  0  0  0  0  0  0  0  0  0  0  0
    5.1879    0.9062  -63.1391 H   0  0  0  0  0  0  0  0  0  0  0  0
    5.3044    2.5845  -63.8141 H   0  0  0  0  0  0  0  0  0  0  0  0
    6.7838    2.2056  -61.8338 H   0  0  0  0  0  0  0  0  0  0  0  0
    5.5533    3.5150  -61.5999 H   0  0  0  0  0  0  0  0  0  0  0  0
    7.4420    3.4460  -60.1050 H   0  0  0  0  0  0  0  0  0  0  0  0
  1  2  2  0
  2  3  1  0
  3  4  1  0
  4  5  1  0
  5  6  1  0
  6  7  1  0
  7  8  1  0
  8  9  1  0
  2 10  1  0
 10 11  2  0
 11 12  1  0
 12 13  2  0
 13 14  1  0
 14 15  1  0
 15 16  1  0
 16 17  1  0
 17 18  1  0
 18 19  1  0
 13 20  1  0
  9  4  1  0
 20 10  1  0
 19 14  1  0
  3 21  1  0
  4 22  1  0
  5 23  1  0
  5 24  1  0
  6 25  1  0
  6 26  1  0
  7 27  1  0
  7 28  1  0
  8 29  1  0
  8 30  1  0
  9 31  1  0
  9 32  1  0
 14 33  1  0
 15 34  1  0
 15 35  1  0
 16 36  1  0
 16 37  1  0
 17 38  1  0
 17 39  1  0
 18 40  1  0
 18 41  1  0
 19 42  1  0
 19 43  1  0
 20 44  1  0
M  END
>  <meeko>  (7) 
{"is_sidechain": false}

$$$$

     RDKit          3D

 44 46  0  0  0  0  0  0  0  0999 V2000
    8.0230   -0.2560  -53.4430 O   0  0  0  0  0  0  0  0  0  0  0  0
    8.5350   -1.3580  -53.6230 C   0  0  0  0  0  0  0  0  0  0  0  0
    8.1320   -2.4760  -52.8990 N   0  0  0  0  0  0  0  0  0  0  0  0
    7.1220   -2.3600  -51.8450 C   0  0  0  0  0  0  0  0  0  0  0  0
    7.7930   -2.0990  -50.4920 C   0  0  0  0  0  0  0  0  0  0  0  0
    8.6550   -3.2710  -50.0140 C   0  0  0  0  0  0  0  0  0  0  0  0
    8.1510   -4.6350  -50.4880 C   0  0  0  0  0  0  0  0  0  0  0  0
    6.6470   -4.6330  -50.7160 C   0  0  0  0  0  0  0  0  0  0  0  0
    6.2230   -3.6120  -51.7780 C   0  0  0  0  0  0  0  0  0  0  0  0
    9.5960   -1.6140  -54.5730 C   0  0  0  0  0  0  0  0  0  0  0  0
   10.0850   -2.8000  -54.8830 N   0  0  0  0  0  0  0  0  0  0  0  0
   11.0580   -2.5220  -55.8070 C   0  0  0  0  0  0  0  0  0  0  0  0
   11.8770   -3.6010  -56.4420 C   0  0  0  0  0  0  0  0  0  0  0  0
   11.4500   -3.8640  -57.8950 C   0  0  0  0  0  0  0  0  0  0  0  0
   12.2890   -4.9660  -58.5390 C   0  0  0  0  0  0  0  0  0  0  0  0
   12.2610   -6.2480  -57.7130 C   0  0  0  0  0  0  0  0  0  0  0  0
   12.6860   -5.9980  -56.2700 C   0  0  0  0  0  0  0  0  0  0  0  0
   11.8490   -4.8990  -55.6180 C   0  0  0  0  0  0  0  0  0  0  0  0
   11.2040   -1.2190  -56.0860 N   0  0  0  0  0  0  0  0  0  0  0  0
   10.2910   -0.6700  -55.2710 N   0  0  0  0  0  0  0  0  0  0  0  0
    8.8070   -3.2220  -52.8020 H   0  0  0  0  0  0  0  0  0  0  0  0
    6.4752   -1.5047  -52.0901 H   0  0  0  0  0  0  0  0  0  0  0  0
    8.4324   -1.2086  -50.5841 H   0  0  0  0  0  0  0  0  0  0  0  0
    6.9929   -1.9560  -49.7508 H   0  0  0  0  0  0  0  0  0  0  0  0
    9.6778   -3.1275  -50.3925 H   0  0  0  0  0  0  0  0  0  0  0  0
    8.6124   -3.2755  -48.9148 H   0  0  0  0  0  0  0  0  0  0  0  0
    8.6539   -4.8922  -51.4319 H   0  0  0  0  0  0  0  0  0  0  0  0
    8.3774   -5.3742  -49.7055 H   0  0  0  0  0  0  0  0  0  0  0  0
    6.3374   -5.6358  -51.0454 H   0  0  0  0  0  0  0  0  0  0  0  0
    6.1624   -4.3551  -49.7684 H   0  0  0  0  0  0  0  0  0  0  0  0
    6.2458   -4.1062  -52.7604 H   0  0  0  0  0  0  0  0  0  0  0  0
    5.2171   -3.2648  -51.4993 H   0  0  0  0  0  0  0  0  0  0  0  0
   12.9156   -3.2390  -56.4605 H   0  0  0  0  0  0  0  0  0  0  0  0
   10.3928   -4.1678  -57.9066 H   0  0  0  0  0  0  0  0  0  0  0  0
   11.6001   -2.9382  -58.4697 H   0  0  0  0  0  0  0  0  0  0  0  0
   11.8900   -5.1786  -59.5418 H   0  0  0  0  0  0  0  0  0  0  0  0
   13.3304   -4.6164  -58.5967 H   0  0  0  0  0  0  0  0  0  0  0  0
   11.2384   -6.6534  -57.7184 H   0  0  0  0  0  0  0  0  0  0  0  0
   12.9695   -6.9603  -58.1609 H   0  0  0  0  0  0  0  0  0  0  0  0
   12.5631   -6.9281  -55.6957 H   0  0  0  0  0  0  0  0  0  0  0  0
   13.7369   -5.6732  -56.2729 H   0  0  0  0  0  0  0  0  0  0  0  0
   10.8085   -5.2456  -55.5335 H   0  0  0  0  0  0  0  0  0  0  0  0
   12.2742   -4.6858  -54.6262 H   0  0  0  0  0  0  0  0  0  0  0  0
   10.2060    0.3390  -55.2260 H   0  0  0  0  0  0  0  0  0  0  0  0
  1  2  2  0
  2  3  1  0
  3  4  1  0
  4  5  1  0
  5  6  1  0
  6  7  1  0
  7  8  1  0
  8  9  1  0
  2 10  1  0
 10 11  2  0
 11 12  1  0
 12 13  1  0
 13 14  1  0
 14 15  1  0
 15 16  1  0
 16 17  1  0
 17 18  1  0
 12 19  2  0
 19 20  1  0
  9  4  1  0
 20 10  1  0
 18 13  1  0
  3 21  1  0
  4 22  1  0
  5 23  1  0
  5 24  1  0
  6 25  1  0
  6 26  1  0
  7 27  1  0
  7 28  1  0
  8 29  1  0
  8 30  1  0
  9 31  1  0
  9 32  1  0
 13 33  1  0
 14 34  1  0
 14 35  1  0
 15 36  1  0
 15 37  1  0
 16 38  1  0
 16 39  1  0
 17 40  1  0
 17 41  1  0
 18 42  1  0
 18 43  1  0
 20 44  1  0
M  END
>  <meeko>  (8) 
{"is_sidechain": false}

$$$$

     RDKit          3D

 44 46  0  0  0  0  0  0  0  0999 V2000
   11.3000   -0.9850  -55.8240 O   0  0  0  0  0  0  0  0  0  0  0  0
   10.6380   -1.7820  -55.1630 C   0  0  0  0  0  0  0  0  0  0  0  0
   10.8370   -3.1530  -55.2120 N   0  0  0  0  0  0  0  0  0  0  0  0
   11.7250   -3.7800  -56.1720 C   0  0  0  0  0  0  0  0  0  0  0  0
   12.2890   -5.0910  -55.6030 C   0  0  0  0  0  0  0  0  0  0  0  0
   12.7090   -6.0970  -56.6790 C   0  0  0  0  0  0  0  0  0  0  0  0
   13.1130   -5.4110  -57.9760 C   0  0  0  0  0  0  0  0  0  0  0  0
   11.9660   -4.5870  -58.5640 C   0  0  0  0  0  0  0  0  0  0  0  0
   11.0160   -4.0170  -57.5090 C   0  0  0  0  0  0  0  0  0  0  0  0
    9.5390   -1.4010  -54.2490 C   0  0  0  0  0  0  0  0  0  0  0  0
    8.9250   -0.2060  -54.2490 N   0  0  0  0  0  0  0  0  0  0  0  0
    8.0260   -0.3490  -53.2680 N   0  0  0  0  0  0  0  0  0  0  0  0
    8.0870   -1.5880  -52.6950 C   0  0  0  0  0  0  0  0  0  0  0  0
    7.2150   -2.0670  -51.5720 C   0  0  0  0  0  0  0  0  0  0  0  0
    6.3340   -3.2620  -51.9670 C   0  0  0  0  0  0  0  0  0  0  0  0
    7.0370   -4.6150  -51.8710 C   0  0  0  0  0  0  0  0  0  0  0  0
    7.7120   -4.8120  -50.5190 C   0  0  0  0  0  0  0  0  0  0  0  0
    8.6760   -3.6760  -50.1980 C   0  0  0  0  0  0  0  0  0  0  0  0
    7.9950   -2.3110  -50.2720 C   0  0  0  0  0  0  0  0  0  0  0  0
    9.0350   -2.2790  -53.2970 N   0  0  0  0  0  0  0  0  0  0  0  0
   10.1390   -3.7060  -54.7210 H   0  0  0  0  0  0  0  0  0  0  0  0
   12.5658   -3.0964  -56.3613 H   0  0  0  0  0  0  0  0  0  0  0  0
   13.1690   -4.8527  -54.9875 H   0  0  0  0  0  0  0  0  0  0  0  0
   11.4843   -5.5612  -55.0188 H   0  0  0  0  0  0  0  0  0  0  0  0
   13.5632   -6.6806  -56.3052 H   0  0  0  0  0  0  0  0  0  0  0  0
   11.8464   -6.7453  -56.8925 H   0  0  0  0  0  0  0  0  0  0  0  0
   13.9645   -4.7440  -57.7758 H   0  0  0  0  0  0  0  0  0  0  0  0
   13.3834   -6.1894  -58.7047 H   0  0  0  0  0  0  0  0  0  0  0  0
   12.3959   -3.7496  -59.1332 H   0  0  0  0  0  0  0  0  0  0  0  0
   11.3746   -5.2645  -59.1974 H   0  0  0  0  0  0  0  0  0  0  0  0
   10.6132   -3.0602  -57.8727 H   0  0  0  0  0  0  0  0  0  0  0  0
   10.2111   -4.7483  -57.3437 H   0  0  0  0  0  0  0  0  0  0  0  0
    7.4140    0.4280  -53.0510 H   0  0  0  0  0  0  0  0  0  0  0  0
    6.5233   -1.2388  -51.3587 H   0  0  0  0  0  0  0  0  0  0  0  0
    5.4581   -3.2800  -51.3018 H   0  0  0  0  0  0  0  0  0  0  0  0
    6.0628   -3.1201  -53.0236 H   0  0  0  0  0  0  0  0  0  0  0  0
    6.2937   -5.4127  -52.0166 H   0  0  0  0  0  0  0  0  0  0  0  0
    7.8150   -4.6500  -52.6479 H   0  0  0  0  0  0  0  0  0  0  0  0
    6.9389   -4.8547  -49.7377 H   0  0  0  0  0  0  0  0  0  0  0  0
    8.2873   -5.7488  -50.5568 H   0  0  0  0  0  0  0  0  0  0  0  0
    9.0708   -3.8215  -49.1817 H   0  0  0  0  0  0  0  0  0  0  0  0
    9.4838   -3.6941  -50.9444 H   0  0  0  0  0  0  0  0  0  0  0  0
    7.2939   -2.2289  -49.4283 H   0  0  0  0  0  0  0  0  0  0  0  0
    8.7945   -1.5563  -50.2363 H   0  0  0  0  0  0  0  0  0  0  0  0
  1  2  2  0
  2  3  1  0
  3  4  1  0
  4  5  1  0
  5  6  1  0
  6  7  1  0
  7  8  1  0
  8  9  1  0
  2 10  1  0
 10 11  2  0
 11 12  1  0
 12 13  1  0
 13 14  1  0
 14 15  1  0
 15 16  1  0
 16 17  1  0
 17 18  1  0
 18 19  1  0
 13 20  2  0
  9  4  1  0
 20 10  1  0
 19 14  1  0
  3 21  1  0
  4 22  1  0
  5 23  1  0
  5 24  1  0
  6 25  1  0
  6 26  1  0
  7 27  1  0
  7 28  1  0
  8 29  1  0
  8 30  1  0
  9 31  1  0
  9 32  1  0
 12 33  1  0
 14 34  1  0
 15 35  1  0
 15 36  1  0
 16 37  1  0
 16 38  1  0
 17 39  1  0
 17 40  1  0
 18 41  1  0
 18 42  1  0
 19 43  1  0
 19 44  1  0
M  END
>  <meeko>  (9) 
{"is_sidechain": false}

$$$$

     RDKit          3D

 43 47  0  0  0  0  0  0  0  0999 V2000
    7.4610    2.0360  -56.8530 O   0  0  0  0  0  0  0  0  0  0  0  0
    7.3470    2.4110  -58.0240 C   0  0  0  0  0  0  0  0  0  0  0  0
    6.0880    2.1980  -58.7120 C   0  0  0  0  0  0  0  0  0  0  0  0
    4.9050    2.7140  -58.4420 N   0  0  0  0  0  0  0  0  0  0  0  0
    4.0080    2.2560  -59.3810 N   0  0  0  0  0  0  0  0  0  0  0  0
    4.6640    1.4910  -60.2220 C   0  0  0  0  0  0  0  0  0  0  0  0
    4.0460    0.7940  -61.4580 C   0  0  0  0  0  0  0  0  0  0  0  0
    2.5440    1.0860  -61.6980 C   0  0  0  0  0  0  0  0  0  0  0  0
    2.8650    1.1050  -63.2060 C   0  0  0  0  0  0  0  0  0  0  0  0
    4.3060    1.4960  -62.8150 C   0  0  0  0  0  0  0  0  0  0  0  0
    5.9750    1.4420  -59.8510 N   0  0  0  0  0  0  0  0  0  0  0  0
    8.4250    3.0180  -58.6870 N   0  0  0  0  0  0  0  0  0  0  0  0
    9.6940    3.1580  -57.9470 C   0  0  1  0  0  0  0  0  0  0  0  0
   10.8750    3.0180  -58.9210 C   0  0  0  0  0  0  0  0  0  0  0  0
   10.7720    4.0920  -60.0160 C   0  0  2  0  0  0  0  0  0  0  0  0
   10.7860    5.4880  -59.3660 C   0  0  0  0  0  0  0  0  0  0  0  0
    9.6130    5.6310  -58.3800 C   0  0  1  0  0  0  0  0  0  0  0  0
    8.2870    5.4220  -59.1370 C   0  0  0  0  0  0  0  0  0  0  0  0
    8.2700    4.0150  -59.7710 C   0  0  1  0  0  0  0  0  0  0  0  0
    9.4420    3.8860  -60.7590 C   0  0  0  0  0  0  0  0  0  0  0  0
    9.7320    4.5490  -57.2890 C   0  0  0  0  0  0  0  0  0  0  0  0
    4.4193   -0.2181  -61.2430 H   0  0  0  0  0  0  0  0  0  0  0  0
    1.8632    0.2815  -61.3830 H   0  0  0  0  0  0  0  0  0  0  0  0
    2.0287    1.9225  -61.2033 H   0  0  0  0  0  0  0  0  0  0  0  0
    2.7727    0.1308  -63.7085 H   0  0  0  0  0  0  0  0  0  0  0  0
    2.2742    1.6986  -63.9192 H   0  0  0  0  0  0  0  0  0  0  0  0
    5.0914    1.0323  -63.4298 H   0  0  0  0  0  0  0  0  0  0  0  0
    4.6628    2.5349  -62.8733 H   0  0  0  0  0  0  0  0  0  0  0  0
    6.7360    0.9620  -60.3100 H   0  0  0  0  0  0  0  0  0  0  0  0
    9.7670    2.3764  -57.1764 H   0  0  0  0  0  0  0  0  0  0  0  0
   11.8194    3.1451  -58.3716 H   0  0  0  0  0  0  0  0  0  0  0  0
   10.8493    2.0208  -59.3845 H   0  0  0  0  0  0  0  0  0  0  0  0
   11.6182    4.0128  -60.7143 H   0  0  0  0  0  0  0  0  0  0  0  0
   11.7336    5.6266  -58.8249 H   0  0  0  0  0  0  0  0  0  0  0  0
   10.6861    6.2498  -60.1532 H   0  0  0  0  0  0  0  0  0  0  0  0
    9.6356    6.6318  -57.9241 H   0  0  0  0  0  0  0  0  0  0  0  0
    7.4455    5.5176  -58.4350 H   0  0  0  0  0  0  0  0  0  0  0  0
    8.1941    6.1807  -59.9281 H   0  0  0  0  0  0  0  0  0  0  0  0
    7.3255    3.8486  -60.3097 H   0  0  0  0  0  0  0  0  0  0  0  0
    9.4285    2.8843  -61.2134 H   0  0  0  0  0  0  0  0  0  0  0  0
    9.3417    4.6496  -61.5444 H   0  0  0  0  0  0  0  0  0  0  0  0
   10.6821    4.6744  -56.7490 H   0  0  0  0  0  0  0  0  0  0  0  0
    8.8954    4.6452  -56.5813 H   0  0  0  0  0  0  0  0  0  0  0  0
  1  2  2  0
  2  3  1  0
  3  4  2  0
  4  5  1  0
  5  6  2  0
  6  7  1  0
  7  8  1  0
  8  9  1  0
  9 10  1  0
  6 11  1  0
  2 12  1  0
 12 13  1  0
 13 14  1  0
 14 15  1  0
 15 16  1  0
 16 17  1  0
 17 18  1  0
 18 19  1  0
 19 20  1  0
 17 21  1  0
 11  3  1  0
 19 12  1  0
 10  7  1  0
 21 13  1  0
 20 15  1  0
  7 22  1  0
  8 23  1  0
  8 24  1  0
  9 25  1  0
  9 26  1  0
 10 27  1  0
 10 28  1  0
 11 29  1  0
 13 30  1  1
 14 31  1  0
 14 32  1  0
 15 33  1  6
 16 34  1  0
 16 35  1  0
 17 36  1  1
 18 37  1  0
 18 38  1  0
 19 39  1  6
 20 40  1  0
 20 41  1  0
 21 42  1  0
 21 43  1  0
M  END
>  <meeko>  (10) 
{"is_sidechain": false}

$$$$

     RDKit          3D

 43 47  0  0  0  0  0  0  0  0999 V2000
    6.9340    1.4110  -56.8460 O   0  0  0  0  0  0  0  0  0  0  0  0
    6.7710    2.2030  -57.7740 C   0  0  0  0  0  0  0  0  0  0  0  0
    5.7010    2.0540  -58.7350 C   0  0  0  0  0  0  0  0  0  0  0  0
    5.7410    1.3350  -59.8400 N   0  0  0  0  0  0  0  0  0  0  0  0
    4.4900    1.5010  -60.3780 C   0  0  0  0  0  0  0  0  0  0  0  0
    4.0350    0.8300  -61.7180 C   0  0  0  0  0  0  0  0  0  0  0  0
    4.3190    1.6810  -62.9780 C   0  0  0  0  0  0  0  0  0  0  0  0
    2.8730    2.2060  -62.8920 C   0  0  0  0  0  0  0  0  0  0  0  0
    2.5310    0.9580  -62.0550 C   0  0  0  0  0  0  0  0  0  0  0  0
    3.6760    2.2870  -59.6620 N   0  0  0  0  0  0  0  0  0  0  0  0
    4.4560    2.5950  -58.6140 N   0  0  0  0  0  0  0  0  0  0  0  0
    7.5840    3.3490  -57.9080 N   0  0  0  0  0  0  0  0  0  0  0  0
    7.9640    3.8720  -59.2410 C   0  0  1  0  0  0  0  0  0  0  0  0
    8.2540    5.3780  -59.1300 C   0  0  0  0  0  0  0  0  0  0  0  0
    9.3830    5.6140  -58.1120 C   0  0  2  0  0  0  0  0  0  0  0  0
   10.6490    4.8680  -58.5700 C   0  0  0  0  0  0  0  0  0  0  0  0
   10.3670    3.3600  -58.6930 C   0  0  1  0  0  0  0  0  0  0  0  0
    9.9110    2.8160  -57.3250 C   0  0  0  0  0  0  0  0  0  0  0  0
    8.6300    3.5510  -56.8860 C   0  0  1  0  0  0  0  0  0  0  0  0
    8.9250    5.0550  -56.7550 C   0  0  0  0  0  0  0  0  0  0  0  0
    9.2340    3.1360  -59.7130 C   0  0  0  0  0  0  0  0  0  0  0  0
    4.4973   -0.1546  -61.5539 H   0  0  0  0  0  0  0  0  0  0  0  0
    5.0924    2.4514  -62.8429 H   0  0  0  0  0  0  0  0  0  0  0  0
    4.7081    1.2251  -63.9004 H   0  0  0  0  0  0  0  0  0  0  0  0
    2.7640    3.1603  -62.3558 H   0  0  0  0  0  0  0  0  0  0  0  0
    2.3013    2.4680  -63.7945 H   0  0  0  0  0  0  0  0  0  0  0  0
    1.8845    1.1544  -61.1870 H   0  0  0  0  0  0  0  0  0  0  0  0
    1.9677    0.1171  -62.4858 H   0  0  0  0  0  0  0  0  0  0  0  0
    4.0880    3.1680  -57.8630 H   0  0  0  0  0  0  0  0  0  0  0  0
    7.1475    3.7110  -59.9603 H   0  0  0  0  0  0  0  0  0  0  0  0
    8.5609    5.7649  -60.1129 H   0  0  0  0  0  0  0  0  0  0  0  0
    7.3458    5.9005  -58.7951 H   0  0  0  0  0  0  0  0  0  0  0  0
    9.6073    6.6877  -58.0298 H   0  0  0  0  0  0  0  0  0  0  0  0
   10.9661    5.2586  -59.5482 H   0  0  0  0  0  0  0  0  0  0  0  0
   11.4440    5.0232  -57.8258 H   0  0  0  0  0  0  0  0  0  0  0  0
   11.2798    2.8417  -59.0219 H   0  0  0  0  0  0  0  0  0  0  0  0
    9.7063    1.7384  -57.4078 H   0  0  0  0  0  0  0  0  0  0  0  0
   10.7037    2.9804  -56.5803 H   0  0  0  0  0  0  0  0  0  0  0  0
    8.2885    3.1561  -55.9178 H   0  0  0  0  0  0  0  0  0  0  0  0
    8.0135    5.5795  -56.4324 H   0  0  0  0  0  0  0  0  0  0  0  0
    9.7214    5.2063  -56.0115 H   0  0  0  0  0  0  0  0  0  0  0  0
    9.5413    3.5274  -60.6940 H   0  0  0  0  0  0  0  0  0  0  0  0
    9.0239    2.0595  -59.7969 H   0  0  0  0  0  0  0  0  0  0  0  0
  1  2  2  0
  2  3  1  0
  3  4  2  0
  4  5  1  0
  5  6  1  0
  6  7  1  0
  7  8  1  0
  8  9  1  0
  5 10  2  0
 10 11  1  0
  2 12  1  0
 12 13  1  0
 13 14  1  0
 14 15  1  0
 15 16  1  0
 16 17  1  0
 17 18  1  0
 18 19  1  0
 19 20  1  0
 17 21  1  0
 11  3  1  0
 19 12  1  0
  9  6  1  0
 21 13  1  0
 20 15  1  0
  6 22  1  0
  7 23  1  0
  7 24  1  0
  8 25  1  0
  8 26  1  0
  9 27  1  0
  9 28  1  0
 11 29  1  0
 13 30  1  6
 14 31  1  0
 14 32  1  0
 15 33  1  1
 16 34  1  0
 16 35  1  0
 17 36  1  6
 18 37  1  0
 18 38  1  0
 19 39  1  1
 20 40  1  0
 20 41  1  0
 21 42  1  0
 21 43  1  0
M  END
>  <meeko>  (11) 
{"is_sidechain": false}

$$$$

     RDKit          3D

 43 47  0  0  0  0  0  0  0  0999 V2000
    6.6550    2.4010  -56.8500 O   0  0  0  0  0  0  0  0  0  0  0  0
    6.7270    2.5380  -58.0740 C   0  0  0  0  0  0  0  0  0  0  0  0
    5.5630    2.2150  -58.9410 C   0  0  0  0  0  0  0  0  0  0  0  0
    4.3050    2.6600  -58.7320 N   0  0  0  0  0  0  0  0  0  0  0  0
    3.6530    2.1780  -59.8010 N   0  0  0  0  0  0  0  0  0  0  0  0
    4.4790    1.4640  -60.6100 C   0  0  0  0  0  0  0  0  0  0  0  0
    4.0480    0.7640  -61.9340 C   0  0  0  0  0  0  0  0  0  0  0  0
    4.2420    1.6340  -63.2010 C   0  0  0  0  0  0  0  0  0  0  0  0
    2.7680    2.0680  -63.0660 C   0  0  0  0  0  0  0  0  0  0  0  0
    2.5310    0.7880  -62.2430 C   0  0  0  0  0  0  0  0  0  0  0  0
    5.6890    1.4730  -60.1060 N   0  0  0  0  0  0  0  0  0  0  0  0
    7.9250    2.9700  -58.6830 N   0  0  0  0  0  0  0  0  0  0  0  0
    9.0900    3.1920  -57.8090 C   0  0  1  0  0  0  0  0  0  0  0  0
   10.3770    2.8910  -58.5950 C   0  0  0  0  0  0  0  0  0  0  0  0
   10.4500    3.7970  -59.8350 C   0  0  2  0  0  0  0  0  0  0  0  0
   10.4380    5.2710  -59.3910 C   0  0  0  0  0  0  0  0  0  0  0  0
    9.1590    5.5780  -58.5920 C   0  0  1  0  0  0  0  0  0  0  0  0
    7.9280    5.2890  -59.4740 C   0  0  0  0  0  0  0  0  0  0  0  0
    7.9370    3.8060  -59.9010 C   0  0  1  0  0  0  0  0  0  0  0  0
    9.2140    3.5140  -60.7060 C   0  0  0  0  0  0  0  0  0  0  0  0
    9.1000    4.6630  -57.3530 C   0  0  0  0  0  0  0  0  0  0  0  0
    2.6640    2.3730  -59.9110 H   0  0  0  0  0  0  0  0  0  0  0  0
    4.5824   -0.1849  -61.7788 H   0  0  0  0  0  0  0  0  0  0  0  0
    4.9705    2.4503  -63.0871 H   0  0  0  0  0  0  0  0  0  0  0  0
    4.6302    1.2056  -64.1368 H   0  0  0  0  0  0  0  0  0  0  0  0
    2.6155    3.0048  -62.5100 H   0  0  0  0  0  0  0  0  0  0  0  0
    2.1548    2.3092  -63.9468 H   0  0  0  0  0  0  0  0  0  0  0  0
    1.8881    0.9254  -61.3611 H   0  0  0  0  0  0  0  0  0  0  0  0
    2.0212   -0.0851  -62.6764 H   0  0  0  0  0  0  0  0  0  0  0  0
    9.0329    2.5312  -56.9315 H   0  0  0  0  0  0  0  0  0  0  0  0
   11.2501    3.0788  -57.9529 H   0  0  0  0  0  0  0  0  0  0  0  0
   10.3722    1.8379  -58.9127 H   0  0  0  0  0  0  0  0  0  0  0  0
   11.3714    3.5993  -60.4023 H   0  0  0  0  0  0  0  0  0  0  0  0
   11.3166    5.4666  -58.7587 H   0  0  0  0  0  0  0  0  0  0  0  0
   10.4652    5.9136  -60.2834 H   0  0  0  0  0  0  0  0  0  0  0  0
    9.1651    6.6336  -58.2826 H   0  0  0  0  0  0  0  0  0  0  0  0
    7.0111    5.5009  -58.9044 H   0  0  0  0  0  0  0  0  0  0  0  0
    7.9602    5.9281  -60.3687 H   0  0  0  0  0  0  0  0  0  0  0  0
    7.0572    3.5850  -60.5232 H   0  0  0  0  0  0  0  0  0  0  0  0
    9.2182    2.4584  -61.0153 H   0  0  0  0  0  0  0  0  0  0  0  0
    9.2396    4.1592  -61.5966 H   0  0  0  0  0  0  0  0  0  0  0  0
    9.9800    4.8455  -56.7188 H   0  0  0  0  0  0  0  0  0  0  0  0
    8.1869    4.8777  -56.7785 H   0  0  0  0  0  0  0  0  0  0  0  0
  1  2  2  0
  2  3  1  0
  3  4  2  0
  4  5  1  0
  5  6  1  0
  6  7  1  0
  7  8  1  0
  8  9  1  0
  9 10  1  0
  6 11  2  0
  2 12  1  0
 12 13  1  0
 13 14  1  0
 14 15  1  0
 15 16  1  0
 16 17  1  0
 17 18  1  0
 18 19  1  0
 19 20  1  0
 17 21  1  0
 11  3  1  0
 19 12  1  0
 10  7  1  0
 21 13  1  0
 20 15  1  0
  5 22  1  0
  7 23  1  0
  8 24  1  0
  8 25  1  0
  9 26  1  0
  9 27  1  0
 10 28  1  0
 10 29  1  0
 13 30  1  1
 14 31  1  0
 14 32  1  0
 15 33  1  6
 16 34  1  0
 16 35  1  0
 17 36  1  1
 18 37  1  0
 18 38  1  0
 19 39  1  6
 20 40  1  0
 20 41  1  0
 21 42  1  0
 21 43  1  0
M  END
>  <meeko>  (12) 
{"is_sidechain": false}

$$$$

     RDKit          3D

 44 46  0  0  0  0  0  0  0  0999 V2000
    7.4270   -2.0050  -52.3460 C   0  0  0  0  0  0  0  0  0  0  0  0
    7.7130   -0.6250  -52.9400 C   0  0  0  0  0  0  0  0  0  0  0  0
    6.4350    0.0170  -53.5080 C   0  0  0  0  0  0  0  0  0  0  0  0
    6.4250    0.0710  -55.0330 C   0  0  0  0  0  0  0  0  0  0  0  0
    7.5950    0.7800  -55.5440 N   0  0  0  0  0  0  0  0  0  0  0  0
    7.4410    1.6330  -56.6440 C   0  0  0  0  0  0  0  0  0  0  0  0
    6.3640    1.6950  -57.2450 O   0  0  0  0  0  0  0  0  0  0  0  0
    8.5470    2.4620  -57.0860 C   0  0  0  0  0  0  0  0  0  0  0  0
    9.0900    3.4990  -56.4840 N   0  0  0  0  0  0  0  0  0  0  0  0
   10.1020    3.9830  -57.2800 N   0  0  0  0  0  0  0  0  0  0  0  0
   10.1550    3.2460  -58.3690 C   0  0  0  0  0  0  0  0  0  0  0  0
   11.0790    3.3770  -59.5420 C   0  0  0  0  0  0  0  0  0  0  0  0
   12.5500    3.4320  -59.1030 C   0  0  0  0  0  0  0  0  0  0  0  0
   12.9760    4.7890  -58.5450 C   0  0  0  0  0  0  0  0  0  0  0  0
   12.6240    5.9270  -59.4980 C   0  0  0  0  0  0  0  0  0  0  0  0
   11.1440    5.9230  -59.8610 C   0  0  0  0  0  0  0  0  0  0  0  0
   10.7050    4.5730  -60.4300 C   0  0  0  0  0  0  0  0  0  0  0  0
    9.1880    2.2810  -58.2850 N   0  0  0  0  0  0  0  0  0  0  0  0
    8.8760    0.5170  -54.8830 C   0  0  0  0  0  0  0  0  0  0  0  0
    8.8300   -0.7200  -53.9900 C   0  0  0  0  0  0  0  0  0  0  0  0
    7.4402   -1.9414  -51.2479 H   0  0  0  0  0  0  0  0  0  0  0  0
    6.4381   -2.3508  -52.6814 H   0  0  0  0  0  0  0  0  0  0  0  0
    8.1970   -2.7153  -52.6814 H   0  0  0  0  0  0  0  0  0  0  0  0
    8.0646    0.0375  -52.1353 H   0  0  0  0  0  0  0  0  0  0  0  0
    5.5679   -0.5704  -53.1719 H   0  0  0  0  0  0  0  0  0  0  0  0
    6.3947    1.0531  -53.1407 H   0  0  0  0  0  0  0  0  0  0  0  0
    6.4265   -0.9555  -55.4284 H   0  0  0  0  0  0  0  0  0  0  0  0
    5.5223    0.6100  -55.3566 H   0  0  0  0  0  0  0  0  0  0  0  0
   10.9572    2.4705  -60.1531 H   0  0  0  0  0  0  0  0  0  0  0  0
   12.7083    2.6715  -58.3242 H   0  0  0  0  0  0  0  0  0  0  0  0
   13.1594    3.2486  -60.0002 H   0  0  0  0  0  0  0  0  0  0  0  0
   12.4645    4.9564  -57.5857 H   0  0  0  0  0  0  0  0  0  0  0  0
   14.0680    4.7778  -58.4130 H   0  0  0  0  0  0  0  0  0  0  0  0
   12.8698    6.8845  -59.0156 H   0  0  0  0  0  0  0  0  0  0  0  0
   13.2035    5.7904  -60.4229 H   0  0  0  0  0  0  0  0  0  0  0  0
   10.5547    6.1376  -58.9573 H   0  0  0  0  0  0  0  0  0  0  0  0
   10.9777    6.6904  -60.6314 H   0  0  0  0  0  0  0  0  0  0  0  0
    9.6118    4.5865  -60.5518 H   0  0  0  0  0  0  0  0  0  0  0  0
   11.2326    4.4406  -61.3861 H   0  0  0  0  0  0  0  0  0  0  0  0
    8.9630    1.5640  -58.9610 H   0  0  0  0  0  0  0  0  0  0  0  0
    9.6464    0.3672  -55.6537 H   0  0  0  0  0  0  0  0  0  0  0  0
    9.1061    1.3822  -54.2438 H   0  0  0  0  0  0  0  0  0  0  0  0
    8.6539   -1.6059  -54.6178 H   0  0  0  0  0  0  0  0  0  0  0  0
    9.7912   -0.7950  -53.4605 H   0  0  0  0  0  0  0  0  0  0  0  0
  1  2  1  0
  2  3  1  0
  3  4  1  0
  4  5  1  0
  5  6  1  0
  6  7  2  0
  6  8  1  0
  8  9  2  0
  9 10  1  0
 10 11  2  0
 11 12  1  0
 12 13  1  0
 13 14  1  0
 14 15  1  0
 15 16  1  0
 16 17  1  0
 11 18  1  0
  5 19  1  0
 19 20  1  0
 20  2  1  0
 18  8  1  0
 17 12  1  0
  1 21  1  0
  1 22  1  0
  1 23  1  0
  2 24  1  0
  3 25  1  0
  3 26  1  0
  4 27  1  0
  4 28  1  0
 12 29  1  0
 13 30  1  0
 13 31  1  0
 14 32  1  0
 14 33  1  0
 15 34  1  0
 15 35  1  0
 16 36  1  0
 16 37  1  0
 17 38  1  0
 17 39  1  0
 18 40  1  0
 19 41  1  0
 19 42  1  0
 20 43  1  0
 20 44  1  0
M  END
>  <meeko>  (13) 
{"is_sidechain": false}

$$$$

     RDKit          3D

 44 46  0  0  0  0  0  0  0  0999 V2000
    7.5820   -1.9910  -52.2640 C   0  0  0  0  0  0  0  0  0  0  0  0
    8.0200   -1.4200  -53.6130 C   0  0  0  0  0  0  0  0  0  0  0  0
    6.9060   -1.5520  -54.6670 C   0  0  0  0  0  0  0  0  0  0  0  0
    6.2810   -0.2100  -55.0390 C   0  0  0  0  0  0  0  0  0  0  0  0
    7.2930    0.7310  -55.5110 N   0  0  0  0  0  0  0  0  0  0  0  0
    6.9880    1.5670  -56.5930 C   0  0  0  0  0  0  0  0  0  0  0  0
    5.8490    1.5910  -57.0680 O   0  0  0  0  0  0  0  0  0  0  0  0
    8.0180    2.4100  -57.1720 C   0  0  0  0  0  0  0  0  0  0  0  0
    9.0060    2.0860  -57.9870 N   0  0  0  0  0  0  0  0  0  0  0  0
    9.6410    3.2800  -58.2180 C   0  0  0  0  0  0  0  0  0  0  0  0
   10.8480    3.3770  -59.0990 C   0  0  0  0  0  0  0  0  0  0  0  0
   10.6760    4.4170  -60.2270 C   0  0  0  0  0  0  0  0  0  0  0  0
   11.3670    5.7390  -59.9070 C   0  0  0  0  0  0  0  0  0  0  0  0
   12.8700    5.5590  -59.6880 C   0  0  0  0  0  0  0  0  0  0  0  0
   13.2480    4.1910  -59.1190 C   0  0  0  0  0  0  0  0  0  0  0  0
   12.1280    3.6030  -58.2700 C   0  0  0  0  0  0  0  0  0  0  0  0
    9.0980    4.3320  -57.5910 N   0  0  0  0  0  0  0  0  0  0  0  0
    8.0710    3.7560  -56.9460 N   0  0  0  0  0  0  0  0  0  0  0  0
    8.5660    0.7590  -54.7870 C   0  0  0  0  0  0  0  0  0  0  0  0
    8.4940    0.0300  -53.4480 C   0  0  0  0  0  0  0  0  0  0  0  0
    8.0339   -1.4019  -51.4524 H   0  0  0  0  0  0  0  0  0  0  0  0
    6.4859   -1.9443  -52.1846 H   0  0  0  0  0  0  0  0  0  0  0  0
    7.9111   -3.0376  -52.1846 H   0  0  0  0  0  0  0  0  0  0  0  0
    8.8714   -2.0098  -53.9834 H   0  0  0  0  0  0  0  0  0  0  0  0
    7.3326   -2.0045  -55.5743 H   0  0  0  0  0  0  0  0  0  0  0  0
    6.1123   -2.1778  -54.2331 H   0  0  0  0  0  0  0  0  0  0  0  0
    5.5389   -0.3682  -55.8354 H   0  0  0  0  0  0  0  0  0  0  0  0
    5.8037    0.2124  -54.1425 H   0  0  0  0  0  0  0  0  0  0  0  0
   10.9599    2.4075  -59.6065 H   0  0  0  0  0  0  0  0  0  0  0  0
   11.1061    4.0084  -61.1533 H   0  0  0  0  0  0  0  0  0  0  0  0
    9.6002    4.6181  -60.3377 H   0  0  0  0  0  0  0  0  0  0  0  0
   11.2105    6.4340  -60.7452 H   0  0  0  0  0  0  0  0  0  0  0  0
   10.9321    6.1345  -58.9772 H   0  0  0  0  0  0  0  0  0  0  0  0
   13.3796    5.6861  -60.6545 H   0  0  0  0  0  0  0  0  0  0  0  0
   13.1799    6.3119  -58.9484 H   0  0  0  0  0  0  0  0  0  0  0  0
   13.4609    3.5052  -59.9522 H   0  0  0  0  0  0  0  0  0  0  0  0
   14.1322    4.3197  -58.4774 H   0  0  0  0  0  0  0  0  0  0  0  0
   12.4610    2.6393  -57.8572 H   0  0  0  0  0  0  0  0  0  0  0  0
   11.8957    4.3154  -57.4647 H   0  0  0  0  0  0  0  0  0  0  0  0
    7.4430    4.3140  -56.3770 H   0  0  0  0  0  0  0  0  0  0  0  0
    9.3360    0.2790  -55.4089 H   0  0  0  0  0  0  0  0  0  0  0  0
    8.8100    1.8117  -54.5813 H   0  0  0  0  0  0  0  0  0  0  0  0
    9.4940    0.0277  -52.9897 H   0  0  0  0  0  0  0  0  0  0  0  0
    7.7681    0.5564  -52.8109 H   0  0  0  0  0  0  0  0  0  0  0  0
  1  2  1  0
  2  3  1  0
  3  4  1  0
  4  5  1  0
  5  6  1  0
  6  7  2  0
  6  8  1  0
  8  9  2  0
  9 10  1  0
 10 11  1  0
 11 12  1  0
 12 13  1  0
 13 14  1  0
 14 15  1  0
 15 16  1  0
 10 17  2  0
 17 18  1  0
  5 19  1  0
 19 20  1  0
 20  2  1  0
 18  8  1  0
 16 11  1  0
  1 21  1  0
  1 22  1  0
  1 23  1  0
  2 24  1  0
  3 25  1  0
  3 26  1  0
  4 27  1  0
  4 28  1  0
 11 29  1  0
 12 30  1  0
 12 31  1  0
 13 32  1  0
 13 33  1  0
 14 34  1  0
 14 35  1  0
 15 36  1  0
 15 37  1  0
 16 38  1  0
 16 39  1  0
 18 40  1  0
 19 41  1  0
 19 42  1  0
 20 43  1  0
 20 44  1  0
M  END
>  <meeko>  (14) 
{"is_sidechain": false}

$$$$

     RDKit          3D

 44 46  0  0  0  0  0  0  0  0999 V2000
   11.8480   -6.4340  -58.0520 C   0  0  0  0  0  0  0  0  0  0  0  0
   13.0030   -5.6190  -57.4710 C   0  0  0  0  0  0  0  0  0  0  0  0
   12.9460   -5.5470  -55.9430 C   0  0  0  0  0  0  0  0  0  0  0  0
   11.8130   -4.6620  -55.4230 C   0  0  0  0  0  0  0  0  0  0  0  0
   11.7640   -3.3500  -56.0710 N   0  0  0  0  0  0  0  0  0  0  0  0
   11.1500   -2.2180  -55.4820 C   0  0  0  0  0  0  0  0  0  0  0  0
   11.1080   -1.1460  -56.0970 O   0  0  0  0  0  0  0  0  0  0  0  0
   10.5440   -2.3330  -54.1260 C   0  0  0  0  0  0  0  0  0  0  0  0
   11.2600   -2.6780  -53.0380 N   0  0  0  0  0  0  0  0  0  0  0  0
   10.3570   -2.5970  -52.0560 N   0  0  0  0  0  0  0  0  0  0  0  0
    9.1340   -2.2130  -52.5190 C   0  0  0  0  0  0  0  0  0  0  0  0
    7.9060   -2.0260  -51.6790 C   0  0  0  0  0  0  0  0  0  0  0  0
    8.0730   -2.5610  -50.2490 C   0  0  0  0  0  0  0  0  0  0  0  0
    7.8260   -4.0610  -50.1090 C   0  0  0  0  0  0  0  0  0  0  0  0
    6.5020   -4.4810  -50.7360 C   0  0  0  0  0  0  0  0  0  0  0  0
    6.4040   -4.0490  -52.1940 C   0  0  0  0  0  0  0  0  0  0  0  0
    6.6320   -2.5470  -52.3590 C   0  0  0  0  0  0  0  0  0  0  0  0
    9.2250   -2.0330  -53.8200 N   0  0  0  0  0  0  0  0  0  0  0  0
   11.9100   -3.3220  -57.5240 C   0  0  0  0  0  0  0  0  0  0  0  0
   13.0520   -4.1960  -58.0330 C   0  0  0  0  0  0  0  0  0  0  0  0
   11.2488   -6.8568  -57.2322 H   0  0  0  0  0  0  0  0  0  0  0  0
   11.2141   -5.7820  -58.6710 H   0  0  0  0  0  0  0  0  0  0  0  0
   12.2498   -7.2497  -58.6710 H   0  0  0  0  0  0  0  0  0  0  0  0
   13.9171   -6.1516  -57.7724 H   0  0  0  0  0  0  0  0  0  0  0  0
   12.8030   -6.5645  -55.5503 H   0  0  0  0  0  0  0  0  0  0  0  0
   13.8918   -5.1010  -55.6015 H   0  0  0  0  0  0  0  0  0  0  0  0
   10.8572   -5.1763  -55.6016 H   0  0  0  0  0  0  0  0  0  0  0  0
   11.9958   -4.4916  -54.3518 H   0  0  0  0  0  0  0  0  0  0  0  0
   10.6480   -2.8120  -51.1090 H   0  0  0  0  0  0  0  0  0  0  0  0
    7.7750   -0.9381  -51.5825 H   0  0  0  0  0  0  0  0  0  0  0  0
    9.1005   -2.3483  -49.9190 H   0  0  0  0  0  0  0  0  0  0  0  0
    7.3143   -2.0569  -49.6324 H   0  0  0  0  0  0  0  0  0  0  0  0
    8.6430   -4.6037  -50.6069 H   0  0  0  0  0  0  0  0  0  0  0  0
    7.7858   -4.3007  -49.0362 H   0  0  0  0  0  0  0  0  0  0  0  0
    6.4142   -5.5762  -50.6825 H   0  0  0  0  0  0  0  0  0  0  0  0
    5.6895   -3.9916  -50.1790 H   0  0  0  0  0  0  0  0  0  0  0  0
    7.1635   -4.5903  -52.7773 H   0  0  0  0  0  0  0  0  0  0  0  0
    5.3900   -4.2815  -52.5514 H   0  0  0  0  0  0  0  0  0  0  0  0
    6.6989   -2.3242  -53.4341 H   0  0  0  0  0  0  0  0  0  0  0  0
    5.7845   -2.0430  -51.8715 H   0  0  0  0  0  0  0  0  0  0  0  0
   10.9716   -3.6757  -57.9760 H   0  0  0  0  0  0  0  0  0  0  0  0
   12.1421   -2.2850  -57.8080 H   0  0  0  0  0  0  0  0  0  0  0  0
   12.9926   -4.2488  -59.1301 H   0  0  0  0  0  0  0  0  0  0  0  0
   13.9948   -3.7389  -57.6980 H   0  0  0  0  0  0  0  0  0  0  0  0
  1  2  1  0
  2  3  1  0
  3  4  1  0
  4  5  1  0
  5  6  1  0
  6  7  2  0
  6  8  1  0
  8  9  2  0
  9 10  1  0
 10 11  1  0
 11 12  1  0
 12 13  1  0
 13 14  1  0
 14 15  1  0
 15 16  1  0
 16 17  1  0
 11 18  2  0
  5 19  1  0
 19 20  1  0
 20  2  1  0
 18  8  1  0
 17 12  1  0
  1 21  1  0
  1 22  1  0
  1 23  1  0
  2 24  1  0
  3 25  1  0
  3 26  1  0
  4 27  1  0
  4 28  1  0
 10 29  1  0
 12 30  1  0
 13 31  1  0
 13 32  1  0
 14 33  1  0
 14 34  1  0
 15 35  1  0
 15 36  1  0
 16 37  1  0
 16 38  1  0
 17 39  1  0
 17 40  1  0
 19 41  1  0
 19 42  1  0
 20 43  1  0
 20 44  1  0
M  END
>  <meeko>  (15) 
{"is_sidechain": false}

$$$$

     RDKit          3D

 44 46  0  0  0  0  0  0  0  0999 V2000
    6.4580    3.0190  -62.3040 O   0  0  0  0  0  0  0  0  0  0  0  0
    6.7670    2.8300  -61.1230 C   0  0  0  0  0  0  0  0  0  0  0  0
    7.8490    3.6070  -60.5480 C   0  0  0  0  0  0  0  0  0  0  0  0
    7.7820    4.6110  -59.6950 N   0  0  0  0  0  0  0  0  0  0  0  0
    9.0610    5.0520  -59.4440 N   0  0  0  0  0  0  0  0  0  0  0  0
    9.8910    4.3230  -60.1580 C   0  0  0  0  0  0  0  0  0  0  0  0
   11.3830    4.4330  -60.2300 C   0  0  0  0  0  0  0  0  0  0  0  0
   11.8230    5.8750  -59.9180 C   0  0  0  0  0  0  0  0  0  0  0  0
   13.2590    5.9270  -59.4140 C   0  0  0  0  0  0  0  0  0  0  0  0
   13.4300    5.1460  -58.1100 C   0  0  0  0  0  0  0  0  0  0  0  0
   12.4580    3.9740  -57.9670 C   0  0  0  0  0  0  0  0  0  0  0  0
   12.0650    3.3910  -59.3210 C   0  0  0  0  0  0  0  0  0  0  0  0
    9.1680    3.4080  -60.8700 N   0  0  0  0  0  0  0  0  0  0  0  0
    6.0770    1.8800  -60.3460 N   0  0  0  0  0  0  0  0  0  0  0  0
    6.5180    1.4740  -59.0100 C   0  0  0  0  0  0  0  0  0  0  0  0
    5.8950    2.2030  -57.8180 C   0  0  0  0  0  0  0  0  0  0  0  0
    4.3710    2.2740  -57.8790 C   0  0  0  0  0  0  0  0  0  0  0  0
    3.8390    2.8220  -59.2000 C   0  0  0  0  0  0  0  0  0  0  0  0
    3.6030    1.7840  -60.2940 C   0  0  0  0  0  0  0  0  0  0  0  0
    4.8880    1.2570  -60.9240 C   0  0  0  0  0  0  0  0  0  0  0  0
   11.7100    4.2044  -61.2551 H   0  0  0  0  0  0  0  0  0  0  0  0
   11.7444    6.4783  -60.8345 H   0  0  0  0  0  0  0  0  0  0  0  0
   11.1672    6.2714  -59.1289 H   0  0  0  0  0  0  0  0  0  0  0  0
   13.9209    5.4937  -60.1783 H   0  0  0  0  0  0  0  0  0  0  0  0
   13.5162    6.9787  -59.2198 H   0  0  0  0  0  0  0  0  0  0  0  0
   14.4567    4.7531  -58.0719 H   0  0  0  0  0  0  0  0  0  0  0  0
   13.2184    5.8433  -57.2860 H   0  0  0  0  0  0  0  0  0  0  0  0
   12.9367    3.1865  -57.3664 H   0  0  0  0  0  0  0  0  0  0  0  0
   11.5453    4.3463  -57.4788 H   0  0  0  0  0  0  0  0  0  0  0  0
   12.9710    3.0217  -59.8238 H   0  0  0  0  0  0  0  0  0  0  0  0
   11.3459    2.5781  -59.1419 H   0  0  0  0  0  0  0  0  0  0  0  0
    9.5070    2.7140  -61.5200 H   0  0  0  0  0  0  0  0  0  0  0  0
    6.2926    0.4032  -58.8980 H   0  0  0  0  0  0  0  0  0  0  0  0
    7.5869    1.7311  -58.9733 H   0  0  0  0  0  0  0  0  0  0  0  0
    6.1828    1.6747  -56.8971 H   0  0  0  0  0  0  0  0  0  0  0  0
    6.2691    3.2372  -57.8385 H   0  0  0  0  0  0  0  0  0  0  0  0
    3.9693    1.2600  -57.7358 H   0  0  0  0  0  0  0  0  0  0  0  0
    4.0477    2.9667  -57.0880 H   0  0  0  0  0  0  0  0  0  0  0  0
    2.8818    3.3247  -58.9975 H   0  0  0  0  0  0  0  0  0  0  0  0
    4.6200    3.4944  -59.5847 H   0  0  0  0  0  0  0  0  0  0  0  0
    3.0571    0.9354  -59.8561 H   0  0  0  0  0  0  0  0  0  0  0  0
    3.0330    2.2813  -61.0926 H   0  0  0  0  0  0  0  0  0  0  0  0
    4.9427    0.1702  -60.7629 H   0  0  0  0  0  0  0  0  0  0  0  0
    4.8648    1.4998  -61.9966 H   0  0  0  0  0  0  0  0  0  0  0  0
  1  2  2  0
  2  3  1  0
  3  4  2  0
  4  5  1  0
  5  6  2  0
  6  7  1  0
  7  8  1  0
  8  9  1  0
  9 10  1  0
 10 11  1  0
 11 12  1  0
  6 13  1  0
  2 14  1  0
 14 15  1  0
 15 16  1  0
 16 17  1  0
 17 18  1  0
 18 19  1  0
 19 20  1  0
 13  3  1  0
 20 14  1  0
 12  7  1  0
  7 21  1  0
  8 22  1  0
  8 23  1  0
  9 24  1  0
  9 25  1  0
 10 26  1  0
 10 27  1  0
 11 28  1  0
 11 29  1  0
 12 30  1  0
 12 31  1  0
 13 32  1  0
 15 33  1  0
 15 34  1  0
 16 35  1  0
 16 36  1  0
 17 37  1  0
 17 38  1  0
 18 39  1  0
 18 40  1  0
 19 41  1  0
 19 42  1  0
 20 43  1  0
 20 44  1  0
M  END
>  <meeko>  (16) 
{"is_sidechain": false}

$$$$

     RDKit          3D

 44 46  0  0  0  0  0  0  0  0999 V2000
    6.1970    1.8280  -58.1200 O   0  0  0  0  0  0  0  0  0  0  0  0
    6.5000    2.4320  -59.1490 C   0  0  0  0  0  0  0  0  0  0  0  0
    7.5920    3.3820  -59.1950 C   0  0  0  0  0  0  0  0  0  0  0  0
    8.8740    3.0910  -59.3090 N   0  0  0  0  0  0  0  0  0  0  0  0
    9.4880    4.3160  -59.2790 C   0  0  0  0  0  0  0  0  0  0  0  0
   10.9730    4.4580  -59.3850 C   0  0  0  0  0  0  0  0  0  0  0  0
   11.6950    3.8430  -58.1690 C   0  0  0  0  0  0  0  0  0  0  0  0
   13.0770    4.4470  -57.9060 C   0  0  0  0  0  0  0  0  0  0  0  0
   13.7380    4.9330  -59.1870 C   0  0  0  0  0  0  0  0  0  0  0  0
   12.9120    6.0200  -59.8780 C   0  0  0  0  0  0  0  0  0  0  0  0
   11.4100    5.9110  -59.6110 C   0  0  0  0  0  0  0  0  0  0  0  0
    8.6530    5.3570  -59.1470 N   0  0  0  0  0  0  0  0  0  0  0  0
    7.4670    4.7350  -59.0640 N   0  0  0  0  0  0  0  0  0  0  0  0
    5.7370    2.2830  -60.3330 N   0  0  0  0  0  0  0  0  0  0  0  0
    6.4190    2.2050  -61.6340 C   0  0  0  0  0  0  0  0  0  0  0  0
    5.5260    2.6800  -62.7720 C   0  0  0  0  0  0  0  0  0  0  0  0
    4.4670    1.6710  -63.2110 C   0  0  0  0  0  0  0  0  0  0  0  0
    3.1690    1.6090  -62.3770 C   0  0  0  0  0  0  0  0  0  0  0  0
    3.2970    2.1280  -60.9490 C   0  0  0  0  0  0  0  0  0  0  0  0
    4.4880    1.5350  -60.1940 C   0  0  0  0  0  0  0  0  0  0  0  0
   11.2737    3.8897  -60.2775 H   0  0  0  0  0  0  0  0  0  0  0  0
   11.0708    4.0017  -57.2773 H   0  0  0  0  0  0  0  0  0  0  0  0
   11.8463    2.7760  -58.3897 H   0  0  0  0  0  0  0  0  0  0  0  0
   12.9678    5.2979  -57.2175 H   0  0  0  0  0  0  0  0  0  0  0  0
   13.7139    3.6630  -57.4706 H   0  0  0  0  0  0  0  0  0  0  0  0
   14.7298    5.3413  -58.9427 H   0  0  0  0  0  0  0  0  0  0  0  0
   13.8196    4.0780  -59.8743 H   0  0  0  0  0  0  0  0  0  0  0  0
   13.2586    7.0005  -59.5196 H   0  0  0  0  0  0  0  0  0  0  0  0
   13.0567    5.8951  -60.9613 H   0  0  0  0  0  0  0  0  0  0  0  0
   11.1645    6.4997  -58.7148 H   0  0  0  0  0  0  0  0  0  0  0  0
   10.8781    6.2934  -60.4947 H   0  0  0  0  0  0  0  0  0  0  0  0
    6.6240    5.2770  -58.9180 H   0  0  0  0  0  0  0  0  0  0  0  0
    7.3198    2.8355  -61.6018 H   0  0  0  0  0  0  0  0  0  0  0  0
    6.6784    1.1524  -61.8206 H   0  0  0  0  0  0  0  0  0  0  0  0
    5.0126    3.5966  -62.4459 H   0  0  0  0  0  0  0  0  0  0  0  0
    6.1836    2.8398  -63.6392 H   0  0  0  0  0  0  0  0  0  0  0  0
    4.1851    1.9150  -64.2459 H   0  0  0  0  0  0  0  0  0  0  0  0
    4.9387    0.6861  -63.0786 H   0  0  0  0  0  0  0  0  0  0  0  0
    2.4037    2.2090  -62.8911 H   0  0  0  0  0  0  0  0  0  0  0  0
    2.9058    0.5441  -62.2954 H   0  0  0  0  0  0  0  0  0  0  0  0
    3.4151    3.2211  -60.9841 H   0  0  0  0  0  0  0  0  0  0  0  0
    2.3868    1.8264  -60.4100 H   0  0  0  0  0  0  0  0  0  0  0  0
    4.2302    1.4953  -59.1254 H   0  0  0  0  0  0  0  0  0  0  0  0
    4.6706    0.5435  -60.6339 H   0  0  0  0  0  0  0  0  0  0  0  0
  1  2  2  0
  2  3  1  0
  3  4  2  0
  4  5  1  0
  5  6  1  0
  6  7  1  0
  7  8  1  0
  8  9  1  0
  9 10  1  0
 10 11  1  0
  5 12  2  0
 12 13  1  0
  2 14  1  0
 14 15  1  0
 15 16  1  0
 16 17  1  0
 17 18  1  0
 18 19  1  0
 19 20  1  0
 13  3  1  0
 20 14  1  0
 11  6  1  0
  6 21  1  0
  7 22  1  0
  7 23  1  0
  8 24  1  0
  8 25  1  0
  9 26  1  0
  9 27  1  0
 10 28  1  0
 10 29  1  0
 11 30  1  0
 11 31  1  0
 13 32  1  0
 15 33  1  0
 15 34  1  0
 16 35  1  0
 16 36  1  0
 17 37  1  0
 17 38  1  0
 18 39  1  0
 18 40  1  0
 19 41  1  0
 19 42  1  0
 20 43  1  0
 20 44  1  0
M  END
>  <meeko>  (17) 
{"is_sidechain": false}

$$$$

     RDKit          3D

 44 46  0  0  0  0  0  0  0  0999 V2000
    4.1130    2.4000  -57.6130 O   0  0  0  0  0  0  0  0  0  0  0  0
    5.1410    2.2550  -58.2840 C   0  0  0  0  0  0  0  0  0  0  0  0
    6.4720    2.3850  -57.6270 C   0  0  0  0  0  0  0  0  0  0  0  0
    6.9890    1.5290  -56.7200 N   0  0  0  0  0  0  0  0  0  0  0  0
    8.2070    2.0410  -56.5010 N   0  0  0  0  0  0  0  0  0  0  0  0
    8.4290    3.1620  -57.2430 C   0  0  0  0  0  0  0  0  0  0  0  0
    9.6970    3.9570  -57.2180 C   0  0  0  0  0  0  0  0  0  0  0  0
   10.9000    3.0920  -57.6420 C   0  0  0  0  0  0  0  0  0  0  0  0
   12.0800    3.9570  -58.0660 C   0  0  0  0  0  0  0  0  0  0  0  0
   11.7420    4.8280  -59.2770 C   0  0  0  0  0  0  0  0  0  0  0  0
   10.2550    5.1700  -59.3920 C   0  0  0  0  0  0  0  0  0  0  0  0
    9.5810    5.2650  -58.0260 C   0  0  0  0  0  0  0  0  0  0  0  0
    7.3580    3.4000  -57.9650 N   0  0  0  0  0  0  0  0  0  0  0  0
    5.0480    1.9650  -59.6650 N   0  0  0  0  0  0  0  0  0  0  0  0
    6.1800    1.6580  -60.5380 C   0  0  0  0  0  0  0  0  0  0  0  0
    6.2810    2.6560  -61.6850 C   0  0  0  0  0  0  0  0  0  0  0  0
    5.5240    2.2580  -62.9540 C   0  0  0  0  0  0  0  0  0  0  0  0
    4.0350    1.9290  -62.8270 C   0  0  0  0  0  0  0  0  0  0  0  0
    3.6410    1.1720  -61.5610 C   0  0  0  0  0  0  0  0  0  0  0  0
    3.7370    2.0340  -60.3000 C   0  0  0  0  0  0  0  0  0  0  0  0
    8.8270    1.5800  -55.8450 H   0  0  0  0  0  0  0  0  0  0  0  0
    9.8777    4.2679  -56.1784 H   0  0  0  0  0  0  0  0  0  0  0  0
   11.2044    2.4609  -56.7940 H   0  0  0  0  0  0  0  0  0  0  0  0
   10.5977    2.4720  -58.4989 H   0  0  0  0  0  0  0  0  0  0  0  0
   12.3627    4.6092  -57.2265 H   0  0  0  0  0  0  0  0  0  0  0  0
   12.9086    3.2900  -58.3462 H   0  0  0  0  0  0  0  0  0  0  0  0
   12.3094    5.7671  -59.1987 H   0  0  0  0  0  0  0  0  0  0  0  0
   12.0095    4.2499  -60.1738 H   0  0  0  0  0  0  0  0  0  0  0  0
   10.1521    6.1368  -59.9064 H   0  0  0  0  0  0  0  0  0  0  0  0
    9.7644    4.3635  -59.9567 H   0  0  0  0  0  0  0  0  0  0  0  0
   10.0555    6.0761  -57.4542 H   0  0  0  0  0  0  0  0  0  0  0  0
    8.5116    5.4604  -58.1939 H   0  0  0  0  0  0  0  0  0  0  0  0
    7.1077    1.6949  -59.9481 H   0  0  0  0  0  0  0  0  0  0  0  0
    6.0287    0.6547  -60.9629 H   0  0  0  0  0  0  0  0  0  0  0  0
    5.8804    3.6192  -61.3361 H   0  0  0  0  0  0  0  0  0  0  0  0
    7.3447    2.7013  -61.9617 H   0  0  0  0  0  0  0  0  0  0  0  0
    5.6155    3.0923  -63.6651 H   0  0  0  0  0  0  0  0  0  0  0  0
    5.9894    1.3118  -63.2670 H   0  0  0  0  0  0  0  0  0  0  0  0
    3.4748    2.8755  -62.8455 H   0  0  0  0  0  0  0  0  0  0  0  0
    3.7978    1.2607  -63.6679 H   0  0  0  0  0  0  0  0  0  0  0  0
    2.6038    0.8220  -61.6693 H   0  0  0  0  0  0  0  0  0  0  0  0
    4.3443    0.3344  -61.4437 H   0  0  0  0  0  0  0  0  0  0  0  0
    3.5338    3.0800  -60.5733 H   0  0  0  0  0  0  0  0  0  0  0  0
    3.0002    1.6491  -59.5796 H   0  0  0  0  0  0  0  0  0  0  0  0
  1  2  2  0
  2  3  1  0
  3  4  2  0
  4  5  1  0
  5  6  1  0
  6  7  1  0
  7  8  1  0
  8  9  1  0
  9 10  1  0
 10 11  1  0
 11 12  1  0
  6 13  2  0
  2 14  1  0
 14 15  1  0
 15 16  1  0
 16 17  1  0
 17 18  1  0
 18 19  1  0
 19 20  1  0
 13  3  1  0
 20 14  1  0
 12  7  1  0
  5 21  1  0
  7 22  1  0
  8 23  1  0
  8 24  1  0
  9 25  1  0
  9 26  1  0
 10 27  1  0
 10 28  1  0
 11 29  1  0
 11 30  1  0
 12 31  1  0
 12 32  1  0
 15 33  1  0
 15 34  1  0
 16 35  1  0
 16 36  1  0
 17 37  1  0
 17 38  1  0
 18 39  1  0
 18 40  1  0
 19 41  1  0
 19 42  1  0
 20 43  1  0
 20 44  1  0
M  END
>  <meeko>  (18) 
{"is_sidechain": false}

$$$$

     RDKit          3D

 47 49  0  0  0  0  0  0  0  0999 V2000
    7.2730   -2.3730  -54.2610 C   0  0  0  0  0  0  0  0  0  0  0  0
    7.5100   -1.0710  -53.4740 C   0  0  0  0  0  0  0  0  0  0  0  0
    7.8060   -1.4430  -52.0100 C   0  0  0  0  0  0  0  0  0  0  0  0
    8.7020   -0.2870  -54.0500 C   0  0  0  0  0  0  0  0  0  0  0  0
    8.4400    0.2970  -55.4390 C   0  0  0  0  0  0  0  0  0  0  0  0
    7.1740    1.0270  -55.5360 N   0  0  0  0  0  0  0  0  0  0  0  0
    6.9040    1.9660  -56.5550 C   0  0  0  0  0  0  0  0  0  0  0  0
    5.7950    2.5050  -56.6250 O   0  0  0  0  0  0  0  0  0  0  0  0
    7.9130    2.3190  -57.5380 C   0  0  0  0  0  0  0  0  0  0  0  0
    8.0500    1.8840  -58.7740 N   0  0  0  0  0  0  0  0  0  0  0  0
    9.1290    2.5230  -59.3420 N   0  0  0  0  0  0  0  0  0  0  0  0
    9.6200    3.3600  -58.4530 C   0  0  0  0  0  0  0  0  0  0  0  0
   10.7860    4.2810  -58.6060 C   0  0  0  0  0  0  0  0  0  0  0  0
   10.7180    5.0480  -59.9310 C   0  0  0  0  0  0  0  0  0  0  0  0
   11.8460    6.0770  -60.0490 C   0  0  0  0  0  0  0  0  0  0  0  0
   13.1210    5.6770  -59.3040 C   0  0  0  0  0  0  0  0  0  0  0  0
   13.2780    4.1650  -59.2210 C   0  0  0  0  0  0  0  0  0  0  0  0
   12.1120    3.5070  -58.4790 C   0  0  0  0  0  0  0  0  0  0  0  0
    8.8790    3.2660  -57.3100 N   0  0  0  0  0  0  0  0  0  0  0  0
    6.0040    0.4070  -54.9160 C   0  0  0  0  0  0  0  0  0  0  0  0
    6.2740   -0.1540  -53.5240 C   0  0  0  0  0  0  0  0  0  0  0  0
    7.1216   -3.2046  -53.5570 H   0  0  0  0  0  0  0  0  0  0  0  0
    6.3804   -2.2615  -54.8941 H   0  0  0  0  0  0  0  0  0  0  0  0
    8.1477   -2.5831  -54.8941 H   0  0  0  0  0  0  0  0  0  0  0  0
    7.2623   -0.7598  -51.3410 H   0  0  0  0  0  0  0  0  0  0  0  0
    7.4808   -2.4768  -51.8214 H   0  0  0  0  0  0  0  0  0  0  0  0
    8.8864   -1.3583  -51.8214 H   0  0  0  0  0  0  0  0  0  0  0  0
    8.9376    0.5402  -53.3642 H   0  0  0  0  0  0  0  0  0  0  0  0
    9.5353   -0.9978  -54.1520 H   0  0  0  0  0  0  0  0  0  0  0  0
    9.2599    0.9872  -55.6869 H   0  0  0  0  0  0  0  0  0  0  0  0
    8.3806   -0.5487  -56.1399 H   0  0  0  0  0  0  0  0  0  0  0  0
   10.7433    5.0207  -57.7930 H   0  0  0  0  0  0  0  0  0  0  0  0
   10.8005    4.3319  -60.7619 H   0  0  0  0  0  0  0  0  0  0  0  0
    9.7589    5.5853  -59.9670 H   0  0  0  0  0  0  0  0  0  0  0  0
   12.0909    6.2039  -61.1139 H   0  0  0  0  0  0  0  0  0  0  0  0
   11.4826    7.0079  -59.5892 H   0  0  0  0  0  0  0  0  0  0  0  0
   13.9891    6.0963  -59.8337 H   0  0  0  0  0  0  0  0  0  0  0  0
   13.0549    6.0702  -58.2788 H   0  0  0  0  0  0  0  0  0  0  0  0
   13.3255    3.7564  -60.2412 H   0  0  0  0  0  0  0  0  0  0  0  0
   14.2009    3.9495  -58.6625 H   0  0  0  0  0  0  0  0  0  0  0  0
   11.9655    2.4963  -58.8877 H   0  0  0  0  0  0  0  0  0  0  0  0
   12.3761    3.4917  -57.4113 H   0  0  0  0  0  0  0  0  0  0  0  0
    8.9880    3.7860  -56.4500 H   0  0  0  0  0  0  0  0  0  0  0  0
    5.2101    1.1644  -54.8374 H   0  0  0  0  0  0  0  0  0  0  0  0
    5.7130   -0.4407  -55.5538 H   0  0  0  0  0  0  0  0  0  0  0  0
    6.4328    0.6863  -52.8322 H   0  0  0  0  0  0  0  0  0  0  0  0
    5.4021   -0.7613  -53.2393 H   0  0  0  0  0  0  0  0  0  0  0  0
  1  2  1  0
  2  3  1  0
  2  4  1  0
  4  5  1  0
  5  6  1  0
  6  7  1  0
  7  8  2  0
  7  9  1  0
  9 10  2  0
 10 11  1  0
 11 12  2  0
 12 13  1  0
 13 14  1  0
 14 15  1  0
 15 16  1  0
 16 17  1  0
 17 18  1  0
 12 19  1  0
  6 20  1  0
 20 21  1  0
 21  2  1  0
 19  9  1  0
 18 13  1  0
  1 22  1  0
  1 23  1  0
  1 24  1  0
  3 25  1  0
  3 26  1  0
  3 27  1  0
  4 28  1  0
  4 29  1  0
  5 30  1  0
  5 31  1  0
 13 32  1  0
 14 33  1  0
 14 34  1  0
 15 35  1  0
 15 36  1  0
 16 37  1  0
 16 38  1  0
 17 39  1  0
 17 40  1  0
 18 41  1  0
 18 42  1  0
 19 43  1  0
 20 44  1  0
 20 45  1  0
 21 46  1  0
 21 47  1  0
M  END
>  <meeko>  (19) 
{"is_sidechain": false}

$$$$

     RDKit          3D

 47 49  0  0  0  0  0  0  0  0999 V2000
   11.8600    6.0260  -59.8610 C   0  0  0  0  0  0  0  0  0  0  0  0
   11.4030    4.7040  -59.2170 C   0  0  0  0  0  0  0  0  0  0  0  0
   12.6430    4.0070  -58.6270 C   0  0  0  0  0  0  0  0  0  0  0  0
   10.3910    5.0260  -58.0900 C   0  0  0  0  0  0  0  0  0  0  0  0
    9.4310    3.8710  -57.8080 C   0  0  0  0  0  0  0  0  0  0  0  0
    8.7020    3.4460  -59.0060 N   0  0  0  0  0  0  0  0  0  0  0  0
    7.5290    2.6810  -58.9810 C   0  0  0  0  0  0  0  0  0  0  0  0
    6.8880    2.4820  -60.0170 O   0  0  0  0  0  0  0  0  0  0  0  0
    7.0640    2.1050  -57.7330 C   0  0  0  0  0  0  0  0  0  0  0  0
    7.7490    1.4800  -56.7930 N   0  0  0  0  0  0  0  0  0  0  0  0
    6.7950    1.1370  -55.8690 C   0  0  0  0  0  0  0  0  0  0  0  0
    7.1390    0.4000  -54.6110 C   0  0  0  0  0  0  0  0  0  0  0  0
    6.1060   -0.6920  -54.2640 C   0  0  0  0  0  0  0  0  0  0  0  0
    6.5770   -2.0860  -54.6680 C   0  0  0  0  0  0  0  0  0  0  0  0
    7.8860   -2.4700  -53.9780 C   0  0  0  0  0  0  0  0  0  0  0  0
    8.7890   -1.2750  -53.6660 C   0  0  0  0  0  0  0  0  0  0  0  0
    8.5830   -0.1390  -54.6590 C   0  0  0  0  0  0  0  0  0  0  0  0
    5.5490    1.5090  -56.1900 N   0  0  0  0  0  0  0  0  0  0  0  0
    5.7470    2.1100  -57.3750 N   0  0  0  0  0  0  0  0  0  0  0  0
    9.2450    3.8630  -60.2960 C   0  0  0  0  0  0  0  0  0  0  0  0
   10.7690    3.7860  -60.2920 C   0  0  0  0  0  0  0  0  0  0  0  0
   12.1105    6.7507  -59.0723 H   0  0  0  0  0  0  0  0  0  0  0  0
   12.7468    5.8424  -60.4854 H   0  0  0  0  0  0  0  0  0  0  0  0
   11.0491    6.4293  -60.4854 H   0  0  0  0  0  0  0  0  0  0  0  0
   12.5919    4.0357  -57.5286 H   0  0  0  0  0  0  0  0  0  0  0  0
   12.6713    2.9608  -58.9655 H   0  0  0  0  0  0  0  0  0  0  0  0
   13.5515    4.5266  -58.9655 H   0  0  0  0  0  0  0  0  0  0  0  0
   10.9498    5.2511  -57.1697 H   0  0  0  0  0  0  0  0  0  0  0  0
    9.7881    5.8842  -58.4217 H   0  0  0  0  0  0  0  0  0  0  0  0
   10.0086    3.0171  -57.4243 H   0  0  0  0  0  0  0  0  0  0  0  0
    8.6921    4.2208  -57.0720 H   0  0  0  0  0  0  0  0  0  0  0  0
    7.0914    1.1238  -53.7840 H   0  0  0  0  0  0  0  0  0  0  0  0
    5.9294   -0.6794  -53.1783 H   0  0  0  0  0  0  0  0  0  0  0  0
    5.1849   -0.4732  -54.8241 H   0  0  0  0  0  0  0  0  0  0  0  0
    5.8023   -2.8166  -54.3920 H   0  0  0  0  0  0  0  0  0  0  0  0
    6.7529   -2.0840  -55.7538 H   0  0  0  0  0  0  0  0  0  0  0  0
    7.6445   -2.9791  -53.0333 H   0  0  0  0  0  0  0  0  0  0  0  0
    8.4387   -3.1182  -54.6740 H   0  0  0  0  0  0  0  0  0  0  0  0
    8.5600   -0.9098  -52.6540 H   0  0  0  0  0  0  0  0  0  0  0  0
    9.8350   -1.6077  -53.7377 H   0  0  0  0  0  0  0  0  0  0  0  0
    9.2777    0.6784  -54.4158 H   0  0  0  0  0  0  0  0  0  0  0  0
    8.7727   -0.5269  -55.6707 H   0  0  0  0  0  0  0  0  0  0  0  0
    4.9650    2.4960  -57.8930 H   0  0  0  0  0  0  0  0  0  0  0  0
    8.8525    3.2025  -61.0832 H   0  0  0  0  0  0  0  0  0  0  0  0
    8.9447    4.9041  -60.4854 H   0  0  0  0  0  0  0  0  0  0  0  0
   11.0699    2.7471  -60.0916 H   0  0  0  0  0  0  0  0  0  0  0  0
   11.1250    4.1256  -61.2759 H   0  0  0  0  0  0  0  0  0  0  0  0
  1  2  1  0
  2  3  1  0
  2  4  1  0
  4  5  1  0
  5  6  1  0
  6  7  1  0
  7  8  2  0
  7  9  1  0
  9 10  2  0
 10 11  1  0
 11 12  1  0
 12 13  1  0
 13 14  1  0
 14 15  1  0
 15 16  1  0
 16 17  1  0
 11 18  2  0
 18 19  1  0
  6 20  1  0
 20 21  1  0
 21  2  1  0
 19  9  1  0
 17 12  1  0
  1 22  1  0
  1 23  1  0
  1 24  1  0
  3 25  1  0
  3 26  1  0
  3 27  1  0
  4 28  1  0
  4 29  1  0
  5 30  1  0
  5 31  1  0
 12 32  1  0
 13 33  1  0
 13 34  1  0
 14 35  1  0
 14 36  1  0
 15 37  1  0
 15 38  1  0
 16 39  1  0
 16 40  1  0
 17 41  1  0
 17 42  1  0
 19 43  1  0
 20 44  1  0
 20 45  1  0
 21 46  1  0
 21 47  1  0
M  END
>  <meeko>  (20) 
{"is_sidechain": false}

$$$$

     RDKit          3D

 47 49  0  0  0  0  0  0  0  0999 V2000
    7.5190   -2.5040  -54.1650 C   0  0  0  0  0  0  0  0  0  0  0  0
    7.5630   -1.1250  -53.4810 C   0  0  0  0  0  0  0  0  0  0  0  0
    7.6190   -1.3490  -51.9590 C   0  0  0  0  0  0  0  0  0  0  0  0
    8.8120   -0.3310  -53.9220 C   0  0  0  0  0  0  0  0  0  0  0  0
    8.7420    0.1350  -55.3750 C   0  0  0  0  0  0  0  0  0  0  0  0
    7.5050    0.8620  -55.6560 N   0  0  0  0  0  0  0  0  0  0  0  0
    7.4110    1.7440  -56.7590 C   0  0  0  0  0  0  0  0  0  0  0  0
    6.3550    1.8500  -57.3910 O   0  0  0  0  0  0  0  0  0  0  0  0
    8.5940    2.5670  -57.1230 C   0  0  0  0  0  0  0  0  0  0  0  0
    9.0030    3.6640  -56.4480 N   0  0  0  0  0  0  0  0  0  0  0  0
   10.0300    4.0910  -57.1950 N   0  0  0  0  0  0  0  0  0  0  0  0
   10.2450    3.2830  -58.2700 C   0  0  0  0  0  0  0  0  0  0  0  0
   11.3260    3.5250  -59.2770 C   0  0  0  0  0  0  0  0  0  0  0  0
   12.6700    3.7690  -58.5630 C   0  0  0  0  0  0  0  0  0  0  0  0
   13.6300    4.5700  -59.4320 C   0  0  0  0  0  0  0  0  0  0  0  0
   13.0730    5.9560  -59.7630 C   0  0  0  0  0  0  0  0  0  0  0  0
   11.5460    6.0050  -59.8140 C   0  0  0  0  0  0  0  0  0  0  0  0
   10.9460    4.6690  -60.2390 C   0  0  0  0  0  0  0  0  0  0  0  0
    9.3520    2.3190  -58.2560 N   0  0  0  0  0  0  0  0  0  0  0  0
    6.2770    0.1710  -55.2800 C   0  0  0  0  0  0  0  0  0  0  0  0
    6.3050   -0.3000  -53.8270 C   0  0  0  0  0  0  0  0  0  0  0  0
    7.4938   -3.2928  -53.3987 H   0  0  0  0  0  0  0  0  0  0  0  0
    6.6182   -2.5735  -54.7925 H   0  0  0  0  0  0  0  0  0  0  0  0
    8.4136   -2.6308  -54.7925 H   0  0  0  0  0  0  0  0  0  0  0  0
    7.3837   -0.4076  -51.4409 H   0  0  0  0  0  0  0  0  0  0  0  0
    6.8854   -2.1176  -51.6743 H   0  0  0  0  0  0  0  0  0  0  0  0
    8.6280   -1.6819  -51.6743 H   0  0  0  0  0  0  0  0  0  0  0  0
    8.9116    0.5530  -53.2750 H   0  0  0  0  0  0  0  0  0  0  0  0
    9.6773   -1.0044  -53.8343 H   0  0  0  0  0  0  0  0  0  0  0  0
    9.5971    0.7966  -55.5777 H   0  0  0  0  0  0  0  0  0  0  0  0
    8.7677   -0.7557  -56.0200 H   0  0  0  0  0  0  0  0  0  0  0  0
   10.5290    4.9300  -56.9190 H   0  0  0  0  0  0  0  0  0  0  0  0
   11.4434    2.6263  -59.9003 H   0  0  0  0  0  0  0  0  0  0  0  0
   12.4837    4.3242  -57.6318 H   0  0  0  0  0  0  0  0  0  0  0  0
   13.1300    2.7921  -58.3531 H   0  0  0  0  0  0  0  0  0  0  0  0
   14.5828    4.6878  -58.8951 H   0  0  0  0  0  0  0  0  0  0  0  0
   13.7739    4.0243  -60.3762 H   0  0  0  0  0  0  0  0  0  0  0  0
   13.4182    6.6625  -58.9938 H   0  0  0  0  0  0  0  0  0  0  0  0
   13.4382    6.2195  -60.7666 H   0  0  0  0  0  0  0  0  0  0  0  0
   11.1653    6.2636  -58.8149 H   0  0  0  0  0  0  0  0  0  0  0  0
   11.2547    6.7607  -60.5584 H   0  0  0  0  0  0  0  0  0  0  0  0
    9.8503    4.7640  -60.2605 H   0  0  0  0  0  0  0  0  0  0  0  0
   11.3470    4.4206  -61.2327 H   0  0  0  0  0  0  0  0  0  0  0  0
    5.4282    0.8577  -55.4141 H   0  0  0  0  0  0  0  0  0  0  0  0
    6.1773   -0.7165  -55.9221 H   0  0  0  0  0  0  0  0  0  0  0  0
    6.2748    0.5833  -53.1722 H   0  0  0  0  0  0  0  0  0  0  0  0
    5.4331   -0.9539  -53.6777 H   0  0  0  0  0  0  0  0  0  0  0  0
  1  2  1  0
  2  3  1  0
  2  4  1  0
  4  5  1  0
  5  6  1  0
  6  7  1  0
  7  8  2  0
  7  9  1  0
  9 10  2  0
 10 11  1  0
 11 12  1  0
 12 13  1  0
 13 14  1  0
 14 15  1  0
 15 16  1  0
 16 17  1  0
 17 18  1  0
 12 19  2  0
  6 20  1  0
 20 21  1  0
 21  2  1  0
 19  9  1  0
 18 13  1  0
  1 22  1  0
  1 23  1  0
  1 24  1  0
  3 25  1  0
  3 26  1  0
  3 27  1  0
  4 28  1  0
  4 29  1  0
  5 30  1  0
  5 31  1  0
 11 32  1  0
 13 33  1  0
 14 34  1  0
 14 35  1  0
 15 36  1  0
 15 37  1  0
 16 38  1  0
 16 39  1  0
 17 40  1  0
 17 41  1  0
 18 42  1  0
 18 43  1  0
 20 44  1  0
 20 45  1  0
 21 46  1  0
 21 47  1  0
M  END
>  <meeko>  (21) 
{"is_sidechain": false}

$$$$

     RDKit          3D

 45 48  0  0  0  0  0  0  0  0999 V2000
    2.5310    2.6400  -62.7350 C   0  0  0  0  0  0  0  0  0  0  0  0
    3.6690    1.6980  -62.2980 C   0  0  0  0  0  0  0  0  0  0  0  0
    4.8770    1.9270  -63.2230 C   0  0  0  0  0  0  0  0  0  0  0  0
    3.1830    0.2450  -62.4360 C   0  0  0  0  0  0  0  0  0  0  0  0
    4.0540    1.9800  -60.8670 C   0  0  0  0  0  0  0  0  0  0  0  0
    3.2640    2.3010  -59.8640 N   0  0  0  0  0  0  0  0  0  0  0  0
    4.0350    2.4490  -58.7360 N   0  0  0  0  0  0  0  0  0  0  0  0
    5.2940    2.2500  -59.0660 C   0  0  0  0  0  0  0  0  0  0  0  0
    6.4680    2.2700  -58.2150 C   0  0  0  0  0  0  0  0  0  0  0  0
    6.6610    1.3310  -57.4380 O   0  0  0  0  0  0  0  0  0  0  0  0
    7.3620    3.3520  -58.2610 N   0  0  0  0  0  0  0  0  0  0  0  0
    7.6050    4.1680  -59.4720 C   0  0  1  0  0  0  0  0  0  0  0  0
    7.9370    5.6110  -59.0600 C   0  0  0  0  0  0  0  0  0  0  0  0
    9.1710    5.6190  -58.1420 C   0  0  2  0  0  0  0  0  0  0  0  0
   10.3670    4.9980  -58.8860 C   0  0  0  0  0  0  0  0  0  0  0  0
   10.0440    3.5540  -59.3100 C   0  0  1  0  0  0  0  0  0  0  0  0
    9.7200    2.7170  -58.0570 C   0  0  0  0  0  0  0  0  0  0  0  0
    8.5080    3.3340  -57.3330 C   0  0  1  0  0  0  0  0  0  0  0  0
    8.8450    4.7710  -56.9020 C   0  0  0  0  0  0  0  0  0  0  0  0
    8.8050    3.5610  -60.2280 C   0  0  0  0  0  0  0  0  0  0  0  0
    5.3400    1.9280  -60.3970 N   0  0  0  0  0  0  0  0  0  0  0  0
    2.0335    3.0518  -61.8445 H   0  0  0  0  0  0  0  0  0  0  0  0
    2.9462    3.4623  -63.3363 H   0  0  0  0  0  0  0  0  0  0  0  0
    1.8008    2.0785  -63.3363 H   0  0  0  0  0  0  0  0  0  0  0  0
    5.7775    2.0977  -62.6147 H   0  0  0  0  0  0  0  0  0  0  0  0
    5.0259    1.0411  -63.8578 H   0  0  0  0  0  0  0  0  0  0  0  0
    4.6913    2.8059  -63.8578 H   0  0  0  0  0  0  0  0  0  0  0  0
    3.0376   -0.1896  -61.4360 H   0  0  0  0  0  0  0  0  0  0  0  0
    2.2302    0.2277  -62.9853 H   0  0  0  0  0  0  0  0  0  0  0  0
    3.9337   -0.3421  -62.9853 H   0  0  0  0  0  0  0  0  0  0  0  0
    6.7117    4.1743  -60.1138 H   0  0  0  0  0  0  0  0  0  0  0  0
    8.1468    6.2086  -59.9593 H   0  0  0  0  0  0  0  0  0  0  0  0
    7.0801    6.0415  -58.5210 H   0  0  0  0  0  0  0  0  0  0  0  0
    9.4255    6.6482  -57.8488 H   0  0  0  0  0  0  0  0  0  0  0  0
   10.5880    5.5978  -59.7812 H   0  0  0  0  0  0  0  0  0  0  0  0
   11.2380    4.9863  -58.2143 H   0  0  0  0  0  0  0  0  0  0  0  0
   10.9073    3.1248  -59.8396 H   0  0  0  0  0  0  0  0  0  0  0  0
    9.4837    1.6849  -58.3553 H   0  0  0  0  0  0  0  0  0  0  0  0
   10.5889    2.7112  -57.3825 H   0  0  0  0  0  0  0  0  0  0  0  0
    8.2590    2.7394  -56.4417 H   0  0  0  0  0  0  0  0  0  0  0  0
    7.9826    5.2073  -56.3767 H   0  0  0  0  0  0  0  0  0  0  0  0
    9.7163    4.7559  -56.2308 H   0  0  0  0  0  0  0  0  0  0  0  0
    9.0163    4.1636  -61.1237 H   0  0  0  0  0  0  0  0  0  0  0  0
    8.5653    2.5297  -60.5264 H   0  0  0  0  0  0  0  0  0  0  0  0
    6.1780    1.6890  -60.9070 H   0  0  0  0  0  0  0  0  0  0  0  0
  1  2  1  0
  2  3  1  0
  2  4  1  0
  2  5  1  0
  5  6  2  0
  6  7  1  0
  7  8  2  0
  8  9  1  0
  9 10  2  0
  9 11  1  0
 11 12  1  0
 12 13  1  0
 13 14  1  0
 14 15  1  0
 15 16  1  0
 16 17  1  0
 17 18  1  0
 18 19  1  0
 16 20  1  0
  8 21  1  0
 21  5  1  0
 18 11  1  0
 20 12  1  0
 19 14  1  0
  1 22  1  0
  1 23  1  0
  1 24  1  0
  3 25  1  0
  3 26  1  0
  3 27  1  0
  4 28  1  0
  4 29  1  0
  4 30  1  0
 12 31  1  6
 13 32  1  0
 13 33  1  0
 14 34  1  1
 15 35  1  0
 15 36  1  0
 16 37  1  6
 17 38  1  0
 17 39  1  0
 18 40  1  1
 19 41  1  0
 19 42  1  0
 20 43  1  0
 20 44  1  0
 21 45  1  0
M  END
>  <meeko>  (22) 
{"is_sidechain": false}

$$$$

     RDKit          3D

 45 48  0  0  0  0  0  0  0  0999 V2000
    4.8030    1.9190  -63.2230 C   0  0  0  0  0  0  0  0  0  0  0  0
    3.7030    1.6880  -62.1730 C   0  0  0  0  0  0  0  0  0  0  0  0
    2.5310    2.6440  -62.4730 C   0  0  0  0  0  0  0  0  0  0  0  0
    3.1910    0.2400  -62.2720 C   0  0  0  0  0  0  0  0  0  0  0  0
    4.2440    1.9510  -60.7910 C   0  0  0  0  0  0  0  0  0  0  0  0
    5.4950    1.9020  -60.3870 N   0  0  0  0  0  0  0  0  0  0  0  0
    5.4440    2.2300  -59.0410 C   0  0  0  0  0  0  0  0  0  0  0  0
    6.6650    2.3590  -58.2050 C   0  0  0  0  0  0  0  0  0  0  0  0
    6.6610    1.9970  -57.0260 O   0  0  0  0  0  0  0  0  0  0  0  0
    7.8410    2.8680  -58.7980 N   0  0  0  0  0  0  0  0  0  0  0  0
    7.8110    3.9170  -59.8380 C   0  0  1  0  0  0  0  0  0  0  0  0
    7.8800    5.2930  -59.1440 C   0  0  0  0  0  0  0  0  0  0  0  0
    9.1690    5.3830  -58.3030 C   0  0  2  0  0  0  0  0  0  0  0  0
   10.3880    5.2000  -59.2270 C   0  0  0  0  0  0  0  0  0  0  0  0
   10.3220    3.8360  -59.9360 C   0  0  1  0  0  0  0  0  0  0  0  0
   10.2900    2.7150  -58.8830 C   0  0  0  0  0  0  0  0  0  0  0  0
    9.0620    2.8950  -57.9750 C   0  0  1  0  0  0  0  0  0  0  0  0
    9.1500    4.2530  -57.2550 C   0  0  0  0  0  0  0  0  0  0  0  0
    9.0280    3.7500  -60.7630 C   0  0  0  0  0  0  0  0  0  0  0  0
    4.1890    2.4830  -58.6120 N   0  0  0  0  0  0  0  0  0  0  0  0
    3.4670    2.3060  -59.7260 N   0  0  0  0  0  0  0  0  0  0  0  0
    5.7581    2.1196  -62.7154 H   0  0  0  0  0  0  0  0  0  0  0  0
    4.9034    1.0223  -63.8522 H   0  0  0  0  0  0  0  0  0  0  0  0
    4.5342    2.7803  -63.8522 H   0  0  0  0  0  0  0  0  0  0  0  0
    2.0959    2.9989  -61.5271 H   0  0  0  0  0  0  0  0  0  0  0  0
    2.8982    3.5035  -63.0530 H   0  0  0  0  0  0  0  0  0  0  0  0
    1.7628    2.1116  -63.0530 H   0  0  0  0  0  0  0  0  0  0  0  0
    3.0468   -0.1679  -61.2606 H   0  0  0  0  0  0  0  0  0  0  0  0
    2.2334    0.2259  -62.8131 H   0  0  0  0  0  0  0  0  0  0  0  0
    3.9269   -0.3729  -62.8131 H   0  0  0  0  0  0  0  0  0  0  0  0
    6.8889    3.8380  -60.4326 H   0  0  0  0  0  0  0  0  0  0  0  0
    7.8830    6.0873  -59.9050 H   0  0  0  0  0  0  0  0  0  0  0  0
    7.0058    5.4158  -58.4877 H   0  0  0  0  0  0  0  0  0  0  0  0
    9.2304    6.3609  -57.8031 H   0  0  0  0  0  0  0  0  0  0  0  0
   10.3949    6.0008  -59.9811 H   0  0  0  0  0  0  0  0  0  0  0  0
   11.3053    5.2440  -58.6214 H   0  0  0  0  0  0  0  0  0  0  0  0
   11.2011    3.7267  -60.5881 H   0  0  0  0  0  0  0  0  0  0  0  0
   10.2318    1.7397  -59.3883 H   0  0  0  0  0  0  0  0  0  0  0  0
   11.2047    2.7601  -58.2736 H   0  0  0  0  0  0  0  0  0  0  0  0
    9.0330    2.0829  -57.2336 H   0  0  0  0  0  0  0  0  0  0  0  0
    8.2779    4.3771  -56.5961 H   0  0  0  0  0  0  0  0  0  0  0  0
   10.0696    4.2926  -56.6527 H   0  0  0  0  0  0  0  0  0  0  0  0
    9.0241    4.5478  -61.5203 H   0  0  0  0  0  0  0  0  0  0  0  0
    8.9769    2.7698  -61.2596 H   0  0  0  0  0  0  0  0  0  0  0  0
    2.4630    2.4470  -59.6930 H   0  0  0  0  0  0  0  0  0  0  0  0
  1  2  1  0
  2  3  1  0
  2  4  1  0
  2  5  1  0
  5  6  2  0
  6  7  1  0
  7  8  1  0
  8  9  2  0
  8 10  1  0
 10 11  1  0
 11 12  1  0
 12 13  1  0
 13 14  1  0
 14 15  1  0
 15 16  1  0
 16 17  1  0
 17 18  1  0
 15 19  1  0
  7 20  2  0
 20 21  1  0
 21  5  1  0
 17 10  1  0
 19 11  1  0
 18 13  1  0
  1 22  1  0
  1 23  1  0
  1 24  1  0
  3 25  1  0
  3 26  1  0
  3 27  1  0
  4 28  1  0
  4 29  1  0
  4 30  1  0
 11 31  1  6
 12 32  1  0
 12 33  1  0
 13 34  1  1
 14 35  1  0
 14 36  1  0
 15 37  1  6
 16 38  1  0
 16 39  1  0
 17 40  1  1
 18 41  1  0
 18 42  1  0
 19 43  1  0
 19 44  1  0
 21 45  1  0
M  END
>  <meeko>  (23) 
{"is_sidechain": false}

$$$$

     RDKit          3D

 45 48  0  0  0  0  0  0  0  0999 V2000
    2.5370    2.6660  -62.6570 C   0  0  0  0  0  0  0  0  0  0  0  0
    3.6060    1.6450  -62.2170 C   0  0  0  0  0  0  0  0  0  0  0  0
    4.7740    1.7090  -63.2200 C   0  0  0  0  0  0  0  0  0  0  0  0
    2.9770    0.2390  -62.2650 C   0  0  0  0  0  0  0  0  0  0  0  0
    4.1010    1.9460  -60.8220 C   0  0  0  0  0  0  0  0  0  0  0  0
    3.2820    2.2700  -59.8130 N   0  0  0  0  0  0  0  0  0  0  0  0
    4.1500    2.4320  -58.8020 N   0  0  0  0  0  0  0  0  0  0  0  0
    5.4400    2.2320  -59.2000 C   0  0  0  0  0  0  0  0  0  0  0  0
    6.5530    2.3220  -58.2750 C   0  0  0  0  0  0  0  0  0  0  0  0
    6.6280    1.5030  -57.3540 O   0  0  0  0  0  0  0  0  0  0  0  0
    7.5350    3.3190  -58.4120 N   0  0  0  0  0  0  0  0  0  0  0  0
    7.6060    4.3090  -59.5080 C   0  0  1  0  0  0  0  0  0  0  0  0
    8.1700    5.6400  -58.9720 C   0  0  0  0  0  0  0  0  0  0  0  0
    9.5580    5.4120  -58.3600 C   0  0  2  0  0  0  0  0  0  0  0  0
   10.5000    4.8330  -59.4300 C   0  0  0  0  0  0  0  0  0  0  0  0
    9.9410    3.5060  -59.9730 C   0  0  1  0  0  0  0  0  0  0  0  0
    9.7990    2.5060  -58.8060 C   0  0  0  0  0  0  0  0  0  0  0  0
    8.8340    3.0850  -57.7520 C   0  0  1  0  0  0  0  0  0  0  0  0
    9.4010    4.4060  -57.2090 C   0  0  0  0  0  0  0  0  0  0  0  0
    8.5470    3.7550  -60.5910 C   0  0  0  0  0  0  0  0  0  0  0  0
    5.4310    1.9050  -60.4780 N   0  0  0  0  0  0  0  0  0  0  0  0
    2.0689    3.1131  -61.7676 H   0  0  0  0  0  0  0  0  0  0  0  0
    3.0102    3.4561  -63.2586 H   0  0  0  0  0  0  0  0  0  0  0  0
    1.7695    2.1571  -63.2586 H   0  0  0  0  0  0  0  0  0  0  0  0
    5.7260    1.7612  -62.6714 H   0  0  0  0  0  0  0  0  0  0  0  0
    4.7640    0.8090  -63.8523 H   0  0  0  0  0  0  0  0  0  0  0  0
    4.6658    2.6026  -63.8523 H   0  0  0  0  0  0  0  0  0  0  0  0
    2.8141   -0.1250  -61.2398 H   0  0  0  0  0  0  0  0  0  0  0  0
    2.0141    0.2860  -62.7947 H   0  0  0  0  0  0  0  0  0  0  0  0
    3.6538   -0.4476  -62.7947 H   0  0  0  0  0  0  0  0  0  0  0  0
    3.8180    2.6690  -57.8730 H   0  0  0  0  0  0  0  0  0  0  0  0
    6.6032    4.4885  -59.9230 H   0  0  0  0  0  0  0  0  0  0  0  0
    8.2502    6.3611  -59.7988 H   0  0  0  0  0  0  0  0  0  0  0  0
    7.4941    6.0336  -58.1985 H   0  0  0  0  0  0  0  0  0  0  0  0
    9.9811    6.3575  -57.9899 H   0  0  0  0  0  0  0  0  0  0  0  0
   10.5951    5.5520  -60.2570 H   0  0  0  0  0  0  0  0  0  0  0  0
   11.4849    4.6473  -58.9766 H   0  0  0  0  0  0  0  0  0  0  0  0
   10.6210    3.1013  -60.7371 H   0  0  0  0  0  0  0  0  0  0  0  0
    9.4003    1.5534  -59.1850 H   0  0  0  0  0  0  0  0  0  0  0  0
   10.7839    2.3330  -58.3477 H   0  0  0  0  0  0  0  0  0  0  0  0
    8.7098    2.3886  -56.9096 H   0  0  0  0  0  0  0  0  0  0  0  0
    8.7135    4.8169  -56.4550 H   0  0  0  0  0  0  0  0  0  0  0  0
   10.3832    4.2204  -56.7498 H   0  0  0  0  0  0  0  0  0  0  0  0
    8.6328    4.4828  -61.4114 H   0  0  0  0  0  0  0  0  0  0  0  0
    8.1428    2.8106  -60.9843 H   0  0  0  0  0  0  0  0  0  0  0  0
  1  2  1  0
  2  3  1  0
  2  4  1  0
  2  5  1  0
  5  6  2  0
  6  7  1  0
  7  8  1  0
  8  9  1  0
  9 10  2  0
  9 11  1  0
 11 12  1  0
 12 13  1  0
 13 14  1  0
 14 15  1  0
 15 16  1  0
 16 17  1  0
 17 18  1  0
 18 19  1  0
 16 20  1  0
  8 21  2  0
 21  5  1  0
 18 11  1  0
 20 12  1  0
 19 14  1  0
  1 22  1  0
  1 23  1  0
  1 24  1  0
  3 25  1  0
  3 26  1  0
  3 27  1  0
  4 28  1  0
  4 29  1  0
  4 30  1  0
  7 31  1  0
 12 32  1  6
 13 33  1  0
 13 34  1  0
 14 35  1  1
 15 36  1  0
 15 37  1  0
 16 38  1  6
 17 39  1  0
 17 40  1  0
 18 41  1  1
 19 42  1  0
 19 43  1  0
 20 44  1  0
 20 45  1  0
M  END
>  <meeko>  (24) 
{"is_sidechain": false}

$$$$

     RDKit          3D

 40 44  0  0  0  0  0  0  0  0999 V2000
    7.0220    1.5300  -57.2510 O   0  0  0  0  0  0  0  0  0  0  0  0
    6.9660    2.0820  -58.3550 C   0  0  0  0  0  0  0  0  0  0  0  0
    5.7170    2.0390  -59.0890 C   0  0  0  0  0  0  0  0  0  0  0  0
    4.5740    2.6390  -58.8220 N   0  0  0  0  0  0  0  0  0  0  0  0
    3.6540    2.2740  -59.7800 N   0  0  0  0  0  0  0  0  0  0  0  0
    4.2480    1.4420  -60.6020 C   0  0  0  0  0  0  0  0  0  0  0  0
    3.5730    0.7670  -61.8190 C   0  0  0  0  0  0  0  0  0  0  0  0
    2.6460    1.5860  -62.6770 C   0  0  0  0  0  0  0  0  0  0  0  0
    3.9860    1.1690  -63.2110 C   0  0  0  0  0  0  0  0  0  0  0  0
    5.5350    1.2550  -60.2010 N   0  0  0  0  0  0  0  0  0  0  0  0
    8.1010    2.7270  -58.8740 N   0  0  0  0  0  0  0  0  0  0  0  0
    9.1630    3.1050  -57.9210 C   0  0  1  0  0  0  0  0  0  0  0  0
   10.5450    2.9210  -58.5670 C   0  0  0  0  0  0  0  0  0  0  0  0
   10.6380    3.7770  -59.8390 C   0  0  2  0  0  0  0  0  0  0  0  0
   10.4120    5.2580  -59.4860 C   0  0  0  0  0  0  0  0  0  0  0  0
    9.0310    5.4480  -58.8330 C   0  0  1  0  0  0  0  0  0  0  0  0
    7.9360    4.9770  -59.8150 C   0  0  0  0  0  0  0  0  0  0  0  0
    8.1540    3.4880  -60.1420 C   0  0  1  0  0  0  0  0  0  0  0  0
    9.5360    3.3080  -60.7990 C   0  0  0  0  0  0  0  0  0  0  0  0
    8.9590    4.5880  -57.5540 C   0  0  0  0  0  0  0  0  0  0  0  0
    3.5005   -0.1879  -61.2777 H   0  0  0  0  0  0  0  0  0  0  0  0
    1.7283    1.1340  -63.0813 H   0  0  0  0  0  0  0  0  0  0  0  0
    2.1214    2.5455  -62.5577 H   0  0  0  0  0  0  0  0  0  0  0  0
    4.0496    0.4114  -64.0060 H   0  0  0  0  0  0  0  0  0  0  0  0
    4.8487    1.6964  -63.6442 H   0  0  0  0  0  0  0  0  0  0  0  0
    6.2350    0.6590  -60.6180 H   0  0  0  0  0  0  0  0  0  0  0  0
    9.1115    2.4699  -57.0243 H   0  0  0  0  0  0  0  0  0  0  0  0
   11.3252    3.2338  -57.8575 H   0  0  0  0  0  0  0  0  0  0  0  0
   10.6877    1.8621  -58.8284 H   0  0  0  0  0  0  0  0  0  0  0  0
   11.6300    3.6705  -60.3022 H   0  0  0  0  0  0  0  0  0  0  0  0
   11.1931    5.5870  -58.7848 H   0  0  0  0  0  0  0  0  0  0  0  0
   10.4566    5.8560  -60.4082 H   0  0  0  0  0  0  0  0  0  0  0  0
    8.8788    6.5087  -58.5843 H   0  0  0  0  0  0  0  0  0  0  0  0
    6.9463    5.1112  -59.3541 H   0  0  0  0  0  0  0  0  0  0  0  0
    7.9900    5.5698  -60.7400 H   0  0  0  0  0  0  0  0  0  0  0  0
    7.3792    3.1264  -60.8341 H   0  0  0  0  0  0  0  0  0  0  0  0
    9.6897    2.2456  -61.0391 H   0  0  0  0  0  0  0  0  0  0  0  0
    9.5793    3.9083  -61.7198 H   0  0  0  0  0  0  0  0  0  0  0  0
    9.7466    4.9045  -56.8544 H   0  0  0  0  0  0  0  0  0  0  0  0
    7.9747    4.7168  -57.0800 H   0  0  0  0  0  0  0  0  0  0  0  0
  1  2  2  0
  2  3  1  0
  3  4  2  0
  4  5  1  0
  5  6  2  0
  6  7  1  0
  7  8  1  0
  8  9  1  0
  6 10  1  0
  2 11  1  0
 11 12  1  0
 12 13  1  0
 13 14  1  0
 14 15  1  0
 15 16  1  0
 16 17  1  0
 17 18  1  0
 18 19  1  0
 16 20  1  0
 10  3  1  0
 18 11  1  0
  9  7  1  0
 20 12  1  0
 19 14  1  0
  7 21  1  0
  8 22  1  0
  8 23  1  0
  9 24  1  0
  9 25  1  0
 10 26  1  0
 12 27  1  1
 13 28  1  0
 13 29  1  0
 14 30  1  6
 15 31  1  0
 15 32  1  0
 16 33  1  1
 17 34  1  0
 17 35  1  0
 18 36  1  6
 19 37  1  0
 19 38  1  0
 20 39  1  0
 20 40  1  0
M  END
>  <meeko>  (25) 
{"is_sidechain": false}

$$$$

     RDKit          3D

 40 44  0  0  0  0  0  0  0  0999 V2000
    7.0830    1.2540  -57.4780 O   0  0  0  0  0  0  0  0  0  0  0  0
    6.9470    1.8940  -58.5250 C   0  0  0  0  0  0  0  0  0  0  0  0
    5.6500    1.9020  -59.1730 C   0  0  0  0  0  0  0  0  0  0  0  0
    5.2370    1.2570  -60.2460 N   0  0  0  0  0  0  0  0  0  0  0  0
    3.9490    1.6900  -60.4070 C   0  0  0  0  0  0  0  0  0  0  0  0
    3.0390    1.1910  -61.5610 C   0  0  0  0  0  0  0  0  0  0  0  0
    3.6690    0.7090  -62.8430 C   0  0  0  0  0  0  0  0  0  0  0  0
    2.9310    2.0170  -62.8180 C   0  0  0  0  0  0  0  0  0  0  0  0
    3.5330    2.5760  -59.4990 N   0  0  0  0  0  0  0  0  0  0  0  0
    4.6310    2.7040  -58.7380 N   0  0  0  0  0  0  0  0  0  0  0  0
    8.0380    2.5970  -59.0660 N   0  0  0  0  0  0  0  0  0  0  0  0
    7.9880    3.4700  -60.2590 C   0  0  1  0  0  0  0  0  0  0  0  0
    7.7660    4.9170  -59.7830 C   0  0  0  0  0  0  0  0  0  0  0  0
    8.9190    5.3240  -58.8390 C   0  0  2  0  0  0  0  0  0  0  0  0
   10.2540    5.2280  -59.5990 C   0  0  0  0  0  0  0  0  0  0  0  0
   10.4820    3.7910  -60.1010 C   0  0  1  0  0  0  0  0  0  0  0  0
   10.4930    2.8230  -58.9100 C   0  0  0  0  0  0  0  0  0  0  0  0
    9.1570    2.9130  -58.1570 C   0  0  1  0  0  0  0  0  0  0  0  0
    8.9530    4.3510  -57.6420 C   0  0  0  0  0  0  0  0  0  0  0  0
    9.3240    3.3840  -61.0220 C   0  0  0  0  0  0  0  0  0  0  0  0
    2.3236    0.7694  -60.8396 H   0  0  0  0  0  0  0  0  0  0  0  0
    4.7640    0.6977  -62.9469 H   0  0  0  0  0  0  0  0  0  0  0  0
    3.6019   -0.2097  -63.4443 H   0  0  0  0  0  0  0  0  0  0  0  0
    3.4859    2.9629  -62.9035 H   0  0  0  0  0  0  0  0  0  0  0  0
    2.1003    2.4518  -63.3933 H   0  0  0  0  0  0  0  0  0  0  0  0
    4.6400    3.3440  -57.9510 H   0  0  0  0  0  0  0  0  0  0  0  0
    7.1735    3.1535  -60.9271 H   0  0  0  0  0  0  0  0  0  0  0  0
    7.7466    5.5912  -60.6519 H   0  0  0  0  0  0  0  0  0  0  0  0
    6.8078    4.9868  -59.2473 H   0  0  0  0  0  0  0  0  0  0  0  0
    8.7650    6.3539  -58.4846 H   0  0  0  0  0  0  0  0  0  0  0  0
   10.2318    5.9134  -60.4591 H   0  0  0  0  0  0  0  0  0  0  0  0
   11.0732    5.5030  -58.9184 H   0  0  0  0  0  0  0  0  0  0  0  0
   11.4409    3.7506  -60.6385 H   0  0  0  0  0  0  0  0  0  0  0  0
   10.6384    1.7956  -59.2752 H   0  0  0  0  0  0  0  0  0  0  0  0
   11.3137    3.0927  -58.2291 H   0  0  0  0  0  0  0  0  0  0  0  0
    9.1796    2.1980  -57.3214 H   0  0  0  0  0  0  0  0  0  0  0  0
    8.0024    4.4124  -57.0920 H   0  0  0  0  0  0  0  0  0  0  0  0
    9.7817    4.6222  -56.9714 H   0  0  0  0  0  0  0  0  0  0  0  0
    9.2927    4.0608  -61.8886 H   0  0  0  0  0  0  0  0  0  0  0  0
    9.4796    2.3494  -61.3618 H   0  0  0  0  0  0  0  0  0  0  0  0
  1  2  2  0
  2  3  1  0
  3  4  2  0
  4  5  1  0
  5  6  1  0
  6  7  1  0
  7  8  1  0
  5  9  2  0
  9 10  1  0
  2 11  1  0
 11 12  1  0
 12 13  1  0
 13 14  1  0
 14 15  1  0
 15 16  1  0
 16 17  1  0
 17 18  1  0
 18 19  1  0
 16 20  1  0
 10  3  1  0
 18 11  1  0
  8  6  1  0
 20 12  1  0
 19 14  1  0
  6 21  1  0
  7 22  1  0
  7 23  1  0
  8 24  1  0
  8 25  1  0
 10 26  1  0
 12 27  1  6
 13 28  1  0
 13 29  1  0
 14 30  1  1
 15 31  1  0
 15 32  1  0
 16 33  1  6
 17 34  1  0
 17 35  1  0
 18 36  1  1
 19 37  1  0
 19 38  1  0
 20 39  1  0
 20 40  1  0
M  END
>  <meeko>  (26) 
{"is_sidechain": false}

$$$$

     RDKit          3D

 40 44  0  0  0  0  0  0  0  0999 V2000
    6.3970    1.8060  -57.3010 O   0  0  0  0  0  0  0  0  0  0  0  0
    6.5130    2.2260  -58.4560 C   0  0  0  0  0  0  0  0  0  0  0  0
    5.3830    2.1290  -59.4150 C   0  0  0  0  0  0  0  0  0  0  0  0
    4.0940    2.4010  -59.1090 N   0  0  0  0  0  0  0  0  0  0  0  0
    3.4870    2.2520  -60.2970 N   0  0  0  0  0  0  0  0  0  0  0  0
    4.3700    1.8970  -61.2670 C   0  0  0  0  0  0  0  0  0  0  0  0
    4.0270    1.6470  -62.7540 C   0  0  0  0  0  0  0  0  0  0  0  0
    3.2650    0.3990  -63.1210 C   0  0  0  0  0  0  0  0  0  0  0  0
    2.5910    1.7380  -63.2030 C   0  0  0  0  0  0  0  0  0  0  0  0
    5.5720    1.8190  -60.7540 N   0  0  0  0  0  0  0  0  0  0  0  0
    7.7350    2.7760  -58.9010 N   0  0  0  0  0  0  0  0  0  0  0  0
    7.7940    3.8760  -59.8870 C   0  0  1  0  0  0  0  0  0  0  0  0
    7.7750    5.2150  -59.1230 C   0  0  0  0  0  0  0  0  0  0  0  0
    8.9730    5.2750  -58.1550 C   0  0  2  0  0  0  0  0  0  0  0  0
   10.2790    5.1500  -58.9590 C   0  0  0  0  0  0  0  0  0  0  0  0
   10.3040    3.8210  -59.7360 C   0  0  1  0  0  0  0  0  0  0  0  0
   10.1820    2.6500  -58.7480 C   0  0  0  0  0  0  0  0  0  0  0  0
    8.8670    2.7740  -57.9590 C   0  0  1  0  0  0  0  0  0  0  0  0
    8.8650    4.0950  -57.1690 C   0  0  0  0  0  0  0  0  0  0  0  0
    9.1000    3.7660  -60.6920 C   0  0  0  0  0  0  0  0  0  0  0  0
    2.4890    2.4050  -60.3740 H   0  0  0  0  0  0  0  0  0  0  0  0
    4.9718    2.1099  -63.0752 H   0  0  0  0  0  0  0  0  0  0  0  0
    3.5160   -0.1474  -64.0421 H   0  0  0  0  0  0  0  0  0  0  0  0
    3.0434   -0.5529  -62.6162 H   0  0  0  0  0  0  0  0  0  0  0  0
    2.3484    2.1720  -64.1842 H   0  0  0  0  0  0  0  0  0  0  0  0
    1.6717    2.1721  -62.7831 H   0  0  0  0  0  0  0  0  0  0  0  0
    6.9370    3.8191  -60.5743 H   0  0  0  0  0  0  0  0  0  0  0  0
    7.8417    6.0466  -59.8400 H   0  0  0  0  0  0  0  0  0  0  0  0
    6.8388    5.2961  -58.5511 H   0  0  0  0  0  0  0  0  0  0  0  0
    8.9714    6.2278  -57.6054 H   0  0  0  0  0  0  0  0  0  0  0  0
   10.3491    5.9869  -59.6694 H   0  0  0  0  0  0  0  0  0  0  0  0
   11.1307    5.1734  -58.2633 H   0  0  0  0  0  0  0  0  0  0  0  0
   11.2457    3.7507  -60.3001 H   0  0  0  0  0  0  0  0  0  0  0  0
   10.1873    1.7005  -59.3034 H   0  0  0  0  0  0  0  0  0  0  0  0
   11.0307    2.6727  -58.0486 H   0  0  0  0  0  0  0  0  0  0  0  0
    8.7748    1.9266  -57.2637 H   0  0  0  0  0  0  0  0  0  0  0  0
    7.9303    4.1792  -56.5953 H   0  0  0  0  0  0  0  0  0  0  0  0
    9.7192    4.1127  -56.4762 H   0  0  0  0  0  0  0  0  0  0  0  0
    9.1612    4.6009  -61.4056 H   0  0  0  0  0  0  0  0  0  0  0  0
    9.1119    2.8115  -61.2386 H   0  0  0  0  0  0  0  0  0  0  0  0
  1  2  2  0
  2  3  1  0
  3  4  2  0
  4  5  1  0
  5  6  1  0
  6  7  1  0
  7  8  1  0
  8  9  1  0
  6 10  2  0
  2 11  1  0
 11 12  1  0
 12 13  1  0
 13 14  1  0
 14 15  1  0
 15 16  1  0
 16 17  1  0
 17 18  1  0
 18 19  1  0
 16 20  1  0
 10  3  1  0
 18 11  1  0
  9  7  1  0
 20 12  1  0
 19 14  1  0
  5 21  1  0
  7 22  1  0
  8 23  1  0
  8 24  1  0
  9 25  1  0
  9 26  1  0
 12 27  1  6
 13 28  1  0
 13 29  1  0
 14 30  1  1
 15 31  1  0
 15 32  1  0
 16 33  1  6
 17 34  1  0
 17 35  1  0
 18 36  1  1
 19 37  1  0
 19 38  1  0
 20 39  1  0
 20 40  1  0
M  END
>  <meeko>  (27) 
{"is_sidechain": false}

$$$$

     RDKit          3D

 46 50  0  0  0  0  0  0  0  0999 V2000
    7.4870    1.5030  -57.1990 O   0  0  0  0  0  0  0  0  0  0  0  0
    7.2450    2.1950  -58.1940 C   0  0  0  0  0  0  0  0  0  0  0  0
    5.8720    2.2950  -58.6520 C   0  0  0  0  0  0  0  0  0  0  0  0
    4.8570    2.9320  -58.1060 N   0  0  0  0  0  0  0  0  0  0  0  0
    3.7380    2.7120  -58.8740 N   0  0  0  0  0  0  0  0  0  0  0  0
    4.0780    1.9230  -59.8700 C   0  0  0  0  0  0  0  0  0  0  0  0
    3.2080    1.3890  -60.9590 C   0  0  0  0  0  0  0  0  0  0  0  0
    4.0140    0.5900  -61.9950 C   0  0  0  0  0  0  0  0  0  0  0  0
    4.1760    1.5330  -63.1790 C   0  0  0  0  0  0  0  0  0  0  0  0
    2.8450    2.2640  -63.2140 C   0  0  0  0  0  0  0  0  0  0  0  0
    2.5320    2.5270  -61.7450 C   0  0  0  0  0  0  0  0  0  0  0  0
    5.4090    1.6310  -59.7600 N   0  0  0  0  0  0  0  0  0  0  0  0
    8.2900    2.8590  -58.8580 N   0  0  0  0  0  0  0  0  0  0  0  0
    8.1330    3.7760  -60.0070 C   0  0  1  0  0  0  0  0  0  0  0  0
    8.0780    5.2170  -59.4660 C   0  0  0  0  0  0  0  0  0  0  0  0
    9.3760    5.5170  -58.6850 C   0  0  2  0  0  0  0  0  0  0  0  0
   10.5830    5.3640  -59.6290 C   0  0  0  0  0  0  0  0  0  0  0  0
   10.6410    3.9350  -60.1970 C   0  0  1  0  0  0  0  0  0  0  0  0
   10.7520    2.9250  -59.0450 C   0  0  0  0  0  0  0  0  0  0  0  0
    9.5440    3.0720  -58.1080 C   0  0  1  0  0  0  0  0  0  0  0  0
    9.5100    4.5010  -57.5310 C   0  0  0  0  0  0  0  0  0  0  0  0
    9.3400    3.6340  -60.9550 C   0  0  0  0  0  0  0  0  0  0  0  0
    2.4680    0.7500  -60.4549 H   0  0  0  0  0  0  0  0  0  0  0  0
    4.9962    0.3085  -61.5875 H   0  0  0  0  0  0  0  0  0  0  0  0
    3.5108   -0.3464  -62.2778 H   0  0  0  0  0  0  0  0  0  0  0  0
    5.0083    2.2336  -63.0162 H   0  0  0  0  0  0  0  0  0  0  0  0
    4.4115    1.0135  -64.1195 H   0  0  0  0  0  0  0  0  0  0  0  0
    2.9319    3.2087  -63.7708 H   0  0  0  0  0  0  0  0  0  0  0  0
    2.0568    1.6860  -63.7187 H   0  0  0  0  0  0  0  0  0  0  0  0
    2.9397    3.5006  -61.4353 H   0  0  0  0  0  0  0  0  0  0  0  0
    1.4477    2.5555  -61.5620 H   0  0  0  0  0  0  0  0  0  0  0  0
    5.9680    1.0370  -60.3540 H   0  0  0  0  0  0  0  0  0  0  0  0
    7.2132    3.5355  -60.5602 H   0  0  0  0  0  0  0  0  0  0  0  0
    7.9827    5.9216  -60.3054 H   0  0  0  0  0  0  0  0  0  0  0  0
    7.2112    5.3277  -58.7979 H   0  0  0  0  0  0  0  0  0  0  0  0
    9.3436    6.5415  -58.2857 H   0  0  0  0  0  0  0  0  0  0  0  0
   10.4877    6.0803  -60.4584 H   0  0  0  0  0  0  0  0  0  0  0  0
   11.5058    5.5614  -59.0637 H   0  0  0  0  0  0  0  0  0  0  0  0
   11.5104    3.8547  -60.8661 H   0  0  0  0  0  0  0  0  0  0  0  0
   10.7746    1.9044  -59.4547 H   0  0  0  0  0  0  0  0  0  0  0  0
   11.6761    3.1175  -58.4802 H   0  0  0  0  0  0  0  0  0  0  0  0
    9.6358    2.3281  -57.3029 H   0  0  0  0  0  0  0  0  0  0  0  0
    8.6509    4.6020  -56.8515 H   0  0  0  0  0  0  0  0  0  0  0  0
   10.4399    4.6955  -56.9765 H   0  0  0  0  0  0  0  0  0  0  0  0
    9.2327    4.3420  -61.7900 H   0  0  0  0  0  0  0  0  0  0  0  0
    9.3768    2.6047  -61.3412 H   0  0  0  0  0  0  0  0  0  0  0  0
  1  2  2  0
  2  3  1  0
  3  4  2  0
  4  5  1  0
  5  6  2  0
  6  7  1  0
  7  8  1  0
  8  9  1  0
  9 10  1  0
 10 11  1  0
  6 12  1  0
  2 13  1  0
 13 14  1  0
 14 15  1  0
 15 16  1  0
 16 17  1  0
 17 18  1  0
 18 19  1  0
 19 20  1  0
 20 21  1  0
 18 22  1  0
 12  3  1  0
 20 13  1  0
 11  7  1  0
 22 14  1  0
 21 16  1  0
  7 23  1  0
  8 24  1  0
  8 25  1  0
  9 26  1  0
  9 27  1  0
 10 28  1  0
 10 29  1  0
 11 30  1  0
 11 31  1  0
 12 32  1  0
 14 33  1  6
 15 34  1  0
 15 35  1  0
 16 36  1  1
 17 37  1  0
 17 38  1  0
 18 39  1  6
 19 40  1  0
 19 41  1  0
 20 42  1  1
 21 43  1  0
 21 44  1  0
 22 45  1  0
 22 46  1  0
M  END
>  <meeko>  (28) 
{"is_sidechain": false}

$$$$

     RDKit          3D

 46 50  0  0  0  0  0  0  0  0999 V2000
    7.3640    1.3510  -57.2120 O   0  0  0  0  0  0  0  0  0  0  0  0
    7.1440    2.0010  -58.2400 C   0  0  0  0  0  0  0  0  0  0  0  0
    5.7950    2.0390  -58.7690 C   0  0  0  0  0  0  0  0  0  0  0  0
    5.2940    1.4470  -59.8370 N   0  0  0  0  0  0  0  0  0  0  0  0
    3.9920    1.8740  -59.8670 C   0  0  0  0  0  0  0  0  0  0  0  0
    3.0310    1.4450  -60.9250 C   0  0  0  0  0  0  0  0  0  0  0  0
    3.6630    0.4680  -61.9300 C   0  0  0  0  0  0  0  0  0  0  0  0
    3.9810    1.3160  -63.1540 C   0  0  0  0  0  0  0  0  0  0  0  0
    2.7980    2.2650  -63.2230 C   0  0  0  0  0  0  0  0  0  0  0  0
    2.5310    2.6350  -61.7680 C   0  0  0  0  0  0  0  0  0  0  0  0
    3.6570    2.7160  -58.8820 N   0  0  0  0  0  0  0  0  0  0  0  0
    4.8160    2.8120  -58.2110 N   0  0  0  0  0  0  0  0  0  0  0  0
    8.1920    2.6890  -58.8760 N   0  0  0  0  0  0  0  0  0  0  0  0
    8.0540    3.5490  -60.0700 C   0  0  1  0  0  0  0  0  0  0  0  0
    7.8870    5.0040  -59.5950 C   0  0  0  0  0  0  0  0  0  0  0  0
    9.1180    5.4080  -58.7550 C   0  0  2  0  0  0  0  0  0  0  0  0
   10.3850    5.2880  -59.6220 C   0  0  0  0  0  0  0  0  0  0  0  0
   10.5540    3.8440  -60.1250 C   0  0  1  0  0  0  0  0  0  0  0  0
   10.6540    2.8870  -58.9260 C   0  0  0  0  0  0  0  0  0  0  0  0
    9.3870    3.0010  -58.0670 C   0  0  1  0  0  0  0  0  0  0  0  0
    9.2410    4.4480  -57.5530 C   0  0  0  0  0  0  0  0  0  0  0  0
    9.3190    3.4380  -60.9410 C   0  0  0  0  0  0  0  0  0  0  0  0
    2.2086    0.9679  -60.3718 H   0  0  0  0  0  0  0  0  0  0  0  0
    4.5815    0.0269  -61.5156 H   0  0  0  0  0  0  0  0  0  0  0  0
    2.9926   -0.3704  -62.1700 H   0  0  0  0  0  0  0  0  0  0  0  0
    4.9236    1.8670  -63.0201 H   0  0  0  0  0  0  0  0  0  0  0  0
    4.1176    0.7233  -64.0706 H   0  0  0  0  0  0  0  0  0  0  0  0
    3.0485    3.1587  -63.8133 H   0  0  0  0  0  0  0  0  0  0  0  0
    1.9220    1.8122  -63.7105 H   0  0  0  0  0  0  0  0  0  0  0  0
    3.0797    3.5499  -61.5000 H   0  0  0  0  0  0  0  0  0  0  0  0
    1.4628    2.8306  -61.5928 H   0  0  0  0  0  0  0  0  0  0  0  0
    4.8910    3.4130  -57.3970 H   0  0  0  0  0  0  0  0  0  0  0  0
    7.1835    3.2348  -60.6645 H   0  0  0  0  0  0  0  0  0  0  0  0
    7.8027    5.6685  -60.4675 H   0  0  0  0  0  0  0  0  0  0  0  0
    6.9771    5.0910  -58.9830 H   0  0  0  0  0  0  0  0  0  0  0  0
    9.0047    6.4435  -58.4017 H   0  0  0  0  0  0  0  0  0  0  0  0
   10.2996    5.9650  -60.4848 H   0  0  0  0  0  0  0  0  0  0  0  0
   11.2609    5.5597  -59.0145 H   0  0  0  0  0  0  0  0  0  0  0  0
   11.4636    3.7887  -60.7410 H   0  0  0  0  0  0  0  0  0  0  0  0
   10.7574    1.8541  -59.2900 H   0  0  0  0  0  0  0  0  0  0  0  0
   11.5315    3.1538  -58.3187 H   0  0  0  0  0  0  0  0  0  0  0  0
    9.4721    2.2943  -57.2284 H   0  0  0  0  0  0  0  0  0  0  0  0
    8.3399    4.5261  -56.9270 H   0  0  0  0  0  0  0  0  0  0  0  0
   10.1249    4.7173  -56.9562 H   0  0  0  0  0  0  0  0  0  0  0  0
    9.2220    4.1039  -61.8111 H   0  0  0  0  0  0  0  0  0  0  0  0
    9.4350    2.3977  -61.2792 H   0  0  0  0  0  0  0  0  0  0  0  0
  1  2  2  0
  2  3  1  0
  3  4  2  0
  4  5  1  0
  5  6  1  0
  6  7  1  0
  7  8  1  0
  8  9  1  0
  9 10  1  0
  5 11  2  0
 11 12  1  0
  2 13  1  0
 13 14  1  0
 14 15  1  0
 15 16  1  0
 16 17  1  0
 17 18  1  0
 18 19  1  0
 19 20  1  0
 20 21  1  0
 18 22  1  0
 12  3  1  0
 20 13  1  0
 10  6  1  0
 22 14  1  0
 21 16  1  0
  6 23  1  0
  7 24  1  0
  7 25  1  0
  8 26  1  0
  8 27  1  0
  9 28  1  0
  9 29  1  0
 10 30  1  0
 10 31  1  0
 12 32  1  0
 14 33  1  6
 15 34  1  0
 15 35  1  0
 16 36  1  1
 17 37  1  0
 17 38  1  0
 18 39  1  6
 19 40  1  0
 19 41  1  0
 20 42  1  1
 21 43  1  0
 21 44  1  0
 22 45  1  0
 22 46  1  0
M  END
>  <meeko>  (29) 
{"is_sidechain": false}

$$$$

     RDKit          3D

 46 50  0  0  0  0  0  0  0  0999 V2000
    7.4790    1.6590  -56.9680 O   0  0  0  0  0  0  0  0  0  0  0  0
    7.2590    2.3620  -57.9590 C   0  0  0  0  0  0  0  0  0  0  0  0
    6.0180    2.1750  -58.7560 C   0  0  0  0  0  0  0  0  0  0  0  0
    4.8400    2.7290  -58.4060 N   0  0  0  0  0  0  0  0  0  0  0  0
    4.0070    2.2540  -59.3390 N   0  0  0  0  0  0  0  0  0  0  0  0
    4.6470    1.4390  -60.2250 C   0  0  0  0  0  0  0  0  0  0  0  0
    4.0010    0.7540  -61.3870 C   0  0  0  0  0  0  0  0  0  0  0  0
    4.6620    1.1180  -62.7160 C   0  0  0  0  0  0  0  0  0  0  0  0
    3.9570    2.3920  -63.1590 C   0  0  0  0  0  0  0  0  0  0  0  0
    2.5320    2.2750  -62.6250 C   0  0  0  0  0  0  0  0  0  0  0  0
    2.5360    1.1330  -61.6060 C   0  0  0  0  0  0  0  0  0  0  0  0
    5.9140    1.3650  -59.8790 N   0  0  0  0  0  0  0  0  0  0  0  0
    8.1880    3.3470  -58.3460 N   0  0  0  0  0  0  0  0  0  0  0  0
    8.0550    4.2540  -59.5040 C   0  0  1  0  0  0  0  0  0  0  0  0
    8.5550    5.6570  -59.1140 C   0  0  0  0  0  0  0  0  0  0  0  0
   10.0160    5.5800  -58.6430 C   0  0  2  0  0  0  0  0  0  0  0  0
   10.8880    5.0070  -59.7740 C   0  0  0  0  0  0  0  0  0  0  0  0
   10.3900    3.6060  -60.1740 C   0  0  1  0  0  0  0  0  0  0  0  0
   10.4540    2.6780  -58.9430 C   0  0  0  0  0  0  0  0  0  0  0  0
    9.5610    3.2500  -57.8230 C   0  0  1  0  0  0  0  0  0  0  0  0
   10.0690    4.6440  -57.4250 C   0  0  0  0  0  0  0  0  0  0  0  0
    8.9250    3.7040  -60.6480 C   0  0  0  0  0  0  0  0  0  0  0  0
    3.0300    2.5220  -59.3060 H   0  0  0  0  0  0  0  0  0  0  0  0
    4.1064   -0.3083  -61.1216 H   0  0  0  0  0  0  0  0  0  0  0  0
    5.7384    1.2977  -62.5780 H   0  0  0  0  0  0  0  0  0  0  0  0
    4.5745    0.3125  -63.4599 H   0  0  0  0  0  0  0  0  0  0  0  0
    4.4558    3.2754  -62.7337 H   0  0  0  0  0  0  0  0  0  0  0  0
    3.9751    2.5098  -64.2525 H   0  0  0  0  0  0  0  0  0  0  0  0
    2.2308    3.2150  -62.1396 H   0  0  0  0  0  0  0  0  0  0  0  0
    1.8197    2.0760  -63.4392 H   0  0  0  0  0  0  0  0  0  0  0  0
    2.0838    1.4658  -60.6601 H   0  0  0  0  0  0  0  0  0  0  0  0
    1.9520    0.2740  -61.9679 H   0  0  0  0  0  0  0  0  0  0  0  0
    7.0032    4.3187  -59.8195 H   0  0  0  0  0  0  0  0  0  0  0  0
    8.4878    6.3236  -59.9864 H   0  0  0  0  0  0  0  0  0  0  0  0
    7.9315    6.0493  -58.2971 H   0  0  0  0  0  0  0  0  0  0  0  0
   10.3909    6.5791  -58.3759 H   0  0  0  0  0  0  0  0  0  0  0  0
   10.8348    5.6742  -60.6470 H   0  0  0  0  0  0  0  0  0  0  0  0
   11.9272    4.9306  -59.4214 H   0  0  0  0  0  0  0  0  0  0  0  0
   11.0196    3.2054  -60.9822 H   0  0  0  0  0  0  0  0  0  0  0  0
   10.0973    1.6751  -59.2205 H   0  0  0  0  0  0  0  0  0  0  0  0
   11.4926    2.6114  -58.5868 H   0  0  0  0  0  0  0  0  0  0  0  0
    9.5856    2.6000  -56.9359 H   0  0  0  0  0  0  0  0  0  0  0  0
    9.4341    5.0499  -56.6237 H   0  0  0  0  0  0  0  0  0  0  0  0
   11.1070    4.5664  -57.0692 H   0  0  0  0  0  0  0  0  0  0  0  0
    8.8635    4.3798  -61.5137 H   0  0  0  0  0  0  0  0  0  0  0  0
    8.5643    2.7060  -60.9376 H   0  0  0  0  0  0  0  0  0  0  0  0
  1  2  2  0
  2  3  1  0
  3  4  2  0
  4  5  1  0
  5  6  1  0
  6  7  1  0
  7  8  1  0
  8  9  1  0
  9 10  1  0
 10 11  1  0
  6 12  2  0
  2 13  1  0
 13 14  1  0
 14 15  1  0
 15 16  1  0
 16 17  1  0
 17 18  1  0
 18 19  1  0
 19 20  1  0
 20 21  1  0
 18 22  1  0
 12  3  1  0
 20 13  1  0
 11  7  1  0
 22 14  1  0
 21 16  1  0
  5 23  1  0
  7 24  1  0
  8 25  1  0
  8 26  1  0
  9 27  1  0
  9 28  1  0
 10 29  1  0
 10 30  1  0
 11 31  1  0
 11 32  1  0
 14 33  1  6
 15 34  1  0
 15 35  1  0
 16 36  1  1
 17 37  1  0
 17 38  1  0
 18 39  1  6
 19 40  1  0
 19 41  1  0
 20 42  1  1
 21 43  1  0
 21 44  1  0
 22 45  1  0
 22 46  1  0
M  END
>  <meeko>  (30) 
{"is_sidechain": false}

$$$$

     RDKit          3D

 36 39  0  0  0  0  0  0  0  0999 V2000
    3.6560    0.8800  -62.0370 C   0  0  0  0  0  0  0  0  0  0  0  0
    4.0660    1.5150  -60.7680 C   0  0  0  0  0  0  0  0  0  0  0  0
    3.3420    2.2730  -59.9750 N   0  0  0  0  0  0  0  0  0  0  0  0
    4.1240    2.6280  -58.8990 N   0  0  0  0  0  0  0  0  0  0  0  0
    5.3240    2.1120  -59.0680 C   0  0  0  0  0  0  0  0  0  0  0  0
    6.4750    2.1880  -58.1900 C   0  0  0  0  0  0  0  0  0  0  0  0
    6.6650    1.2830  -57.3720 O   0  0  0  0  0  0  0  0  0  0  0  0
    7.3490    3.2850  -58.2540 N   0  0  0  0  0  0  0  0  0  0  0  0
    8.4710    3.3250  -57.2970 C   0  0  1  0  0  0  0  0  0  0  0  0
    9.7130    2.7070  -57.9650 C   0  0  0  0  0  0  0  0  0  0  0  0
   10.0530    3.5030  -59.2400 C   0  0  2  0  0  0  0  0  0  0  0  0
   10.3370    4.9680  -58.8640 C   0  0  0  0  0  0  0  0  0  0  0  0
    9.1090    5.5910  -58.1760 C   0  0  1  0  0  0  0  0  0  0  0  0
    7.9010    5.5240  -59.1240 C   0  0  0  0  0  0  0  0  0  0  0  0
    7.6090    4.0600  -59.4890 C   0  0  1  0  0  0  0  0  0  0  0  0
    8.8400    3.4500  -60.1900 C   0  0  0  0  0  0  0  0  0  0  0  0
    8.7670    4.7850  -56.9130 C   0  0  0  0  0  0  0  0  0  0  0  0
    5.3140    1.3820  -60.2300 N   0  0  0  0  0  0  0  0  0  0  0  0
    3.0709   -0.0262  -61.8213 H   0  0  0  0  0  0  0  0  0  0  0  0
    3.0413    1.5838  -62.6174 H   0  0  0  0  0  0  0  0  0  0  0  0
    4.5504    0.6095  -62.6174 H   0  0  0  0  0  0  0  0  0  0  0  0
    8.2114    2.7585  -56.3905 H   0  0  0  0  0  0  0  0  0  0  0  0
   10.5635    2.7474  -57.2686 H   0  0  0  0  0  0  0  0  0  0  0  0
    9.5075    1.6589  -58.2281 H   0  0  0  0  0  0  0  0  0  0  0  0
   10.9383    3.0715  -59.7300 H   0  0  0  0  0  0  0  0  0  0  0  0
   11.1958    5.0065  -58.1777 H   0  0  0  0  0  0  0  0  0  0  0  0
   10.5603    5.5354  -59.7795 H   0  0  0  0  0  0  0  0  0  0  0  0
    9.3353    6.6357  -57.9162 H   0  0  0  0  0  0  0  0  0  0  0  0
    7.0216    5.9592  -58.6268 H   0  0  0  0  0  0  0  0  0  0  0  0
    8.1254    6.0899  -60.0402 H   0  0  0  0  0  0  0  0  0  0  0  0
    6.7334    4.0235  -60.1538 H   0  0  0  0  0  0  0  0  0  0  0  0
    8.6289    2.4039  -60.4566 H   0  0  0  0  0  0  0  0  0  0  0  0
    9.0637    4.0235  -61.1016 H   0  0  0  0  0  0  0  0  0  0  0  0
    9.6188    4.8152  -56.2176 H   0  0  0  0  0  0  0  0  0  0  0  0
    7.8811    5.2223  -56.4293 H   0  0  0  0  0  0  0  0  0  0  0  0
    6.0940    0.8470  -60.5860 H   0  0  0  0  0  0  0  0  0  0  0  0
  1  2  1  0
  2  3  2  0
  3  4  1  0
  4  5  2  0
  5  6  1  0
  6  7  2  0
  6  8  1  0
  8  9  1  0
  9 10  1  0
 10 11  1  0
 11 12  1  0
 12 13  1  0
 13 14  1  0
 14 15  1  0
 15 16  1  0
 13 17  1  0
  5 18  1  0
 18  2  1  0
 15  8  1  0
 17  9  1  0
 16 11  1  0
  1 19  1  0
  1 20  1  0
  1 21  1  0
  9 22  1  1
 10 23  1  0
 10 24  1  0
 11 25  1  6
 12 26  1  0
 12 27  1  0
 13 28  1  1
 14 29  1  0
 14 30  1  0
 15 31  1  6
 16 32  1  0
 16 33  1  0
 17 34  1  0
 17 35  1  0
 18 36  1  0
M  END
>  <meeko>  (31) 
{"is_sidechain": false}

$$$$

     RDKit          3D

 36 39  0  0  0  0  0  0  0  0999 V2000
    3.7570    0.8750  -61.8320 C   0  0  0  0  0  0  0  0  0  0  0  0
    4.3350    1.4570  -60.6040 C   0  0  0  0  0  0  0  0  0  0  0  0
    5.5530    1.3130  -60.1370 N   0  0  0  0  0  0  0  0  0  0  0  0
    5.5660    2.0650  -58.9730 C   0  0  0  0  0  0  0  0  0  0  0  0
    6.7920    2.2410  -58.1510 C   0  0  0  0  0  0  0  0  0  0  0  0
    6.8210    1.8640  -56.9760 O   0  0  0  0  0  0  0  0  0  0  0  0
    7.9340    2.8150  -58.7510 N   0  0  0  0  0  0  0  0  0  0  0  0
    7.8400    3.8750  -59.7770 C   0  0  1  0  0  0  0  0  0  0  0  0
    7.8550    5.2430  -59.0640 C   0  0  0  0  0  0  0  0  0  0  0  0
    9.1510    5.3820  -58.2410 C   0  0  2  0  0  0  0  0  0  0  0  0
   10.3630    5.2680  -59.1820 C   0  0  0  0  0  0  0  0  0  0  0  0
   10.3510    3.9120  -59.9100 C   0  0  1  0  0  0  0  0  0  0  0  0
   10.3860    2.7770  -58.8720 C   0  0  0  0  0  0  0  0  0  0  0  0
    9.1640    2.8870  -57.9450 C   0  0  1  0  0  0  0  0  0  0  0  0
    9.2000    4.2380  -57.2080 C   0  0  0  0  0  0  0  0  0  0  0  0
    9.0510    3.7770  -60.7200 C   0  0  0  0  0  0  0  0  0  0  0  0
    4.3820    2.6660  -58.7220 N   0  0  0  0  0  0  0  0  0  0  0  0
    3.6370    2.2690  -59.7630 N   0  0  0  0  0  0  0  0  0  0  0  0
    3.0058    0.1186  -61.5609 H   0  0  0  0  0  0  0  0  0  0  0  0
    3.2801    1.6693  -62.4249 H   0  0  0  0  0  0  0  0  0  0  0  0
    4.5546    0.4036  -62.4249 H   0  0  0  0  0  0  0  0  0  0  0  0
    6.9147    3.7611  -60.3609 H   0  0  0  0  0  0  0  0  0  0  0  0
    7.8089    6.0470  -59.8133 H   0  0  0  0  0  0  0  0  0  0  0  0
    6.9863    5.3152  -58.3931 H   0  0  0  0  0  0  0  0  0  0  0  0
    9.1738    6.3558  -57.7299 H   0  0  0  0  0  0  0  0  0  0  0  0
   10.3229    6.0785  -59.9246 H   0  0  0  0  0  0  0  0  0  0  0  0
   11.2851    5.3457  -58.5873 H   0  0  0  0  0  0  0  0  0  0  0  0
   11.2247    3.8525  -60.5757 H   0  0  0  0  0  0  0  0  0  0  0  0
   10.3663    1.8067  -59.3899 H   0  0  0  0  0  0  0  0  0  0  0  0
   11.3060    2.8572  -58.2743 H   0  0  0  0  0  0  0  0  0  0  0  0
    9.1829    2.0641  -57.2153 H   0  0  0  0  0  0  0  0  0  0  0  0
    8.3331    4.3129  -56.5350 H   0  0  0  0  0  0  0  0  0  0  0  0
   10.1258    4.3123  -56.6186 H   0  0  0  0  0  0  0  0  0  0  0  0
    8.9996    4.5837  -61.4661 H   0  0  0  0  0  0  0  0  0  0  0  0
    9.0385    2.8018  -61.2288 H   0  0  0  0  0  0  0  0  0  0  0  0
    2.6780    2.5890  -59.8380 H   0  0  0  0  0  0  0  0  0  0  0  0
  1  2  1  0
  2  3  2  0
  3  4  1  0
  4  5  1  0
  5  6  2  0
  5  7  1  0
  7  8  1  0
  8  9  1  0
  9 10  1  0
 10 11  1  0
 11 12  1  0
 12 13  1  0
 13 14  1  0
 14 15  1  0
 12 16  1  0
  4 17  2  0
 17 18  1  0
 18  2  1  0
 14  7  1  0
 16  8  1  0
 15 10  1  0
  1 19  1  0
  1 20  1  0
  1 21  1  0
  8 22  1  6
  9 23  1  0
  9 24  1  0
 10 25  1  1
 11 26  1  0
 11 27  1  0
 12 28  1  6
 13 29  1  0
 13 30  1  0
 14 31  1  1
 15 32  1  0
 15 33  1  0
 16 34  1  0
 16 35  1  0
 18 36  1  0
M  END
>  <meeko>  (32) 
{"is_sidechain": false}

$$$$

     RDKit          3D

 36 39  0  0  0  0  0  0  0  0999 V2000
    3.1340    1.4170  -60.9770 C   0  0  0  0  0  0  0  0  0  0  0  0
    4.4680    1.8990  -61.3860 C   0  0  0  0  0  0  0  0  0  0  0  0
    4.7220    2.3580  -62.6160 N   0  0  0  0  0  0  0  0  0  0  0  0
    6.0290    2.6550  -62.5220 N   0  0  0  0  0  0  0  0  0  0  0  0
    6.5180    2.4090  -61.2690 C   0  0  0  0  0  0  0  0  0  0  0  0
    7.9100    2.6290  -60.9280 C   0  0  0  0  0  0  0  0  0  0  0  0
    8.7800    2.3860  -61.7690 O   0  0  0  0  0  0  0  0  0  0  0  0
    8.2640    3.0900  -59.6500 N   0  0  0  0  0  0  0  0  0  0  0  0
    7.3970    3.9510  -58.8140 C   0  0  1  0  0  0  0  0  0  0  0  0
    7.6410    3.6390  -57.3290 C   0  0  0  0  0  0  0  0  0  0  0  0
    9.1230    3.8660  -56.9870 C   0  0  2  0  0  0  0  0  0  0  0  0
    9.4980    5.3280  -57.2820 C   0  0  0  0  0  0  0  0  0  0  0  0
    9.2520    5.6550  -58.7670 C   0  0  1  0  0  0  0  0  0  0  0  0
   10.1020    4.7120  -59.6430 C   0  0  0  0  0  0  0  0  0  0  0  0
    9.7010    3.2530  -59.3540 C   0  0  1  0  0  0  0  0  0  0  0  0
    9.9610    2.9320  -57.8730 C   0  0  0  0  0  0  0  0  0  0  0  0
    7.7640    5.4220  -59.0960 C   0  0  0  0  0  0  0  0  0  0  0  0
    5.5420    1.9090  -60.5350 N   0  0  0  0  0  0  0  0  0  0  0  0
    3.0729    1.3949  -59.8789 H   0  0  0  0  0  0  0  0  0  0  0  0
    2.3623    2.0932  -61.3737 H   0  0  0  0  0  0  0  0  0  0  0  0
    2.9727    0.4038  -61.3737 H   0  0  0  0  0  0  0  0  0  0  0  0
    6.5360    3.0090  -63.3250 H   0  0  0  0  0  0  0  0  0  0  0  0
    6.3382    3.7685  -59.0497 H   0  0  0  0  0  0  0  0  0  0  0  0
    7.0176    4.3004  -56.7094 H   0  0  0  0  0  0  0  0  0  0  0  0
    7.3784    2.5895  -57.1299 H   0  0  0  0  0  0  0  0  0  0  0  0
    9.3101    3.6567  -55.9234 H   0  0  0  0  0  0  0  0  0  0  0  0
    8.8834    5.9931  -56.6576 H   0  0  0  0  0  0  0  0  0  0  0  0
   10.5642    5.4761  -57.0553 H   0  0  0  0  0  0  0  0  0  0  0  0
    9.5253    6.7023  -58.9633 H   0  0  0  0  0  0  0  0  0  0  0  0
    9.9261    4.9384  -60.7050 H   0  0  0  0  0  0  0  0  0  0  0  0
   11.1681    4.8547  -59.4126 H   0  0  0  0  0  0  0  0  0  0  0  0
   10.2932    2.5694  -59.9801 H   0  0  0  0  0  0  0  0  0  0  0  0
    9.6815    1.8875  -57.6705 H   0  0  0  0  0  0  0  0  0  0  0  0
   11.0282    3.0782  -57.6500 H   0  0  0  0  0  0  0  0  0  0  0  0
    7.1432    6.0807  -58.4709 H   0  0  0  0  0  0  0  0  0  0  0  0
    7.5847    5.6465  -60.1578 H   0  0  0  0  0  0  0  0  0  0  0  0
  1  2  1  0
  2  3  2  0
  3  4  1  0
  4  5  1  0
  5  6  1  0
  6  7  2  0
  6  8  1  0
  8  9  1  0
  9 10  1  0
 10 11  1  0
 11 12  1  0
 12 13  1  0
 13 14  1  0
 14 15  1  0
 15 16  1  0
 13 17  1  0
  5 18  2  0
 18  2  1  0
 15  8  1  0
 17  9  1  0
 16 11  1  0
  1 19  1  0
  1 20  1  0
  1 21  1  0
  4 22  1  0
  9 23  1  6
 10 24  1  0
 10 25  1  0
 11 26  1  1
 12 27  1  0
 12 28  1  0
 13 29  1  1
 14 30  1  0
 14 31  1  0
 15 32  1  6
 16 33  1  0
 16 34  1  0
 17 35  1  0
 17 36  1  0
M  END
>  <meeko>  (33) 
{"is_sidechain": false}

$$$$

     RDKit          3D

 42 45  0  0  0  0  0  0  0  0999 V2000
    4.5740    1.8890  -63.1740 C   0  0  0  0  0  0  0  0  0  0  0  0
    4.0360    0.9970  -62.0550 C   0  0  0  0  0  0  0  0  0  0  0  0
    2.5310    0.7810  -62.2130 C   0  0  0  0  0  0  0  0  0  0  0  0
    4.3460    1.5870  -60.7200 C   0  0  0  0  0  0  0  0  0  0  0  0
    3.5350    2.2470  -59.9200 N   0  0  0  0  0  0  0  0  0  0  0  0
    4.2390    2.5880  -58.7870 N   0  0  0  0  0  0  0  0  0  0  0  0
    5.4790    2.1640  -58.9260 C   0  0  0  0  0  0  0  0  0  0  0  0
    6.5800    2.2650  -57.9880 C   0  0  0  0  0  0  0  0  0  0  0  0
    6.7230    1.3840  -57.1350 O   0  0  0  0  0  0  0  0  0  0  0  0
    7.4580    3.3600  -58.0360 N   0  0  0  0  0  0  0  0  0  0  0  0
    7.7860    4.0970  -59.2780 C   0  0  1  0  0  0  0  0  0  0  0  0
    8.0620    5.5720  -58.9400 C   0  0  0  0  0  0  0  0  0  0  0  0
    9.2170    5.6660  -57.9300 C   0  0  2  0  0  0  0  0  0  0  0  0
   10.4790    5.0220  -58.5310 C   0  0  0  0  0  0  0  0  0  0  0  0
   10.2130    3.5460  -58.8780 C   0  0  1  0  0  0  0  0  0  0  0  0
    9.8010    2.7900  -57.6010 C   0  0  0  0  0  0  0  0  0  0  0  0
    8.5260    3.4280  -57.0210 C   0  0  1  0  0  0  0  0  0  0  0  0
    8.8030    4.8970  -56.6650 C   0  0  0  0  0  0  0  0  0  0  0  0
    9.0540    3.4660  -59.8920 C   0  0  0  0  0  0  0  0  0  0  0  0
    5.5740    1.5050  -60.1260 N   0  0  0  0  0  0  0  0  0  0  0  0
    5.0951    2.7529  -62.7357 H   0  0  0  0  0  0  0  0  0  0  0  0
    5.2761    1.3141  -63.7957 H   0  0  0  0  0  0  0  0  0  0  0  0
    3.7379    2.2418  -63.7957 H   0  0  0  0  0  0  0  0  0  0  0  0
    4.5327    0.0180  -62.1244 H   0  0  0  0  0  0  0  0  0  0  0  0
    2.0639    0.7140  -61.2194 H   0  0  0  0  0  0  0  0  0  0  0  0
    2.0955    1.6258  -62.7667 H   0  0  0  0  0  0  0  0  0  0  0  0
    2.3506   -0.1522  -62.7667 H   0  0  0  0  0  0  0  0  0  0  0  0
    6.9480    4.0405  -59.9883 H   0  0  0  0  0  0  0  0  0  0  0  0
    8.3348    6.1125  -59.8584 H   0  0  0  0  0  0  0  0  0  0  0  0
    7.1581    6.0201  -58.5016 H   0  0  0  0  0  0  0  0  0  0  0  0
    9.4323    6.7174  -57.6890 H   0  0  0  0  0  0  0  0  0  0  0  0
   10.7627    5.5641  -59.4451 H   0  0  0  0  0  0  0  0  0  0  0  0
   11.2932    5.0747  -57.7932 H   0  0  0  0  0  0  0  0  0  0  0  0
   11.1228    3.0987  -59.3048 H   0  0  0  0  0  0  0  0  0  0  0  0
    9.6057    1.7354  -57.8452 H   0  0  0  0  0  0  0  0  0  0  0  0
   10.6121    2.8486  -56.8603 H   0  0  0  0  0  0  0  0  0  0  0  0
    8.2162    2.8887  -56.1137 H   0  0  0  0  0  0  0  0  0  0  0  0
    7.8932    5.3491  -56.2433 H   0  0  0  0  0  0  0  0  0  0  0  0
    9.6160    4.9462  -55.9256 H   0  0  0  0  0  0  0  0  0  0  0  0
    9.3289    4.0121  -60.8064 H   0  0  0  0  0  0  0  0  0  0  0  0
    8.8557    2.4125  -60.1386 H   0  0  0  0  0  0  0  0  0  0  0  0
    6.4050    1.0460  -60.4700 H   0  0  0  0  0  0  0  0  0  0  0  0
  1  2  1  0
  2  3  1  0
  2  4  1  0
  4  5  2  0
  5  6  1  0
  6  7  2  0
  7  8  1  0
  8  9  2  0
  8 10  1  0
 10 11  1  0
 11 12  1  0
 12 13  1  0
 13 14  1  0
 14 15  1  0
 15 16  1  0
 16 17  1  0
 17 18  1  0
 15 19  1  0
  7 20  1  0
 20  4  1  0
 17 10  1  0
 19 11  1  0
 18 13  1  0
  1 21  1  0
  1 22  1  0
  1 23  1  0
  2 24  1  0
  3 25  1  0
  3 26  1  0
  3 27  1  0
 11 28  1  6
 12 29  1  0
 12 30  1  0
 13 31  1  1
 14 32  1  0
 14 33  1  0
 15 34  1  6
 16 35  1  0
 16 36  1  0
 17 37  1  1
 18 38  1  0
 18 39  1  0
 19 40  1  0
 19 41  1  0
 20 42  1  0
M  END
>  <meeko>  (34) 
{"is_sidechain": false}

$$$$

     RDKit          3D

 42 45  0  0  0  0  0  0  0  0999 V2000
    2.5310    0.7480  -61.8030 C   0  0  0  0  0  0  0  0  0  0  0  0
    4.0400    0.9590  -61.9350 C   0  0  0  0  0  0  0  0  0  0  0  0
    4.3570    1.8390  -63.1420 C   0  0  0  0  0  0  0  0  0  0  0  0
    4.5940    1.5620  -60.6860 C   0  0  0  0  0  0  0  0  0  0  0  0
    5.8340    1.5260  -60.2500 N   0  0  0  0  0  0  0  0  0  0  0  0
    5.7990    2.2350  -59.0570 C   0  0  0  0  0  0  0  0  0  0  0  0
    6.9700    2.4180  -58.1600 C   0  0  0  0  0  0  0  0  0  0  0  0
    6.9280    2.0680  -56.9780 O   0  0  0  0  0  0  0  0  0  0  0  0
    8.1470    2.9690  -58.7070 N   0  0  0  0  0  0  0  0  0  0  0  0
    9.3300    3.0590  -57.8340 C   0  0  1  0  0  0  0  0  0  0  0  0
   10.6030    2.9030  -58.6840 C   0  0  0  0  0  0  0  0  0  0  0  0
   10.6410    3.9990  -59.7630 C   0  0  2  0  0  0  0  0  0  0  0  0
   10.6270    5.3810  -59.0840 C   0  0  0  0  0  0  0  0  0  0  0  0
    9.3630    5.5400  -58.2190 C   0  0  1  0  0  0  0  0  0  0  0  0
    8.1160    5.3840  -59.1120 C   0  0  0  0  0  0  0  0  0  0  0  0
    8.1260    3.9910  -59.7740 C   0  0  1  0  0  0  0  0  0  0  0  0
    9.3870    3.8470  -60.6420 C   0  0  0  0  0  0  0  0  0  0  0  0
    9.3390    4.4360  -57.1450 C   0  0  0  0  0  0  0  0  0  0  0  0
    4.5680    2.6970  -58.7600 N   0  0  0  0  0  0  0  0  0  0  0  0
    3.8370    2.2560  -59.7910 N   0  0  0  0  0  0  0  0  0  0  0  0
    2.2579    0.7098  -60.7381 H   0  0  0  0  0  0  0  0  0  0  0  0
    2.0005    1.5807  -62.2880 H   0  0  0  0  0  0  0  0  0  0  0  0
    2.2493   -0.1983  -62.2880 H   0  0  0  0  0  0  0  0  0  0  0  0
    4.5150   -0.0211  -62.0888 H   0  0  0  0  0  0  0  0  0  0  0  0
    4.7109    2.8215  -62.7966 H   0  0  0  0  0  0  0  0  0  0  0  0
    5.1392    1.3603  -63.7495 H   0  0  0  0  0  0  0  0  0  0  0  0
    3.4492    1.9691  -63.7495 H   0  0  0  0  0  0  0  0  0  0  0  0
    9.2973    2.2632  -57.0753 H   0  0  0  0  0  0  0  0  0  0  0  0
   11.4883    2.9949  -58.0376 H   0  0  0  0  0  0  0  0  0  0  0  0
   10.6006    1.9148  -59.1672 H   0  0  0  0  0  0  0  0  0  0  0  0
   11.5504    3.9065  -60.3750 H   0  0  0  0  0  0  0  0  0  0  0  0
   11.5177    5.4808  -58.4463 H   0  0  0  0  0  0  0  0  0  0  0  0
   10.6292    6.1605  -59.8601 H   0  0  0  0  0  0  0  0  0  0  0  0
    9.3669    6.5310  -57.7416 H   0  0  0  0  0  0  0  0  0  0  0  0
    7.2098    5.4911  -58.4977 H   0  0  0  0  0  0  0  0  0  0  0  0
    8.1253    6.1597  -59.8919 H   0  0  0  0  0  0  0  0  0  0  0  0
    7.2346    3.8641  -60.4059 H   0  0  0  0  0  0  0  0  0  0  0  0
    9.3920    2.8554  -61.1181 H   0  0  0  0  0  0  0  0  0  0  0  0
    9.3877    4.6282  -61.4164 H   0  0  0  0  0  0  0  0  0  0  0  0
   10.2317    4.5229  -56.5082 H   0  0  0  0  0  0  0  0  0  0  0  0
    8.4375    4.5443  -56.5240 H   0  0  0  0  0  0  0  0  0  0  0  0
    2.8440    2.4610  -59.8150 H   0  0  0  0  0  0  0  0  0  0  0  0
  1  2  1  0
  2  3  1  0
  2  4  1  0
  4  5  2  0
  5  6  1  0
  6  7  1  0
  7  8  2  0
  7  9  1  0
  9 10  1  0
 10 11  1  0
 11 12  1  0
 12 13  1  0
 13 14  1  0
 14 15  1  0
 15 16  1  0
 16 17  1  0
 14 18  1  0
  6 19  2  0
 19 20  1  0
 20  4  1  0
 16  9  1  0
 18 10  1  0
 17 12  1  0
  1 21  1  0
  1 22  1  0
  1 23  1  0
  2 24  1  0
  3 25  1  0
  3 26  1  0
  3 27  1  0
 10 28  1  1
 11 29  1  0
 11 30  1  0
 12 31  1  6
 13 32  1  0
 13 33  1  0
 14 34  1  1
 15 35  1  0
 15 36  1  0
 16 37  1  6
 17 38  1  0
 17 39  1  0
 18 40  1  0
 18 41  1  0
 20 42  1  0
M  END
>  <meeko>  (35) 
{"is_sidechain": false}

$$$$

     RDKit          3D

 42 45  0  0  0  0  0  0  0  0999 V2000
    3.0370    0.7420  -62.8350 C   0  0  0  0  0  0  0  0  0  0  0  0
    3.7050    1.1560  -61.5230 C   0  0  0  0  0  0  0  0  0  0  0  0
    2.7580    2.0110  -60.6800 C   0  0  0  0  0  0  0  0  0  0  0  0
    5.0090    1.8480  -61.7600 C   0  0  0  0  0  0  0  0  0  0  0  0
    5.2940    2.5230  -62.8800 N   0  0  0  0  0  0  0  0  0  0  0  0
    6.5480    2.9350  -62.6300 N   0  0  0  0  0  0  0  0  0  0  0  0
    6.9750    2.5460  -61.3920 C   0  0  0  0  0  0  0  0  0  0  0  0
    8.3040    2.8540  -60.9030 C   0  0  0  0  0  0  0  0  0  0  0  0
    9.2600    2.7930  -61.6810 O   0  0  0  0  0  0  0  0  0  0  0  0
    8.5030    3.1940  -59.5540 N   0  0  0  0  0  0  0  0  0  0  0  0
    9.8860    3.4560  -59.1110 C   0  0  1  0  0  0  0  0  0  0  0  0
   10.1550    4.9700  -59.2030 C   0  0  0  0  0  0  0  0  0  0  0  0
    9.1440    5.7210  -58.3140 C   0  0  2  0  0  0  0  0  0  0  0  0
    9.3020    5.2490  -56.8560 C   0  0  0  0  0  0  0  0  0  0  0  0
    9.0560    3.7330  -56.7550 C   0  0  1  0  0  0  0  0  0  0  0  0
    7.6390    3.4090  -57.2550 C   0  0  0  0  0  0  0  0  0  0  0  0
    7.4850    3.8670  -58.7150 C   0  0  1  0  0  0  0  0  0  0  0  0
    7.7200    5.3890  -58.8020 C   0  0  0  0  0  0  0  0  0  0  0  0
   10.0570    2.9920  -57.6560 C   0  0  0  0  0  0  0  0  0  0  0  0
    6.0170    1.8350  -60.8280 N   0  0  0  0  0  0  0  0  0  0  0  0
    2.1206    0.1741  -62.6166 H   0  0  0  0  0  0  0  0  0  0  0  0
    2.7818    1.6405  -63.4160 H   0  0  0  0  0  0  0  0  0  0  0  0
    3.7281    0.1137  -63.4160 H   0  0  0  0  0  0  0  0  0  0  0  0
    3.9291    0.2404  -60.9561 H   0  0  0  0  0  0  0  0  0  0  0  0
    2.9553    1.8329  -59.6126 H   0  0  0  0  0  0  0  0  0  0  0  0
    2.9206    3.0742  -60.9105 H   0  0  0  0  0  0  0  0  0  0  0  0
    1.7169    1.7409  -60.9105 H   0  0  0  0  0  0  0  0  0  0  0  0
    7.0620    3.4650  -63.3250 H   0  0  0  0  0  0  0  0  0  0  0  0
   10.5947    2.9083  -59.7496 H   0  0  0  0  0  0  0  0  0  0  0  0
   11.1775    5.1834  -58.8579 H   0  0  0  0  0  0  0  0  0  0  0  0
   10.0462    5.3013  -60.2463 H   0  0  0  0  0  0  0  0  0  0  0  0
    9.3217    6.8050  -58.3711 H   0  0  0  0  0  0  0  0  0  0  0  0
   10.3214    5.4749  -56.5100 H   0  0  0  0  0  0  0  0  0  0  0  0
    8.5660    5.7732  -56.2287 H   0  0  0  0  0  0  0  0  0  0  0  0
    9.1748    3.4197  -55.7073 H   0  0  0  0  0  0  0  0  0  0  0  0
    7.4688    2.3240  -57.1926 H   0  0  0  0  0  0  0  0  0  0  0  0
    6.9035    3.9358  -56.6293 H   0  0  0  0  0  0  0  0  0  0  0  0
    6.4736    3.6147  -59.0663 H   0  0  0  0  0  0  0  0  0  0  0  0
    7.6044    5.7182  -59.8452 H   0  0  0  0  0  0  0  0  0  0  0  0
    6.9862    5.9088  -58.1684 H   0  0  0  0  0  0  0  0  0  0  0  0
   11.0817    3.2100  -57.3207 H   0  0  0  0  0  0  0  0  0  0  0  0
    9.8707    1.9096  -57.5945 H   0  0  0  0  0  0  0  0  0  0  0  0
  1  2  1  0
  2  3  1  0
  2  4  1  0
  4  5  2  0
  5  6  1  0
  6  7  1  0
  7  8  1  0
  8  9  2  0
  8 10  1  0
 10 11  1  0
 11 12  1  0
 12 13  1  0
 13 14  1  0
 14 15  1  0
 15 16  1  0
 16 17  1  0
 17 18  1  0
 15 19  1  0
  7 20  2  0
 20  4  1  0
 17 10  1  0
 19 11  1  0
 18 13  1  0
  1 21  1  0
  1 22  1  0
  1 23  1  0
  2 24  1  0
  3 25  1  0
  3 26  1  0
  3 27  1  0
  6 28  1  0
 11 29  1  6
 12 30  1  0
 12 31  1  0
 13 32  1  1
 14 33  1  0
 14 34  1  0
 15 35  1  1
 16 36  1  0
 16 37  1  0
 17 38  1  6
 18 39  1  0
 18 40  1  0
 19 41  1  0
 19 42  1  0
M  END
>  <meeko>  (36) 
{"is_sidechain": false}

$$$$

     RDKit          3D

 48 52  0  0  0  0  0  0  0  0999 V2000
    7.6570    5.6960  -58.6280 O   0  0  0  0  0  0  0  0  0  0  0  0
    7.8950    4.4880  -58.5240 C   0  0  0  0  0  0  0  0  0  0  0  0
    6.8320    3.5010  -58.6450 C   0  0  0  0  0  0  0  0  0  0  0  0
    6.0930    2.9640  -57.6910 N   0  0  0  0  0  0  0  0  0  0  0  0
    5.1990    2.1150  -58.3080 N   0  0  0  0  0  0  0  0  0  0  0  0
    5.4330    2.2070  -59.6000 C   0  0  0  0  0  0  0  0  0  0  0  0
    4.7560    1.5180  -60.7320 C   0  0  0  0  0  0  0  0  0  0  0  0
    3.2310    1.6180  -60.6260 C   0  0  0  0  0  0  0  0  0  0  0  0
    2.5310    0.7960  -61.7110 C   0  0  0  0  0  0  0  0  0  0  0  0
    3.3370    0.6780  -63.0070 C   0  0  0  0  0  0  0  0  0  0  0  0
    4.2430    1.8810  -63.2210 C   0  0  0  0  0  0  0  0  0  0  0  0
    5.2600    2.0430  -62.0880 C   0  0  0  0  0  0  0  0  0  0  0  0
    6.4540    3.0690  -59.8950 O   0  0  0  0  0  0  0  0  0  0  0  0
    9.2130    4.0570  -58.2540 N   0  0  0  0  0  0  0  0  0  0  0  0
    9.7600    2.7680  -58.7350 C   0  0  1  0  0  0  0  0  0  0  0  0
   10.4340    3.0080  -60.1020 C   0  0  0  0  0  0  0  0  0  0  0  0
   11.5510    4.0580  -59.9480 C   0  0  2  0  0  0  0  0  0  0  0  0
   12.5910    3.5450  -58.9340 C   0  0  0  0  0  0  0  0  0  0  0  0
   11.9250    3.2880  -57.5700 C   0  0  1  0  0  0  0  0  0  0  0  0
   11.2940    4.5920  -57.0560 C   0  0  0  0  0  0  0  0  0  0  0  0
   10.2470    5.0920  -58.0660 C   0  0  1  0  0  0  0  0  0  0  0  0
   10.9290    5.3650  -59.4200 C   0  0  0  0  0  0  0  0  0  0  0  0
   10.8040    2.2500  -57.7330 C   0  0  0  0  0  0  0  0  0  0  0  0
    5.0174    0.4514  -60.6691 H   0  0  0  0  0  0  0  0  0  0  0  0
    2.9174    1.2460  -59.6395 H   0  0  0  0  0  0  0  0  0  0  0  0
    2.9473    2.6724  -60.7592 H   0  0  0  0  0  0  0  0  0  0  0  0
    2.3524   -0.2163  -61.3193 H   0  0  0  0  0  0  0  0  0  0  0  0
    1.5962    1.3198  -61.9594 H   0  0  0  0  0  0  0  0  0  0  0  0
    3.9562   -0.2300  -62.9597 H   0  0  0  0  0  0  0  0  0  0  0  0
    2.6283    0.6303  -63.8469 H   0  0  0  0  0  0  0  0  0  0  0  0
    4.7855    1.7526  -64.1693 H   0  0  0  0  0  0  0  0  0  0  0  0
    3.6119    2.7817  -63.2419 H   0  0  0  0  0  0  0  0  0  0  0  0
    6.1727    1.4914  -62.3577 H   0  0  0  0  0  0  0  0  0  0  0  0
    5.4442    3.1210  -61.9698 H   0  0  0  0  0  0  0  0  0  0  0  0
    8.9549    2.0249  -58.8329 H   0  0  0  0  0  0  0  0  0  0  0  0
   10.8656    2.0649  -60.4684 H   0  0  0  0  0  0  0  0  0  0  0  0
    9.6851    3.3727  -60.8205 H   0  0  0  0  0  0  0  0  0  0  0  0
   12.0390    4.2369  -60.9175 H   0  0  0  0  0  0  0  0  0  0  0  0
   13.0292    2.6073  -59.3064 H   0  0  0  0  0  0  0  0  0  0  0  0
   13.3766    4.3051  -58.8113 H   0  0  0  0  0  0  0  0  0  0  0  0
   12.6850    2.9231  -56.8635 H   0  0  0  0  0  0  0  0  0  0  0  0
   10.8081    4.4063  -56.0867 H   0  0  0  0  0  0  0  0  0  0  0  0
   12.0779    5.3542  -56.9351 H   0  0  0  0  0  0  0  0  0  0  0  0
    9.7875    6.0161  -57.6854 H   0  0  0  0  0  0  0  0  0  0  0  0
   10.1833    5.7342  -60.1395 H   0  0  0  0  0  0  0  0  0  0  0  0
   11.7161    6.1224  -59.2907 H   0  0  0  0  0  0  0  0  0  0  0  0
   11.2305    1.3065  -58.1043 H   0  0  0  0  0  0  0  0  0  0  0  0
   10.3212    2.0793  -56.7595 H   0  0  0  0  0  0  0  0  0  0  0  0
  1  2  2  0
  2  3  1  0
  3  4  2  0
  4  5  1  0
  5  6  2  0
  6  7  1  0
  7  8  1  0
  8  9  1  0
  9 10  1  0
 10 11  1  0
 11 12  1  0
  6 13  1  0
  2 14  1  0
 14 15  1  0
 15 16  1  0
 16 17  1  0
 17 18  1  0
 18 19  1  0
 19 20  1  0
 20 21  1  0
 21 22  1  0
 19 23  1  0
 13  3  1  0
 21 14  1  0
 12  7  1  0
 23 15  1  0
 22 17  1  0
  7 24  1  0
  8 25  1  0
  8 26  1  0
  9 27  1  0
  9 28  1  0
 10 29  1  0
 10 30  1  0
 11 31  1  0
 11 32  1  0
 12 33  1  0
 12 34  1  0
 15 35  1  6
 16 36  1  0
 16 37  1  0
 17 38  1  6
 18 39  1  0
 18 40  1  0
 19 41  1  1
 20 42  1  0
 20 43  1  0
 21 44  1  1
 22 45  1  0
 22 46  1  0
 23 47  1  0
 23 48  1  0
M  END
>  <meeko>  (37) 
{"is_sidechain": false}

$$$$

     RDKit          3D

 45 48  0  0  0  0  0  0  0  0999 V2000
    3.2490    0.4900  -63.1320 C   0  0  0  0  0  0  0  0  0  0  0  0
    2.8180    1.8120  -62.5140 C   0  0  0  0  0  0  0  0  0  0  0  0
    3.0980    1.8410  -61.0090 C   0  0  0  0  0  0  0  0  0  0  0  0
    4.4090    1.1490  -60.6320 C   0  0  0  0  0  0  0  0  0  0  0  0
    5.5810    2.0570  -60.7200 C   0  0  0  0  0  0  0  0  0  0  0  0
    6.3140    2.3220  -61.7800 N   0  0  0  0  0  0  0  0  0  0  0  0
    7.3000    3.2040  -61.4050 N   0  0  0  0  0  0  0  0  0  0  0  0
    7.1370    3.4930  -60.1290 C   0  0  0  0  0  0  0  0  0  0  0  0
    7.9410    4.3550  -59.2850 C   0  0  0  0  0  0  0  0  0  0  0  0
    7.6540    5.5530  -59.2060 O   0  0  0  0  0  0  0  0  0  0  0  0
    9.0190    3.8300  -58.5540 N   0  0  0  0  0  0  0  0  0  0  0  0
    9.7640    4.7500  -57.6760 C   0  0  1  0  0  0  0  0  0  0  0  0
   10.2550    3.9910  -56.4320 C   0  0  0  0  0  0  0  0  0  0  0  0
   11.1510    2.8190  -56.8630 C   0  0  2  0  0  0  0  0  0  0  0  0
   12.3520    3.3580  -57.6600 C   0  0  0  0  0  0  0  0  0  0  0  0
   11.8690    4.1300  -58.9010 C   0  0  1  0  0  0  0  0  0  0  0  0
   11.0340    3.1890  -59.7900 C   0  0  0  0  0  0  0  0  0  0  0  0
    9.8220    2.6650  -58.9930 C   0  0  1  0  0  0  0  0  0  0  0  0
   10.3160    1.8900  -57.7600 C   0  0  0  0  0  0  0  0  0  0  0  0
   10.9740    5.3040  -58.4510 C   0  0  0  0  0  0  0  0  0  0  0  0
    6.0750    2.7620  -59.6590 N   0  0  0  0  0  0  0  0  0  0  0  0
    3.4834   -0.2290  -62.3332 H   0  0  0  0  0  0  0  0  0  0  0  0
    2.4337    0.0933  -63.7548 H   0  0  0  0  0  0  0  0  0  0  0  0
    4.1415    0.6501  -63.7548 H   0  0  0  0  0  0  0  0  0  0  0  0
    3.3716    2.6306  -62.9971 H   0  0  0  0  0  0  0  0  0  0  0  0
    1.7352    1.9300  -62.6677 H   0  0  0  0  0  0  0  0  0  0  0  0
    3.1486    2.8900  -60.6819 H   0  0  0  0  0  0  0  0  0  0  0  0
    2.2827    1.2950  -60.5119 H   0  0  0  0  0  0  0  0  0  0  0  0
    4.3274    0.7785  -59.5995 H   0  0  0  0  0  0  0  0  0  0  0  0
    4.5695    0.3283  -61.3466 H   0  0  0  0  0  0  0  0  0  0  0  0
    9.1104    5.5764  -57.3599 H   0  0  0  0  0  0  0  0  0  0  0  0
   10.8299    4.6742  -55.7896 H   0  0  0  0  0  0  0  0  0  0  0  0
    9.3891    3.6032  -55.8754 H   0  0  0  0  0  0  0  0  0  0  0  0
   11.5216    2.2734  -55.9827 H   0  0  0  0  0  0  0  0  0  0  0  0
   12.9390    4.0324  -57.0193 H   0  0  0  0  0  0  0  0  0  0  0  0
   12.9733    2.5108  -57.9860 H   0  0  0  0  0  0  0  0  0  0  0  0
   12.7374    4.5079  -59.4605 H   0  0  0  0  0  0  0  0  0  0  0  0
   10.6804    3.7390  -60.6746 H   0  0  0  0  0  0  0  0  0  0  0  0
   11.6563    2.3399  -60.1090 H   0  0  0  0  0  0  0  0  0  0  0  0
    9.2138    1.9953  -59.6188 H   0  0  0  0  0  0  0  0  0  0  0  0
    9.4510    1.5152  -57.1932 H   0  0  0  0  0  0  0  0  0  0  0  0
   10.9384    1.0441  -58.0872 H   0  0  0  0  0  0  0  0  0  0  0  0
   11.5506    5.9778  -57.8002 H   0  0  0  0  0  0  0  0  0  0  0  0
   10.6246    5.8614  -59.3326 H   0  0  0  0  0  0  0  0  0  0  0  0
    5.7490    2.7620  -58.7040 H   0  0  0  0  0  0  0  0  0  0  0  0
  1  2  1  0
  2  3  1  0
  3  4  1  0
  4  5  1  0
  5  6  2  0
  6  7  1  0
  7  8  2  0
  8  9  1  0
  9 10  2  0
  9 11  1  0
 11 12  1  0
 12 13  1  0
 13 14  1  0
 14 15  1  0
 15 16  1  0
 16 17  1  0
 17 18  1  0
 18 19  1  0
 16 20  1  0
  8 21  1  0
 21  5  1  0
 18 11  1  0
 20 12  1  0
 19 14  1  0
  1 22  1  0
  1 23  1  0
  1 24  1  0
  2 25  1  0
  2 26  1  0
  3 27  1  0
  3 28  1  0
  4 29  1  0
  4 30  1  0
 12 31  1  1
 13 32  1  0
 13 33  1  0
 14 34  1  1
 15 35  1  0
 15 36  1  0
 16 37  1  6
 17 38  1  0
 17 39  1  0
 18 40  1  6
 19 41  1  0
 19 42  1  0
 20 43  1  0
 20 44  1  0
 21 45  1  0
M  END
>  <meeko>  (38) 
{"is_sidechain": false}

$$$$

     RDKit          3D

 45 48  0  0  0  0  0  0  0  0999 V2000
    3.2530    0.5820  -63.2210 C   0  0  0  0  0  0  0  0  0  0  0  0
    2.7530    1.8270  -62.5030 C   0  0  0  0  0  0  0  0  0  0  0  0
    3.0770    1.8410  -61.0080 C   0  0  0  0  0  0  0  0  0  0  0  0
    4.3770    1.1110  -60.6630 C   0  0  0  0  0  0  0  0  0  0  0  0
    5.5250    2.0540  -60.6220 C   0  0  0  0  0  0  0  0  0  0  0  0
    6.0080    2.6900  -59.5780 N   0  0  0  0  0  0  0  0  0  0  0  0
    7.0690    3.4270  -60.0890 C   0  0  0  0  0  0  0  0  0  0  0  0
    7.9000    4.3620  -59.2860 C   0  0  0  0  0  0  0  0  0  0  0  0
    7.6390    5.5660  -59.2380 O   0  0  0  0  0  0  0  0  0  0  0  0
    8.9750    3.8270  -58.5450 N   0  0  0  0  0  0  0  0  0  0  0  0
    9.7700    2.6740  -59.0170 C   0  0  1  0  0  0  0  0  0  0  0  0
   10.9630    3.2100  -59.8360 C   0  0  0  0  0  0  0  0  0  0  0  0
   11.8140    4.1460  -58.9560 C   0  0  2  0  0  0  0  0  0  0  0  0
   12.3270    3.3630  -57.7340 C   0  0  0  0  0  0  0  0  0  0  0  0
   11.1440    2.8120  -56.9160 C   0  0  1  0  0  0  0  0  0  0  0  0
   10.2560    3.9800  -56.4560 C   0  0  0  0  0  0  0  0  0  0  0  0
    9.7340    4.7480  -57.6820 C   0  0  1  0  0  0  0  0  0  0  0  0
   10.9250    5.3110  -58.4790 C   0  0  0  0  0  0  0  0  0  0  0  0
   10.2940    1.8880  -57.8040 C   0  0  0  0  0  0  0  0  0  0  0  0
    7.2370    3.2520  -61.4160 N   0  0  0  0  0  0  0  0  0  0  0  0
    6.2560    2.3950  -61.7210 N   0  0  0  0  0  0  0  0  0  0  0  0
    3.5558   -0.1721  -62.4796 H   0  0  0  0  0  0  0  0  0  0  0  0
    2.4489    0.1743  -63.8512 H   0  0  0  0  0  0  0  0  0  0  0  0
    4.1157    0.8438  -63.8512 H   0  0  0  0  0  0  0  0  0  0  0  0
    3.2189    2.7081  -62.9685 H   0  0  0  0  0  0  0  0  0  0  0  0
    1.6570    1.8362  -62.5966 H   0  0  0  0  0  0  0  0  0  0  0  0
    3.1665    2.8871  -60.6800 H   0  0  0  0  0  0  0  0  0  0  0  0
    2.2607    1.3133  -60.4930 H   0  0  0  0  0  0  0  0  0  0  0  0
    4.2699    0.6323  -59.6785 H   0  0  0  0  0  0  0  0  0  0  0  0
    4.5714    0.3572  -61.4401 H   0  0  0  0  0  0  0  0  0  0  0  0
    9.1502    2.0109  -59.6385 H   0  0  0  0  0  0  0  0  0  0  0  0
   11.5809    2.3666  -60.1779 H   0  0  0  0  0  0  0  0  0  0  0  0
   10.5877    3.7677  -60.7067 H   0  0  0  0  0  0  0  0  0  0  0  0
   12.6698    4.5333  -59.5284 H   0  0  0  0  0  0  0  0  0  0  0  0
   12.9526    2.5255  -58.0764 H   0  0  0  0  0  0  0  0  0  0  0  0
   12.9171    4.0393  -57.0981 H   0  0  0  0  0  0  0  0  0  0  0  0
   11.5322    2.2584  -56.0484 H   0  0  0  0  0  0  0  0  0  0  0  0
    9.4046    3.5875  -55.8806 H   0  0  0  0  0  0  0  0  0  0  0  0
   10.8465    4.6599  -55.8244 H   0  0  0  0  0  0  0  0  0  0  0  0
    9.0854    5.5718  -57.3494 H   0  0  0  0  0  0  0  0  0  0  0  0
   10.5529    5.8700  -59.3502 H   0  0  0  0  0  0  0  0  0  0  0  0
   11.5125    5.9846  -57.8378 H   0  0  0  0  0  0  0  0  0  0  0  0
   10.9109    1.0465  -58.1522 H   0  0  0  0  0  0  0  0  0  0  0  0
    9.4425    1.5055  -57.2221 H   0  0  0  0  0  0  0  0  0  0  0  0
    6.1450    2.0920  -62.6820 H   0  0  0  0  0  0  0  0  0  0  0  0
  1  2  1  0
  2  3  1  0
  3  4  1  0
  4  5  1  0
  5  6  2  0
  6  7  1  0
  7  8  1  0
  8  9  2  0
  8 10  1  0
 10 11  1  0
 11 12  1  0
 12 13  1  0
 13 14  1  0
 14 15  1  0
 15 16  1  0
 16 17  1  0
 17 18  1  0
 15 19  1  0
  7 20  2  0
 20 21  1  0
 21  5  1  0
 17 10  1  0
 19 11  1  0
 18 13  1  0
  1 22  1  0
  1 23  1  0
  1 24  1  0
  2 25  1  0
  2 26  1  0
  3 27  1  0
  3 28  1  0
  4 29  1  0
  4 30  1  0
 11 31  1  6
 12 32  1  0
 12 33  1  0
 13 34  1  6
 14 35  1  0
 14 36  1  0
 15 37  1  1
 16 38  1  0
 16 39  1  0
 17 40  1  1
 18 41  1  0
 18 42  1  0
 19 43  1  0
 19 44  1  0
 21 45  1  0
M  END
>  <meeko>  (39) 
{"is_sidechain": false}

$$$$

     RDKit          3D

 45 48  0  0  0  0  0  0  0  0999 V2000
    2.5310    2.1350  -63.2230 C   0  0  0  0  0  0  0  0  0  0  0  0
    3.0070    0.7440  -62.8360 C   0  0  0  0  0  0  0  0  0  0  0  0
    3.7110    0.7510  -61.4800 C   0  0  0  0  0  0  0  0  0  0  0  0
    3.2360    1.9160  -60.6100 C   0  0  0  0  0  0  0  0  0  0  0  0
    4.1560    2.1730  -59.4730 C   0  0  0  0  0  0  0  0  0  0  0  0
    3.7360    2.6170  -58.2820 N   0  0  0  0  0  0  0  0  0  0  0  0
    4.8910    2.6720  -57.5990 N   0  0  0  0  0  0  0  0  0  0  0  0
    5.9560    2.3270  -58.3780 C   0  0  0  0  0  0  0  0  0  0  0  0
    7.3320    2.2950  -57.9380 C   0  0  0  0  0  0  0  0  0  0  0  0
    7.8010    1.3390  -57.3210 O   0  0  0  0  0  0  0  0  0  0  0  0
    8.1010    3.4500  -58.1880 N   0  0  0  0  0  0  0  0  0  0  0  0
    9.4880    3.4560  -57.6830 C   0  0  1  0  0  0  0  0  0  0  0  0
   10.4130    2.8340  -58.7460 C   0  0  0  0  0  0  0  0  0  0  0  0
   10.3020    3.6440  -60.0540 C   0  0  2  0  0  0  0  0  0  0  0  0
   10.7220    5.1000  -59.7840 C   0  0  0  0  0  0  0  0  0  0  0  0
    9.8200    5.7280  -58.7070 C   0  0  1  0  0  0  0  0  0  0  0  0
    8.3570    5.6880  -59.1810 C   0  0  0  0  0  0  0  0  0  0  0  0
    7.9340    4.2320  -59.4350 C   0  0  1  0  0  0  0  0  0  0  0  0
    8.8350    3.6180  -60.5250 C   0  0  0  0  0  0  0  0  0  0  0  0
    9.9230    4.9060  -57.4120 C   0  0  0  0  0  0  0  0  0  0  0  0
    5.5110    1.9820  -59.5720 N   0  0  0  0  0  0  0  0  0  0  0  0
    2.3307    2.7203  -62.3134 H   0  0  0  0  0  0  0  0  0  0  0  0
    3.3087    2.6364  -63.8178 H   0  0  0  0  0  0  0  0  0  0  0  0
    1.6092    2.0548  -63.8178 H   0  0  0  0  0  0  0  0  0  0  0  0
    2.1389    0.0704  -62.7847 H   0  0  0  0  0  0  0  0  0  0  0  0
    3.7243    0.4005  -63.5959 H   0  0  0  0  0  0  0  0  0  0  0  0
    3.4961   -0.1944  -60.9604 H   0  0  0  0  0  0  0  0  0  0  0  0
    4.7915    0.8655  -61.6517 H   0  0  0  0  0  0  0  0  0  0  0  0
    3.1773    2.8220  -61.2310 H   0  0  0  0  0  0  0  0  0  0  0  0
    2.2513    1.6519  -60.1970 H   0  0  0  0  0  0  0  0  0  0  0  0
    4.8890    2.9520  -56.6250 H   0  0  0  0  0  0  0  0  0  0  0  0
    9.5492    2.8740  -56.7516 H   0  0  0  0  0  0  0  0  0  0  0  0
   11.4525    2.8561  -58.3870 H   0  0  0  0  0  0  0  0  0  0  0  0
   10.1137    1.7918  -58.9310 H   0  0  0  0  0  0  0  0  0  0  0  0
   10.9547    3.2098  -60.8256 H   0  0  0  0  0  0  0  0  0  0  0  0
   11.7659    5.1177  -59.4378 H   0  0  0  0  0  0  0  0  0  0  0  0
   10.6222    5.6783  -60.7144 H   0  0  0  0  0  0  0  0  0  0  0  0
   10.1390    6.7657  -58.5296 H   0  0  0  0  0  0  0  0  0  0  0  0
    7.7099    6.1271  -58.4074 H   0  0  0  0  0  0  0  0  0  0  0  0
    8.2605    6.2633  -60.1136 H   0  0  0  0  0  0  0  0  0  0  0  0
    6.8831    4.2094  -59.7593 H   0  0  0  0  0  0  0  0  0  0  0  0
    8.5282    2.5782  -60.7115 H   0  0  0  0  0  0  0  0  0  0  0  0
    8.7375    4.2012  -61.4526 H   0  0  0  0  0  0  0  0  0  0  0  0
   10.9634    4.9150  -57.0548 H   0  0  0  0  0  0  0  0  0  0  0  0
    9.2664    5.3467  -56.6474 H   0  0  0  0  0  0  0  0  0  0  0  0
  1  2  1  0
  2  3  1  0
  3  4  1  0
  4  5  1  0
  5  6  2  0
  6  7  1  0
  7  8  1  0
  8  9  1  0
  9 10  2  0
  9 11  1  0
 11 12  1  0
 12 13  1  0
 13 14  1  0
 14 15  1  0
 15 16  1  0
 16 17  1  0
 17 18  1  0
 18 19  1  0
 16 20  1  0
  8 21  2  0
 21  5  1  0
 18 11  1  0
 20 12  1  0
 19 14  1  0
  1 22  1  0
  1 23  1  0
  1 24  1  0
  2 25  1  0
  2 26  1  0
  3 27  1  0
  3 28  1  0
  4 29  1  0
  4 30  1  0
  7 31  1  0
 12 32  1  1
 13 33  1  0
 13 34  1  0
 14 35  1  6
 15 36  1  0
 15 37  1  0
 16 38  1  1
 17 39  1  0
 17 40  1  0
 18 41  1  6
 19 42  1  0
 19 43  1  0
 20 44  1  0
 20 45  1  0
M  END
>  <meeko>  (40) 
{"is_sidechain": false}

$$$$

     RDKit          3D

 48 51  0  0  0  0  0  0  0  0999 V2000
    7.8590   -2.4850  -50.0040 C   0  0  0  0  0  0  0  0  0  0  0  0
    8.8200   -3.0730  -51.0240 C   0  0  0  0  0  0  0  0  0  0  0  0
    8.8720   -2.2900  -52.3380 C   0  0  0  0  0  0  0  0  0  0  0  0
    7.7190   -1.3080  -52.5730 C   0  0  0  0  0  0  0  0  0  0  0  0
    7.1640   -1.3510  -53.9970 C   0  0  0  0  0  0  0  0  0  0  0  0
    7.6520   -0.1990  -54.7990 C   0  0  0  0  0  0  0  0  0  0  0  0
    8.8450    0.3500  -54.7700 N   0  0  0  0  0  0  0  0  0  0  0  0
    8.8530    1.3920  -55.6700 N   0  0  0  0  0  0  0  0  0  0  0  0
    7.6730    1.4520  -56.2520 C   0  0  0  0  0  0  0  0  0  0  0  0
    7.1860    2.3930  -57.2420 C   0  0  0  0  0  0  0  0  0  0  0  0
    6.0600    2.8780  -57.0920 O   0  0  0  0  0  0  0  0  0  0  0  0
    7.9630    2.7510  -58.3570 N   0  0  0  0  0  0  0  0  0  0  0  0
    9.3500    2.3100  -58.6190 C   0  0  1  0  0  0  0  0  0  0  0  0
    9.5630    2.1400  -60.1350 C   0  0  0  0  0  0  0  0  0  0  0  0
    9.2730    3.4620  -60.8580 C   0  0  2  0  0  0  0  0  0  0  0  0
   10.2060    4.5590  -60.3140 C   0  0  0  0  0  0  0  0  0  0  0  0
   10.0020    4.7310  -58.7980 C   0  0  1  0  0  0  0  0  0  0  0  0
    8.5320    5.1170  -58.5300 C   0  0  0  0  0  0  0  0  0  0  0  0
    7.6070    4.0020  -59.0570 C   0  0  1  0  0  0  0  0  0  0  0  0
    7.8110    3.8390  -60.5720 C   0  0  0  0  0  0  0  0  0  0  0  0
   10.3040    3.3940  -58.0870 C   0  0  0  0  0  0  0  0  0  0  0  0
    6.8820    0.4680  -55.7090 N   0  0  0  0  0  0  0  0  0  0  0  0
    8.2209   -2.7064  -48.9891 H   0  0  0  0  0  0  0  0  0  0  0  0
    7.7990   -1.3954  -50.1423 H   0  0  0  0  0  0  0  0  0  0  0  0
    6.8615   -2.9276  -50.1423 H   0  0  0  0  0  0  0  0  0  0  0  0
    9.8288   -3.0842  -50.5855 H   0  0  0  0  0  0  0  0  0  0  0  0
    8.4575   -4.0834  -51.2643 H   0  0  0  0  0  0  0  0  0  0  0  0
    9.8115   -1.7180  -52.3535 H   0  0  0  0  0  0  0  0  0  0  0  0
    8.7936   -3.0412  -53.1377 H   0  0  0  0  0  0  0  0  0  0  0  0
    6.9053   -1.5524  -51.8743 H   0  0  0  0  0  0  0  0  0  0  0  0
    8.1172   -0.2955  -52.4106 H   0  0  0  0  0  0  0  0  0  0  0  0
    7.4855   -2.2859  -54.4793 H   0  0  0  0  0  0  0  0  0  0  0  0
    6.0665   -1.2991  -53.9448 H   0  0  0  0  0  0  0  0  0  0  0  0
    9.5437    1.3482  -58.1217 H   0  0  0  0  0  0  0  0  0  0  0  0
   10.6046    1.8418  -60.3252 H   0  0  0  0  0  0  0  0  0  0  0  0
    8.8783    1.3655  -60.5109 H   0  0  0  0  0  0  0  0  0  0  0  0
    9.4404    3.3588  -61.9403 H   0  0  0  0  0  0  0  0  0  0  0  0
   11.2509    4.2765  -60.5097 H   0  0  0  0  0  0  0  0  0  0  0  0
    9.9719    5.5091  -60.8164 H   0  0  0  0  0  0  0  0  0  0  0  0
   10.6748    5.5149  -58.4201 H   0  0  0  0  0  0  0  0  0  0  0  0
    8.3766    5.2424  -57.4483 H   0  0  0  0  0  0  0  0  0  0  0  0
    8.2999    6.0613  -59.0441 H   0  0  0  0  0  0  0  0  0  0  0  0
    6.5515    4.2510  -58.8730 H   0  0  0  0  0  0  0  0  0  0  0  0
    7.1482    3.0454  -60.9473 H   0  0  0  0  0  0  0  0  0  0  0  0
    7.5729    4.7870  -61.0766 H   0  0  0  0  0  0  0  0  0  0  0  0
   11.3445    3.0982  -58.2866 H   0  0  0  0  0  0  0  0  0  0  0  0
   10.1608    3.5119  -57.0028 H   0  0  0  0  0  0  0  0  0  0  0  0
    5.9170    0.3020  -55.9530 H   0  0  0  0  0  0  0  0  0  0  0  0
  1  2  1  0
  2  3  1  0
  3  4  1  0
  4  5  1  0
  5  6  1  0
  6  7  2  0
  7  8  1  0
  8  9  2  0
  9 10  1  0
 10 11  2  0
 10 12  1  0
 12 13  1  0
 13 14  1  0
 14 15  1  0
 15 16  1  0
 16 17  1  0
 17 18  1  0
 18 19  1  0
 19 20  1  0
 17 21  1  0
  9 22  1  0
 22  6  1  0
 19 12  1  0
 21 13  1  0
 20 15  1  0
  1 23  1  0
  1 24  1  0
  1 25  1  0
  2 26  1  0
  2 27  1  0
  3 28  1  0
  3 29  1  0
  4 30  1  0
  4 31  1  0
  5 32  1  0
  5 33  1  0
 13 34  1  1
 14 35  1  0
 14 36  1  0
 15 37  1  6
 16 38  1  0
 16 39  1  0
 17 40  1  1
 18 41  1  0
 18 42  1  0
 19 43  1  6
 20 44  1  0
 20 45  1  0
 21 46  1  0
 21 47  1  0
 22 48  1  0
M  END
>  <meeko>  (41) 
{"is_sidechain": false}

$$$$

     RDKit          3D

 48 51  0  0  0  0  0  0  0  0999 V2000
    8.6680   -3.3750  -50.1190 C   0  0  0  0  0  0  0  0  0  0  0  0
    7.8020   -2.2410  -50.6440 C   0  0  0  0  0  0  0  0  0  0  0  0
    7.9050   -2.0440  -52.1590 C   0  0  0  0  0  0  0  0  0  0  0  0
    7.2370   -0.7820  -52.7120 C   0  0  0  0  0  0  0  0  0  0  0  0
    6.7060   -0.9490  -54.1370 C   0  0  0  0  0  0  0  0  0  0  0  0
    7.2350    0.1120  -55.0340 C   0  0  0  0  0  0  0  0  0  0  0  0
    6.5860    0.7840  -55.9560 N   0  0  0  0  0  0  0  0  0  0  0  0
    7.5360    1.6410  -56.4900 C   0  0  0  0  0  0  0  0  0  0  0  0
    7.2390    2.5480  -57.6290 C   0  0  0  0  0  0  0  0  0  0  0  0
    6.0830    2.9140  -57.8570 O   0  0  0  0  0  0  0  0  0  0  0  0
    8.3010    2.9540  -58.4650 N   0  0  0  0  0  0  0  0  0  0  0  0
    7.9660    3.7750  -59.6420 C   0  0  1  0  0  0  0  0  0  0  0  0
    8.0520    5.2620  -59.2560 C   0  0  0  0  0  0  0  0  0  0  0  0
    9.4770    5.5750  -58.7540 C   0  0  2  0  0  0  0  0  0  0  0  0
   10.4880    5.2670  -59.8720 C   0  0  0  0  0  0  0  0  0  0  0  0
   10.3970    3.7870  -60.2830 C   0  0  1  0  0  0  0  0  0  0  0  0
   10.6870    2.8970  -59.0620 C   0  0  0  0  0  0  0  0  0  0  0  0
    9.6660    3.1940  -57.9520 C   0  0  1  0  0  0  0  0  0  0  0  0
    9.7760    4.6770  -57.5380 C   0  0  0  0  0  0  0  0  0  0  0  0
    8.9710    3.4800  -60.7700 C   0  0  0  0  0  0  0  0  0  0  0  0
    8.7500    1.5020  -55.9160 N   0  0  0  0  0  0  0  0  0  0  0  0
    8.5300    0.5350  -55.0140 N   0  0  0  0  0  0  0  0  0  0  0  0
    8.6595   -3.3639  -49.0191 H   0  0  0  0  0  0  0  0  0  0  0  0
    8.2717   -4.3359  -50.4790 H   0  0  0  0  0  0  0  0  0  0  0  0
    9.6993   -3.2457  -50.4790 H   0  0  0  0  0  0  0  0  0  0  0  0
    6.7536   -2.4582  -50.3917 H   0  0  0  0  0  0  0  0  0  0  0  0
    8.1616   -1.3146  -50.1724 H   0  0  0  0  0  0  0  0  0  0  0  0
    8.9722   -2.0046  -52.4228 H   0  0  0  0  0  0  0  0  0  0  0  0
    7.3650   -2.8903  -52.6085 H   0  0  0  0  0  0  0  0  0  0  0  0
    6.3953   -0.5170  -52.0553 H   0  0  0  0  0  0  0  0  0  0  0  0
    8.0052    0.0048  -52.7423 H   0  0  0  0  0  0  0  0  0  0  0  0
    7.0148   -1.9319  -54.5224 H   0  0  0  0  0  0  0  0  0  0  0  0
    5.6091   -0.8701  -54.1122 H   0  0  0  0  0  0  0  0  0  0  0  0
    6.9484    3.5384  -59.9863 H   0  0  0  0  0  0  0  0  0  0  0  0
    7.8269    5.8838  -60.1351 H   0  0  0  0  0  0  0  0  0  0  0  0
    7.3241    5.4797  -58.4605 H   0  0  0  0  0  0  0  0  0  0  0  0
    9.5549    6.6352  -58.4713 H   0  0  0  0  0  0  0  0  0  0  0  0
   10.2679    5.8998  -60.7444 H   0  0  0  0  0  0  0  0  0  0  0  0
   11.5033    5.4735  -59.5025 H   0  0  0  0  0  0  0  0  0  0  0  0
   11.1268    3.5897  -61.0820 H   0  0  0  0  0  0  0  0  0  0  0  0
   10.6124    1.8392  -59.3543 H   0  0  0  0  0  0  0  0  0  0  0  0
   11.7010    3.1063  -58.6906 H   0  0  0  0  0  0  0  0  0  0  0  0
    9.8686    2.5423  -57.0893 H   0  0  0  0  0  0  0  0  0  0  0  0
    9.0506    4.8890  -56.7388 H   0  0  0  0  0  0  0  0  0  0  0  0
   10.7938    4.8808  -57.1740 H   0  0  0  0  0  0  0  0  0  0  0  0
    8.7383    4.1094  -61.6416 H   0  0  0  0  0  0  0  0  0  0  0  0
    8.9018    2.4193  -61.0530 H   0  0  0  0  0  0  0  0  0  0  0  0
    9.2950    0.2160  -54.4310 H   0  0  0  0  0  0  0  0  0  0  0  0
  1  2  1  0
  2  3  1  0
  3  4  1  0
  4  5  1  0
  5  6  1  0
  6  7  2  0
  7  8  1  0
  8  9  1  0
  9 10  2  0
  9 11  1  0
 11 12  1  0
 12 13  1  0
 13 14  1  0
 14 15  1  0
 15 16  1  0
 16 17  1  0
 17 18  1  0
 18 19  1  0
 16 20  1  0
  8 21  2  0
 21 22  1  0
 22  6  1  0
 18 11  1  0
 20 12  1  0
 19 14  1  0
  1 23  1  0
  1 24  1  0
  1 25  1  0
  2 26  1  0
  2 27  1  0
  3 28  1  0
  3 29  1  0
  4 30  1  0
  4 31  1  0
  5 32  1  0
  5 33  1  0
 12 34  1  6
 13 35  1  0
 13 36  1  0
 14 37  1  1
 15 38  1  0
 15 39  1  0
 16 40  1  6
 17 41  1  0
 17 42  1  0
 18 43  1  1
 19 44  1  0
 19 45  1  0
 20 46  1  0
 20 47  1  0
 22 48  1  0
M  END
>  <meeko>  (42) 
{"is_sidechain": false}

$$$$

     RDKit          3D

 48 51  0  0  0  0  0  0  0  0999 V2000
    8.6030   -3.3630  -50.1290 C   0  0  0  0  0  0  0  0  0  0  0  0
    7.8280   -2.2400  -50.8000 C   0  0  0  0  0  0  0  0  0  0  0  0
    8.2850   -1.9500  -52.2320 C   0  0  0  0  0  0  0  0  0  0  0  0
    7.6730   -0.7050  -52.8870 C   0  0  0  0  0  0  0  0  0  0  0  0
    8.4740   -0.1200  -54.0530 C   0  0  0  0  0  0  0  0  0  0  0  0
    7.6260    0.5490  -55.0730 C   0  0  0  0  0  0  0  0  0  0  0  0
    6.2900    0.4880  -55.0610 N   0  0  0  0  0  0  0  0  0  0  0  0
    5.9830    1.2150  -56.1480 N   0  0  0  0  0  0  0  0  0  0  0  0
    7.0990    1.7150  -56.7580 C   0  0  0  0  0  0  0  0  0  0  0  0
    7.0260    2.5200  -57.9610 C   0  0  0  0  0  0  0  0  0  0  0  0
    5.9220    2.7690  -58.4530 O   0  0  0  0  0  0  0  0  0  0  0  0
    8.2020    2.9910  -58.5690 N   0  0  0  0  0  0  0  0  0  0  0  0
    8.0630    3.7710  -59.8140 C   0  0  1  0  0  0  0  0  0  0  0  0
    8.0230    5.2690  -59.4560 C   0  0  0  0  0  0  0  0  0  0  0  0
    9.3200    5.6480  -58.7150 C   0  0  2  0  0  0  0  0  0  0  0  0
   10.5280    5.3590  -59.6240 C   0  0  0  0  0  0  0  0  0  0  0  0
   10.5660    3.8690  -60.0060 C   0  0  1  0  0  0  0  0  0  0  0  0
   10.6610    3.0150  -58.7310 C   0  0  0  0  0  0  0  0  0  0  0  0
    9.4470    3.2930  -57.8290 C   0  0  1  0  0  0  0  0  0  0  0  0
    9.4270    4.7850  -57.4410 C   0  0  0  0  0  0  0  0  0  0  0  0
    9.2650    3.4940  -60.7320 C   0  0  0  0  0  0  0  0  0  0  0  0
    8.1590    1.2800  -56.1030 N   0  0  0  0  0  0  0  0  0  0  0  0
    8.5299   -3.2571  -49.0365 H   0  0  0  0  0  0  0  0  0  0  0  0
    8.1807   -4.3323  -50.4325 H   0  0  0  0  0  0  0  0  0  0  0  0
    9.6591   -3.3120  -50.4325 H   0  0  0  0  0  0  0  0  0  0  0  0
    6.7640   -2.5180  -50.8242 H   0  0  0  0  0  0  0  0  0  0  0  0
    8.0090   -1.3276  -50.2128 H   0  0  0  0  0  0  0  0  0  0  0  0
    9.3775   -1.8223  -52.2187 H   0  0  0  0  0  0  0  0  0  0  0  0
    7.9428   -2.8043  -52.8345 H   0  0  0  0  0  0  0  0  0  0  0  0
    6.6743   -0.9739  -53.2615 H   0  0  0  0  0  0  0  0  0  0  0  0
    7.6565    0.0719  -52.1085 H   0  0  0  0  0  0  0  0  0  0  0  0
    9.1852    0.6174  -53.6525 H   0  0  0  0  0  0  0  0  0  0  0  0
    8.9821   -0.9586  -54.5517 H   0  0  0  0  0  0  0  0  0  0  0  0
    5.0160    1.3370  -56.4290 H   0  0  0  0  0  0  0  0  0  0  0  0
    7.1379    3.4841  -60.3354 H   0  0  0  0  0  0  0  0  0  0  0  0
    7.9377    5.8651  -60.3766 H   0  0  0  0  0  0  0  0  0  0  0  0
    7.1559    5.4715  -58.8102 H   0  0  0  0  0  0  0  0  0  0  0  0
    9.3065    6.7158  -58.4511 H   0  0  0  0  0  0  0  0  0  0  0  0
   10.4475    5.9658  -60.5380 H   0  0  0  0  0  0  0  0  0  0  0  0
   11.4513    5.6127  -59.0826 H   0  0  0  0  0  0  0  0  0  0  0  0
   11.4352    3.6878  -60.6554 H   0  0  0  0  0  0  0  0  0  0  0  0
   10.6767    1.9497  -59.0048 H   0  0  0  0  0  0  0  0  0  0  0  0
   11.5835    3.2709  -58.1892 H   0  0  0  0  0  0  0  0  0  0  0  0
    9.5171    2.6647  -56.9288 H   0  0  0  0  0  0  0  0  0  0  0  0
    8.5621    4.9829  -56.7908 H   0  0  0  0  0  0  0  0  0  0  0  0
   10.3545    5.0363  -56.9056 H   0  0  0  0  0  0  0  0  0  0  0  0
    9.1713    4.0946  -61.6488 H   0  0  0  0  0  0  0  0  0  0  0  0
    9.2871    2.4254  -60.9921 H   0  0  0  0  0  0  0  0  0  0  0  0
  1  2  1  0
  2  3  1  0
  3  4  1  0
  4  5  1  0
  5  6  1  0
  6  7  2  0
  7  8  1  0
  8  9  1  0
  9 10  1  0
 10 11  2  0
 10 12  1  0
 12 13  1  0
 13 14  1  0
 14 15  1  0
 15 16  1  0
 16 17  1  0
 17 18  1  0
 18 19  1  0
 19 20  1  0
 17 21  1  0
  9 22  2  0
 22  6  1  0
 19 12  1  0
 21 13  1  0
 20 15  1  0
  1 23  1  0
  1 24  1  0
  1 25  1  0
  2 26  1  0
  2 27  1  0
  3 28  1  0
  3 29  1  0
  4 30  1  0
  4 31  1  0
  5 32  1  0
  5 33  1  0
  8 34  1  0
 13 35  1  6
 14 36  1  0
 14 37  1  0
 15 38  1  1
 16 39  1  0
 16 40  1  0
 17 41  1  6
 18 42  1  0
 18 43  1  0
 19 44  1  1
 20 45  1  0
 20 46  1  0
 21 47  1  0
 21 48  1  0
M  END
>  <meeko>  (43) 
{"is_sidechain": false}

$$$$

     RDKit          3D

 42 45  0  0  0  0  0  0  0  0999 V2000
    2.5310    2.1930  -63.1730 C   0  0  0  0  0  0  0  0  0  0  0  0
    2.5800    1.1420  -62.0710 C   0  0  0  0  0  0  0  0  0  0  0  0
    4.0050    0.7450  -61.6830 C   0  0  0  0  0  0  0  0  0  0  0  0
    4.4860    1.4580  -60.4720 C   0  0  0  0  0  0  0  0  0  0  0  0
    3.8030    2.2700  -59.6950 N   0  0  0  0  0  0  0  0  0  0  0  0
    4.6460    2.7200  -58.7040 N   0  0  0  0  0  0  0  0  0  0  0  0
    5.8220    2.1460  -58.8670 C   0  0  0  0  0  0  0  0  0  0  0  0
    7.0340    2.3290  -58.0930 C   0  0  0  0  0  0  0  0  0  0  0  0
    7.0610    1.9360  -56.9220 O   0  0  0  0  0  0  0  0  0  0  0  0
    8.1650    2.9250  -58.6720 N   0  0  0  0  0  0  0  0  0  0  0  0
    9.3810    3.0350  -57.8450 C   0  0  1  0  0  0  0  0  0  0  0  0
   10.6250    2.8870  -58.7370 C   0  0  0  0  0  0  0  0  0  0  0  0
   10.6140    3.9760  -59.8230 C   0  0  2  0  0  0  0  0  0  0  0  0
   10.6060    5.3630  -59.1560 C   0  0  0  0  0  0  0  0  0  0  0  0
    9.3700    5.5140  -58.2500 C   0  0  1  0  0  0  0  0  0  0  0  0
    8.0970    5.3370  -59.0980 C   0  0  0  0  0  0  0  0  0  0  0  0
    8.1010    3.9380  -59.7500 C   0  0  1  0  0  0  0  0  0  0  0  0
    9.3360    3.8010  -60.6570 C   0  0  0  0  0  0  0  0  0  0  0  0
    9.3970    4.4180  -57.1670 C   0  0  0  0  0  0  0  0  0  0  0  0
    5.7600    1.3570  -59.9890 N   0  0  0  0  0  0  0  0  0  0  0  0
    2.4843    3.1952  -62.7220 H   0  0  0  0  0  0  0  0  0  0  0  0
    3.4338    2.1131  -63.7963 H   0  0  0  0  0  0  0  0  0  0  0  0
    1.6395    2.0295  -63.7963 H   0  0  0  0  0  0  0  0  0  0  0  0
    2.0741    1.5443  -61.1809 H   0  0  0  0  0  0  0  0  0  0  0  0
    2.0817    0.2400  -62.4558 H   0  0  0  0  0  0  0  0  0  0  0  0
    4.0285   -0.3372  -61.4875 H   0  0  0  0  0  0  0  0  0  0  0  0
    4.6669    1.0206  -62.5172 H   0  0  0  0  0  0  0  0  0  0  0  0
    9.3868    2.2430  -57.0817 H   0  0  0  0  0  0  0  0  0  0  0  0
   11.5310    2.9924  -58.1221 H   0  0  0  0  0  0  0  0  0  0  0  0
   10.6167    1.8957  -59.2137 H   0  0  0  0  0  0  0  0  0  0  0  0
   11.5046    3.8910  -60.4630 H   0  0  0  0  0  0  0  0  0  0  0  0
   11.5165    5.4792  -58.5498 H   0  0  0  0  0  0  0  0  0  0  0  0
   10.5725    6.1357  -59.9382 H   0  0  0  0  0  0  0  0  0  0  0  0
    9.3771    6.5087  -57.7804 H   0  0  0  0  0  0  0  0  0  0  0  0
    7.2109    5.4385  -58.4541 H   0  0  0  0  0  0  0  0  0  0  0  0
    8.0708    6.1066  -59.8835 H   0  0  0  0  0  0  0  0  0  0  0  0
    7.1929    3.7946  -60.3539 H   0  0  0  0  0  0  0  0  0  0  0  0
    9.3378    2.8050  -61.1240 H   0  0  0  0  0  0  0  0  0  0  0  0
    9.3020    4.5754  -61.4375 H   0  0  0  0  0  0  0  0  0  0  0  0
   10.3102    4.5207  -56.5624 H   0  0  0  0  0  0  0  0  0  0  0  0
    8.5164    4.5204  -56.5158 H   0  0  0  0  0  0  0  0  0  0  0  0
    6.5310    0.8300  -60.3700 H   0  0  0  0  0  0  0  0  0  0  0  0
  1  2  1  0
  2  3  1  0
  3  4  1  0
  4  5  2  0
  5  6  1  0
  6  7  2  0
  7  8  1  0
  8  9  2  0
  8 10  1  0
 10 11  1  0
 11 12  1  0
 12 13  1  0
 13 14  1  0
 14 15  1  0
 15 16  1  0
 16 17  1  0
 17 18  1  0
 15 19  1  0
  7 20  1  0
 20  4  1  0
 17 10  1  0
 19 11  1  0
 18 13  1  0
  1 21  1  0
  1 22  1  0
  1 23  1  0
  2 24  1  0
  2 25  1  0
  3 26  1  0
  3 27  1  0
 11 28  1  1
 12 29  1  0
 12 30  1  0
 13 31  1  6
 14 32  1  0
 14 33  1  0
 15 34  1  1
 16 35  1  0
 16 36  1  0
 17 37  1  6
 18 38  1  0
 18 39  1  0
 19 40  1  0
 19 41  1  0
 20 42  1  0
M  END
>  <meeko>  (44) 
{"is_sidechain": false}

$$$$

     RDKit          3D

 42 45  0  0  0  0  0  0  0  0999 V2000
    2.5310    2.2700  -63.2230 C   0  0  0  0  0  0  0  0  0  0  0  0
    3.8780    1.6130  -62.9580 C   0  0  0  0  0  0  0  0  0  0  0  0
    3.8770    0.7180  -61.7180 C   0  0  0  0  0  0  0  0  0  0  0  0
    4.4200    1.4070  -60.5190 C   0  0  0  0  0  0  0  0  0  0  0  0
    5.6370    1.3320  -60.0290 N   0  0  0  0  0  0  0  0  0  0  0  0
    5.6120    2.1600  -58.9170 C   0  0  0  0  0  0  0  0  0  0  0  0
    6.8180    2.4210  -58.0910 C   0  0  0  0  0  0  0  0  0  0  0  0
    6.8130    2.1880  -56.8790 O   0  0  0  0  0  0  0  0  0  0  0  0
    7.9820    2.9090  -58.7250 N   0  0  0  0  0  0  0  0  0  0  0  0
    9.1910    3.0710  -57.9000 C   0  0  1  0  0  0  0  0  0  0  0  0
   10.4360    2.8420  -58.7750 C   0  0  0  0  0  0  0  0  0  0  0  0
   10.4380    3.8430  -59.9420 C   0  0  2  0  0  0  0  0  0  0  0  0
   10.4450    5.2780  -59.3830 C   0  0  0  0  0  0  0  0  0  0  0  0
    9.2090    5.5120  -58.4950 C   0  0  1  0  0  0  0  0  0  0  0  0
    7.9340    5.2820  -59.3300 C   0  0  0  0  0  0  0  0  0  0  0  0
    7.9250    3.8380  -59.8730 C   0  0  1  0  0  0  0  0  0  0  0  0
    9.1580    3.6200  -60.7650 C   0  0  0  0  0  0  0  0  0  0  0  0
    9.2200    4.5010  -57.3310 C   0  0  0  0  0  0  0  0  0  0  0  0
    4.4080    2.7420  -58.7230 N   0  0  0  0  0  0  0  0  0  0  0  0
    3.6900    2.2580  -59.7460 N   0  0  0  0  0  0  0  0  0  0  0  0
    2.0442    2.5074  -62.2656 H   0  0  0  0  0  0  0  0  0  0  0  0
    2.6814    3.1959  -63.7975 H   0  0  0  0  0  0  0  0  0  0  0  0
    1.8939    1.5815  -63.7975 H   0  0  0  0  0  0  0  0  0  0  0  0
    4.1462    1.0004  -63.8314 H   0  0  0  0  0  0  0  0  0  0  0  0
    4.6056    2.4185  -62.7798 H   0  0  0  0  0  0  0  0  0  0  0  0
    2.8429    0.4070  -61.5082 H   0  0  0  0  0  0  0  0  0  0  0  0
    4.5242   -0.1461  -61.9288 H   0  0  0  0  0  0  0  0  0  0  0  0
    9.1835    2.3431  -57.0754 H   0  0  0  0  0  0  0  0  0  0  0  0
   11.3417    2.9861  -58.1677 H   0  0  0  0  0  0  0  0  0  0  0  0
   10.4187    1.8168  -59.1734 H   0  0  0  0  0  0  0  0  0  0  0  0
   11.3279    3.6973  -60.5720 H   0  0  0  0  0  0  0  0  0  0  0  0
   11.3555    5.4299  -58.7848 H   0  0  0  0  0  0  0  0  0  0  0  0
   10.4223    5.9889  -60.2221 H   0  0  0  0  0  0  0  0  0  0  0  0
    9.2277    6.5402  -58.1045 H   0  0  0  0  0  0  0  0  0  0  0  0
    7.0483    5.4408  -58.6973 H   0  0  0  0  0  0  0  0  0  0  0  0
    7.9162    5.9893  -60.1723 H   0  0  0  0  0  0  0  0  0  0  0  0
    7.0141    3.6598  -60.4633 H   0  0  0  0  0  0  0  0  0  0  0  0
    9.1492    2.5920  -61.1564 H   0  0  0  0  0  0  0  0  0  0  0  0
    9.1335    4.3336  -61.6018 H   0  0  0  0  0  0  0  0  0  0  0  0
   10.1321    4.6399  -56.7321 H   0  0  0  0  0  0  0  0  0  0  0  0
    8.3379    4.6624  -56.6939 H   0  0  0  0  0  0  0  0  0  0  0  0
    2.7240    2.5450  -59.8530 H   0  0  0  0  0  0  0  0  0  0  0  0
  1  2  1  0
  2  3  1  0
  3  4  1  0
  4  5  2  0
  5  6  1  0
  6  7  1  0
  7  8  2  0
  7  9  1  0
  9 10  1  0
 10 11  1  0
 11 12  1  0
 12 13  1  0
 13 14  1  0
 14 15  1  0
 15 16  1  0
 16 17  1  0
 14 18  1  0
  6 19  2  0
 19 20  1  0
 20  4  1  0
 16  9  1  0
 18 10  1  0
 17 12  1  0
  1 21  1  0
  1 22  1  0
  1 23  1  0
  2 24  1  0
  2 25  1  0
  3 26  1  0
  3 27  1  0
 10 28  1  1
 11 29  1  0
 11 30  1  0
 12 31  1  6
 13 32  1  0
 13 33  1  0
 14 34  1  1
 15 35  1  0
 15 36  1  0
 16 37  1  6
 17 38  1  0
 17 39  1  0
 18 40  1  0
 18 41  1  0
 20 42  1  0
M  END
>  <meeko>  (45) 
{"is_sidechain": false}

$$$$

     RDKit          3D

 42 45  0  0  0  0  0  0  0  0999 V2000
    2.5400    2.2290  -63.2160 C   0  0  0  0  0  0  0  0  0  0  0  0
    3.8680    1.5660  -62.8870 C   0  0  0  0  0  0  0  0  0  0  0  0
    3.7780    0.7350  -61.6070 C   0  0  0  0  0  0  0  0  0  0  0  0
    4.3510    1.4510  -60.4390 C   0  0  0  0  0  0  0  0  0  0  0  0
    3.6380    2.2860  -59.6760 N   0  0  0  0  0  0  0  0  0  0  0  0
    4.5550    2.6630  -58.7700 N   0  0  0  0  0  0  0  0  0  0  0  0
    5.7730    2.0840  -59.0030 C   0  0  0  0  0  0  0  0  0  0  0  0
    6.9100    2.3190  -58.1340 C   0  0  0  0  0  0  0  0  0  0  0  0
    7.0790    1.5740  -57.1630 O   0  0  0  0  0  0  0  0  0  0  0  0
    7.8100    3.3720  -58.3770 N   0  0  0  0  0  0  0  0  0  0  0  0
    7.7770    4.2740  -59.5480 C   0  0  1  0  0  0  0  0  0  0  0  0
    8.2570    5.6790  -59.1360 C   0  0  0  0  0  0  0  0  0  0  0  0
    9.6760    5.5990  -58.5550 C   0  0  2  0  0  0  0  0  0  0  0  0
   10.6270    5.0060  -59.6090 C   0  0  0  0  0  0  0  0  0  0  0  0
   10.1520    3.6030  -60.0300 C   0  0  1  0  0  0  0  0  0  0  0  0
   10.1160    2.6920  -58.7850 C   0  0  0  0  0  0  0  0  0  0  0  0
    9.1410    3.2820  -57.7460 C   0  0  1  0  0  0  0  0  0  0  0  0
    9.6240    4.6780  -57.3270 C   0  0  0  0  0  0  0  0  0  0  0  0
    8.7270    3.7040  -60.6170 C   0  0  0  0  0  0  0  0  0  0  0  0
    5.6580    1.2950  -60.0550 N   0  0  0  0  0  0  0  0  0  0  0  0
    2.0189    2.4891  -62.2828 H   0  0  0  0  0  0  0  0  0  0  0  0
    2.7213    3.1423  -63.8016 H   0  0  0  0  0  0  0  0  0  0  0  0
    1.9189    1.5352  -63.8016 H   0  0  0  0  0  0  0  0  0  0  0  0
    4.1552    0.9083  -63.7206 H   0  0  0  0  0  0  0  0  0  0  0  0
    4.6189    2.3551  -62.7338 H   0  0  0  0  0  0  0  0  0  0  0  0
    2.7207    0.5106  -61.4026 H   0  0  0  0  0  0  0  0  0  0  0  0
    4.3577   -0.1875  -61.7586 H   0  0  0  0  0  0  0  0  0  0  0  0
    4.3080    3.3010  -58.0210 H   0  0  0  0  0  0  0  0  0  0  0  0
    6.7524    4.3478  -59.9413 H   0  0  0  0  0  0  0  0  0  0  0  0
    8.2610    6.3360  -60.0183 H   0  0  0  0  0  0  0  0  0  0  0  0
    7.5763    6.0840  -58.3727 H   0  0  0  0  0  0  0  0  0  0  0  0
   10.0399    6.5979  -58.2724 H   0  0  0  0  0  0  0  0  0  0  0  0
   10.6453    5.6626  -60.4913 H   0  0  0  0  0  0  0  0  0  0  0  0
   11.6353    4.9270  -59.1764 H   0  0  0  0  0  0  0  0  0  0  0  0
   10.8378    3.1876  -60.7831 H   0  0  0  0  0  0  0  0  0  0  0  0
    9.7780    1.6864  -59.0758 H   0  0  0  0  0  0  0  0  0  0  0  0
   11.1234    2.6274  -58.3480 H   0  0  0  0  0  0  0  0  0  0  0  0
    9.0924    2.6462  -56.8496 H   0  0  0  0  0  0  0  0  0  0  0  0
    8.9291    5.0976  -56.5846 H   0  0  0  0  0  0  0  0  0  0  0  0
   10.6298    4.5987  -56.8888 H   0  0  0  0  0  0  0  0  0  0  0  0
    8.7365    4.3694  -61.4929 H   0  0  0  0  0  0  0  0  0  0  0  0
    8.3820    2.7051  -60.9224 H   0  0  0  0  0  0  0  0  0  0  0  0
  1  2  1  0
  2  3  1  0
  3  4  1  0
  4  5  2  0
  5  6  1  0
  6  7  1  0
  7  8  1  0
  8  9  2  0
  8 10  1  0
 10 11  1  0
 11 12  1  0
 12 13  1  0
 13 14  1  0
 14 15  1  0
 15 16  1  0
 16 17  1  0
 17 18  1  0
 15 19  1  0
  7 20  2  0
 20  4  1  0
 17 10  1  0
 19 11  1  0
 18 13  1  0
  1 21  1  0
  1 22  1  0
  1 23  1  0
  2 24  1  0
  2 25  1  0
  3 26  1  0
  3 27  1  0
  6 28  1  0
 11 29  1  6
 12 30  1  0
 12 31  1  0
 13 32  1  1
 14 33  1  0
 14 34  1  0
 15 35  1  6
 16 36  1  0
 16 37  1  0
 17 38  1  1
 18 39  1  0
 18 40  1  0
 19 41  1  0
 19 42  1  0
M  END
>  <meeko>  (46) 
{"is_sidechain": false}

$$$$

     RDKit          3D

 45 48  0  0  0  0  0  0  0  0999 V2000
    2.5310    2.2750  -63.2230 C   0  0  0  0  0  0  0  0  0  0  0  0
    3.7720    1.3960  -63.0500 C   0  0  0  0  0  0  0  0  0  0  0  0
    5.0310    2.2680  -63.1010 C   0  0  0  0  0  0  0  0  0  0  0  0
    3.6720    0.6040  -61.7340 C   0  0  0  0  0  0  0  0  0  0  0  0
    4.2050    1.3580  -60.5680 C   0  0  0  0  0  0  0  0  0  0  0  0
    3.5840    2.2650  -59.8470 N   0  0  0  0  0  0  0  0  0  0  0  0
    4.4600    2.7130  -58.8830 N   0  0  0  0  0  0  0  0  0  0  0  0
    5.5890    2.0460  -59.0050 C   0  0  0  0  0  0  0  0  0  0  0  0
    6.8120    2.1880  -58.2380 C   0  0  0  0  0  0  0  0  0  0  0  0
    6.8540    1.7340  -57.0910 O   0  0  0  0  0  0  0  0  0  0  0  0
    7.9360    2.8120  -58.8000 N   0  0  0  0  0  0  0  0  0  0  0  0
    9.1630    2.8770  -57.9840 C   0  0  1  0  0  0  0  0  0  0  0  0
   10.3950    2.7740  -58.9000 C   0  0  0  0  0  0  0  0  0  0  0  0
   10.3720    3.9170  -59.9270 C   0  0  2  0  0  0  0  0  0  0  0  0
   10.3760    5.2680  -59.1890 C   0  0  0  0  0  0  0  0  0  0  0  0
    9.1520    5.3740  -58.2610 C   0  0  1  0  0  0  0  0  0  0  0  0
    7.8670    5.2420  -59.1010 C   0  0  0  0  0  0  0  0  0  0  0  0
    7.8610    3.8790  -59.8250 C   0  0  1  0  0  0  0  0  0  0  0  0
    9.0820    3.7870  -60.7530 C   0  0  0  0  0  0  0  0  0  0  0  0
    9.1900    4.2230  -57.2370 C   0  0  0  0  0  0  0  0  0  0  0  0
    5.4680    1.1950  -60.0730 N   0  0  0  0  0  0  0  0  0  0  0  0
    2.1380    2.5533  -62.2340 H   0  0  0  0  0  0  0  0  0  0  0  0
    2.8007    3.1846  -63.7797 H   0  0  0  0  0  0  0  0  0  0  0  0
    1.7624    1.7188  -63.7797 H   0  0  0  0  0  0  0  0  0  0  0  0
    3.8348    0.6671  -63.8715 H   0  0  0  0  0  0  0  0  0  0  0  0
    5.3606    2.4963  -62.0767 H   0  0  0  0  0  0  0  0  0  0  0  0
    5.8295    1.7285  -63.6315 H   0  0  0  0  0  0  0  0  0  0  0  0
    4.8067    3.2052  -63.6315 H   0  0  0  0  0  0  0  0  0  0  0  0
    2.6146    0.3664  -61.5458 H   0  0  0  0  0  0  0  0  0  0  0  0
    4.2797   -0.3059  -61.8470 H   0  0  0  0  0  0  0  0  0  0  0  0
    9.1778    2.0468  -57.2625 H   0  0  0  0  0  0  0  0  0  0  0  0
   11.3094    2.8460  -58.2928 H   0  0  0  0  0  0  0  0  0  0  0  0
   10.3778    1.8090  -59.4276 H   0  0  0  0  0  0  0  0  0  0  0  0
   11.2540    3.8641  -60.5822 H   0  0  0  0  0  0  0  0  0  0  0  0
   11.2943    5.3510  -58.5892 H   0  0  0  0  0  0  0  0  0  0  0  0
   10.3347    6.0802  -59.9296 H   0  0  0  0  0  0  0  0  0  0  0  0
    9.1674    6.3433  -57.7412 H   0  0  0  0  0  0  0  0  0  0  0  0
    6.9895    5.3102  -58.4412 H   0  0  0  0  0  0  0  0  0  0  0  0
    7.8314    6.0515  -59.8449 H   0  0  0  0  0  0  0  0  0  0  0  0
    6.9459    3.7680  -60.4252 H   0  0  0  0  0  0  0  0  0  0  0  0
    9.0755    2.8164  -61.2705 H   0  0  0  0  0  0  0  0  0  0  0  0
    9.0395    4.6003  -61.4924 H   0  0  0  0  0  0  0  0  0  0  0  0
   10.1107    4.2932  -56.6392 H   0  0  0  0  0  0  0  0  0  0  0  0
    8.3171    4.2928  -56.5713 H   0  0  0  0  0  0  0  0  0  0  0  0
    6.1990    0.5880  -60.4180 H   0  0  0  0  0  0  0  0  0  0  0  0
  1  2  1  0
  2  3  1  0
  2  4  1  0
  4  5  1  0
  5  6  2  0
  6  7  1  0
  7  8  2  0
  8  9  1  0
  9 10  2  0
  9 11  1  0
 11 12  1  0
 12 13  1  0
 13 14  1  0
 14 15  1  0
 15 16  1  0
 16 17  1  0
 17 18  1  0
 18 19  1  0
 16 20  1  0
  8 21  1  0
 21  5  1  0
 18 11  1  0
 20 12  1  0
 19 14  1  0
  1 22  1  0
  1 23  1  0
  1 24  1  0
  2 25  1  0
  3 26  1  0
  3 27  1  0
  3 28  1  0
  4 29  1  0
  4 30  1  0
 12 31  1  1
 13 32  1  0
 13 33  1  0
 14 34  1  6
 15 35  1  0
 15 36  1  0
 16 37  1  1
 17 38  1  0
 17 39  1  0
 18 40  1  6
 19 41  1  0
 19 42  1  0
 20 43  1  0
 20 44  1  0
 21 45  1  0
M  END
>  <meeko>  (47) 
{"is_sidechain": false}

$$$$

     RDKit          3D

 45 48  0  0  0  0  0  0  0  0999 V2000
    2.5790    2.2650  -63.2230 C   0  0  0  0  0  0  0  0  0  0  0  0
    3.8170    1.3950  -62.9940 C   0  0  0  0  0  0  0  0  0  0  0  0
    5.0720    2.2720  -62.9990 C   0  0  0  0  0  0  0  0  0  0  0  0
    3.6690    0.6090  -61.6790 C   0  0  0  0  0  0  0  0  0  0  0  0
    4.2790    1.3170  -60.5210 C   0  0  0  0  0  0  0  0  0  0  0  0
    5.4790    1.1480  -60.0160 N   0  0  0  0  0  0  0  0  0  0  0  0
    5.5380    2.0470  -58.9620 C   0  0  0  0  0  0  0  0  0  0  0  0
    6.7160    2.1440  -58.0620 C   0  0  0  0  0  0  0  0  0  0  0  0
    6.9610    1.2480  -57.2490 O   0  0  0  0  0  0  0  0  0  0  0  0
    7.5290    3.2950  -58.1320 N   0  0  0  0  0  0  0  0  0  0  0  0
    7.7820    4.0090  -59.4020 C   0  0  1  0  0  0  0  0  0  0  0  0
    8.0260    5.4980  -59.1090 C   0  0  0  0  0  0  0  0  0  0  0  0
    9.2180    5.6480  -58.1480 C   0  0  2  0  0  0  0  0  0  0  0  0
   10.4740    5.0300  -58.7890 C   0  0  0  0  0  0  0  0  0  0  0  0
   10.2390    3.5390  -59.0960 C   0  0  1  0  0  0  0  0  0  0  0  0
    9.9050    2.7960  -57.7870 C   0  0  0  0  0  0  0  0  0  0  0  0
    8.6350    3.4090  -57.1670 C   0  0  1  0  0  0  0  0  0  0  0  0
    8.8840    4.8930  -56.8510 C   0  0  0  0  0  0  0  0  0  0  0  0
    9.0420    3.4020  -60.0570 C   0  0  0  0  0  0  0  0  0  0  0  0
    4.3960    2.7540  -58.8110 N   0  0  0  0  0  0  0  0  0  0  0  0
    3.6270    2.2680  -59.7950 N   0  0  0  0  0  0  0  0  0  0  0  0
    2.1554    2.5627  -62.2525 H   0  0  0  0  0  0  0  0  0  0  0  0
    2.8623    3.1637  -63.7906 H   0  0  0  0  0  0  0  0  0  0  0  0
    1.8295    1.6940  -63.7906 H   0  0  0  0  0  0  0  0  0  0  0  0
    3.9162    0.6626  -63.8087 H   0  0  0  0  0  0  0  0  0  0  0  0
    5.3753    2.4840  -61.9631 H   0  0  0  0  0  0  0  0  0  0  0  0
    5.8856    1.7449  -63.5187 H   0  0  0  0  0  0  0  0  0  0  0  0
    4.8567    3.2173  -63.5187 H   0  0  0  0  0  0  0  0  0  0  0  0
    2.5983    0.4585  -61.4764 H   0  0  0  0  0  0  0  0  0  0  0  0
    4.1958   -0.3489  -61.8007 H   0  0  0  0  0  0  0  0  0  0  0  0
    6.9175    3.9091  -60.0748 H   0  0  0  0  0  0  0  0  0  0  0  0
    8.2458    6.0246  -60.0494 H   0  0  0  0  0  0  0  0  0  0  0  0
    7.1271    5.9304  -58.6453 H   0  0  0  0  0  0  0  0  0  0  0  0
    9.4072    6.7107  -57.9361 H   0  0  0  0  0  0  0  0  0  0  0  0
   10.7028    5.5614  -59.7245 H   0  0  0  0  0  0  0  0  0  0  0  0
   11.3161    5.1224  -58.0874 H   0  0  0  0  0  0  0  0  0  0  0  0
   11.1437    3.1116  -59.5531 H   0  0  0  0  0  0  0  0  0  0  0  0
    9.7324    1.7311  -58.0021 H   0  0  0  0  0  0  0  0  0  0  0  0
   10.7442    2.8928  -57.0824 H   0  0  0  0  0  0  0  0  0  0  0  0
    8.3791    2.8760  -56.2394 H   0  0  0  0  0  0  0  0  0  0  0  0
    7.9810    5.3271  -56.3970 H   0  0  0  0  0  0  0  0  0  0  0  0
    9.7272    4.9805  -56.1501 H   0  0  0  0  0  0  0  0  0  0  0  0
    9.2612    3.9355  -60.9937 H   0  0  0  0  0  0  0  0  0  0  0  0
    8.8658    2.3379  -60.2729 H   0  0  0  0  0  0  0  0  0  0  0  0
    2.6860    2.6240  -59.9110 H   0  0  0  0  0  0  0  0  0  0  0  0
  1  2  1  0
  2  3  1  0
  2  4  1  0
  4  5  1  0
  5  6  2  0
  6  7  1  0
  7  8  1  0
  8  9  2  0
  8 10  1  0
 10 11  1  0
 11 12  1  0
 12 13  1  0
 13 14  1  0
 14 15  1  0
 15 16  1  0
 16 17  1  0
 17 18  1  0
 15 19  1  0
  7 20  2  0
 20 21  1  0
 21  5  1  0
 17 10  1  0
 19 11  1  0
 18 13  1  0
  1 22  1  0
  1 23  1  0
  1 24  1  0
  2 25  1  0
  3 26  1  0
  3 27  1  0
  3 28  1  0
  4 29  1  0
  4 30  1  0
 11 31  1  6
 12 32  1  0
 12 33  1  0
 13 34  1  1
 14 35  1  0
 14 36  1  0
 15 37  1  6
 16 38  1  0
 16 39  1  0
 17 40  1  1
 18 41  1  0
 18 42  1  0
 19 43  1  0
 19 44  1  0
 21 45  1  0
M  END
>  <meeko>  (48) 
{"is_sidechain": false}

$$$$

     RDKit          3D

 45 48  0  0  0  0  0  0  0  0999 V2000
    5.1570    2.2800  -62.8010 C   0  0  0  0  0  0  0  0  0  0  0  0
    3.8980    1.6880  -62.1620 C   0  0  0  0  0  0  0  0  0  0  0  0
    3.0870    0.9360  -63.2210 C   0  0  0  0  0  0  0  0  0  0  0  0
    4.2890    0.7780  -60.9830 C   0  0  0  0  0  0  0  0  0  0  0  0
    5.0090    1.4980  -59.8990 C   0  0  0  0  0  0  0  0  0  0  0  0
    4.4540    2.4850  -59.1880 N   0  0  0  0  0  0  0  0  0  0  0  0
    5.4600    2.8120  -58.3610 N   0  0  0  0  0  0  0  0  0  0  0  0
    6.5620    2.0270  -58.5610 C   0  0  0  0  0  0  0  0  0  0  0  0
    7.7820    2.2080  -57.7990 C   0  0  0  0  0  0  0  0  0  0  0  0
    7.8100    1.8330  -56.6230 O   0  0  0  0  0  0  0  0  0  0  0  0
    8.9200    2.7920  -58.3790 N   0  0  0  0  0  0  0  0  0  0  0  0
    9.0000    3.3450  -59.7490 C   0  0  1  0  0  0  0  0  0  0  0  0
    8.7370    4.8590  -59.6690 C   0  0  0  0  0  0  0  0  0  0  0  0
    9.7870    5.5100  -58.7430 C   0  0  2  0  0  0  0  0  0  0  0  0
   11.1940    5.2570  -59.3150 C   0  0  0  0  0  0  0  0  0  0  0  0
   11.4650    3.7460  -59.4200 C   0  0  1  0  0  0  0  0  0  0  0  0
   11.3470    3.1010  -58.0310 C   0  0  0  0  0  0  0  0  0  0  0  0
    9.9390    3.3460  -57.4660 C   0  0  1  0  0  0  0  0  0  0  0  0
    9.6900    4.8630  -57.3450 C   0  0  0  0  0  0  0  0  0  0  0  0
   10.4080    3.1010  -60.3260 C   0  0  0  0  0  0  0  0  0  0  0  0
    6.3010    1.1980  -59.5560 N   0  0  0  0  0  0  0  0  0  0  0  0
    5.8502    2.6060  -62.0116 H   0  0  0  0  0  0  0  0  0  0  0  0
    5.6449    1.5169  -63.4253 H   0  0  0  0  0  0  0  0  0  0  0  0
    4.8805    3.1425  -63.4253 H   0  0  0  0  0  0  0  0  0  0  0  0
    3.2643    2.4942  -61.7640 H   0  0  0  0  0  0  0  0  0  0  0  0
    2.3669    0.2683  -62.7255 H   0  0  0  0  0  0  0  0  0  0  0  0
    2.5451    1.6584  -63.8491 H   0  0  0  0  0  0  0  0  0  0  0  0
    3.7664    0.3412  -63.8491 H   0  0  0  0  0  0  0  0  0  0  0  0
    3.3726    0.3388  -60.5619 H   0  0  0  0  0  0  0  0  0  0  0  0
    4.9730    0.0112  -61.3756 H   0  0  0  0  0  0  0  0  0  0  0  0
    5.3510    3.5650  -57.6910 H   0  0  0  0  0  0  0  0  0  0  0  0
    8.2581    2.8583  -60.3992 H   0  0  0  0  0  0  0  0  0  0  0  0
    8.8107    5.2986  -60.6746 H   0  0  0  0  0  0  0  0  0  0  0  0
    7.7289    5.0376  -59.2666 H   0  0  0  0  0  0  0  0  0  0  0  0
    9.6030    6.5922  -58.6725 H   0  0  0  0  0  0  0  0  0  0  0  0
   11.2654    5.7087  -60.3154 H   0  0  0  0  0  0  0  0  0  0  0  0
   11.9393    5.7080  -58.6433 H   0  0  0  0  0  0  0  0  0  0  0  0
   12.4746    3.5941  -59.8295 H   0  0  0  0  0  0  0  0  0  0  0  0
   11.5249    2.0186  -58.1138 H   0  0  0  0  0  0  0  0  0  0  0  0
   12.0934    3.5467  -57.3570 H   0  0  0  0  0  0  0  0  0  0  0  0
    9.8692    2.8593  -56.4820 H   0  0  0  0  0  0  0  0  0  0  0  0
    8.6874    5.0385  -56.9279 H   0  0  0  0  0  0  0  0  0  0  0  0
   10.4450    5.3081  -56.6803 H   0  0  0  0  0  0  0  0  0  0  0  0
   10.4713    3.5428  -61.3314 H   0  0  0  0  0  0  0  0  0  0  0  0
   10.5927    2.0181  -60.3822 H   0  0  0  0  0  0  0  0  0  0  0  0
  1  2  1  0
  2  3  1  0
  2  4  1  0
  4  5  1  0
  5  6  2  0
  6  7  1  0
  7  8  1  0
  8  9  1  0
  9 10  2  0
  9 11  1  0
 11 12  1  0
 12 13  1  0
 13 14  1  0
 14 15  1  0
 15 16  1  0
 16 17  1  0
 17 18  1  0
 18 19  1  0
 16 20  1  0
  8 21  2  0
 21  5  1  0
 18 11  1  0
 20 12  1  0
 19 14  1  0
  1 22  1  0
  1 23  1  0
  1 24  1  0
  2 25  1  0
  3 26  1  0
  3 27  1  0
  3 28  1  0
  4 29  1  0
  4 30  1  0
  7 31  1  0
 12 32  1  6
 13 33  1  0
 13 34  1  0
 14 35  1  1
 15 36  1  0
 15 37  1  0
 16 38  1  6
 17 39  1  0
 17 40  1  0
 18 41  1  1
 19 42  1  0
 19 43  1  0
 20 44  1  0
 20 45  1  0
M  END
>  <meeko>  (49) 
{"is_sidechain": false}

$$$$

     RDKit          3D

 39 42  0  0  0  0  0  0  0  0999 V2000
    2.8250    1.6950  -62.8770 C   0  0  0  0  0  0  0  0  0  0  0  0
    3.6500    0.7540  -62.0130 C   0  0  0  0  0  0  0  0  0  0  0  0
    4.1310    1.4290  -60.7820 C   0  0  0  0  0  0  0  0  0  0  0  0
    3.4560    2.2390  -59.9940 N   0  0  0  0  0  0  0  0  0  0  0  0
    4.2960    2.6440  -58.9820 N   0  0  0  0  0  0  0  0  0  0  0  0
    5.4620    2.0500  -59.1450 C   0  0  0  0  0  0  0  0  0  0  0  0
    6.6660    2.1840  -58.3500 C   0  0  0  0  0  0  0  0  0  0  0  0
    6.6750    1.7380  -57.1980 O   0  0  0  0  0  0  0  0  0  0  0  0
    7.8110    2.7930  -58.8880 N   0  0  0  0  0  0  0  0  0  0  0  0
    9.0180    2.8510  -58.0430 C   0  0  1  0  0  0  0  0  0  0  0  0
   10.2710    2.7300  -58.9260 C   0  0  0  0  0  0  0  0  0  0  0  0
   10.2850    3.8670  -59.9610 C   0  0  2  0  0  0  0  0  0  0  0  0
   10.2840    5.2230  -59.2310 C   0  0  0  0  0  0  0  0  0  0  0  0
    9.0390    5.3460  -58.3340 C   0  0  1  0  0  0  0  0  0  0  0  0
    7.7730    5.2210  -59.2050 C   0  0  0  0  0  0  0  0  0  0  0  0
    7.7700    3.8550  -59.9200 C   0  0  1  0  0  0  0  0  0  0  0  0
    9.0140    3.7440  -60.8180 C   0  0  0  0  0  0  0  0  0  0  0  0
    9.0390    4.2010  -57.3020 C   0  0  0  0  0  0  0  0  0  0  0  0
    5.3970    1.2950  -60.2890 N   0  0  0  0  0  0  0  0  0  0  0  0
    2.2376    2.3649  -62.2319 H   0  0  0  0  0  0  0  0  0  0  0  0
    3.4956    2.2925  -63.5120 H   0  0  0  0  0  0  0  0  0  0  0  0
    2.1450    1.1083  -63.5120 H   0  0  0  0  0  0  0  0  0  0  0  0
    3.0285   -0.1079  -61.7287 H   0  0  0  0  0  0  0  0  0  0  0  0
    4.5259    0.4297  -62.5941 H   0  0  0  0  0  0  0  0  0  0  0  0
    9.0072    2.0246  -57.3171 H   0  0  0  0  0  0  0  0  0  0  0  0
   11.1704    2.7972  -58.2963 H   0  0  0  0  0  0  0  0  0  0  0  0
   10.2579    1.7616  -59.4476 H   0  0  0  0  0  0  0  0  0  0  0  0
   11.1823    3.8015  -60.5939 H   0  0  0  0  0  0  0  0  0  0  0  0
   11.1882    5.3012  -58.6095 H   0  0  0  0  0  0  0  0  0  0  0  0
   10.2686    6.0311  -59.9772 H   0  0  0  0  0  0  0  0  0  0  0  0
    9.0523    6.3182  -57.8197 H   0  0  0  0  0  0  0  0  0  0  0  0
    6.8804    5.3024  -58.5673 H   0  0  0  0  0  0  0  0  0  0  0  0
    7.7645    6.0258  -59.9548 H   0  0  0  0  0  0  0  0  0  0  0  0
    6.8678    3.7507  -60.5406 H   0  0  0  0  0  0  0  0  0  0  0  0
    9.0104    2.7698  -61.3288 H   0  0  0  0  0  0  0  0  0  0  0  0
    8.9980    4.5524  -61.5638 H   0  0  0  0  0  0  0  0  0  0  0  0
    9.9445    4.2656  -56.6808 H   0  0  0  0  0  0  0  0  0  0  0  0
    8.1504    4.2833  -56.6589 H   0  0  0  0  0  0  0  0  0  0  0  0
    6.1630    0.7590  -60.6740 H   0  0  0  0  0  0  0  0  0  0  0  0
  1  2  1  0
  2  3  1  0
  3  4  2  0
  4  5  1  0
  5  6  2  0
  6  7  1  0
  7  8  2  0
  7  9  1  0
  9 10  1  0
 10 11  1  0
 11 12  1  0
 12 13  1  0
 13 14  1  0
 14 15  1  0
 15 16  1  0
 16 17  1  0
 14 18  1  0
  6 19  1  0
 19  3  1  0
 16  9  1  0
 18 10  1  0
 17 12  1  0
  1 20  1  0
  1 21  1  0
  1 22  1  0
  2 23  1  0
  2 24  1  0
 10 25  1  1
 11 26  1  0
 11 27  1  0
 12 28  1  6
 13 29  1  0
 13 30  1  0
 14 31  1  1
 15 32  1  0
 15 33  1  0
 16 34  1  6
 17 35  1  0
 17 36  1  0
 18 37  1  0
 18 38  1  0
 19 39  1  0
M  END
>  <meeko>  (50) 
{"is_sidechain": false}

$$$$

     RDKit          3D

 39 42  0  0  0  0  0  0  0  0999 V2000
    2.6640    1.9660  -62.8550 C   0  0  0  0  0  0  0  0  0  0  0  0
    3.5840    0.9770  -62.1590 C   0  0  0  0  0  0  0  0  0  0  0  0
    4.1120    1.5280  -60.8860 C   0  0  0  0  0  0  0  0  0  0  0  0
    5.3140    1.3760  -60.3810 N   0  0  0  0  0  0  0  0  0  0  0  0
    5.2780    2.0820  -59.1880 C   0  0  0  0  0  0  0  0  0  0  0  0
    6.4270    2.1130  -58.2460 C   0  0  0  0  0  0  0  0  0  0  0  0
    6.6110    1.1910  -57.4480 O   0  0  0  0  0  0  0  0  0  0  0  0
    7.2830    3.2360  -58.2580 N   0  0  0  0  0  0  0  0  0  0  0  0
    7.6100    3.9680  -59.5000 C   0  0  1  0  0  0  0  0  0  0  0  0
    7.8940    5.4410  -59.1620 C   0  0  0  0  0  0  0  0  0  0  0  0
    9.0530    5.5260  -58.1550 C   0  0  2  0  0  0  0  0  0  0  0  0
   10.3100    4.8790  -58.7620 C   0  0  0  0  0  0  0  0  0  0  0  0
   10.0350    3.4050  -59.1130 C   0  0  1  0  0  0  0  0  0  0  0  0
    9.6250    2.6450  -57.8370 C   0  0  0  0  0  0  0  0  0  0  0  0
    8.3550    3.2870  -57.2490 C   0  0  1  0  0  0  0  0  0  0  0  0
    8.6420    4.7540  -56.8890 C   0  0  0  0  0  0  0  0  0  0  0  0
    8.8710    3.3330  -60.1210 C   0  0  0  0  0  0  0  0  0  0  0  0
    4.0790    2.6590  -58.9560 N   0  0  0  0  0  0  0  0  0  0  0  0
    3.3720    2.2900  -60.0330 N   0  0  0  0  0  0  0  0  0  0  0  0
    2.1185    2.5525  -62.1010 H   0  0  0  0  0  0  0  0  0  0  0  0
    3.2614    2.6425  -63.4839 H   0  0  0  0  0  0  0  0  0  0  0  0
    1.9462    1.4190  -63.4839 H   0  0  0  0  0  0  0  0  0  0  0  0
    3.0219    0.0563  -61.9440 H   0  0  0  0  0  0  0  0  0  0  0  0
    4.4349    0.7700  -62.8246 H   0  0  0  0  0  0  0  0  0  0  0  0
    6.7695    3.9131  -60.2074 H   0  0  0  0  0  0  0  0  0  0  0  0
    8.1670    5.9811  -60.0805 H   0  0  0  0  0  0  0  0  0  0  0  0
    6.9938    5.8944  -58.7214 H   0  0  0  0  0  0  0  0  0  0  0  0
    9.2720    6.5761  -57.9115 H   0  0  0  0  0  0  0  0  0  0  0  0
   10.5933    5.4229  -59.6752 H   0  0  0  0  0  0  0  0  0  0  0  0
   11.1273    4.9257  -58.0272 H   0  0  0  0  0  0  0  0  0  0  0  0
   10.9414    2.9563  -59.5456 H   0  0  0  0  0  0  0  0  0  0  0  0
    9.4238    1.5923  -58.0848 H   0  0  0  0  0  0  0  0  0  0  0  0
   10.4395    2.6963  -57.0995 H   0  0  0  0  0  0  0  0  0  0  0  0
    8.0469    2.7414  -56.3449 H   0  0  0  0  0  0  0  0  0  0  0  0
    7.7371    5.2094  -56.4603 H   0  0  0  0  0  0  0  0  0  0  0  0
    9.4595    4.7963  -56.1542 H   0  0  0  0  0  0  0  0  0  0  0  0
    9.1441    3.8800  -61.0355 H   0  0  0  0  0  0  0  0  0  0  0  0
    8.6665    2.2810  -60.3689 H   0  0  0  0  0  0  0  0  0  0  0  0
    2.4050    2.5820  -60.1170 H   0  0  0  0  0  0  0  0  0  0  0  0
  1  2  1  0
  2  3  1  0
  3  4  2  0
  4  5  1  0
  5  6  1  0
  6  7  2  0
  6  8  1  0
  8  9  1  0
  9 10  1  0
 10 11  1  0
 11 12  1  0
 12 13  1  0
 13 14  1  0
 14 15  1  0
 15 16  1  0
 13 17  1  0
  5 18  2  0
 18 19  1  0
 19  3  1  0
 15  8  1  0
 17  9  1  0
 16 11  1  0
  1 20  1  0
  1 21  1  0
  1 22  1  0
  2 23  1  0
  2 24  1  0
  9 25  1  6
 10 26  1  0
 10 27  1  0
 11 28  1  1
 12 29  1  0
 12 30  1  0
 13 31  1  6
 14 32  1  0
 14 33  1  0
 15 34  1  1
 16 35  1  0
 16 36  1  0
 17 37  1  0
 17 38  1  0
 19 39  1  0
M  END
>  <meeko>  (51) 
{"is_sidechain": false}

$$$$

     RDKit          3D

 39 42  0  0  0  0  0  0  0  0999 V2000
    2.7150    0.8180  -62.1480 C   0  0  0  0  0  0  0  0  0  0  0  0
    3.5140    1.4240  -61.0060 C   0  0  0  0  0  0  0  0  0  0  0  0
    4.8260    1.9500  -61.4570 C   0  0  0  0  0  0  0  0  0  0  0  0
    5.0430    2.3970  -62.7010 N   0  0  0  0  0  0  0  0  0  0  0  0
    6.3250    2.7880  -62.6210 N   0  0  0  0  0  0  0  0  0  0  0  0
    6.8560    2.5280  -61.3910 C   0  0  0  0  0  0  0  0  0  0  0  0
    8.2120    2.8320  -60.9900 C   0  0  0  0  0  0  0  0  0  0  0  0
    9.1520    2.8110  -61.7830 O   0  0  0  0  0  0  0  0  0  0  0  0
    8.4220    3.0870  -59.6180 N   0  0  0  0  0  0  0  0  0  0  0  0
    7.4330    3.8440  -58.8150 C   0  0  1  0  0  0  0  0  0  0  0  0
    7.5580    3.4340  -57.3390 C   0  0  0  0  0  0  0  0  0  0  0  0
    8.9860    3.7130  -56.8430 C   0  0  2  0  0  0  0  0  0  0  0  0
    9.2970    5.2120  -56.9980 C   0  0  0  0  0  0  0  0  0  0  0  0
    9.1670    5.6370  -58.4730 C   0  0  1  0  0  0  0  0  0  0  0  0
   10.1490    4.8120  -59.3270 C   0  0  0  0  0  0  0  0  0  0  0  0
    9.8140    3.3140  -59.1830 C   0  0  1  0  0  0  0  0  0  0  0  0
    9.9600    2.8980  -57.7100 C   0  0  0  0  0  0  0  0  0  0  0  0
    7.7320    5.3500  -58.9580 C   0  0  0  0  0  0  0  0  0  0  0  0
    5.9130    2.0140  -60.6250 N   0  0  0  0  0  0  0  0  0  0  0  0
    1.9013    0.2009  -61.7392 H   0  0  0  0  0  0  0  0  0  0  0  0
    2.2899    1.6229  -62.7657 H   0  0  0  0  0  0  0  0  0  0  0  0
    3.3754    0.1917  -62.7657 H   0  0  0  0  0  0  0  0  0  0  0  0
    2.9339    2.2487  -60.5664 H   0  0  0  0  0  0  0  0  0  0  0  0
    3.7039    0.6304  -60.2684 H   0  0  0  0  0  0  0  0  0  0  0  0
    6.7740    3.2140  -63.4220 H   0  0  0  0  0  0  0  0  0  0  0  0
    6.4134    3.6287  -59.1673 H   0  0  0  0  0  0  0  0  0  0  0  0
    6.8421    4.0128  -56.7368 H   0  0  0  0  0  0  0  0  0  0  0  0
    7.3411    2.3602  -57.2395 H   0  0  0  0  0  0  0  0  0  0  0  0
    9.0862    3.4313  -55.7844 H   0  0  0  0  0  0  0  0  0  0  0  0
    8.5893    5.7939  -56.3893 H   0  0  0  0  0  0  0  0  0  0  0  0
   10.3274    5.3996  -56.6618 H   0  0  0  0  0  0  0  0  0  0  0  0
    9.3918    6.7095  -58.5683 H   0  0  0  0  0  0  0  0  0  0  0  0
   10.0579    5.1093  -60.3821 H   0  0  0  0  0  0  0  0  0  0  0  0
   11.1784    4.9943  -58.9848 H   0  0  0  0  0  0  0  0  0  0  0  0
   10.5004    2.7186  -59.8030 H   0  0  0  0  0  0  0  0  0  0  0  0
    9.7318    1.8268  -57.6081 H   0  0  0  0  0  0  0  0  0  0  0  0
   10.9911    3.0889  -57.3777 H   0  0  0  0  0  0  0  0  0  0  0  0
    7.0177    5.9250  -58.3505 H   0  0  0  0  0  0  0  0  0  0  0  0
    7.6358    5.6445  -60.0135 H   0  0  0  0  0  0  0  0  0  0  0  0
  1  2  1  0
  2  3  1  0
  3  4  2  0
  4  5  1  0
  5  6  1  0
  6  7  1  0
  7  8  2  0
  7  9  1  0
  9 10  1  0
 10 11  1  0
 11 12  1  0
 12 13  1  0
 13 14  1  0
 14 15  1  0
 15 16  1  0
 16 17  1  0
 14 18  1  0
  6 19  2  0
 19  3  1  0
 16  9  1  0
 18 10  1  0
 17 12  1  0
  1 20  1  0
  1 21  1  0
  1 22  1  0
  2 23  1  0
  2 24  1  0
  5 25  1  0
 10 26  1  6
 11 27  1  0
 11 28  1  0
 12 29  1  1
 13 30  1  0
 13 31  1  0
 14 32  1  1
 15 33  1  0
 15 34  1  0
 16 35  1  6
 17 36  1  0
 17 37  1  0
 18 38  1  0
 18 39  1  0
M  END
>  <meeko>  (52) 
{"is_sidechain": false}

$$$$

     RDKit          3D

 24 26  0  0  0  0  0  0  0  0999 V2000
   13.6430   -4.5130  -57.1060 C   0  0  0  0  0  0  0  0  0  0  0  0
   12.6240   -3.6940  -57.9220 C   0  0  1  0  0  0  0  0  0  0  0  0
   11.7250   -4.6480  -58.7190 C   0  0  0  0  0  0  0  0  0  0  0  0
   11.0010   -5.5800  -57.7420 C   0  0  1  0  0  0  0  0  0  0  0  0
   12.0150   -6.4190  -56.9570 C   0  0  0  0  0  0  0  0  0  0  0  0
   12.9180   -5.4770  -56.1470 C   0  0  2  0  0  0  0  0  0  0  0  0
   12.0150   -4.6720  -55.2020 C   0  0  0  0  0  0  0  0  0  0  0  0
   11.0000   -3.8850  -56.0370 C   0  0  1  0  0  0  0  0  0  0  0  0
   11.7240   -2.9010  -56.9640 C   0  0  0  0  0  0  0  0  0  0  0  0
   10.2130   -4.7980  -56.8240 O   0  0  0  0  0  0  0  0  0  0  0  0
   14.2743   -5.0941  -57.7943 H   0  0  0  0  0  0  0  0  0  0  0  0
   14.2620   -3.8223  -56.5146 H   0  0  0  0  0  0  0  0  0  0  0  0
   13.1678   -3.0165  -58.5967 H   0  0  0  0  0  0  0  0  0  0  0  0
   10.9866   -4.0676  -59.2916 H   0  0  0  0  0  0  0  0  0  0  0  0
   12.3358   -5.2405  -59.4161 H   0  0  0  0  0  0  0  0  0  0  0  0
   10.3455   -6.2538  -58.3133 H   0  0  0  0  0  0  0  0  0  0  0  0
   11.4830   -7.0981  -56.2745 H   0  0  0  0  0  0  0  0  0  0  0  0
   12.6251   -7.0138  -57.6527 H   0  0  0  0  0  0  0  0  0  0  0  0
   13.6680   -6.0473  -55.5794 H   0  0  0  0  0  0  0  0  0  0  0  0
   11.4841   -5.3577  -54.5253 H   0  0  0  0  0  0  0  0  0  0  0  0
   12.6247   -3.9780  -54.6049 H   0  0  0  0  0  0  0  0  0  0  0  0
   10.3431   -3.3194  -55.3598 H   0  0  0  0  0  0  0  0  0  0  0  0
   10.9855   -2.3258  -57.5417 H   0  0  0  0  0  0  0  0  0  0  0  0
   12.3337   -2.2059  -56.3680 H   0  0  0  0  0  0  0  0  0  0  0  0
  1  2  1  0
  2  3  1  0
  3  4  1  0
  4  5  1  0
  5  6  1  0
  6  7  1  0
  7  8  1  0
  8  9  1  0
  8 10  1  0
  6  1  1  0
  9  2  1  0
 10  4  1  0
  1 11  1  0
  1 12  1  0
  2 13  1  6
  3 14  1  0
  3 15  1  0
  4 16  1  6
  5 17  1  0
  5 18  1  0
  6 19  1  1
  7 20  1  0
  7 21  1  0
  8 22  1  1
  9 23  1  0
  9 24  1  0
M  END
>  <meeko>  (53) 
{"is_sidechain": false}

$$$$

     RDKit          3D

 29 31  0  0  0  0  0  0  0  0999 V2000
   10.7730    2.0040  -57.2060 N   0  0  0  0  0  0  0  0  0  0  0  0
   10.3100    2.9880  -58.2190 C   0  0  2  0  0  0  0  0  0  0  0  0
    9.1900    2.3550  -59.0620 C   0  0  0  0  0  0  0  0  0  0  0  0
    8.7080    3.3710  -60.1130 C   0  0  1  0  0  0  0  0  0  0  0  0
    8.1810    4.6280  -59.3970 C   0  0  0  0  0  0  0  0  0  0  0  0
    9.2970    5.2620  -58.5470 C   0  0  2  0  0  0  0  0  0  0  0  0
   10.4750    5.6420  -59.4610 C   0  0  0  0  0  0  0  0  0  0  0  0
   11.0160    4.3910  -60.1780 C   0  0  2  0  0  0  0  0  0  0  0  0
    9.8900    3.7630  -61.0180 C   0  0  0  0  0  0  0  0  0  0  0  0
   11.4920    3.3720  -59.1260 C   0  0  0  0  0  0  0  0  0  0  0  0
    9.7780    4.2390  -57.5010 C   0  0  0  0  0  0  0  0  0  0  0  0
   11.3500    1.2660  -57.6300 H   0  0  0  0  0  0  0  0  0  0  0  0
    9.9810    1.5410  -56.7380 H   0  0  0  0  0  0  0  0  0  0  0  0
   11.3400    2.4520  -56.4730 H   0  0  0  0  0  0  0  0  0  0  0  0
    9.5739    1.4570  -59.5681 H   0  0  0  0  0  0  0  0  0  0  0  0
    8.3507    2.0746  -58.4086 H   0  0  0  0  0  0  0  0  0  0  0  0
    7.9067    2.9251  -60.7205 H   0  0  0  0  0  0  0  0  0  0  0  0
    7.8370    5.3559  -60.1465 H   0  0  0  0  0  0  0  0  0  0  0  0
    7.3463    4.3435  -58.7395 H   0  0  0  0  0  0  0  0  0  0  0  0
    8.9144    6.1606  -58.0409 H   0  0  0  0  0  0  0  0  0  0  0  0
   10.1331    6.3711  -60.2104 H   0  0  0  0  0  0  0  0  0  0  0  0
   11.2772    6.0806  -58.8494 H   0  0  0  0  0  0  0  0  0  0  0  0
   11.8554    4.6703  -60.8318 H   0  0  0  0  0  0  0  0  0  0  0  0
    9.5474    4.4905  -61.7686 H   0  0  0  0  0  0  0  0  0  0  0  0
   10.2745    2.8615  -61.5174 H   0  0  0  0  0  0  0  0  0  0  0  0
   11.8743    2.4731  -59.6318 H   0  0  0  0  0  0  0  0  0  0  0  0
   12.2936    3.8170  -58.5182 H   0  0  0  0  0  0  0  0  0  0  0  0
   10.5809    4.6837  -56.8946 H   0  0  0  0  0  0  0  0  0  0  0  0
    8.9389    3.9590  -56.8472 H   0  0  0  0  0  0  0  0  0  0  0  0
  2  1  1  1
  2  3  1  0
  3  4  1  0
  4  5  1  0
  5  6  1  0
  6  7  1  0
  7  8  1  0
  8  9  1  0
  8 10  1  0
  6 11  1  0
 10  2  1  0
 11  2  1  0
  9  4  1  0
  1 12  1  0
  1 13  1  0
  1 14  1  0
  3 15  1  0
  3 16  1  0
  4 17  1  6
  5 18  1  0
  5 19  1  0
  6 20  1  1
  7 21  1  0
  7 22  1  0
  8 23  1  6
  9 24  1  0
  9 25  1  0
 10 26  1  0
 10 27  1  0
 11 28  1  0
 11 29  1  0
M  CHG  1   1   1
M  END
>  <meeko>  (54) 
{"is_sidechain": false}

$$$$

     RDKit          3D

 32 34  0  0  0  0  0  0  0  0999 V2000
   13.0670    4.5940  -57.8990 C   0  0  0  0  0  0  0  0  0  0  0  0
   11.9570    5.3020  -58.5950 N   0  0  0  0  0  0  0  0  0  0  0  0
   10.7040    4.5370  -58.9320 C   0  0  2  0  0  0  0  0  0  0  0  0
    9.4790    5.1510  -58.2270 C   0  0  0  0  0  0  0  0  0  0  0  0
    8.2260    4.3120  -58.5420 C   0  0  1  0  0  0  0  0  0  0  0  0
    8.0020    4.2880  -60.0650 C   0  0  0  0  0  0  0  0  0  0  0  0
    9.2200    3.6650  -60.7720 C   0  0  2  0  0  0  0  0  0  0  0  0
    9.4240    2.2310  -60.2560 C   0  0  0  0  0  0  0  0  0  0  0  0
    9.6560    2.2450  -58.7350 C   0  0  2  0  0  0  0  0  0  0  0  0
    8.4360    2.8730  -58.0410 C   0  0  0  0  0  0  0  0  0  0  0  0
   10.9030    3.0900  -58.4240 C   0  0  0  0  0  0  0  0  0  0  0  0
   10.4730    4.5050  -60.4560 C   0  0  0  0  0  0  0  0  0  0  0  0
   12.9316    4.6803  -56.8108 H   0  0  0  0  0  0  0  0  0  0  0  0
   13.0616    3.5321  -58.1861 H   0  0  0  0  0  0  0  0  0  0  0  0
   14.0276    5.0466  -58.1861 H   0  0  0  0  0  0  0  0  0  0  0  0
   12.3370    5.7030  -59.4630 H   0  0  0  0  0  0  0  0  0  0  0  0
   11.6960    6.1150  -58.0190 H   0  0  0  0  0  0  0  0  0  0  0  0
    9.6491    5.1609  -57.1403 H   0  0  0  0  0  0  0  0  0  0  0  0
    9.3290    6.1799  -58.5860 H   0  0  0  0  0  0  0  0  0  0  0  0
    7.3512    4.7541  -58.0428 H   0  0  0  0  0  0  0  0  0  0  0  0
    7.1061    3.6912  -60.2911 H   0  0  0  0  0  0  0  0  0  0  0  0
    7.8670    5.3189  -60.4242 H   0  0  0  0  0  0  0  0  0  0  0  0
    9.0518    3.6466  -61.8589 H   0  0  0  0  0  0  0  0  0  0  0  0
    8.5295    1.6321  -60.4822 H   0  0  0  0  0  0  0  0  0  0  0  0
   10.3030    1.7918  -60.7505 H   0  0  0  0  0  0  0  0  0  0  0  0
    9.8006    1.2168  -58.3719 H   0  0  0  0  0  0  0  0  0  0  0  0
    7.5409    2.2748  -58.2669 H   0  0  0  0  0  0  0  0  0  0  0  0
    8.6094    2.8914  -56.9549 H   0  0  0  0  0  0  0  0  0  0  0  0
   11.0701    3.1057  -57.3369 H   0  0  0  0  0  0  0  0  0  0  0  0
   11.7736    2.6471  -58.9299 H   0  0  0  0  0  0  0  0  0  0  0  0
   11.3480    4.0569  -60.9495 H   0  0  0  0  0  0  0  0  0  0  0  0
   10.3272    5.5310  -60.8248 H   0  0  0  0  0  0  0  0  0  0  0  0
  1  2  1  0
  3  2  1  6
  3  4  1  0
  4  5  1  0
  5  6  1  0
  6  7  1  0
  7  8  1  0
  8  9  1  0
  9 10  1  0
  9 11  1  0
  7 12  1  0
 11  3  1  0
 12  3  1  0
 10  5  1  0
  1 13  1  0
  1 14  1  0
  1 15  1  0
  2 16  1  0
  2 17  1  0
  4 18  1  0
  4 19  1  0
  5 20  1  1
  6 21  1  0
  6 22  1  0
  7 23  1  6
  8 24  1  0
  8 25  1  0
  9 26  1  1
 10 27  1  0
 10 28  1  0
 11 29  1  0
 11 30  1  0
 12 31  1  0
 12 32  1  0
M  CHG  1   2   1
M  END
>  <meeko>  (55) 
{"is_sidechain": false}

$$$$

     RDKit          3D

 32 34  0  0  0  0  0  0  0  0999 V2000
    5.3720    1.9230  -61.1150 N   0  0  0  0  0  0  0  0  0  0  0  0
    6.1930    2.4860  -60.1900 C   0  0  0  0  0  0  0  0  0  0  0  0
    5.8520    2.6010  -59.0260 O   0  0  0  0  0  0  0  0  0  0  0  0
    7.3760    2.8780  -60.7470 N   0  0  0  0  0  0  0  0  0  0  0  0
    8.4920    3.4450  -59.9820 C   0  0  2  0  0  0  0  0  0  0  0  0
    9.6670    3.7070  -60.9620 C   0  0  0  0  0  0  0  0  0  0  0  0
   10.8800    4.2960  -60.2240 C   0  0  1  0  0  0  0  0  0  0  0  0
   10.4740    5.6240  -59.5690 C   0  0  0  0  0  0  0  0  0  0  0  0
    9.3260    5.3880  -58.5750 C   0  0  2  0  0  0  0  0  0  0  0  0
    9.7860    4.3960  -57.4940 C   0  0  0  0  0  0  0  0  0  0  0  0
   10.1950    3.0610  -58.1400 C   0  0  2  0  0  0  0  0  0  0  0  0
   11.3370    3.3110  -59.1370 C   0  0  0  0  0  0  0  0  0  0  0  0
    8.9870    2.4680  -58.8870 C   0  0  0  0  0  0  0  0  0  0  0  0
    8.1180    4.7970  -59.3230 C   0  0  0  0  0  0  0  0  0  0  0  0
    4.4480    1.7410  -60.7400 H   0  0  0  0  0  0  0  0  0  0  0  0
    5.3600    2.3810  -62.0150 H   0  0  0  0  0  0  0  0  0  0  0  0
    7.6310    2.3060  -61.5400 H   0  0  0  0  0  0  0  0  0  0  0  0
    9.9597    2.7577  -61.4344 H   0  0  0  0  0  0  0  0  0  0  0  0
    9.3347    4.4297  -61.7218 H   0  0  0  0  0  0  0  0  0  0  0  0
   11.7016    4.4691  -60.9346 H   0  0  0  0  0  0  0  0  0  0  0  0
   11.3379    6.0462  -59.0348 H   0  0  0  0  0  0  0  0  0  0  0  0
   10.1397    6.3247  -60.3483 H   0  0  0  0  0  0  0  0  0  0  0  0
    9.0415    6.3418  -58.1068 H   0  0  0  0  0  0  0  0  0  0  0  0
   10.6472    4.8184  -56.9556 H   0  0  0  0  0  0  0  0  0  0  0  0
    8.9570    4.2175  -56.7934 H   0  0  0  0  0  0  0  0  0  0  0  0
   10.5297    2.3587  -57.3624 H   0  0  0  0  0  0  0  0  0  0  0  0
   12.2009    3.7333  -58.6028 H   0  0  0  0  0  0  0  0  0  0  0  0
   11.6191    2.3583  -59.6089 H   0  0  0  0  0  0  0  0  0  0  0  0
    9.2826    1.5181  -59.3564 H   0  0  0  0  0  0  0  0  0  0  0  0
    8.1725    2.2986  -58.1674 H   0  0  0  0  0  0  0  0  0  0  0  0
    7.2951    4.6366  -58.6109 H   0  0  0  0  0  0  0  0  0  0  0  0
    7.8090    5.5012  -60.1095 H   0  0  0  0  0  0  0  0  0  0  0  0
  1  2  1  0
  2  3  2  0
  2  4  1  0
  5  4  1  6
  5  6  1  0
  6  7  1  0
  7  8  1  0
  8  9  1  0
  9 10  1  0
 10 11  1  0
 11 12  1  0
 11 13  1  0
  9 14  1  0
 13  5  1  0
 14  5  1  0
 12  7  1  0
  1 15  1  0
  1 16  1  0
  4 17  1  0
  6 18  1  0
  6 19  1  0
  7 20  1  6
  8 21  1  0
  8 22  1  0
  9 23  1  1
 10 24  1  0
 10 25  1  0
 11 26  1  1
 12 27  1  0
 12 28  1  0
 13 29  1  0
 13 30  1  0
 14 31  1  0
 14 32  1  0
M  END
>  <meeko>  (56) 
{"is_sidechain": false}

$$$$

     RDKit          3D

 27 29  0  0  0  0  0  0  0  0999 V2000
   10.6180    2.0460  -57.1750 O   0  0  0  0  0  0  0  0  0  0  0  0
   10.2100    2.9780  -58.1650 C   0  0  2  0  0  0  0  0  0  0  0  0
    9.6670    4.2530  -57.4950 C   0  0  0  0  0  0  0  0  0  0  0  0
    9.2370    5.2680  -58.5670 C   0  0  1  0  0  0  0  0  0  0  0  0
   10.4520    5.6210  -59.4430 C   0  0  0  0  0  0  0  0  0  0  0  0
   11.0020    4.3530  -60.1230 C   0  0  2  0  0  0  0  0  0  0  0  0
    9.8990    3.7310  -60.9960 C   0  0  0  0  0  0  0  0  0  0  0  0
    8.6810    3.3650  -60.1300 C   0  0  2  0  0  0  0  0  0  0  0  0
    8.1450    4.6380  -59.4500 C   0  0  0  0  0  0  0  0  0  0  0  0
    9.1130    2.3590  -59.0500 C   0  0  0  0  0  0  0  0  0  0  0  0
   11.4200    3.3440  -59.0410 C   0  0  0  0  0  0  0  0  0  0  0  0
    9.8750    1.4410  -57.0080 H   0  0  0  0  0  0  0  0  0  0  0  0
    8.8000    3.9947  -56.8693 H   0  0  0  0  0  0  0  0  0  0  0  0
   10.4570    4.6982  -56.8724 H   0  0  0  0  0  0  0  0  0  0  0  0
    8.8478    6.1768  -58.0847 H   0  0  0  0  0  0  0  0  0  0  0  0
   10.1467    6.3438  -60.2140 H   0  0  0  0  0  0  0  0  0  0  0  0
   11.2373    6.0585  -58.8091 H   0  0  0  0  0  0  0  0  0  0  0  0
   11.8700    4.6100  -60.7479 H   0  0  0  0  0  0  0  0  0  0  0  0
    9.5934    4.4546  -61.7660 H   0  0  0  0  0  0  0  0  0  0  0  0
   10.2887    2.8191  -61.4721 H   0  0  0  0  0  0  0  0  0  0  0  0
    7.8963    2.9202  -60.7596 H   0  0  0  0  0  0  0  0  0  0  0  0
    7.8391    5.3606  -60.2209 H   0  0  0  0  0  0  0  0  0  0  0  0
    7.2825    4.3732  -58.8207 H   0  0  0  0  0  0  0  0  0  0  0  0
    8.2452    2.0986  -58.4263 H   0  0  0  0  0  0  0  0  0  0  0  0
    9.5075    1.4541  -59.5354 H   0  0  0  0  0  0  0  0  0  0  0  0
   11.8093    2.4347  -59.5222 H   0  0  0  0  0  0  0  0  0  0  0  0
   12.1990    3.7954  -58.4090 H   0  0  0  0  0  0  0  0  0  0  0  0
  2  1  1  1
  2  3  1  0
  3  4  1  0
  4  5  1  0
  5  6  1  0
  6  7  1  0
  7  8  1  0
  8  9  1  0
  8 10  1  0
  6 11  1  0
 10  2  1  0
 11  2  1  0
  9  4  1  0
  1 12  1  0
  3 13  1  0
  3 14  1  0
  4 15  1  1
  5 16  1  0
  5 17  1  0
  6 18  1  6
  7 19  1  0
  7 20  1  0
  8 21  1  6
  9 22  1  0
  9 23  1  0
 10 24  1  0
 10 25  1  0
 11 26  1  0
 11 27  1  0
M  END
>  <meeko>  (57) 
{"is_sidechain": false}

$$$$

     RDKit          3D

 33 35  0  0  0  0  0  0  0  0999 V2000
    6.6240    0.4340  -55.7130 C   0  0  0  0  0  0  0  0  0  0  0  0
    6.7940    1.7200  -56.4770 C   0  0  0  0  0  0  0  0  0  0  0  0
    5.8680    2.5110  -56.6160 O   0  0  0  0  0  0  0  0  0  0  0  0
    8.0550    1.8850  -57.0040 N   0  0  0  0  0  0  0  0  0  0  0  0
    8.4760    3.0230  -57.8300 C   0  0  2  0  0  0  0  0  0  0  0  0
    7.5580    3.2010  -59.0660 C   0  0  0  0  0  0  0  0  0  0  0  0
    8.0510    4.3660  -59.9420 C   0  0  1  0  0  0  0  0  0  0  0  0
    8.0550    5.6600  -59.1090 C   0  0  0  0  0  0  0  0  0  0  0  0
    8.9920    5.5090  -57.8990 C   0  0  2  0  0  0  0  0  0  0  0  0
   10.4150    5.2070  -58.3940 C   0  0  0  0  0  0  0  0  0  0  0  0
   10.4190    3.9100  -59.2190 C   0  0  2  0  0  0  0  0  0  0  0  0
    9.4800    4.0710  -60.4240 C   0  0  0  0  0  0  0  0  0  0  0  0
    9.9170    2.7520  -58.3410 C   0  0  0  0  0  0  0  0  0  0  0  0
    8.5000    4.3440  -57.0210 C   0  0  0  0  0  0  0  0  0  0  0  0
    6.6516    0.6426  -54.6333 H   0  0  0  0  0  0  0  0  0  0  0  0
    5.6577   -0.0224  -55.9737 H   0  0  0  0  0  0  0  0  0  0  0  0
    7.4385   -0.2578  -55.9737 H   0  0  0  0  0  0  0  0  0  0  0  0
    8.7030    1.1120  -56.9170 H   0  0  0  0  0  0  0  0  0  0  0  0
    7.5656    2.2744  -59.6587 H   0  0  0  0  0  0  0  0  0  0  0  0
    6.5373    3.4231  -58.7212 H   0  0  0  0  0  0  0  0  0  0  0  0
    7.3848    4.4838  -60.8093 H   0  0  0  0  0  0  0  0  0  0  0  0
    8.4023    6.4946  -59.7357 H   0  0  0  0  0  0  0  0  0  0  0  0
    7.0344    5.8594  -58.7503 H   0  0  0  0  0  0  0  0  0  0  0  0
    8.9951    6.4397  -57.3127 H   0  0  0  0  0  0  0  0  0  0  0  0
   10.7670    6.0392  -59.0214 H   0  0  0  0  0  0  0  0  0  0  0  0
   11.0814    5.0863  -57.5272 H   0  0  0  0  0  0  0  0  0  0  0  0
   11.4397    3.6979  -59.5699 H   0  0  0  0  0  0  0  0  0  0  0  0
    9.8319    4.9034  -61.0512 H   0  0  0  0  0  0  0  0  0  0  0  0
    9.4786    3.1385  -61.0074 H   0  0  0  0  0  0  0  0  0  0  0  0
    9.9200    1.8248  -58.9328 H   0  0  0  0  0  0  0  0  0  0  0  0
   10.5843    2.6575  -57.4717 H   0  0  0  0  0  0  0  0  0  0  0  0
    9.1762    4.2289  -56.1611 H   0  0  0  0  0  0  0  0  0  0  0  0
    7.4796    4.5668  -56.6759 H   0  0  0  0  0  0  0  0  0  0  0  0
  1  2  1  0
  2  3  2  0
  2  4  1  0
  5  4  1  1
  5  6  1  0
  6  7  1  0
  7  8  1  0
  8  9  1  0
  9 10  1  0
 10 11  1  0
 11 12  1  0
 11 13  1  0
  9 14  1  0
 13  5  1  0
 14  5  1  0
 12  7  1  0
  1 15  1  0
  1 16  1  0
  1 17  1  0
  4 18  1  0
  6 19  1  0
  6 20  1  0
  7 21  1  6
  8 22  1  0
  8 23  1  0
  9 24  1  1
 10 25  1  0
 10 26  1  0
 11 27  1  6
 12 28  1  0
 12 29  1  0
 13 30  1  0
 13 31  1  0
 14 32  1  0
 14 33  1  0
M  END
>  <meeko>  (58) 
{"is_sidechain": false}

$$$$

     RDKit          3D

 37 39  0  0  0  0  0  0  0  0999 V2000
    3.5270    0.7750  -62.1010 C   0  0  0  0  0  0  0  0  0  0  0  0
    4.0300    1.8460  -61.1530 C   0  0  0  0  0  0  0  0  0  0  0  0
    5.4010    2.1150  -61.4690 O   0  0  0  0  0  0  0  0  0  0  0  0
    6.1480    2.5040  -60.4070 C   0  0  0  0  0  0  0  0  0  0  0  0
    5.7890    2.4560  -59.2420 O   0  0  0  0  0  0  0  0  0  0  0  0
    7.3490    2.9490  -60.8650 N   0  0  0  0  0  0  0  0  0  0  0  0
    8.4460    3.4580  -60.0430 C   0  0  2  0  0  0  0  0  0  0  0  0
    9.6600    3.7450  -60.9650 C   0  0  0  0  0  0  0  0  0  0  0  0
   10.8500    4.2850  -60.1550 C   0  0  1  0  0  0  0  0  0  0  0  0
   10.4330    5.5870  -59.4530 C   0  0  0  0  0  0  0  0  0  0  0  0
    9.2460    5.3200  -58.5150 C   0  0  2  0  0  0  0  0  0  0  0  0
    9.6540    4.2720  -57.4650 C   0  0  0  0  0  0  0  0  0  0  0  0
   10.0720    2.9640  -58.1580 C   0  0  2  0  0  0  0  0  0  0  0  0
   11.2550    3.2450  -59.0990 C   0  0  0  0  0  0  0  0  0  0  0  0
    8.8870    2.4240  -58.9780 C   0  0  0  0  0  0  0  0  0  0  0  0
    8.0610    4.7810  -59.3340 C   0  0  0  0  0  0  0  0  0  0  0  0
    3.1297   -0.0710  -61.5209 H   0  0  0  0  0  0  0  0  0  0  0  0
    2.7302    1.1913  -62.7349 H   0  0  0  0  0  0  0  0  0  0  0  0
    4.3561    0.4277  -62.7349 H   0  0  0  0  0  0  0  0  0  0  0  0
    3.4330    2.7618  -61.2752 H   0  0  0  0  0  0  0  0  0  0  0  0
    3.9400    1.5043  -60.1113 H   0  0  0  0  0  0  0  0  0  0  0  0
    7.4520    2.9080  -61.8690 H   0  0  0  0  0  0  0  0  0  0  0  0
    9.9593    2.8129  -61.4666 H   0  0  0  0  0  0  0  0  0  0  0  0
    9.3666    4.5034  -61.7057 H   0  0  0  0  0  0  0  0  0  0  0  0
   11.6994    4.4816  -60.8257 H   0  0  0  0  0  0  0  0  0  0  0  0
   11.2805    5.9730  -58.8676 H   0  0  0  0  0  0  0  0  0  0  0  0
   10.1358    6.3270  -60.2106 H   0  0  0  0  0  0  0  0  0  0  0  0
    8.9547    6.2545  -58.0132 H   0  0  0  0  0  0  0  0  0  0  0  0
   10.4989    4.6575  -56.8755 H   0  0  0  0  0  0  0  0  0  0  0  0
    8.7973    4.0716  -56.8047 H   0  0  0  0  0  0  0  0  0  0  0  0
   10.3684    2.2216  -57.4024 H   0  0  0  0  0  0  0  0  0  0  0  0
   12.1025    3.6311  -58.5136 H   0  0  0  0  0  0  0  0  0  0  0  0
   11.5450    2.3116  -59.6037 H   0  0  0  0  0  0  0  0  0  0  0  0
    9.1893    1.4935  -59.4808 H   0  0  0  0  0  0  0  0  0  0  0  0
    8.0433    2.2323  -58.2987 H   0  0  0  0  0  0  0  0  0  0  0  0
    7.2105    4.5966  -58.6612 H   0  0  0  0  0  0  0  0  0  0  0  0
    7.7882    5.5258  -60.0961 H   0  0  0  0  0  0  0  0  0  0  0  0
  1  2  1  0
  2  3  1  0
  3  4  1  0
  4  5  2  0
  4  6  1  0
  7  6  1  6
  7  8  1  0
  8  9  1  0
  9 10  1  0
 10 11  1  0
 11 12  1  0
 12 13  1  0
 13 14  1  0
 13 15  1  0
 11 16  1  0
 15  7  1  0
 16  7  1  0
 14  9  1  0
  1 17  1  0
  1 18  1  0
  1 19  1  0
  2 20  1  0
  2 21  1  0
  6 22  1  0
  8 23  1  0
  8 24  1  0
  9 25  1  6
 10 26  1  0
 10 27  1  0
 11 28  1  1
 12 29  1  0
 12 30  1  0
 13 31  1  1
 14 32  1  0
 14 33  1  0
 15 34  1  0
 15 35  1  0
 16 36  1  0
 16 37  1  0
M  END
>  <meeko>  (59) 
{"is_sidechain": false}

$$$$

     RDKit          3D

 36 38  0  0  0  0  0  0  0  0999 V2000
   12.9370    7.4990  -60.7300 C   0  0  0  0  0  0  0  0  0  0  0  0
   13.3080    6.5750  -59.5840 C   0  0  0  0  0  0  0  0  0  0  0  0
   12.4830    5.3020  -59.5740 C   0  0  0  0  0  0  0  0  0  0  0  0
   12.9750    4.1820  -59.5130 O   0  0  0  0  0  0  0  0  0  0  0  0
   11.1270    5.5550  -59.6420 N   0  0  0  0  0  0  0  0  0  0  0  0
   10.0800    4.5280  -59.6520 C   0  0  2  0  0  0  0  0  0  0  0  0
    8.6970    5.1170  -59.2750 C   0  0  0  0  0  0  0  0  0  0  0  0
    7.6090    4.0300  -59.3430 C   0  0  1  0  0  0  0  0  0  0  0  0
    7.5370    3.4720  -60.7740 C   0  0  0  0  0  0  0  0  0  0  0  0
    8.8910    2.8620  -61.1670 C   0  0  2  0  0  0  0  0  0  0  0  0
    9.2420    1.7270  -60.1930 C   0  0  0  0  0  0  0  0  0  0  0  0
    9.3250    2.2750  -58.7580 C   0  0  2  0  0  0  0  0  0  0  0  0
    7.9700    2.8920  -58.3720 C   0  0  0  0  0  0  0  0  0  0  0  0
   10.4140    3.3590  -58.6910 C   0  0  0  0  0  0  0  0  0  0  0  0
    9.9750    3.9480  -61.0880 C   0  0  0  0  0  0  0  0  0  0  0  0
   12.5557    8.4487  -60.3266 H   0  0  0  0  0  0  0  0  0  0  0  0
   13.8267    7.6936  -61.3469 H   0  0  0  0  0  0  0  0  0  0  0  0
   12.1598    7.0243  -61.3469 H   0  0  0  0  0  0  0  0  0  0  0  0
   14.3705    6.3061  -59.6774 H   0  0  0  0  0  0  0  0  0  0  0  0
   13.1076    7.1106  -58.6444 H   0  0  0  0  0  0  0  0  0  0  0  0
   10.8360    6.5220  -59.6900 H   0  0  0  0  0  0  0  0  0  0  0  0
    8.7421    5.5200  -58.2525 H   0  0  0  0  0  0  0  0  0  0  0  0
    8.4453    5.9161  -59.9879 H   0  0  0  0  0  0  0  0  0  0  0  0
    6.6359    4.4611  -59.0650 H   0  0  0  0  0  0  0  0  0  0  0  0
    6.7592    2.6958  -60.8239 H   0  0  0  0  0  0  0  0  0  0  0  0
    7.2928    4.2889  -61.4690 H   0  0  0  0  0  0  0  0  0  0  0  0
    8.8338    2.4647  -62.1912 H   0  0  0  0  0  0  0  0  0  0  0  0
    8.4644    0.9505  -60.2424 H   0  0  0  0  0  0  0  0  0  0  0  0
   10.2151    1.2974  -60.4733 H   0  0  0  0  0  0  0  0  0  0  0  0
    9.5720    1.4588  -58.0631 H   0  0  0  0  0  0  0  0  0  0  0  0
    7.1916    2.1160  -58.4160 H   0  0  0  0  0  0  0  0  0  0  0  0
    8.0378    3.2981  -57.3520 H   0  0  0  0  0  0  0  0  0  0  0  0
   10.4783    3.7437  -57.6625 H   0  0  0  0  0  0  0  0  0  0  0  0
   11.3746    2.9157  -58.9923 H   0  0  0  0  0  0  0  0  0  0  0  0
   10.9437    3.5101  -61.3705 H   0  0  0  0  0  0  0  0  0  0  0  0
    9.7044    4.7630  -61.7755 H   0  0  0  0  0  0  0  0  0  0  0  0
  1  2  1  0
  2  3  1  0
  3  4  2  0
  3  5  1  0
  6  5  1  6
  6  7  1  0
  7  8  1  0
  8  9  1  0
  9 10  1  0
 10 11  1  0
 11 12  1  0
 12 13  1  0
 12 14  1  0
 10 15  1  0
 14  6  1  0
 15  6  1  0
 13  8  1  0
  1 16  1  0
  1 17  1  0
  1 18  1  0
  2 19  1  0
  2 20  1  0
  5 21  1  0
  7 22  1  0
  7 23  1  0
  8 24  1  1
  9 25  1  0
  9 26  1  0
 10 27  1  6
 11 28  1  0
 11 29  1  0
 12 30  1  1
 13 31  1  0
 13 32  1  0
 14 33  1  0
 14 34  1  0
 15 35  1  0
 15 36  1  0
M  END
>  <meeko>  (60) 
{"is_sidechain": false}

$$$$

     RDKit          3D

 39 41  0  0  0  0  0  0  0  0999 V2000
    2.8950    1.8950  -60.8940 C   0  0  0  0  0  0  0  0  0  0  0  0
    4.1880    1.2360  -61.3490 C   0  0  0  0  0  0  0  0  0  0  0  0
    5.1970    1.1390  -60.2070 C   0  0  0  0  0  0  0  0  0  0  0  0
    6.3670    2.0890  -60.3910 C   0  0  0  0  0  0  0  0  0  0  0  0
    6.5760    2.7090  -61.4250 O   0  0  0  0  0  0  0  0  0  0  0  0
    7.1580    2.1690  -59.2620 N   0  0  0  0  0  0  0  0  0  0  0  0
    8.3580    3.0010  -59.1350 C   0  0  2  0  0  0  0  0  0  0  0  0
    8.0560    4.4920  -59.4300 C   0  0  0  0  0  0  0  0  0  0  0  0
    9.3200    5.3490  -59.2390 C   0  0  1  0  0  0  0  0  0  0  0  0
    9.8060    5.2220  -57.7870 C   0  0  0  0  0  0  0  0  0  0  0  0
   10.1340    3.7540  -57.4700 C   0  0  2  0  0  0  0  0  0  0  0  0
   11.2340    3.2620  -58.4230 C   0  0  0  0  0  0  0  0  0  0  0  0
   10.7560    3.3770  -59.8790 C   0  0  2  0  0  0  0  0  0  0  0  0
   10.4210    4.8460  -60.1880 C   0  0  0  0  0  0  0  0  0  0  0  0
    9.4940    2.5170  -60.0700 C   0  0  0  0  0  0  0  0  0  0  0  0
    8.8720    2.9010  -57.6720 C   0  0  0  0  0  0  0  0  0  0  0  0
    2.8597    1.9130  -59.7947 H   0  0  0  0  0  0  0  0  0  0  0  0
    2.8529    2.9245  -61.2791 H   0  0  0  0  0  0  0  0  0  0  0  0
    2.0372    1.3241  -61.2791 H   0  0  0  0  0  0  0  0  0  0  0  0
    3.9637    0.2233  -61.7152 H   0  0  0  0  0  0  0  0  0  0  0  0
    4.6276    1.8519  -62.1474 H   0  0  0  0  0  0  0  0  0  0  0  0
    4.6878    1.3833  -59.2631 H   0  0  0  0  0  0  0  0  0  0  0  0
    5.5944    0.1134  -60.1947 H   0  0  0  0  0  0  0  0  0  0  0  0
    6.8880    1.6100  -58.4620 H   0  0  0  0  0  0  0  0  0  0  0  0
    7.7054    4.5913  -60.4679 H   0  0  0  0  0  0  0  0  0  0  0  0
    7.2816    4.8418  -58.7315 H   0  0  0  0  0  0  0  0  0  0  0  0
    9.0904    6.4016  -59.4611 H   0  0  0  0  0  0  0  0  0  0  0  0
   10.7090    5.8350  -57.6500 H   0  0  0  0  0  0  0  0  0  0  0  0
    9.0131    5.5699  -57.1086 H   0  0  0  0  0  0  0  0  0  0  0  0
   10.4801    3.6676  -56.4295 H   0  0  0  0  0  0  0  0  0  0  0  0
   12.1364    3.8759  -58.2860 H   0  0  0  0  0  0  0  0  0  0  0  0
   11.4622    2.2094  -58.1993 H   0  0  0  0  0  0  0  0  0  0  0  0
   11.5479    3.0267  -60.5573 H   0  0  0  0  0  0  0  0  0  0  0  0
   11.3238    5.4604  -60.0557 H   0  0  0  0  0  0  0  0  0  0  0  0
   10.0641    4.9229  -61.2256 H   0  0  0  0  0  0  0  0  0  0  0  0
    9.1593    2.5933  -61.1151 H   0  0  0  0  0  0  0  0  0  0  0  0
    9.7358    1.4727  -59.8232 H   0  0  0  0  0  0  0  0  0  0  0  0
    9.1080    1.8509  -57.4450 H   0  0  0  0  0  0  0  0  0  0  0  0
    8.0861    3.2746  -56.9991 H   0  0  0  0  0  0  0  0  0  0  0  0
  1  2  1  0
  2  3  1  0
  3  4  1  0
  4  5  2  0
  4  6  1  0
  7  6  1  1
  7  8  1  0
  8  9  1  0
  9 10  1  0
 10 11  1  0
 11 12  1  0
 12 13  1  0
 13 14  1  0
 13 15  1  0
 11 16  1  0
 15  7  1  0
 16  7  1  0
 14  9  1  0
  1 17  1  0
  1 18  1  0
  1 19  1  0
  2 20  1  0
  2 21  1  0
  3 22  1  0
  3 23  1  0
  6 24  1  0
  8 25  1  0
  8 26  1  0
  9 27  1  6
 10 28  1  0
 10 29  1  0
 11 30  1  1
 12 31  1  0
 12 32  1  0
 13 33  1  6
 14 34  1  0
 14 35  1  0
 15 36  1  0
 15 37  1  0
 16 38  1  0
 16 39  1  0
M  END
>  <meeko>  (61) 
{"is_sidechain": false}

$$$$

     RDKit          3D

 34 36  0  0  0  0  0  0  0  0999 V2000
   13.0100    7.4680  -60.5730 C   0  0  0  0  0  0  0  0  0  0  0  0
   13.3320    6.6120  -59.4770 O   0  0  0  0  0  0  0  0  0  0  0  0
   12.6700    5.4280  -59.4910 C   0  0  0  0  0  0  0  0  0  0  0  0
   13.2000    4.3290  -59.4890 O   0  0  0  0  0  0  0  0  0  0  0  0
   11.3340    5.6810  -59.5090 N   0  0  0  0  0  0  0  0  0  0  0  0
   10.2710    4.6780  -59.5290 C   0  0  2  0  0  0  0  0  0  0  0  0
   10.0910    4.0660  -60.9400 C   0  0  0  0  0  0  0  0  0  0  0  0
    8.9370    3.0480  -60.9460 C   0  0  1  0  0  0  0  0  0  0  0  0
    9.2420    1.9300  -59.9340 C   0  0  0  0  0  0  0  0  0  0  0  0
    9.3890    2.5210  -58.5220 C   0  0  2  0  0  0  0  0  0  0  0  0
    8.0830    3.2320  -58.1310 C   0  0  0  0  0  0  0  0  0  0  0  0
    7.7770    4.3560  -59.1340 C   0  0  2  0  0  0  0  0  0  0  0  0
    7.6330    3.7560  -60.5420 C   0  0  0  0  0  0  0  0  0  0  0  0
    8.9380    5.3640  -59.1310 C   0  0  0  0  0  0  0  0  0  0  0  0
   10.5430    3.5380  -58.5160 C   0  0  0  0  0  0  0  0  0  0  0  0
   12.6469    8.4332  -60.1901 H   0  0  0  0  0  0  0  0  0  0  0  0
   13.9081    7.6315  -61.1868 H   0  0  0  0  0  0  0  0  0  0  0  0
   12.2268    6.9990  -61.1868 H   0  0  0  0  0  0  0  0  0  0  0  0
   11.0960    6.6640  -59.5090 H   0  0  0  0  0  0  0  0  0  0  0  0
    9.8676    4.8699  -61.6568 H   0  0  0  0  0  0  0  0  0  0  0  0
   11.0202    3.5502  -61.2239 H   0  0  0  0  0  0  0  0  0  0  0  0
    8.8279    2.6177  -61.9524 H   0  0  0  0  0  0  0  0  0  0  0  0
    8.4190    1.2002  -59.9391 H   0  0  0  0  0  0  0  0  0  0  0  0
   10.1828    1.4351  -60.2169 H   0  0  0  0  0  0  0  0  0  0  0  0
    9.6011    1.7159  -57.8031 H   0  0  0  0  0  0  0  0  0  0  0  0
    7.2572    2.5054  -58.1348 H   0  0  0  0  0  0  0  0  0  0  0  0
    8.1939    3.6647  -57.1258 H   0  0  0  0  0  0  0  0  0  0  0  0
    6.8425    4.8620  -58.8500 H   0  0  0  0  0  0  0  0  0  0  0  0
    6.8073    3.0293  -60.5459 H   0  0  0  0  0  0  0  0  0  0  0  0
    7.4222    4.5629  -61.2593 H   0  0  0  0  0  0  0  0  0  0  0  0
    8.7185    6.1676  -59.8494 H   0  0  0  0  0  0  0  0  0  0  0  0
    9.0441    5.7732  -58.1155 H   0  0  0  0  0  0  0  0  0  0  0  0
   10.6419    3.9664  -57.5077 H   0  0  0  0  0  0  0  0  0  0  0  0
   11.4712    3.0225  -58.8034 H   0  0  0  0  0  0  0  0  0  0  0  0
  1  2  1  0
  2  3  1  0
  3  4  2  0
  3  5  1  0
  6  5  1  6
  6  7  1  0
  7  8  1  0
  8  9  1  0
  9 10  1  0
 10 11  1  0
 11 12  1  0
 12 13  1  0
 12 14  1  0
 10 15  1  0
 14  6  1  0
 15  6  1  0
 13  8  1  0
  1 16  1  0
  1 17  1  0
  1 18  1  0
  5 19  1  0
  7 20  1  0
  7 21  1  0
  8 22  1  6
  9 23  1  0
  9 24  1  0
 10 25  1  1
 11 26  1  0
 11 27  1  0
 12 28  1  1
 13 29  1  0
 13 30  1  0
 14 31  1  0
 14 32  1  0
 15 33  1  0
 15 34  1  0
M  END
>  <meeko>  (62) 
{"is_sidechain": false}

$$$$

     RDKit          3D

 34 36  0  0  0  0  0  0  0  0999 V2000
   13.0180    7.6180  -60.6140 C   0  0  0  0  0  0  0  0  0  0  0  0
   13.3920    6.6290  -59.7940 C   0  0  0  0  0  0  0  0  0  0  0  0
   12.5110    5.4480  -59.5860 C   0  0  0  0  0  0  0  0  0  0  0  0
   12.9580    4.3170  -59.4530 O   0  0  0  0  0  0  0  0  0  0  0  0
   11.1790    5.7830  -59.5650 N   0  0  0  0  0  0  0  0  0  0  0  0
   10.0820    4.8260  -59.3780 C   0  0  2  0  0  0  0  0  0  0  0  0
   10.3330    3.8970  -58.1640 C   0  0  0  0  0  0  0  0  0  0  0  0
    9.1460    2.9390  -57.9600 C   0  0  1  0  0  0  0  0  0  0  0  0
    7.8710    3.7570  -57.7020 C   0  0  0  0  0  0  0  0  0  0  0  0
    7.5840    4.6750  -58.9000 C   0  0  2  0  0  0  0  0  0  0  0  0
    7.3960    3.8190  -60.1630 C   0  0  0  0  0  0  0  0  0  0  0  0
    8.6680    3.0010  -60.4360 C   0  0  2  0  0  0  0  0  0  0  0  0
    8.9550    2.0920  -59.2290 C   0  0  0  0  0  0  0  0  0  0  0  0
    9.8550    3.9600  -60.6420 C   0  0  0  0  0  0  0  0  0  0  0  0
    8.7770    5.6220  -59.1070 C   0  0  0  0  0  0  0  0  0  0  0  0
   13.6751    8.4876  -60.7623 H   0  0  0  0  0  0  0  0  0  0  0  0
   12.0535    7.5614  -61.1398 H   0  0  0  0  0  0  0  0  0  0  0  0
   14.3573    6.6894  -59.2701 H   0  0  0  0  0  0  0  0  0  0  0  0
   10.9270    6.7540  -59.6860 H   0  0  0  0  0  0  0  0  0  0  0  0
   11.2456    3.3091  -58.3414 H   0  0  0  0  0  0  0  0  0  0  0  0
   10.4481    4.5159  -57.2619 H   0  0  0  0  0  0  0  0  0  0  0  0
    9.3447    2.2819  -57.1005 H   0  0  0  0  0  0  0  0  0  0  0  0
    7.0224    3.0725  -57.5561 H   0  0  0  0  0  0  0  0  0  0  0  0
    8.0130    4.3725  -56.8015 H   0  0  0  0  0  0  0  0  0  0  0  0
    6.6718    5.2591  -58.7085 H   0  0  0  0  0  0  0  0  0  0  0  0
    6.5471    3.1349  -60.0167 H   0  0  0  0  0  0  0  0  0  0  0  0
    7.1991    4.4786  -61.0210 H   0  0  0  0  0  0  0  0  0  0  0  0
    8.5268    2.3871  -61.3378 H   0  0  0  0  0  0  0  0  0  0  0  0
    8.1091    1.4042  -59.0829 H   0  0  0  0  0  0  0  0  0  0  0  0
    9.8750    1.5204  -59.4209 H   0  0  0  0  0  0  0  0  0  0  0  0
   10.7627    3.3731  -60.8459 H   0  0  0  0  0  0  0  0  0  0  0  0
    9.6319    4.6231  -61.4908 H   0  0  0  0  0  0  0  0  0  0  0  0
    8.5708    6.2771  -59.9662 H   0  0  0  0  0  0  0  0  0  0  0  0
    8.9141    6.2165  -58.1917 H   0  0  0  0  0  0  0  0  0  0  0  0
  1  2  2  0
  2  3  1  0
  3  4  2  0
  3  5  1  0
  6  5  1  6
  6  7  1  0
  7  8  1  0
  8  9  1  0
  9 10  1  0
 10 11  1  0
 11 12  1  0
 12 13  1  0
 12 14  1  0
 10 15  1  0
 14  6  1  0
 15  6  1  0
 13  8  1  0
  1 16  1  0
  1 17  1  0
  2 18  1  0
  5 19  1  0
  7 20  1  0
  7 21  1  0
  8 22  1  1
  9 23  1  0
  9 24  1  0
 10 25  1  1
 11 26  1  0
 11 27  1  0
 12 28  1  6
 13 29  1  0
 13 30  1  0
 14 31  1  0
 14 32  1  0
 15 33  1  0
 15 34  1  0
M  END
>  <meeko>  (63) 
{"is_sidechain": false}

$$$$

     RDKit          3D

 30 32  0  0  0  0  0  0  0  0999 V2000
   13.5430    4.2240  -59.4730 O   0  0  0  0  0  0  0  0  0  0  0  0
   13.0670    5.2660  -59.0510 C   0  0  0  0  0  0  0  0  0  0  0  0
   11.7380    5.5440  -58.8550 N   0  0  0  0  0  0  0  0  0  0  0  0
   10.6380    4.6140  -59.1270 C   0  0  2  0  0  0  0  0  0  0  0  0
    9.3300    5.2150  -58.5450 C   0  0  0  0  0  0  0  0  0  0  0  0
    8.1340    4.2830  -58.7990 C   0  0  1  0  0  0  0  0  0  0  0  0
    7.9650    4.0820  -60.3140 C   0  0  0  0  0  0  0  0  0  0  0  0
    9.2410    3.4630  -60.9060 C   0  0  2  0  0  0  0  0  0  0  0  0
    9.5100    2.1080  -60.2300 C   0  0  0  0  0  0  0  0  0  0  0  0
    9.6820    2.2990  -58.7130 C   0  0  2  0  0  0  0  0  0  0  0  0
    8.4040    2.9250  -58.1330 C   0  0  0  0  0  0  0  0  0  0  0  0
   10.8730    3.2400  -58.4530 C   0  0  0  0  0  0  0  0  0  0  0  0
   10.4300    4.4040  -60.6480 C   0  0  0  0  0  0  0  0  0  0  0  0
   13.7790    6.0665  -58.8016 H   0  0  0  0  0  0  0  0  0  0  0  0
   11.5100    6.4630  -58.4970 H   0  0  0  0  0  0  0  0  0  0  0  0
    9.4510    5.3575  -57.4610 H   0  0  0  0  0  0  0  0  0  0  0  0
    9.1357    6.1773  -59.0412 H   0  0  0  0  0  0  0  0  0  0  0  0
    7.2187    4.7260  -58.3796 H   0  0  0  0  0  0  0  0  0  0  0  0
    7.1139    3.4104  -60.5000 H   0  0  0  0  0  0  0  0  0  0  0  0
    7.7812    5.0565  -60.7900 H   0  0  0  0  0  0  0  0  0  0  0  0
    9.1127    3.3173  -61.9887 H   0  0  0  0  0  0  0  0  0  0  0  0
    8.6621    1.4329  -60.4179 H   0  0  0  0  0  0  0  0  0  0  0  0
   10.4321    1.6752  -60.6453 H   0  0  0  0  0  0  0  0  0  0  0  0
    9.8670    1.3259  -58.2346 H   0  0  0  0  0  0  0  0  0  0  0  0
    7.5530    2.2530  -58.3181 H   0  0  0  0  0  0  0  0  0  0  0  0
    8.5341    3.0735  -57.0509 H   0  0  0  0  0  0  0  0  0  0  0  0
   10.9900    3.3843  -57.3688 H   0  0  0  0  0  0  0  0  0  0  0  0
   11.7819    2.7877  -58.8765 H   0  0  0  0  0  0  0  0  0  0  0  0
   11.3405    3.9632  -61.0801 H   0  0  0  0  0  0  0  0  0  0  0  0
   10.2203    5.3774  -61.1154 H   0  0  0  0  0  0  0  0  0  0  0  0
  1  2  2  0
  2  3  1  0
  4  3  1  6
  4  5  1  0
  5  6  1  0
  6  7  1  0
  7  8  1  0
  8  9  1  0
  9 10  1  0
 10 11  1  0
 10 12  1  0
  8 13  1  0
 12  4  1  0
 13  4  1  0
 11  6  1  0
  2 14  1  0
  3 15  1  0
  5 16  1  0
  5 17  1  0
  6 18  1  1
  7 19  1  0
  7 20  1  0
  8 21  1  6
  9 22  1  0
  9 23  1  0
 10 24  1  1
 11 25  1  0
 11 26  1  0
 12 27  1  0
 12 28  1  0
 13 29  1  0
 13 30  1  0
M  END
>  <meeko>  (64) 
{"is_sidechain": false}

$$$$

     RDKit          3D

 36 38  0  0  0  0  0  0  0  0999 V2000
    4.0960    1.8930  -60.8710 C   0  0  0  0  0  0  0  0  0  0  0  0
    5.3590    2.2490  -61.6100 C   0  0  0  0  0  0  0  0  0  0  0  0
    5.3620    2.4680  -62.8170 O   0  0  0  0  0  0  0  0  0  0  0  0
    6.4760    2.3230  -60.8110 N   0  0  0  0  0  0  0  0  0  0  0  0
    7.7830    2.6770  -61.3310 C   0  0  0  0  0  0  0  0  0  0  0  0
    8.7170    3.3260  -60.2850 C   0  0  2  0  0  0  0  0  0  0  0  0
   10.0180    3.7860  -60.9980 C   0  0  0  0  0  0  0  0  0  0  0  0
   10.9900    4.4360  -60.0000 C   0  0  1  0  0  0  0  0  0  0  0  0
   10.3120    5.6560  -59.3570 C   0  0  0  0  0  0  0  0  0  0  0  0
    9.0360    5.2200  -58.6200 C   0  0  2  0  0  0  0  0  0  0  0  0
    9.4020    4.1970  -57.5330 C   0  0  0  0  0  0  0  0  0  0  0  0
   10.0760    2.9700  -58.1680 C   0  0  2  0  0  0  0  0  0  0  0  0
   11.3480    3.4170  -58.9070 C   0  0  0  0  0  0  0  0  0  0  0  0
    9.1070    2.3210  -59.1710 C   0  0  0  0  0  0  0  0  0  0  0  0
    8.0660    4.5680  -59.6220 C   0  0  0  0  0  0  0  0  0  0  0  0
    4.2783    1.9444  -59.7874 H   0  0  0  0  0  0  0  0  0  0  0  0
    3.2999    2.6018  -61.1429 H   0  0  0  0  0  0  0  0  0  0  0  0
    3.7872    0.8728  -61.1429 H   0  0  0  0  0  0  0  0  0  0  0  0
    6.3850    2.1620  -59.8170 H   0  0  0  0  0  0  0  0  0  0  0  0
    8.2657    1.7628  -61.7067 H   0  0  0  0  0  0  0  0  0  0  0  0
    7.6208    3.4240  -62.1221 H   0  0  0  0  0  0  0  0  0  0  0  0
   10.5044    2.9132  -61.4581 H   0  0  0  0  0  0  0  0  0  0  0  0
    9.7543    4.5281  -61.7660 H   0  0  0  0  0  0  0  0  0  0  0  0
   11.9042    4.7537  -60.5227 H   0  0  0  0  0  0  0  0  0  0  0  0
   11.0047    6.1227  -58.6412 H   0  0  0  0  0  0  0  0  0  0  0  0
   10.0462    6.3778  -60.1434 H   0  0  0  0  0  0  0  0  0  0  0  0
    8.5585    6.0972  -58.1591 H   0  0  0  0  0  0  0  0  0  0  0  0
   10.0938    4.6611  -56.8147 H   0  0  0  0  0  0  0  0  0  0  0  0
    8.4851    3.8771  -57.0163 H   0  0  0  0  0  0  0  0  0  0  0  0
   10.3385    2.2438  -57.3846 H   0  0  0  0  0  0  0  0  0  0  0  0
   12.0420    3.8803  -58.1902 H   0  0  0  0  0  0  0  0  0  0  0  0
   11.8224    2.5403  -59.3721 H   0  0  0  0  0  0  0  0  0  0  0  0
    9.5927    1.4461  -59.6279 H   0  0  0  0  0  0  0  0  0  0  0  0
    8.1960    2.0156  -58.6355 H   0  0  0  0  0  0  0  0  0  0  0  0
    7.1535    4.2578  -59.0918 H   0  0  0  0  0  0  0  0  0  0  0  0
    7.8214    5.3002  -60.4056 H   0  0  0  0  0  0  0  0  0  0  0  0
  1  2  1  0
  2  3  2  0
  2  4  1  0
  4  5  1  0
  6  5  1  6
  6  7  1  0
  7  8  1  0
  8  9  1  0
  9 10  1  0
 10 11  1  0
 11 12  1  0
 12 13  1  0
 12 14  1  0
 10 15  1  0
 14  6  1  0
 15  6  1  0
 13  8  1  0
  1 16  1  0
  1 17  1  0
  1 18  1  0
  4 19  1  0
  5 20  1  0
  5 21  1  0
  7 22  1  0
  7 23  1  0
  8 24  1  6
  9 25  1  0
  9 26  1  0
 10 27  1  1
 11 28  1  0
 11 29  1  0
 12 30  1  1
 13 31  1  0
 13 32  1  0
 14 33  1  0
 14 34  1  0
 15 35  1  0
 15 36  1  0
M  END
>  <meeko>  (65) 
{"is_sidechain": false}

$$$$

     RDKit          3D

 26 28  0  0  0  0  0  0  0  0999 V2000
   12.2020   -4.7800  -55.2190 C   0  0  0  0  0  0  0  0  0  0  0  0
   11.1050   -3.9710  -55.9340 C   0  0  0  0  0  0  0  0  0  0  0  0
   10.2610   -4.9220  -56.8010 C   0  0  0  0  0  0  0  0  0  0  0  0
   11.1530   -5.6190  -57.8440 C   0  0  0  0  0  0  0  0  0  0  0  0
   12.2490   -6.4190  -57.1180 C   0  0  0  0  0  0  0  0  0  0  0  0
   13.1050   -5.4770  -56.2520 C   0  0  0  0  0  0  0  0  0  0  0  0
   13.7530   -4.4130  -57.1550 C   0  0  0  0  0  0  0  0  0  0  0  0
   12.6670   -3.6010  -57.8810 C   0  0  0  0  0  0  0  0  0  0  0  0
   11.7660   -2.9150  -56.8380 C   0  0  0  0  0  0  0  0  0  0  0  0
   11.8130   -4.5540  -58.7370 C   0  0  0  0  0  0  0  0  0  0  0  0
   12.8107   -4.1019  -54.6028 H   0  0  0  0  0  0  0  0  0  0  0  0
   11.7293   -5.5423  -54.5823 H   0  0  0  0  0  0  0  0  0  0  0  0
   10.4623   -3.4758  -55.1913 H   0  0  0  0  0  0  0  0  0  0  0  0
    9.7922   -5.6812  -56.1577 H   0  0  0  0  0  0  0  0  0  0  0  0
    9.4850   -4.3414  -57.3214 H   0  0  0  0  0  0  0  0  0  0  0  0
   10.5442   -6.2966  -58.4607 H   0  0  0  0  0  0  0  0  0  0  0  0
   11.7799   -7.1784  -56.4752 H   0  0  0  0  0  0  0  0  0  0  0  0
   12.8931   -6.9069  -57.8644 H   0  0  0  0  0  0  0  0  0  0  0  0
   13.8860   -6.0534  -55.7345 H   0  0  0  0  0  0  0  0  0  0  0  0
   14.3625   -3.7356  -56.5388 H   0  0  0  0  0  0  0  0  0  0  0  0
   14.3871   -4.9133  -57.9018 H   0  0  0  0  0  0  0  0  0  0  0  0
   13.1367   -2.8417  -58.5235 H   0  0  0  0  0  0  0  0  0  0  0  0
   12.3744   -2.2373  -56.2211 H   0  0  0  0  0  0  0  0  0  0  0  0
   10.9822   -2.3450  -57.3584 H   0  0  0  0  0  0  0  0  0  0  0  0
   11.0316   -3.9774  -59.2537 H   0  0  0  0  0  0  0  0  0  0  0  0
   12.4594   -5.0527  -59.4742 H   0  0  0  0  0  0  0  0  0  0  0  0
  1  2  1  0
  2  3  1  0
  3  4  1  0
  4  5  1  0
  5  6  1  0
  6  7  1  0
  7  8  1  0
  8  9  1  0
  8 10  1  0
  6  1  1  0
  9  2  1  0
 10  4  1  0
  1 11  1  0
  1 12  1  0
  2 13  1  0
  3 14  1  0
  3 15  1  0
  4 16  1  0
  5 17  1  0
  5 18  1  0
  6 19  1  0
  7 20  1  0
  7 21  1  0
  8 22  1  0
  9 23  1  0
  9 24  1  0
 10 25  1  0
 10 26  1  0
M  END
>  <meeko>  (66) 
{"is_sidechain": false}

$$$$

     RDKit          3D

 30 32  0  0  0  0  0  0  0  0999 V2000
   13.0420    4.5360  -57.9900 C   0  0  0  0  0  0  0  0  0  0  0  0
   11.9250    5.3020  -58.4080 O   0  0  0  0  0  0  0  0  0  0  0  0
   10.7550    4.5850  -58.8120 C   0  0  2  0  0  0  0  0  0  0  0  0
    9.4690    5.1100  -58.1320 C   0  0  0  0  0  0  0  0  0  0  0  0
    8.2640    4.2340  -58.5140 C   0  0  1  0  0  0  0  0  0  0  0  0
    8.0890    4.2520  -60.0430 C   0  0  0  0  0  0  0  0  0  0  0  0
    9.3540    3.7030  -60.7290 C   0  0  2  0  0  0  0  0  0  0  0  0
    9.6020    2.2630  -60.2530 C   0  0  0  0  0  0  0  0  0  0  0  0
    9.7850    2.2380  -58.7270 C   0  0  2  0  0  0  0  0  0  0  0  0
    8.5180    2.7900  -58.0520 C   0  0  0  0  0  0  0  0  0  0  0  0
   10.9800    3.1250  -58.3510 C   0  0  0  0  0  0  0  0  0  0  0  0
   10.5580    4.5810  -60.3450 C   0  0  0  0  0  0  0  0  0  0  0  0
   13.0787    4.5108  -56.8909 H   0  0  0  0  0  0  0  0  0  0  0  0
   12.9491    3.5107  -58.3774 H   0  0  0  0  0  0  0  0  0  0  0  0
   13.9650    4.9921  -58.3774 H   0  0  0  0  0  0  0  0  0  0  0  0
    9.6015    5.0878  -57.0402 H   0  0  0  0  0  0  0  0  0  0  0  0
    9.2822    6.1401  -58.4695 H   0  0  0  0  0  0  0  0  0  0  0  0
    7.3559    4.6234  -58.0306 H   0  0  0  0  0  0  0  0  0  0  0  0
    7.2264    3.6271  -60.3175 H   0  0  0  0  0  0  0  0  0  0  0  0
    7.9221    5.2879  -60.3733 H   0  0  0  0  0  0  0  0  0  0  0  0
    9.2209    3.7139  -61.8209 H   0  0  0  0  0  0  0  0  0  0  0  0
    8.7412    1.6354  -60.5270 H   0  0  0  0  0  0  0  0  0  0  0  0
   10.5133    1.8761  -60.7324 H   0  0  0  0  0  0  0  0  0  0  0  0
    9.9630    1.2054  -58.3923 H   0  0  0  0  0  0  0  0  0  0  0  0
    7.6566    2.1630  -58.3256 H   0  0  0  0  0  0  0  0  0  0  0  0
    8.6555    2.7785  -56.9607 H   0  0  0  0  0  0  0  0  0  0  0  0
   11.1102    3.1088  -57.2589 H   0  0  0  0  0  0  0  0  0  0  0  0
   11.8776    2.7340  -58.8524 H   0  0  0  0  0  0  0  0  0  0  0  0
   11.4641    4.1839  -60.8258 H   0  0  0  0  0  0  0  0  0  0  0  0
   10.3709    5.6108  -60.6833 H   0  0  0  0  0  0  0  0  0  0  0  0
  1  2  1  0
  3  2  1  6
  3  4  1  0
  4  5  1  0
  5  6  1  0
  6  7  1  0
  7  8  1  0
  8  9  1  0
  9 10  1  0
  9 11  1  0
  7 12  1  0
 11  3  1  0
 12  3  1  0
 10  5  1  0
  1 13  1  0
  1 14  1  0
  1 15  1  0
  4 16  1  0
  4 17  1  0
  5 18  1  1
  6 19  1  0
  6 20  1  0
  7 21  1  6
  8 22  1  0
  8 23  1  0
  9 24  1  1
 10 25  1  0
 10 26  1  0
 11 27  1  0
 11 28  1  0
 12 29  1  0
 12 30  1  0
M  END
>  <meeko>  (67) 
{"is_sidechain": false}

$$$$

     RDKit          3D

 40 43  0  0  0  0  0  0  0  0999 V2000
   11.6080   -2.2130  -53.6710 O   0  0  0  0  0  0  0  0  0  0  0  0
   10.5350   -2.7990  -53.7410 C   0  0  0  0  0  0  0  0  0  0  0  0
   10.1990   -3.7050  -54.7270 N   0  0  0  0  0  0  0  0  0  0  0  0
   11.1000   -4.1300  -55.8040 C   0  0  2  0  0  0  0  0  0  0  0  0
   11.6170   -2.9290  -56.6360 C   0  0  0  0  0  0  0  0  0  0  0  0
   12.5170   -3.4130  -57.7880 C   0  0  1  0  0  0  0  0  0  0  0  0
   13.7080   -4.1910  -57.2040 C   0  0  0  0  0  0  0  0  0  0  0  0
   13.2080   -5.4080  -56.4080 C   0  0  2  0  0  0  0  0  0  0  0  0
   12.3950   -6.3220  -57.3370 C   0  0  0  0  0  0  0  0  0  0  0  0
   11.1980   -5.5530  -57.9160 C   0  0  2  0  0  0  0  0  0  0  0  0
   11.7080   -4.3400  -58.7090 C   0  0  0  0  0  0  0  0  0  0  0  0
   10.3090   -5.0620  -56.7620 C   0  0  0  0  0  0  0  0  0  0  0  0
   12.3100   -4.9250  -55.2560 C   0  0  0  0  0  0  0  0  0  0  0  0
    9.5060   -2.5780  -52.6860 C   0  0  0  0  0  0  0  0  0  0  0  0
    9.6540   -3.2400  -51.4610 C   0  0  0  0  0  0  0  0  0  0  0  0
    8.7110   -3.0600  -50.4480 C   0  0  0  0  0  0  0  0  0  0  0  0
    7.6240   -2.2120  -50.6510 C   0  0  0  0  0  0  0  0  0  0  0  0
    7.4800   -1.5350  -51.8630 C   0  0  0  0  0  0  0  0  0  0  0  0
    8.4210   -1.7130  -52.8800 C   0  0  0  0  0  0  0  0  0  0  0  0
    9.4030   -4.3010  -54.5440 H   0  0  0  0  0  0  0  0  0  0  0  0
   10.7585   -2.3825  -57.0535 H   0  0  0  0  0  0  0  0  0  0  0  0
   12.2054   -2.2709  -55.9797 H   0  0  0  0  0  0  0  0  0  0  0  0
   12.8826   -2.5491  -58.3625 H   0  0  0  0  0  0  0  0  0  0  0  0
   14.3552   -4.5344  -58.0245 H   0  0  0  0  0  0  0  0  0  0  0  0
   14.2737   -3.5297  -56.5312 H   0  0  0  0  0  0  0  0  0  0  0  0
   14.0658   -5.9636  -56.0012 H   0  0  0  0  0  0  0  0  0  0  0  0
   13.0373   -6.6690  -58.1598 H   0  0  0  0  0  0  0  0  0  0  0  0
   12.0260   -7.1842  -56.7622 H   0  0  0  0  0  0  0  0  0  0  0  0
   10.6198   -6.2130  -58.5794 H   0  0  0  0  0  0  0  0  0  0  0  0
   12.3501   -4.6866  -59.5322 H   0  0  0  0  0  0  0  0  0  0  0  0
   10.8485   -3.7861  -59.1145 H   0  0  0  0  0  0  0  0  0  0  0  0
    9.4544   -4.5080  -57.1776 H   0  0  0  0  0  0  0  0  0  0  0  0
    9.9626   -5.9364  -56.1915 H   0  0  0  0  0  0  0  0  0  0  0  0
   11.9447   -5.7964  -54.6928 H   0  0  0  0  0  0  0  0  0  0  0  0
   12.8986   -4.2669  -54.5999 H   0  0  0  0  0  0  0  0  0  0  0  0
   10.5157   -3.9036  -51.2967 H   0  0  0  0  0  0  0  0  0  0  0  0
    8.8258   -3.5874  -49.4895 H   0  0  0  0  0  0  0  0  0  0  0  0
    6.8778   -2.0759  -49.8543 H   0  0  0  0  0  0  0  0  0  0  0  0
    6.6248   -0.8607  -52.0175 H   0  0  0  0  0  0  0  0  0  0  0  0
    8.3102   -1.1743  -53.8327 H   0  0  0  0  0  0  0  0  0  0  0  0
  1  2  2  0
  2  3  1  0
  4  3  1  1
  4  5  1  0
  5  6  1  0
  6  7  1  0
  7  8  1  0
  8  9  1  0
  9 10  1  0
 10 11  1  0
 10 12  1  0
  8 13  1  0
  2 14  1  0
 14 15  2  0
 15 16  1  0
 16 17  2  0
 17 18  1  0
 18 19  2  0
 12  4  1  0
 19 14  1  0
 13  4  1  0
 11  6  1  0
  3 20  1  0
  5 21  1  0
  5 22  1  0
  6 23  1  6
  7 24  1  0
  7 25  1  0
  8 26  1  1
  9 27  1  0
  9 28  1  0
 10 29  1  6
 11 30  1  0
 11 31  1  0
 12 32  1  0
 12 33  1  0
 13 34  1  0
 13 35  1  0
 15 36  1  0
 16 37  1  0
 17 38  1  0
 18 39  1  0
 19 40  1  0
M  END
>  <meeko>  (68) 
{"is_sidechain": false}

$$$$

     RDKit          3D

 37 40  0  0  0  0  0  0  0  0999 V2000
    5.9280    2.3730  -58.9980 O   0  0  0  0  0  0  0  0  0  0  0  0
    6.1540    2.3870  -60.2040 C   0  0  0  0  0  0  0  0  0  0  0  0
    7.3380    2.8670  -60.7300 N   0  0  0  0  0  0  0  0  0  0  0  0
    8.4570    3.4120  -59.9590 C   0  0  2  0  0  0  0  0  0  0  0  0
    9.6030    3.7650  -60.9460 C   0  0  0  0  0  0  0  0  0  0  0  0
   10.8160    4.3450  -60.2000 C   0  0  1  0  0  0  0  0  0  0  0  0
   10.3860    5.6180  -59.4540 C   0  0  0  0  0  0  0  0  0  0  0  0
    9.2680    5.2860  -58.4510 C   0  0  2  0  0  0  0  0  0  0  0  0
    9.7830    4.2420  -57.4460 C   0  0  0  0  0  0  0  0  0  0  0  0
   10.2150    2.9630  -58.1830 C   0  0  2  0  0  0  0  0  0  0  0  0
   11.3260    3.3090  -59.1870 C   0  0  0  0  0  0  0  0  0  0  0  0
    9.0070    2.3830  -58.9410 C   0  0  0  0  0  0  0  0  0  0  0  0
    8.0600    4.7080  -59.2090 C   0  0  0  0  0  0  0  0  0  0  0  0
    5.1880    1.8940  -61.1820 C   0  0  0  0  0  0  0  0  0  0  0  0
    4.0960    1.0830  -60.9240 C   0  0  0  0  0  0  0  0  0  0  0  0
    3.3460    0.7770  -62.0960 C   0  0  0  0  0  0  0  0  0  0  0  0
    3.8860    1.3650  -63.2170 C   0  0  0  0  0  0  0  0  0  0  0  0
    5.2870    2.2750  -62.8530 S   0  0  0  0  0  0  0  0  0  0  0  0
    7.4230    2.8320  -61.7380 H   0  0  0  0  0  0  0  0  0  0  0  0
    9.9112    2.8538  -61.4795 H   0  0  0  0  0  0  0  0  0  0  0  0
    9.2338    4.5212  -61.6545 H   0  0  0  0  0  0  0  0  0  0  0  0
   11.6153    4.5873  -60.9158 H   0  0  0  0  0  0  0  0  0  0  0  0
   11.2494    6.0329  -58.9133 H   0  0  0  0  0  0  0  0  0  0  0  0
   10.0128    6.3545  -60.1808 H   0  0  0  0  0  0  0  0  0  0  0  0
    8.9668    6.1989  -57.9163 H   0  0  0  0  0  0  0  0  0  0  0  0
   10.6444    4.6560  -56.9013 H   0  0  0  0  0  0  0  0  0  0  0  0
    8.9762    3.9945  -56.7405 H   0  0  0  0  0  0  0  0  0  0  0  0
   10.5875    2.2238  -57.4585 H   0  0  0  0  0  0  0  0  0  0  0  0
   12.1896    3.7232  -58.6460 H   0  0  0  0  0  0  0  0  0  0  0  0
   11.6242    2.3963  -59.7237 H   0  0  0  0  0  0  0  0  0  0  0  0
    9.3190    1.4749  -59.4777 H   0  0  0  0  0  0  0  0  0  0  0  0
    8.2152    2.1435  -58.2160 H   0  0  0  0  0  0  0  0  0  0  0  0
    7.2584    4.4793  -58.4913 H   0  0  0  0  0  0  0  0  0  0  0  0
    7.7130    5.4505  -59.9427 H   0  0  0  0  0  0  0  0  0  0  0  0
    3.8352    0.7142  -59.9210 H   0  0  0  0  0  0  0  0  0  0  0  0
    2.4443    0.1470  -62.1039 H   0  0  0  0  0  0  0  0  0  0  0  0
    3.4657    1.2617  -64.2283 H   0  0  0  0  0  0  0  0  0  0  0  0
  1  2  2  0
  2  3  1  0
  4  3  1  6
  4  5  1  0
  5  6  1  0
  6  7  1  0
  7  8  1  0
  8  9  1  0
  9 10  1  0
 10 11  1  0
 10 12  1  0
  8 13  1  0
  2 14  1  0
 14 15  2  0
 15 16  1  0
 16 17  2  0
 17 18  1  0
 12  4  1  0
 18 14  1  0
 13  4  1  0
 11  6  1  0
  3 19  1  0
  5 20  1  0
  5 21  1  0
  6 22  1  6
  7 23  1  0
  7 24  1  0
  8 25  1  1
  9 26  1  0
  9 27  1  0
 10 28  1  1
 11 29  1  0
 11 30  1  0
 12 31  1  0
 12 32  1  0
 13 33  1  0
 13 34  1  0
 15 35  1  0
 16 36  1  0
 17 37  1  0
M  END
>  <meeko>  (69) 
{"is_sidechain": false}

$$$$

     RDKit          3D

 42 44  0  0  0  0  0  0  0  0999 V2000
    8.7660   -0.9830  -53.2120 C   0  0  0  0  0  0  0  0  0  0  0  0
    9.0730   -2.4830  -53.0940 C   0  0  0  0  0  0  0  0  0  0  0  0
    9.3450   -2.8560  -51.6300 C   0  0  0  0  0  0  0  0  0  0  0  0
    7.8480   -3.2750  -53.5850 C   0  0  0  0  0  0  0  0  0  0  0  0
   10.2970   -2.8400  -53.9650 C   0  0  0  0  0  0  0  0  0  0  0  0
   11.4140   -2.3810  -53.7450 O   0  0  0  0  0  0  0  0  0  0  0  0
   10.0340   -3.7110  -55.0020 N   0  0  0  0  0  0  0  0  0  0  0  0
   11.0270   -4.2000  -55.9650 C   0  0  2  0  0  0  0  0  0  0  0  0
   11.6090   -3.0490  -56.8240 C   0  0  0  0  0  0  0  0  0  0  0  0
   12.6070   -3.5980  -57.8600 C   0  0  1  0  0  0  0  0  0  0  0  0
   13.7470   -4.3250  -57.1270 C   0  0  0  0  0  0  0  0  0  0  0  0
   13.1840   -5.4940  -56.3010 C   0  0  2  0  0  0  0  0  0  0  0  0
   12.4600   -6.4740  -57.2370 C   0  0  0  0  0  0  0  0  0  0  0  0
   11.3140   -5.7540  -57.9640 C   0  0  2  0  0  0  0  0  0  0  0  0
   11.8850   -4.5890  -58.7860 C   0  0  0  0  0  0  0  0  0  0  0  0
   10.3260   -5.2010  -56.9240 C   0  0  0  0  0  0  0  0  0  0  0  0
   12.1880   -4.9490  -55.2640 C   0  0  0  0  0  0  0  0  0  0  0  0
    8.6767   -0.5468  -52.2062 H   0  0  0  0  0  0  0  0  0  0  0  0
    9.5806   -0.4838  -53.7572 H   0  0  0  0  0  0  0  0  0  0  0  0
    7.8208   -0.8440  -53.7572 H   0  0  0  0  0  0  0  0  0  0  0  0
    8.8272   -2.1459  -50.9684 H   0  0  0  0  0  0  0  0  0  0  0  0
    8.9757   -3.8739  -51.4362 H   0  0  0  0  0  0  0  0  0  0  0  0
   10.4270   -2.8155  -51.4362 H   0  0  0  0  0  0  0  0  0  0  0  0
    7.2783   -3.6433  -52.7191 H   0  0  0  0  0  0  0  0  0  0  0  0
    7.2074   -2.6196  -54.1934 H   0  0  0  0  0  0  0  0  0  0  0  0
    8.1827   -4.1281  -54.1934 H   0  0  0  0  0  0  0  0  0  0  0  0
    9.0860   -4.0430  -55.1130 H   0  0  0  0  0  0  0  0  0  0  0  0
   10.7879   -2.5382  -57.3483 H   0  0  0  0  0  0  0  0  0  0  0  0
   12.1350   -2.3441  -56.1633 H   0  0  0  0  0  0  0  0  0  0  0  0
   13.0174   -2.7691  -58.4555 H   0  0  0  0  0  0  0  0  0  0  0  0
   14.4645   -4.7133  -57.8648 H   0  0  0  0  0  0  0  0  0  0  0  0
   14.2501   -3.6169  -56.4521 H   0  0  0  0  0  0  0  0  0  0  0  0
   14.0054   -6.0140  -55.7863 H   0  0  0  0  0  0  0  0  0  0  0  0
   13.1731   -6.8649  -57.9777 H   0  0  0  0  0  0  0  0  0  0  0  0
   12.0476   -7.3033  -56.6436 H   0  0  0  0  0  0  0  0  0  0  0  0
   10.7979   -6.4597  -58.6316 H   0  0  0  0  0  0  0  0  0  0  0  0
   12.5974   -4.9806  -59.5271 H   0  0  0  0  0  0  0  0  0  0  0  0
   11.0614   -4.0704  -59.2986 H   0  0  0  0  0  0  0  0  0  0  0  0
    9.5064   -4.6851  -57.4456 H   0  0  0  0  0  0  0  0  0  0  0  0
    9.9372   -6.0410  -56.3296 H   0  0  0  0  0  0  0  0  0  0  0  0
   11.7780   -5.7870  -54.6812 H   0  0  0  0  0  0  0  0  0  0  0  0
   12.7146   -4.2465  -54.6012 H   0  0  0  0  0  0  0  0  0  0  0  0
  1  2  1  0
  2  3  1  0
  2  4  1  0
  2  5  1  0
  5  6  2  0
  5  7  1  0
  8  7  1  1
  8  9  1  0
  9 10  1  0
 10 11  1  0
 11 12  1  0
 12 13  1  0
 13 14  1  0
 14 15  1  0
 14 16  1  0
 12 17  1  0
 16  8  1  0
 17  8  1  0
 15 10  1  0
  1 18  1  0
  1 19  1  0
  1 20  1  0
  3 21  1  0
  3 22  1  0
  3 23  1  0
  4 24  1  0
  4 25  1  0
  4 26  1  0
  7 27  1  0
  9 28  1  0
  9 29  1  0
 10 30  1  6
 11 31  1  0
 11 32  1  0
 12 33  1  1
 13 34  1  0
 13 35  1  0
 14 36  1  6
 15 37  1  0
 15 38  1  0
 16 39  1  0
 16 40  1  0
 17 41  1  0
 17 42  1  0
M  END
>  <meeko>  (70) 
{"is_sidechain": false}

$$$$

     RDKit          3D

 40 43  0  0  0  0  0  0  0  0999 V2000
    4.0610    2.5100  -58.3130 C   0  0  0  0  0  0  0  0  0  0  0  0
    4.1180    2.2200  -59.7680 C   0  0  0  0  0  0  0  0  0  0  0  0
    2.9890    2.0230  -60.6180 C   0  0  0  0  0  0  0  0  0  0  0  0
    3.4780    1.8410  -61.8850 C   0  0  0  0  0  0  0  0  0  0  0  0
    4.8300    1.9060  -61.8810 O   0  0  0  0  0  0  0  0  0  0  0  0
    5.2380    2.1220  -60.5900 C   0  0  0  0  0  0  0  0  0  0  0  0
    6.6730    2.2110  -60.3580 C   0  0  0  0  0  0  0  0  0  0  0  0
    7.4450    1.2770  -60.5570 O   0  0  0  0  0  0  0  0  0  0  0  0
    7.0990    3.4300  -59.8570 N   0  0  0  0  0  0  0  0  0  0  0  0
    8.4760    3.7360  -59.4570 C   0  0  2  0  0  0  0  0  0  0  0  0
    9.0400    2.6680  -58.4880 C   0  0  0  0  0  0  0  0  0  0  0  0
   10.4620    3.0440  -58.0360 C   0  0  1  0  0  0  0  0  0  0  0  0
   11.3740    3.1580  -59.2700 C   0  0  0  0  0  0  0  0  0  0  0  0
   10.8440    4.2440  -60.2210 C   0  0  2  0  0  0  0  0  0  0  0  0
   10.8040    5.5900  -59.4820 C   0  0  0  0  0  0  0  0  0  0  0  0
    9.8860    5.4850  -58.2540 C   0  0  2  0  0  0  0  0  0  0  0  0
   10.4220    4.3980  -57.3090 C   0  0  0  0  0  0  0  0  0  0  0  0
    8.4710    5.1000  -58.7140 C   0  0  0  0  0  0  0  0  0  0  0  0
    9.4230    3.8700  -60.6770 C   0  0  0  0  0  0  0  0  0  0  0  0
    4.2429    1.5844  -57.7472 H   0  0  0  0  0  0  0  0  0  0  0  0
    4.8302    3.2535  -58.0569 H   0  0  0  0  0  0  0  0  0  0  0  0
    3.0676    2.9070  -58.0569 H   0  0  0  0  0  0  0  0  0  0  0  0
    1.9316    2.0182  -60.3150 H   0  0  0  0  0  0  0  0  0  0  0  0
    2.8599    1.6669  -62.7781 H   0  0  0  0  0  0  0  0  0  0  0  0
    6.3750    4.0230  -59.4770 H   0  0  0  0  0  0  0  0  0  0  0  0
    8.3866    2.5992  -57.6058 H   0  0  0  0  0  0  0  0  0  0  0  0
    9.0779    1.7004  -59.0098 H   0  0  0  0  0  0  0  0  0  0  0  0
   10.8512    2.2704  -57.3578 H   0  0  0  0  0  0  0  0  0  0  0  0
   12.3917    3.4225  -58.9470 H   0  0  0  0  0  0  0  0  0  0  0  0
   11.3875    2.1930  -59.7978 H   0  0  0  0  0  0  0  0  0  0  0  0
   11.5041    4.3237  -61.0973 H   0  0  0  0  0  0  0  0  0  0  0  0
   11.8200    5.8576  -59.1561 H   0  0  0  0  0  0  0  0  0  0  0  0
   10.4151    6.3641  -60.1599 H   0  0  0  0  0  0  0  0  0  0  0  0
    9.8584    6.4512  -57.7289 H   0  0  0  0  0  0  0  0  0  0  0  0
   11.4376    4.6668  -56.9831 H   0  0  0  0  0  0  0  0  0  0  0  0
    9.7588    4.3196  -56.4349 H   0  0  0  0  0  0  0  0  0  0  0  0
    7.8146    5.0274  -57.8343 H   0  0  0  0  0  0  0  0  0  0  0  0
    8.1062    5.8733  -59.4060 H   0  0  0  0  0  0  0  0  0  0  0  0
    9.0404    4.6538  -61.3473 H   0  0  0  0  0  0  0  0  0  0  0  0
    9.4620    2.9049  -61.2034 H   0  0  0  0  0  0  0  0  0  0  0  0
  1  2  1  0
  2  3  1  0
  3  4  2  0
  4  5  1  0
  5  6  1  0
  6  7  1  0
  7  8  2  0
  7  9  1  0
 10  9  1  6
 10 11  1  0
 11 12  1  0
 12 13  1  0
 13 14  1  0
 14 15  1  0
 15 16  1  0
 16 17  1  0
 16 18  1  0
 14 19  1  0
  6  2  2  0
 18 10  1  0
 19 10  1  0
 17 12  1  0
  1 20  1  0
  1 21  1  0
  1 22  1  0
  3 23  1  0
  4 24  1  0
  9 25  1  0
 11 26  1  0
 11 27  1  0
 12 28  1  1
 13 29  1  0
 13 30  1  0
 14 31  1  6
 15 32  1  0
 15 33  1  0
 16 34  1  1
 17 35  1  0
 17 36  1  0
 18 37  1  0
 18 38  1  0
 19 39  1  0
 19 40  1  0
M  END
>  <meeko>  (71) 
{"is_sidechain": false}

$$$$

     RDKit          3D

 37 40  0  0  0  0  0  0  0  0999 V2000
    5.9470    2.4090  -59.1240 O   0  0  0  0  0  0  0  0  0  0  0  0
    6.2160    2.4120  -60.3200 C   0  0  0  0  0  0  0  0  0  0  0  0
    7.4210    2.8510  -60.8290 N   0  0  0  0  0  0  0  0  0  0  0  0
    8.5240    3.3880  -60.0220 C   0  0  2  0  0  0  0  0  0  0  0  0
    9.0000    2.3770  -58.9490 C   0  0  0  0  0  0  0  0  0  0  0  0
   10.1890    2.9470  -58.1570 C   0  0  1  0  0  0  0  0  0  0  0  0
   11.3530    3.2270  -59.1190 C   0  0  0  0  0  0  0  0  0  0  0  0
   10.9190    4.2440  -60.1860 C   0  0  2  0  0  0  0  0  0  0  0  0
   10.4960    5.5530  -59.5010 C   0  0  0  0  0  0  0  0  0  0  0  0
    9.3260    5.2860  -58.5400 C   0  0  2  0  0  0  0  0  0  0  0  0
    9.7630    4.2610  -57.4800 C   0  0  0  0  0  0  0  0  0  0  0  0
    8.1340    4.7190  -59.3320 C   0  0  0  0  0  0  0  0  0  0  0  0
    9.7240    3.6740  -60.9670 C   0  0  0  0  0  0  0  0  0  0  0  0
    5.2480    1.9480  -61.3060 C   0  0  0  0  0  0  0  0  0  0  0  0
    4.2240    0.9740  -61.0960 C   0  0  0  0  0  0  0  0  0  0  0  0
    3.5500    0.8400  -62.2850 C   0  0  0  0  0  0  0  0  0  0  0  0
    4.0850    1.6600  -63.2230 O   0  0  0  0  0  0  0  0  0  0  0  0
    5.1100    2.3250  -62.6280 C   0  0  0  0  0  0  0  0  0  0  0  0
    7.5290    2.8880  -61.8300 H   0  0  0  0  0  0  0  0  0  0  0  0
    8.1713    2.1681  -58.2565 H   0  0  0  0  0  0  0  0  0  0  0  0
    9.3194    1.4517  -59.4508 H   0  0  0  0  0  0  0  0  0  0  0  0
   10.5070    2.2218  -57.3934 H   0  0  0  0  0  0  0  0  0  0  0  0
   12.2039    3.6336  -58.5528 H   0  0  0  0  0  0  0  0  0  0  0  0
   11.6476    2.2891  -59.6124 H   0  0  0  0  0  0  0  0  0  0  0  0
   11.7557    4.4405  -60.8726 H   0  0  0  0  0  0  0  0  0  0  0  0
   11.3470    5.9603  -58.9354 H   0  0  0  0  0  0  0  0  0  0  0  0
   10.1782    6.2762  -60.2665 H   0  0  0  0  0  0  0  0  0  0  0  0
    9.0307    6.2250  -58.0490 H   0  0  0  0  0  0  0  0  0  0  0  0
   10.6109    4.6674  -56.9092 H   0  0  0  0  0  0  0  0  0  0  0  0
    8.9182    4.0599  -56.8048 H   0  0  0  0  0  0  0  0  0  0  0  0
    7.2955    4.5376  -58.6435 H   0  0  0  0  0  0  0  0  0  0  0  0
    7.8412    5.4467  -60.1032 H   0  0  0  0  0  0  0  0  0  0  0  0
    9.4140    4.4019  -61.7313 H   0  0  0  0  0  0  0  0  0  0  0  0
   10.0323    2.7283  -61.4367 H   0  0  0  0  0  0  0  0  0  0  0  0
    4.0153    0.4344  -60.1604 H   0  0  0  0  0  0  0  0  0  0  0  0
    2.6983    0.1643  -62.4524 H   0  0  0  0  0  0  0  0  0  0  0  0
    5.7466    3.0665  -63.1329 H   0  0  0  0  0  0  0  0  0  0  0  0
  1  2  2  0
  2  3  1  0
  4  3  1  6
  4  5  1  0
  5  6  1  0
  6  7  1  0
  7  8  1  0
  8  9  1  0
  9 10  1  0
 10 11  1  0
 10 12  1  0
  8 13  1  0
  2 14  1  0
 14 15  1  0
 15 16  2  0
 16 17  1  0
 17 18  1  0
 12  4  1  0
 18 14  2  0
 13  4  1  0
 11  6  1  0
  3 19  1  0
  5 20  1  0
  5 21  1  0
  6 22  1  1
  7 23  1  0
  7 24  1  0
  8 25  1  6
  9 26  1  0
  9 27  1  0
 10 28  1  1
 11 29  1  0
 11 30  1  0
 12 31  1  0
 12 32  1  0
 13 33  1  0
 13 34  1  0
 15 35  1  0
 16 36  1  0
 18 37  1  0
M  END
>  <meeko>  (72) 
{"is_sidechain": false}

$$$$

     RDKit          3D

 37 40  0  0  0  0  0  0  0  0999 V2000
    6.3220    2.6480  -61.6560 O   0  0  0  0  0  0  0  0  0  0  0  0
    6.0070    2.1160  -60.6010 C   0  0  0  0  0  0  0  0  0  0  0  0
    6.7310    2.1990  -59.4340 N   0  0  0  0  0  0  0  0  0  0  0  0
    7.9860    2.9360  -59.2760 C   0  0  2  0  0  0  0  0  0  0  0  0
    7.8320    4.4250  -59.6760 C   0  0  0  0  0  0  0  0  0  0  0  0
    9.1510    5.1860  -59.4520 C   0  0  1  0  0  0  0  0  0  0  0  0
    9.5330    5.1110  -57.9660 C   0  0  0  0  0  0  0  0  0  0  0  0
    9.7150    3.6450  -57.5430 C   0  0  2  0  0  0  0  0  0  0  0  0
   10.8250    3.0040  -58.3910 C   0  0  0  0  0  0  0  0  0  0  0  0
   10.4490    3.0670  -59.8800 C   0  0  2  0  0  0  0  0  0  0  0  0
   10.2610    4.5360  -60.2940 C   0  0  0  0  0  0  0  0  0  0  0  0
    9.1310    2.3040  -60.1040 C   0  0  0  0  0  0  0  0  0  0  0  0
    8.3990    2.8870  -57.7790 C   0  0  0  0  0  0  0  0  0  0  0  0
    4.7510    1.3110  -60.5480 C   0  0  0  0  0  0  0  0  0  0  0  0
    3.3790    1.9430  -60.5570 C   0  0  0  0  0  0  0  0  0  0  0  0
    3.8420    1.1440  -61.7430 C   0  0  0  0  0  0  0  0  0  0  0  0
    6.3690    1.7150  -58.6250 H   0  0  0  0  0  0  0  0  0  0  0  0
    7.5550    4.4869  -60.7388 H   0  0  0  0  0  0  0  0  0  0  0  0
    7.0495    4.8806  -59.0514 H   0  0  0  0  0  0  0  0  0  0  0  0
    9.0272    6.2375  -59.7504 H   0  0  0  0  0  0  0  0  0  0  0  0
   10.4745    5.6563  -57.8040 H   0  0  0  0  0  0  0  0  0  0  0  0
    8.7312    5.5634  -57.3640 H   0  0  0  0  0  0  0  0  0  0  0  0
    9.9890    3.5975  -56.4787 H   0  0  0  0  0  0  0  0  0  0  0  0
   11.7673    3.5480  -58.2296 H   0  0  0  0  0  0  0  0  0  0  0  0
   10.9467    1.9522  -58.0926 H   0  0  0  0  0  0  0  0  0  0  0  0
   11.2480    2.6112  -60.4832 H   0  0  0  0  0  0  0  0  0  0  0  0
   11.2032    5.0814  -60.1367 H   0  0  0  0  0  0  0  0  0  0  0  0
    9.9769    4.5765  -61.3559 H   0  0  0  0  0  0  0  0  0  0  0  0
    8.8684    2.3423  -61.1715 H   0  0  0  0  0  0  0  0  0  0  0  0
    9.2667    1.2610  -59.7818 H   0  0  0  0  0  0  0  0  0  0  0  0
    8.5297    1.8375  -57.4765 H   0  0  0  0  0  0  0  0  0  0  0  0
    7.6083    3.3657  -57.1826 H   0  0  0  0  0  0  0  0  0  0  0  0
    5.2906    0.6273  -59.8761 H   0  0  0  0  0  0  0  0  0  0  0  0
    2.5876    1.5477  -59.9032 H   0  0  0  0  0  0  0  0  0  0  0  0
    2.9922    2.9622  -60.4101 H   0  0  0  0  0  0  0  0  0  0  0  0
    3.3892    0.1645  -61.9564 H   0  0  0  0  0  0  0  0  0  0  0  0
    3.9338    1.3373  -62.8220 H   0  0  0  0  0  0  0  0  0  0  0  0
  1  2  2  0
  2  3  1  0
  4  3  1  1
  4  5  1  0
  5  6  1  0
  6  7  1  0
  7  8  1  0
  8  9  1  0
  9 10  1  0
 10 11  1  0
 10 12  1  0
  8 13  1  0
  2 14  1  0
 14 15  1  0
 15 16  1  0
 12  4  1  0
 16 14  1  0
 13  4  1  0
 11  6  1  0
  3 17  1  0
  5 18  1  0
  5 19  1  0
  6 20  1  6
  7 21  1  0
  7 22  1  0
  8 23  1  1
  9 24  1  0
  9 25  1  0
 10 26  1  6
 11 27  1  0
 11 28  1  0
 12 29  1  0
 12 30  1  0
 13 31  1  0
 13 32  1  0
 14 33  1  0
 15 34  1  0
 15 35  1  0
 16 36  1  0
 16 37  1  0
M  END
>  <meeko>  (73) 
{"is_sidechain": false}

$$$$

     RDKit          3D

 37 40  0  0  0  0  0  0  0  0999 V2000
    5.6550    2.3860  -59.0460 O   0  0  0  0  0  0  0  0  0  0  0  0
    5.8920    2.3040  -60.2470 C   0  0  0  0  0  0  0  0  0  0  0  0
    7.1010    2.7120  -60.7860 N   0  0  0  0  0  0  0  0  0  0  0  0
    8.2170    3.2770  -60.0210 C   0  0  2  0  0  0  0  0  0  0  0  0
    9.4300    3.4430  -60.9780 C   0  0  0  0  0  0  0  0  0  0  0  0
   10.6420    4.0320  -60.2400 C   0  0  1  0  0  0  0  0  0  0  0  0
   10.2640    5.4070  -59.6670 C   0  0  0  0  0  0  0  0  0  0  0  0
    9.0820    5.2620  -58.6960 C   0  0  2  0  0  0  0  0  0  0  0  0
    9.4790    4.3150  -57.5510 C   0  0  0  0  0  0  0  0  0  0  0  0
    9.8600    2.9350  -58.1140 C   0  0  2  0  0  0  0  0  0  0  0  0
   11.0380    3.0930  -59.0890 C   0  0  0  0  0  0  0  0  0  0  0  0
    8.6540    2.3420  -58.8640 C   0  0  0  0  0  0  0  0  0  0  0  0
    7.8740    4.6740  -59.4460 C   0  0  0  0  0  0  0  0  0  0  0  0
    4.9400    1.7770  -61.2130 C   0  0  0  0  0  0  0  0  0  0  0  0
    3.9380    0.8220  -61.1470 C   0  0  0  0  0  0  0  0  0  0  0  0
    3.3480    0.7480  -62.4340 C   0  0  0  0  0  0  0  0  0  0  0  0
    4.0200    1.6570  -63.2130 C   0  0  0  0  0  0  0  0  0  0  0  0
    4.9800    2.2820  -62.4890 O   0  0  0  0  0  0  0  0  0  0  0  0
    7.2280    2.6160  -61.7820 H   0  0  0  0  0  0  0  0  0  0  0  0
    9.7021    2.4587  -61.3867 H   0  0  0  0  0  0  0  0  0  0  0  0
    9.1448    4.1326  -61.7862 H   0  0  0  0  0  0  0  0  0  0  0  0
   11.4864    4.1401  -60.9366 H   0  0  0  0  0  0  0  0  0  0  0  0
   11.1270    5.8284  -59.1307 H   0  0  0  0  0  0  0  0  0  0  0  0
    9.9756    6.0759  -60.4912 H   0  0  0  0  0  0  0  0  0  0  0  0
    8.8175    6.2482  -58.2868 H   0  0  0  0  0  0  0  0  0  0  0  0
   10.3391    4.7377  -57.0110 H   0  0  0  0  0  0  0  0  0  0  0  0
    8.6259    4.2012  -56.8659 H   0  0  0  0  0  0  0  0  0  0  0  0
   10.1488    2.2653  -57.2906 H   0  0  0  0  0  0  0  0  0  0  0  0
   11.9006    3.5161  -58.5534 H   0  0  0  0  0  0  0  0  0  0  0  0
   11.3026    2.1076  -59.5001 H   0  0  0  0  0  0  0  0  0  0  0  0
    8.9320    1.3612  -59.2772 H   0  0  0  0  0  0  0  0  0  0  0  0
    7.8162    2.2346  -58.1593 H   0  0  0  0  0  0  0  0  0  0  0  0
    7.0270    4.5807  -58.7504 H   0  0  0  0  0  0  0  0  0  0  0  0
    7.6114    5.3451  -60.2771 H   0  0  0  0  0  0  0  0  0  0  0  0
    3.6540    0.2325  -60.2628 H   0  0  0  0  0  0  0  0  0  0  0  0
    2.5196    0.0946  -62.7453 H   0  0  0  0  0  0  0  0  0  0  0  0
    3.8090    1.8507  -64.2750 H   0  0  0  0  0  0  0  0  0  0  0  0
  1  2  2  0
  2  3  1  0
  4  3  1  6
  4  5  1  0
  5  6  1  0
  6  7  1  0
  7  8  1  0
  8  9  1  0
  9 10  1  0
 10 11  1  0
 10 12  1  0
  8 13  1  0
  2 14  1  0
 14 15  2  0
 15 16  1  0
 16 17  2  0
 17 18  1  0
 12  4  1  0
 18 14  1  0
 13  4  1  0
 11  6  1  0
  3 19  1  0
  5 20  1  0
  5 21  1  0
  6 22  1  6
  7 23  1  0
  7 24  1  0
  8 25  1  1
  9 26  1  0
  9 27  1  0
 10 28  1  1
 11 29  1  0
 11 30  1  0
 12 31  1  0
 12 32  1  0
 13 33  1  0
 13 34  1  0
 15 35  1  0
 16 36  1  0
 17 37  1  0
M  END
>  <meeko>  (74) 
{"is_sidechain": false}

$$$$

     RDKit          3D

 36 39  0  0  0  0  0  0  0  0999 V2000
    5.8780    2.4210  -58.9600 O   0  0  0  0  0  0  0  0  0  0  0  0
    6.1170    2.3980  -60.1650 C   0  0  0  0  0  0  0  0  0  0  0  0
    7.3190    2.8310  -60.6990 N   0  0  0  0  0  0  0  0  0  0  0  0
    8.4520    3.3660  -59.9490 C   0  0  2  0  0  0  0  0  0  0  0  0
    8.0760    4.6610  -59.1860 C   0  0  0  0  0  0  0  0  0  0  0  0
    9.3000    5.2290  -58.4470 C   0  0  1  0  0  0  0  0  0  0  0  0
    9.8240    4.1790  -57.4540 C   0  0  0  0  0  0  0  0  0  0  0  0
   10.2370    2.9000  -58.2040 C   0  0  2  0  0  0  0  0  0  0  0  0
   11.3330    3.2430  -59.2250 C   0  0  0  0  0  0  0  0  0  0  0  0
   10.8110    4.2870  -60.2250 C   0  0  2  0  0  0  0  0  0  0  0  0
   10.4020    5.5590  -59.4660 C   0  0  0  0  0  0  0  0  0  0  0  0
    9.5830    3.7160  -60.9530 C   0  0  0  0  0  0  0  0  0  0  0  0
    9.0130    2.3300  -58.9430 C   0  0  0  0  0  0  0  0  0  0  0  0
    5.1870    1.9190  -61.1890 C   0  0  0  0  0  0  0  0  0  0  0  0
    4.1410    1.1600  -60.9050 N   0  0  0  0  0  0  0  0  0  0  0  0
    3.4590    0.8730  -62.0720 C   0  0  0  0  0  0  0  0  0  0  0  0
    3.9900    1.4140  -63.2230 C   0  0  0  0  0  0  0  0  0  0  0  0
    5.3970    2.3170  -62.8420 S   0  0  0  0  0  0  0  0  0  0  0  0
    7.3830    2.7570  -61.7110 H   0  0  0  0  0  0  0  0  0  0  0  0
    7.7075    5.4091  -59.9033 H   0  0  0  0  0  0  0  0  0  0  0  0
    7.2951    4.4239  -58.4485 H   0  0  0  0  0  0  0  0  0  0  0  0
    9.0139    6.1422  -57.9046 H   0  0  0  0  0  0  0  0  0  0  0  0
   10.6961    4.5858  -56.9212 H   0  0  0  0  0  0  0  0  0  0  0  0
    9.0273    3.9336  -56.7363 H   0  0  0  0  0  0  0  0  0  0  0  0
   10.6181    2.1560  -57.4890 H   0  0  0  0  0  0  0  0  0  0  0  0
   12.2082    3.6497  -58.6972 H   0  0  0  0  0  0  0  0  0  0  0  0
   11.6171    2.3309  -59.7702 H   0  0  0  0  0  0  0  0  0  0  0  0
   11.5986    4.5290  -60.9538 H   0  0  0  0  0  0  0  0  0  0  0  0
   11.2770    5.9658  -58.9379 H   0  0  0  0  0  0  0  0  0  0  0  0
   10.0216    6.3017  -60.1828 H   0  0  0  0  0  0  0  0  0  0  0  0
    9.2097    4.4633  -61.6687 H   0  0  0  0  0  0  0  0  0  0  0  0
    9.8831    2.7962  -61.4764 H   0  0  0  0  0  0  0  0  0  0  0  0
    9.3102    1.4216  -59.4875 H   0  0  0  0  0  0  0  0  0  0  0  0
    8.2321    2.0932  -58.2054 H   0  0  0  0  0  0  0  0  0  0  0  0
    2.5507    0.2526  -62.0817 H   0  0  0  0  0  0  0  0  0  0  0  0
    3.5741    1.2859  -64.2333 H   0  0  0  0  0  0  0  0  0  0  0  0
  1  2  2  0
  2  3  1  0
  4  3  1  6
  4  5  1  0
  5  6  1  0
  6  7  1  0
  7  8  1  0
  8  9  1  0
  9 10  1  0
 10 11  1  0
 10 12  1  0
  8 13  1  0
  2 14  1  0
 14 15  2  0
 15 16  1  0
 16 17  2  0
 17 18  1  0
 12  4  1  0
 18 14  1  0
 13  4  1  0
 11  6  1  0
  3 19  1  0
  5 20  1  0
  5 21  1  0
  6 22  1  1
  7 23  1  0
  7 24  1  0
  8 25  1  1
  9 26  1  0
  9 27  1  0
 10 28  1  6
 11 29  1  0
 11 30  1  0
 12 31  1  0
 12 32  1  0
 13 33  1  0
 13 34  1  0
 16 35  1  0
 17 36  1  0
M  END
>  <meeko>  (75) 
{"is_sidechain": false}

$$$$

     RDKit          3D

 32 34  0  0  0  0  0  0  0  0999 V2000
   13.0310    7.2500  -60.2860 C   0  0  0  0  0  0  0  0  0  0  0  0
   11.8790    6.4080  -60.2340 O   0  0  0  0  0  0  0  0  0  0  0  0
   11.9870    5.3680  -59.3590 C   0  0  0  0  0  0  0  0  0  0  0  0
   12.9840    5.1290  -58.6910 O   0  0  0  0  0  0  0  0  0  0  0  0
   10.7000    4.5460  -59.3280 C   0  0  2  0  0  0  0  0  0  0  0  0
   10.9430    3.1910  -58.6230 C   0  0  0  0  0  0  0  0  0  0  0  0
    9.6470    2.3610  -58.5950 C   0  0  1  0  0  0  0  0  0  0  0  0
    8.5580    3.1480  -57.8450 C   0  0  0  0  0  0  0  0  0  0  0  0
    8.2890    4.4880  -58.5530 C   0  0  2  0  0  0  0  0  0  0  0  0
    7.8310    4.2140  -59.9950 C   0  0  0  0  0  0  0  0  0  0  0  0
    8.9170    3.4340  -60.7540 C   0  0  2  0  0  0  0  0  0  0  0  0
    9.1810    2.1000  -60.0360 C   0  0  0  0  0  0  0  0  0  0  0  0
   10.2130    4.2620  -60.7720 C   0  0  0  0  0  0  0  0  0  0  0  0
    9.5860    5.3140  -58.5810 C   0  0  0  0  0  0  0  0  0  0  0  0
   13.3573    7.4885  -59.2629 H   0  0  0  0  0  0  0  0  0  0  0  0
   13.8416    6.7300  -60.8176 H   0  0  0  0  0  0  0  0  0  0  0  0
   12.7816    8.1802  -60.8176 H   0  0  0  0  0  0  0  0  0  0  0  0
   11.7191    2.6331  -59.1675 H   0  0  0  0  0  0  0  0  0  0  0  0
   11.2684    3.3798  -57.5893 H   0  0  0  0  0  0  0  0  0  0  0  0
    9.8307    1.4034  -58.0858 H   0  0  0  0  0  0  0  0  0  0  0  0
    7.6313    2.5558  -57.8234 H   0  0  0  0  0  0  0  0  0  0  0  0
    8.9004    3.3463  -56.8186 H   0  0  0  0  0  0  0  0  0  0  0  0
    7.5071    5.0435  -58.0145 H   0  0  0  0  0  0  0  0  0  0  0  0
    6.9038    3.6224  -59.9762 H   0  0  0  0  0  0  0  0  0  0  0  0
    7.6527    5.1723  -60.5048 H   0  0  0  0  0  0  0  0  0  0  0  0
    8.5827    3.2406  -61.7840 H   0  0  0  0  0  0  0  0  0  0  0  0
    8.2547    1.5070  -60.0174 H   0  0  0  0  0  0  0  0  0  0  0  0
    9.9662    1.5495  -60.5749 H   0  0  0  0  0  0  0  0  0  0  0  0
   10.9913    3.7033  -61.3125 H   0  0  0  0  0  0  0  0  0  0  0  0
   10.0142    5.2205  -61.2738 H   0  0  0  0  0  0  0  0  0  0  0  0
    9.3967    6.2680  -59.0948 H   0  0  0  0  0  0  0  0  0  0  0  0
    9.9128    5.4989  -57.5471 H   0  0  0  0  0  0  0  0  0  0  0  0
  1  2  1  0
  2  3  1  0
  3  4  2  0
  5  3  1  6
  5  6  1  0
  6  7  1  0
  7  8  1  0
  8  9  1  0
  9 10  1  0
 10 11  1  0
 11 12  1  0
 11 13  1  0
  9 14  1  0
 13  5  1  0
 14  5  1  0
 12  7  1  0
  1 15  1  0
  1 16  1  0
  1 17  1  0
  6 18  1  0
  6 19  1  0
  7 20  1  1
  8 21  1  0
  8 22  1  0
  9 23  1  1
 10 24  1  0
 10 25  1  0
 11 26  1  6
 12 27  1  0
 12 28  1  0
 13 29  1  0
 13 30  1  0
 14 31  1  0
 14 32  1  0
M  END
>  <meeko>  (76) 
{"is_sidechain": false}

$$$$

     RDKit          3D

 37 40  0  0  0  0  0  0  0  0999 V2000
    6.0100    2.5420  -58.8270 O   0  0  0  0  0  0  0  0  0  0  0  0
    6.2100    2.5220  -60.0360 C   0  0  0  0  0  0  0  0  0  0  0  0
    7.3700    2.9810  -60.6240 N   0  0  0  0  0  0  0  0  0  0  0  0
    8.5280    3.5040  -59.8920 C   0  0  2  0  0  0  0  0  0  0  0  0
    9.6680    3.7730  -60.9120 C   0  0  0  0  0  0  0  0  0  0  0  0
   10.9210    4.3190  -60.2090 C   0  0  1  0  0  0  0  0  0  0  0  0
   10.5680    5.6340  -59.4980 C   0  0  0  0  0  0  0  0  0  0  0  0
    9.4580    5.3880  -58.4640 C   0  0  2  0  0  0  0  0  0  0  0  0
    9.9430    4.3550  -57.4340 C   0  0  0  0  0  0  0  0  0  0  0  0
   10.3000    3.0330  -58.1360 C   0  0  2  0  0  0  0  0  0  0  0  0
   11.4060    3.2930  -59.1720 C   0  0  0  0  0  0  0  0  0  0  0  0
    9.0520    2.4850  -58.8490 C   0  0  0  0  0  0  0  0  0  0  0  0
    8.2090    4.8420  -59.1790 C   0  0  0  0  0  0  0  0  0  0  0  0
    5.2190    1.9730  -60.9710 C   0  0  0  0  0  0  0  0  0  0  0  0
    4.1160    1.0910  -60.6970 C   0  0  0  0  0  0  0  0  0  0  0  0
    3.3880    0.7760  -61.8250 C   0  0  0  0  0  0  0  0  0  0  0  0
    4.0190    1.5230  -63.2230 S   0  0  0  0  0  0  0  0  0  0  0  0
    5.2710    2.2610  -62.3250 C   0  0  0  0  0  0  0  0  0  0  0  0
    7.5160    2.7450  -61.5940 H   0  0  0  0  0  0  0  0  0  0  0  0
    9.9232    2.8324  -61.4221 H   0  0  0  0  0  0  0  0  0  0  0  0
    9.3189    4.5231  -61.6369 H   0  0  0  0  0  0  0  0  0  0  0  0
   11.7146    4.5002  -60.9488 H   0  0  0  0  0  0  0  0  0  0  0  0
   11.4613    6.0242  -58.9883 H   0  0  0  0  0  0  0  0  0  0  0  0
   10.2152    6.3641  -60.2412 H   0  0  0  0  0  0  0  0  0  0  0  0
    9.2115    6.3316  -57.9552 H   0  0  0  0  0  0  0  0  0  0  0  0
   10.8334    4.7453  -56.9193 H   0  0  0  0  0  0  0  0  0  0  0  0
    9.1398    4.1695  -56.7056 H   0  0  0  0  0  0  0  0  0  0  0  0
   10.6528    2.3013  -57.3943 H   0  0  0  0  0  0  0  0  0  0  0  0
   12.2988    3.6840  -58.6620 H   0  0  0  0  0  0  0  0  0  0  0  0
   11.6524    2.3505  -59.6829 H   0  0  0  0  0  0  0  0  0  0  0  0
    9.3107    1.5457  -59.3597 H   0  0  0  0  0  0  0  0  0  0  0  0
    8.2655    2.3074  -58.1007 H   0  0  0  0  0  0  0  0  0  0  0  0
    7.4126    4.6758  -58.4386 H   0  0  0  0  0  0  0  0  0  0  0  0
    7.8831    5.5751  -59.9315 H   0  0  0  0  0  0  0  0  0  0  0  0
    3.8784    0.7082  -59.6935 H   0  0  0  0  0  0  0  0  0  0  0  0
    2.5047    0.1205  -61.8236 H   0  0  0  0  0  0  0  0  0  0  0  0
    6.0423    2.9017  -62.7773 H   0  0  0  0  0  0  0  0  0  0  0  0
  1  2  2  0
  2  3  1  0
  4  3  1  6
  4  5  1  0
  5  6  1  0
  6  7  1  0
  7  8  1  0
  8  9  1  0
  9 10  1  0
 10 11  1  0
 10 12  1  0
  8 13  1  0
  2 14  1  0
 14 15  1  0
 15 16  2  0
 16 17  1  0
 17 18  1  0
 12  4  1  0
 18 14  2  0
 13  4  1  0
 11  6  1  0
  3 19  1  0
  5 20  1  0
  5 21  1  0
  6 22  1  6
  7 23  1  0
  7 24  1  0
  8 25  1  1
  9 26  1  0
  9 27  1  0
 10 28  1  1
 11 29  1  0
 11 30  1  0
 12 31  1  0
 12 32  1  0
 13 33  1  0
 13 34  1  0
 15 35  1  0
 16 36  1  0
 18 37  1  0
M  END
>  <meeko>  (77) 
{"is_sidechain": false}

$$$$

     RDKit          3D

 38 40  0  0  0  0  0  0  0  0999 V2000
    6.6280    0.3830  -55.8690 O   0  0  0  0  0  0  0  0  0  0  0  0
    7.7460    0.8580  -55.7090 C   0  0  0  0  0  0  0  0  0  0  0  0
    8.6560    0.5080  -54.7310 N   0  0  0  0  0  0  0  0  0  0  0  0
    8.5230   -0.4510  -53.7140 C   0  0  0  0  0  0  0  0  0  0  0  0
    9.5200   -1.4330  -53.6280 C   0  0  0  0  0  0  0  0  0  0  0  0
    9.4630   -2.4250  -52.6450 C   0  0  0  0  0  0  0  0  0  0  0  0
    8.4060   -2.4390  -51.7400 C   0  0  0  0  0  0  0  0  0  0  0  0
    8.3310   -3.6580  -50.5290 Cl  0  0  0  0  0  0  0  0  0  0  0  0
    7.4080   -1.4710  -51.8140 C   0  0  0  0  0  0  0  0  0  0  0  0
    7.4680   -0.4780  -52.7990 C   0  0  0  0  0  0  0  0  0  0  0  0
    8.2590    1.8950  -56.5750 C   0  0  0  0  0  0  0  0  0  0  0  0
    9.5080    2.0100  -56.9890 N   0  0  0  0  0  0  0  0  0  0  0  0
    9.4700    3.1390  -57.7720 C   0  0  0  0  0  0  0  0  0  0  0  0
   10.6760    3.6760  -58.4750 C   0  0  0  0  0  0  0  0  0  0  0  0
   10.4920    5.1430  -58.8860 C   0  0  0  0  0  0  0  0  0  0  0  0
   11.6670    5.6520  -59.7230 C   0  0  0  0  0  0  0  0  0  0  0  0
   12.9970    4.9760  -59.3880 C   0  0  0  0  0  0  0  0  0  0  0  0
   13.0470    4.5140  -57.9380 C   0  0  0  0  0  0  0  0  0  0  0  0
   11.9470    3.4970  -57.6230 C   0  0  0  0  0  0  0  0  0  0  0  0
    8.2660    3.7210  -57.8610 N   0  0  0  0  0  0  0  0  0  0  0  0
    7.5170    2.9120  -57.0920 N   0  0  0  0  0  0  0  0  0  0  0  0
    9.5300    1.0290  -54.7760 H   0  0  0  0  0  0  0  0  0  0  0  0
   10.3565   -1.4226  -54.3422 H   0  0  0  0  0  0  0  0  0  0  0  0
   10.2501   -3.1912  -52.5870 H   0  0  0  0  0  0  0  0  0  0  0  0
    6.5725   -1.4865  -51.0986 H   0  0  0  0  0  0  0  0  0  0  0  0
    6.6788    0.2863  -52.8527 H   0  0  0  0  0  0  0  0  0  0  0  0
   10.7996    3.0890  -59.3971 H   0  0  0  0  0  0  0  0  0  0  0  0
    9.5686    5.2337  -59.4769 H   0  0  0  0  0  0  0  0  0  0  0  0
   10.4375    5.7497  -57.9700 H   0  0  0  0  0  0  0  0  0  0  0  0
   11.4423    5.4700  -60.7843 H   0  0  0  0  0  0  0  0  0  0  0  0
   11.7837    6.7222  -59.4969 H   0  0  0  0  0  0  0  0  0  0  0  0
   13.1281    4.1032  -60.0445 H   0  0  0  0  0  0  0  0  0  0  0  0
   13.8018    5.7101  -59.5409 H   0  0  0  0  0  0  0  0  0  0  0  0
   14.0256    4.0497  -57.7466 H   0  0  0  0  0  0  0  0  0  0  0  0
   12.8918    5.3931  -57.2953 H   0  0  0  0  0  0  0  0  0  0  0  0
   12.3457    2.4875  -57.8019 H   0  0  0  0  0  0  0  0  0  0  0  0
   11.6555    3.6532  -56.5739 H   0  0  0  0  0  0  0  0  0  0  0  0
    6.5280    3.0990  -56.9610 H   0  0  0  0  0  0  0  0  0  0  0  0
  1  2  2  0
  2  3  1  0
  3  4  1  0
  4  5  1  0
  5  6  2  0
  6  7  1  0
  7  8  1  0
  7  9  2  0
  9 10  1  0
  2 11  1  0
 11 12  2  0
 12 13  1  0
 13 14  1  0
 14 15  1  0
 15 16  1  0
 16 17  1  0
 17 18  1  0
 18 19  1  0
 13 20  2  0
 20 21  1  0
 10  4  2  0
 21 11  1  0
 19 14  1  0
  3 22  1  0
  5 23  1  0
  6 24  1  0
  9 25  1  0
 10 26  1  0
 14 27  1  0
 15 28  1  0
 15 29  1  0
 16 30  1  0
 16 31  1  0
 17 32  1  0
 17 33  1  0
 18 34  1  0
 18 35  1  0
 19 36  1  0
 19 37  1  0
 21 38  1  0
M  END
>  <meeko>  (78) 
{"is_sidechain": false}

$$$$

     RDKit          3D

 38 40  0  0  0  0  0  0  0  0999 V2000
    6.6730    0.2160  -55.7370 O   0  0  0  0  0  0  0  0  0  0  0  0
    7.7620    0.7640  -55.6070 C   0  0  0  0  0  0  0  0  0  0  0  0
    8.7180    0.4060  -54.6610 N   0  0  0  0  0  0  0  0  0  0  0  0
    8.5930   -0.5560  -53.6370 C   0  0  0  0  0  0  0  0  0  0  0  0
    7.5430   -0.5880  -52.7170 C   0  0  0  0  0  0  0  0  0  0  0  0
    7.5000   -1.5710  -51.7200 C   0  0  0  0  0  0  0  0  0  0  0  0
    8.5100   -2.5240  -51.6390 C   0  0  0  0  0  0  0  0  0  0  0  0
    8.4590   -3.7300  -50.4140 Cl  0  0  0  0  0  0  0  0  0  0  0  0
    9.5660   -2.5020  -52.5450 C   0  0  0  0  0  0  0  0  0  0  0  0
    9.6070   -1.5190  -53.5400 C   0  0  0  0  0  0  0  0  0  0  0  0
    8.1870    1.8700  -56.4420 C   0  0  0  0  0  0  0  0  0  0  0  0
    7.3970    2.5570  -57.2420 N   0  0  0  0  0  0  0  0  0  0  0  0
    8.1530    3.5180  -57.8720 N   0  0  0  0  0  0  0  0  0  0  0  0
    9.3860    3.4300  -57.4230 C   0  0  0  0  0  0  0  0  0  0  0  0
   10.5440    4.2970  -57.8010 C   0  0  0  0  0  0  0  0  0  0  0  0
   11.8830    3.5990  -57.5250 C   0  0  0  0  0  0  0  0  0  0  0  0
   13.0670    4.4800  -57.9190 C   0  0  0  0  0  0  0  0  0  0  0  0
   12.9670    4.9370  -59.3720 C   0  0  0  0  0  0  0  0  0  0  0  0
   11.6390    5.6320  -59.6540 C   0  0  0  0  0  0  0  0  0  0  0  0
   10.4500    4.7560  -59.2640 C   0  0  0  0  0  0  0  0  0  0  0  0
    9.4480    2.4020  -56.5200 N   0  0  0  0  0  0  0  0  0  0  0  0
    9.6470    0.7780  -54.8010 H   0  0  0  0  0  0  0  0  0  0  0  0
    6.7431    0.1648  -52.7757 H   0  0  0  0  0  0  0  0  0  0  0  0
    6.6676   -1.5893  -51.0012 H   0  0  0  0  0  0  0  0  0  0  0  0
   10.3656   -3.2546  -52.4792 H   0  0  0  0  0  0  0  0  0  0  0  0
   10.4439   -1.5017  -54.2537 H   0  0  0  0  0  0  0  0  0  0  0  0
   10.4993    5.1947  -57.1669 H   0  0  0  0  0  0  0  0  0  0  0  0
   11.9510    3.3684  -56.4516 H   0  0  0  0  0  0  0  0  0  0  0  0
   11.9226    2.6793  -58.1271 H   0  0  0  0  0  0  0  0  0  0  0  0
   13.0860    5.3654  -57.2666 H   0  0  0  0  0  0  0  0  0  0  0  0
   13.9883    3.8897  -57.8062 H   0  0  0  0  0  0  0  0  0  0  0  0
   13.7881    5.6380  -59.5827 H   0  0  0  0  0  0  0  0  0  0  0  0
   13.0328    4.0481  -60.0166 H   0  0  0  0  0  0  0  0  0  0  0  0
   11.5968    6.5679  -59.0775 H   0  0  0  0  0  0  0  0  0  0  0  0
   11.5786    5.8318  -60.7340 H   0  0  0  0  0  0  0  0  0  0  0  0
    9.5225    5.3318  -59.3990 H   0  0  0  0  0  0  0  0  0  0  0  0
   10.4540    3.8632  -59.9065 H   0  0  0  0  0  0  0  0  0  0  0  0
   10.2490    2.1260  -55.9720 H   0  0  0  0  0  0  0  0  0  0  0  0
  1  2  2  0
  2  3  1  0
  3  4  1  0
  4  5  1  0
  5  6  2  0
  6  7  1  0
  7  8  1  0
  7  9  2  0
  9 10  1  0
  2 11  1  0
 11 12  2  0
 12 13  1  0
 13 14  2  0
 14 15  1  0
 15 16  1  0
 16 17  1  0
 17 18  1  0
 18 19  1  0
 19 20  1  0
 14 21  1  0
 10  4  2  0
 21 11  1  0
 20 15  1  0
  3 22  1  0
  5 23  1  0
  6 24  1  0
  9 25  1  0
 10 26  1  0
 15 27  1  0
 16 28  1  0
 16 29  1  0
 17 30  1  0
 17 31  1  0
 18 32  1  0
 18 33  1  0
 19 34  1  0
 19 35  1  0
 20 36  1  0
 20 37  1  0
 21 38  1  0
M  END
>  <meeko>  (79) 
{"is_sidechain": false}

$$$$

     RDKit          3D

 38 40  0  0  0  0  0  0  0  0999 V2000
    6.5300    0.2570  -55.7470 O   0  0  0  0  0  0  0  0  0  0  0  0
    7.6390    0.7670  -55.6270 C   0  0  0  0  0  0  0  0  0  0  0  0
    8.5880    0.4390  -54.6700 N   0  0  0  0  0  0  0  0  0  0  0  0
    8.5070   -0.5220  -53.6490 C   0  0  0  0  0  0  0  0  0  0  0  0
    7.4720   -0.5790  -52.7130 C   0  0  0  0  0  0  0  0  0  0  0  0
    7.4640   -1.5710  -51.7250 C   0  0  0  0  0  0  0  0  0  0  0  0
    8.4930   -2.5080  -51.6700 C   0  0  0  0  0  0  0  0  0  0  0  0
    8.4820   -3.7250  -50.4550 Cl  0  0  0  0  0  0  0  0  0  0  0  0
    9.5300   -2.4620  -52.5970 C   0  0  0  0  0  0  0  0  0  0  0  0
    9.5360   -1.4710  -53.5830 C   0  0  0  0  0  0  0  0  0  0  0  0
    8.1370    1.8440  -56.5170 C   0  0  0  0  0  0  0  0  0  0  0  0
    7.3830    2.8390  -57.0120 N   0  0  0  0  0  0  0  0  0  0  0  0
    8.2680    3.5330  -57.7380 N   0  0  0  0  0  0  0  0  0  0  0  0
    9.5150    2.9750  -57.6840 C   0  0  0  0  0  0  0  0  0  0  0  0
   10.7100    3.5280  -58.3950 C   0  0  0  0  0  0  0  0  0  0  0  0
   11.9790    3.4320  -57.5270 C   0  0  0  0  0  0  0  0  0  0  0  0
   13.0450    4.4690  -57.8890 C   0  0  0  0  0  0  0  0  0  0  0  0
   12.9910    4.8520  -59.3620 C   0  0  0  0  0  0  0  0  0  0  0  0
   11.6420    5.4620  -59.7430 C   0  0  0  0  0  0  0  0  0  0  0  0
   10.4770    4.9610  -58.8870 C   0  0  0  0  0  0  0  0  0  0  0  0
    9.4670    1.9050  -56.9190 N   0  0  0  0  0  0  0  0  0  0  0  0
    9.4470    0.9820  -54.7430 H   0  0  0  0  0  0  0  0  0  0  0  0
    6.6581    0.1600  -52.7523 H   0  0  0  0  0  0  0  0  0  0  0  0
    6.6448   -1.6104  -50.9920 H   0  0  0  0  0  0  0  0  0  0  0  0
   10.3420   -3.2028  -52.5540 H   0  0  0  0  0  0  0  0  0  0  0  0
   10.3568   -1.4358  -54.3145 H   0  0  0  0  0  0  0  0  0  0  0  0
    7.9600    4.3610  -58.2350 H   0  0  0  0  0  0  0  0  0  0  0  0
   10.8675    2.9032  -59.2865 H   0  0  0  0  0  0  0  0  0  0  0  0
   11.6934    3.5787  -56.4749 H   0  0  0  0  0  0  0  0  0  0  0  0
   12.4188    2.4396  -57.7048 H   0  0  0  0  0  0  0  0  0  0  0  0
   12.8835    5.3715  -57.2812 H   0  0  0  0  0  0  0  0  0  0  0  0
   14.0318    4.0261  -57.6889 H   0  0  0  0  0  0  0  0  0  0  0  0
   13.7841    5.5859  -59.5680 H   0  0  0  0  0  0  0  0  0  0  0  0
   13.1323    3.9380  -59.9574 H   0  0  0  0  0  0  0  0  0  0  0  0
   11.7107    6.5541  -59.6312 H   0  0  0  0  0  0  0  0  0  0  0  0
   11.4332    5.1587  -60.7795 H   0  0  0  0  0  0  0  0  0  0  0  0
   10.3642    5.6231  -58.0158 H   0  0  0  0  0  0  0  0  0  0  0  0
    9.5685    4.9671  -59.5071 H   0  0  0  0  0  0  0  0  0  0  0  0
  1  2  2  0
  2  3  1  0
  3  4  1  0
  4  5  1  0
  5  6  2  0
  6  7  1  0
  7  8  1  0
  7  9  2  0
  9 10  1  0
  2 11  1  0
 11 12  2  0
 12 13  1  0
 13 14  1  0
 14 15  1  0
 15 16  1  0
 16 17  1  0
 17 18  1  0
 18 19  1  0
 19 20  1  0
 14 21  2  0
 10  4  2  0
 21 11  1  0
 20 15  1  0
  3 22  1  0
  5 23  1  0
  6 24  1  0
  9 25  1  0
 10 26  1  0
 13 27  1  0
 15 28  1  0
 16 29  1  0
 16 30  1  0
 17 31  1  0
 17 32  1  0
 18 33  1  0
 18 34  1  0
 19 35  1  0
 19 36  1  0
 20 37  1  0
 20 38  1  0
M  END
>  <meeko>  (80) 
{"is_sidechain": false}

$$$$

     RDKit          3D

 28 29  0  0  0  0  0  0  0  0999 V2000
    3.4000    0.7280  -62.5460 C   0  0  0  0  0  0  0  0  0  0  0  0
    3.9140    1.4130  -61.3420 C   0  0  0  0  0  0  0  0  0  0  0  0
    3.1100    1.8580  -60.3700 N   0  0  0  0  0  0  0  0  0  0  0  0
    3.9940    2.3930  -59.5100 N   0  0  0  0  0  0  0  0  0  0  0  0
    5.2700    2.2630  -59.9690 C   0  0  0  0  0  0  0  0  0  0  0  0
    6.4450    2.7350  -59.2770 C   0  0  0  0  0  0  0  0  0  0  0  0
    6.3980    3.1010  -58.1080 O   0  0  0  0  0  0  0  0  0  0  0  0
    7.5640    2.7120  -60.0870 N   0  0  0  0  0  0  0  0  0  0  0  0
    8.8800    3.0920  -59.7740 C   0  0  0  0  0  0  0  0  0  0  0  0
    9.6370    2.5170  -58.7520 C   0  0  0  0  0  0  0  0  0  0  0  0
   10.9450    2.9550  -58.5050 C   0  0  0  0  0  0  0  0  0  0  0  0
   11.5160    3.9800  -59.2710 C   0  0  0  0  0  0  0  0  0  0  0  0
   12.9330    4.4340  -59.0170 C   0  0  0  0  0  0  0  0  0  0  0  0
   13.0970    5.7660  -59.2440 F   0  0  0  0  0  0  0  0  0  0  0  0
   13.8470    3.8030  -59.8050 F   0  0  0  0  0  0  0  0  0  0  0  0
   13.3390    4.2210  -57.7330 F   0  0  0  0  0  0  0  0  0  0  0  0
   10.7560    4.5490  -60.3020 C   0  0  0  0  0  0  0  0  0  0  0  0
    9.4510    4.1100  -60.5470 C   0  0  0  0  0  0  0  0  0  0  0  0
    5.2520    1.6420  -61.1360 N   0  0  0  0  0  0  0  0  0  0  0  0
    2.7652   -0.1180  -62.2437 H   0  0  0  0  0  0  0  0  0  0  0  0
    2.8077    1.4350  -63.1454 H   0  0  0  0  0  0  0  0  0  0  0  0
    4.2444    0.3569  -63.1454 H   0  0  0  0  0  0  0  0  0  0  0  0
    3.6770    2.8230  -58.6470 H   0  0  0  0  0  0  0  0  0  0  0  0
    7.3840    2.3710  -61.0280 H   0  0  0  0  0  0  0  0  0  0  0  0
    9.2040    1.7148  -58.1364 H   0  0  0  0  0  0  0  0  0  0  0  0
   11.5309    2.4882  -57.6995 H   0  0  0  0  0  0  0  0  0  0  0  0
   11.1892    5.3468  -60.9231 H   0  0  0  0  0  0  0  0  0  0  0  0
    8.8660    4.5702  -61.3570 H   0  0  0  0  0  0  0  0  0  0  0  0
  1  2  1  0
  2  3  2  0
  3  4  1  0
  4  5  1  0
  5  6  1  0
  6  7  2  0
  6  8  1  0
  8  9  1  0
  9 10  1  0
 10 11  2  0
 11 12  1  0
 12 13  1  0
 13 14  1  0
 13 15  1  0
 13 16  1  0
 12 17  2  0
 17 18  1  0
  5 19  2  0
 19  2  1  0
 18  9  2  0
  1 20  1  0
  1 21  1  0
  1 22  1  0
  4 23  1  0
  8 24  1  0
 10 25  1  0
 11 26  1  0
 17 27  1  0
 18 28  1  0
M  END
>  <meeko>  (81) 
{"is_sidechain": false}

$$$$

     RDKit          3D

 28 29  0  0  0  0  0  0  0  0999 V2000
    3.1770    0.6830  -62.8280 C   0  0  0  0  0  0  0  0  0  0  0  0
    3.6660    1.3590  -61.6100 C   0  0  0  0  0  0  0  0  0  0  0  0
    2.9590    1.7750  -60.5830 N   0  0  0  0  0  0  0  0  0  0  0  0
    3.8260    2.3140  -59.6590 N   0  0  0  0  0  0  0  0  0  0  0  0
    5.0460    2.2530  -60.1540 C   0  0  0  0  0  0  0  0  0  0  0  0
    6.2380    2.7260  -59.4780 C   0  0  0  0  0  0  0  0  0  0  0  0
    6.2350    3.0910  -58.3080 O   0  0  0  0  0  0  0  0  0  0  0  0
    7.3600    2.7190  -60.3020 N   0  0  0  0  0  0  0  0  0  0  0  0
    8.6890    3.0250  -59.9410 C   0  0  0  0  0  0  0  0  0  0  0  0
    9.2700    4.1500  -60.5400 C   0  0  0  0  0  0  0  0  0  0  0  0
   10.5890    4.5170  -60.2480 C   0  0  0  0  0  0  0  0  0  0  0  0
   11.3580    3.7600  -59.3560 C   0  0  0  0  0  0  0  0  0  0  0  0
   12.7720    4.1660  -59.0210 C   0  0  0  0  0  0  0  0  0  0  0  0
   13.7060    3.5770  -59.8180 F   0  0  0  0  0  0  0  0  0  0  0  0
   12.9790    5.5090  -59.1400 F   0  0  0  0  0  0  0  0  0  0  0  0
   13.1130    3.8480  -57.7420 F   0  0  0  0  0  0  0  0  0  0  0  0
   10.7730    2.6370  -58.7560 C   0  0  0  0  0  0  0  0  0  0  0  0
    9.4530    2.2710  -59.0500 C   0  0  0  0  0  0  0  0  0  0  0  0
    4.9850    1.6430  -61.3810 N   0  0  0  0  0  0  0  0  0  0  0  0
    2.5541   -0.1781  -62.5444 H   0  0  0  0  0  0  0  0  0  0  0  0
    2.5786    1.3881  -63.4235 H   0  0  0  0  0  0  0  0  0  0  0  0
    4.0340    0.3353  -63.4235 H   0  0  0  0  0  0  0  0  0  0  0  0
    7.1900    2.6130  -61.2920 H   0  0  0  0  0  0  0  0  0  0  0  0
    8.6826    4.7525  -61.2485 H   0  0  0  0  0  0  0  0  0  0  0  0
   11.0250    5.4079  -60.7235 H   0  0  0  0  0  0  0  0  0  0  0  0
   11.3577    2.0350  -58.0449 H   0  0  0  0  0  0  0  0  0  0  0  0
    9.0151    1.3812  -58.5740 H   0  0  0  0  0  0  0  0  0  0  0  0
    5.7670    1.3980  -61.9680 H   0  0  0  0  0  0  0  0  0  0  0  0
  1  2  1  0
  2  3  2  0
  3  4  1  0
  4  5  2  0
  5  6  1  0
  6  7  2  0
  6  8  1  0
  8  9  1  0
  9 10  1  0
 10 11  2  0
 11 12  1  0
 12 13  1  0
 13 14  1  0
 13 15  1  0
 13 16  1  0
 12 17  2  0
 17 18  1  0
  5 19  1  0
 19  2  1  0
 18  9  2  0
  1 20  1  0
  1 21  1  0
  1 22  1  0
  8 23  1  0
 10 24  1  0
 11 25  1  0
 17 26  1  0
 18 27  1  0
 19 28  1  0
M  END
>  <meeko>  (82) 
{"is_sidechain": false}

$$$$

     RDKit          3D

 28 29  0  0  0  0  0  0  0  0999 V2000
    3.4120    0.7520  -62.5390 C   0  0  0  0  0  0  0  0  0  0  0  0
    3.9920    1.4210  -61.3570 C   0  0  0  0  0  0  0  0  0  0  0  0
    5.2580    1.6720  -61.1120 N   0  0  0  0  0  0  0  0  0  0  0  0
    5.2440    2.3080  -59.8850 C   0  0  0  0  0  0  0  0  0  0  0  0
    6.4590    2.7910  -59.1840 C   0  0  0  0  0  0  0  0  0  0  0  0
    6.4390    3.1780  -58.0190 O   0  0  0  0  0  0  0  0  0  0  0  0
    7.5740    2.7410  -60.0080 N   0  0  0  0  0  0  0  0  0  0  0  0
    8.8970    3.1080  -59.7150 C   0  0  0  0  0  0  0  0  0  0  0  0
    9.4630    4.1270  -60.4900 C   0  0  0  0  0  0  0  0  0  0  0  0
   10.7760    4.5530  -60.2650 C   0  0  0  0  0  0  0  0  0  0  0  0
   11.5470    3.9720  -59.2500 C   0  0  0  0  0  0  0  0  0  0  0  0
   12.9720    4.4130  -59.0160 C   0  0  0  0  0  0  0  0  0  0  0  0
   13.8700    3.7390  -59.7900 F   0  0  0  0  0  0  0  0  0  0  0  0
   13.3690    4.2160  -57.7290 F   0  0  0  0  0  0  0  0  0  0  0  0
   13.1770    5.7330  -59.2750 F   0  0  0  0  0  0  0  0  0  0  0  0
   10.9800    2.9460  -58.4810 C   0  0  0  0  0  0  0  0  0  0  0  0
    9.6660    2.5220  -58.7100 C   0  0  0  0  0  0  0  0  0  0  0  0
    4.0020    2.4540  -59.3680 N   0  0  0  0  0  0  0  0  0  0  0  0
    3.2410    1.8860  -60.3200 N   0  0  0  0  0  0  0  0  0  0  0  0
    2.7243   -0.0413  -62.2107 H   0  0  0  0  0  0  0  0  0  0  0  0
    2.8612    1.4878  -63.1433 H   0  0  0  0  0  0  0  0  0  0  0  0
    4.2185    0.3111  -63.1433 H   0  0  0  0  0  0  0  0  0  0  0  0
    7.3710    2.3860  -60.9390 H   0  0  0  0  0  0  0  0  0  0  0  0
    8.8678    4.5985  -61.2858 H   0  0  0  0  0  0  0  0  0  0  0  0
   11.2062    5.3499  -60.8894 H   0  0  0  0  0  0  0  0  0  0  0  0
   11.5748    2.4686  -57.6884 H   0  0  0  0  0  0  0  0  0  0  0  0
    9.2362    1.7198  -58.0921 H   0  0  0  0  0  0  0  0  0  0  0  0
    2.2350    1.8500  -60.1980 H   0  0  0  0  0  0  0  0  0  0  0  0
  1  2  1  0
  2  3  2  0
  3  4  1  0
  4  5  1  0
  5  6  2  0
  5  7  1  0
  7  8  1  0
  8  9  1  0
  9 10  2  0
 10 11  1  0
 11 12  1  0
 12 13  1  0
 12 14  1  0
 12 15  1  0
 11 16  2  0
 16 17  1  0
  4 18  2  0
 18 19  1  0
 19  2  1  0
 17  8  2  0
  1 20  1  0
  1 21  1  0
  1 22  1  0
  7 23  1  0
  9 24  1  0
 10 25  1  0
 16 26  1  0
 17 27  1  0
 19 28  1  0
M  END
>  <meeko>  (83) 
{"is_sidechain": false}

$$$$

     RDKit          3D

 32 34  0  0  0  0  0  0  0  0999 V2000
    6.5380    0.6880  -56.1230 O   0  0  0  0  0  0  0  0  0  0  0  0
    7.6710    1.1420  -56.0050 C   0  0  0  0  0  0  0  0  0  0  0  0
    8.6080    0.7760  -55.0580 N   0  0  0  0  0  0  0  0  0  0  0  0
    8.4900   -0.1770  -54.0310 C   0  0  0  0  0  0  0  0  0  0  0  0
    9.4430   -1.2030  -54.0030 C   0  0  0  0  0  0  0  0  0  0  0  0
    9.3990   -2.1910  -53.0150 C   0  0  0  0  0  0  0  0  0  0  0  0
    8.3960   -2.1570  -52.0490 C   0  0  0  0  0  0  0  0  0  0  0  0
    8.3370   -3.3700  -50.8320 Cl  0  0  0  0  0  0  0  0  0  0  0  0
    7.4430   -1.1430  -52.0670 C   0  0  0  0  0  0  0  0  0  0  0  0
    7.4900   -0.1540  -53.0560 C   0  0  0  0  0  0  0  0  0  0  0  0
    8.1720    2.1620  -56.8940 C   0  0  0  0  0  0  0  0  0  0  0  0
    9.4420    2.4390  -57.1210 N   0  0  0  0  0  0  0  0  0  0  0  0
    9.3890    3.4780  -58.0320 C   0  0  0  0  0  0  0  0  0  0  0  0
   10.5930    4.1080  -58.5690 C   0  0  0  0  0  0  0  0  0  0  0  0
   10.5060    5.1810  -59.4670 C   0  0  0  0  0  0  0  0  0  0  0  0
   11.6620    5.7790  -59.9770 C   0  0  0  0  0  0  0  0  0  0  0  0
   12.9170    5.3090  -59.5950 C   0  0  0  0  0  0  0  0  0  0  0  0
   13.0190    4.2440  -58.7040 C   0  0  0  0  0  0  0  0  0  0  0  0
   11.8640    3.6460  -58.1930 C   0  0  0  0  0  0  0  0  0  0  0  0
    8.1380    3.8410  -58.3640 N   0  0  0  0  0  0  0  0  0  0  0  0
    7.3940    2.9970  -57.6340 N   0  0  0  0  0  0  0  0  0  0  0  0
    9.4900    1.2770  -55.1350 H   0  0  0  0  0  0  0  0  0  0  0  0
   10.2344   -1.2317  -54.7665 H   0  0  0  0  0  0  0  0  0  0  0  0
   10.1531   -2.9917  -53.0005 H   0  0  0  0  0  0  0  0  0  0  0  0
    6.6519   -1.1189  -51.3030 H   0  0  0  0  0  0  0  0  0  0  0  0
    6.7351    0.6461  -53.0656 H   0  0  0  0  0  0  0  0  0  0  0  0
    9.5183    5.5561  -59.7733 H   0  0  0  0  0  0  0  0  0  0  0  0
   11.5810    6.6210  -60.6802 H   0  0  0  0  0  0  0  0  0  0  0  0
   13.8265    5.7791  -59.9972 H   0  0  0  0  0  0  0  0  0  0  0  0
   14.0096    3.8730  -58.4021 H   0  0  0  0  0  0  0  0  0  0  0  0
   11.9517    2.8051  -57.4893 H   0  0  0  0  0  0  0  0  0  0  0  0
    6.3810    3.0350  -57.6780 H   0  0  0  0  0  0  0  0  0  0  0  0
  1  2  2  0
  2  3  1  0
  3  4  1  0
  4  5  1  0
  5  6  2  0
  6  7  1  0
  7  8  1  0
  7  9  2  0
  9 10  1  0
  2 11  1  0
 11 12  2  0
 12 13  1  0
 13 14  1  0
 14 15  2  0
 15 16  1  0
 16 17  2  0
 17 18  1  0
 18 19  2  0
 13 20  2  0
 20 21  1  0
 10  4  2  0
 21 11  1  0
 19 14  1  0
  3 22  1  0
  5 23  1  0
  6 24  1  0
  9 25  1  0
 10 26  1  0
 15 27  1  0
 16 28  1  0
 17 29  1  0
 18 30  1  0
 19 31  1  0
 21 32  1  0
M  END
>  <meeko>  (84) 
{"is_sidechain": false}

$$$$

     RDKit          3D

 32 34  0  0  0  0  0  0  0  0999 V2000
    7.1370    1.7120  -56.9940 O   0  0  0  0  0  0  0  0  0  0  0  0
    7.9070    1.3780  -56.1010 C   0  0  0  0  0  0  0  0  0  0  0  0
    9.1850    1.8630  -55.8970 N   0  0  0  0  0  0  0  0  0  0  0  0
    9.8850    2.8270  -56.6440 C   0  0  0  0  0  0  0  0  0  0  0  0
    9.4460    4.1390  -56.8340 C   0  0  0  0  0  0  0  0  0  0  0  0
   10.2040    5.0370  -57.5930 C   0  0  0  0  0  0  0  0  0  0  0  0
   11.4040    4.6250  -58.1660 C   0  0  0  0  0  0  0  0  0  0  0  0
   12.3340    5.7310  -59.0990 Cl  0  0  0  0  0  0  0  0  0  0  0  0
   11.8530    3.3210  -57.9850 C   0  0  0  0  0  0  0  0  0  0  0  0
   11.0950    2.4250  -57.2260 C   0  0  0  0  0  0  0  0  0  0  0  0
    7.5310    0.3880  -55.1180 C   0  0  0  0  0  0  0  0  0  0  0  0
    6.3380   -0.1560  -55.0010 N   0  0  0  0  0  0  0  0  0  0  0  0
    6.3900   -1.0440  -53.9530 N   0  0  0  0  0  0  0  0  0  0  0  0
    7.6110   -1.0330  -53.4420 C   0  0  0  0  0  0  0  0  0  0  0  0
    8.0980   -1.8290  -52.3140 C   0  0  0  0  0  0  0  0  0  0  0  0
    9.2900   -2.5680  -52.3680 C   0  0  0  0  0  0  0  0  0  0  0  0
    9.7180   -3.3160  -51.2660 C   0  0  0  0  0  0  0  0  0  0  0  0
    8.9620   -3.3340  -50.0950 C   0  0  0  0  0  0  0  0  0  0  0  0
    7.7790   -2.6060  -50.0240 C   0  0  0  0  0  0  0  0  0  0  0  0
    7.3510   -1.8600  -51.1260 C   0  0  0  0  0  0  0  0  0  0  0  0
    8.3550   -0.1340  -54.1620 N   0  0  0  0  0  0  0  0  0  0  0  0
    9.6640    1.4560  -55.0960 H   0  0  0  0  0  0  0  0  0  0  0  0
    8.4979    4.4685  -56.3839 H   0  0  0  0  0  0  0  0  0  0  0  0
    9.8517    6.0690  -57.7371 H   0  0  0  0  0  0  0  0  0  0  0  0
   12.8014    2.9961  -58.4377 H   0  0  0  0  0  0  0  0  0  0  0  0
   11.4516    1.3941  -57.0840 H   0  0  0  0  0  0  0  0  0  0  0  0
    9.8944   -2.5589  -53.2870 H   0  0  0  0  0  0  0  0  0  0  0  0
   10.6537   -3.8915  -51.3237 H   0  0  0  0  0  0  0  0  0  0  0  0
    9.3002   -3.9224  -49.2293 H   0  0  0  0  0  0  0  0  0  0  0  0
    7.1805   -2.6173  -49.1011 H   0  0  0  0  0  0  0  0  0  0  0  0
    6.4137   -1.2880  -51.0611 H   0  0  0  0  0  0  0  0  0  0  0  0
    9.3240    0.1130  -54.0320 H   0  0  0  0  0  0  0  0  0  0  0  0
  1  2  2  0
  2  3  1  0
  3  4  1  0
  4  5  1  0
  5  6  2  0
  6  7  1  0
  7  8  1  0
  7  9  2  0
  9 10  1  0
  2 11  1  0
 11 12  2  0
 12 13  1  0
 13 14  2  0
 14 15  1  0
 15 16  2  0
 16 17  1  0
 17 18  2  0
 18 19  1  0
 19 20  2  0
 14 21  1  0
 10  4  2  0
 21 11  1  0
 20 15  1  0
  3 22  1  0
  5 23  1  0
  6 24  1  0
  9 25  1  0
 10 26  1  0
 16 27  1  0
 17 28  1  0
 18 29  1  0
 19 30  1  0
 20 31  1  0
 21 32  1  0
M  END
>  <meeko>  (85) 
{"is_sidechain": false}

$$$$

     RDKit          3D

 32 34  0  0  0  0  0  0  0  0999 V2000
    6.3900    0.7180  -56.1130 O   0  0  0  0  0  0  0  0  0  0  0  0
    7.5330    1.1630  -56.0850 C   0  0  0  0  0  0  0  0  0  0  0  0
    8.5310    0.7940  -55.1950 N   0  0  0  0  0  0  0  0  0  0  0  0
    8.4700   -0.1440  -54.1510 C   0  0  0  0  0  0  0  0  0  0  0  0
    7.4990   -0.1330  -53.1470 C   0  0  0  0  0  0  0  0  0  0  0  0
    7.5080   -1.1050  -52.1410 C   0  0  0  0  0  0  0  0  0  0  0  0
    8.4900   -2.0920  -52.1350 C   0  0  0  0  0  0  0  0  0  0  0  0
    8.5000   -3.2870  -50.8990 Cl  0  0  0  0  0  0  0  0  0  0  0  0
    9.4640   -2.1150  -53.1290 C   0  0  0  0  0  0  0  0  0  0  0  0
    9.4530   -1.1430  -54.1340 C   0  0  0  0  0  0  0  0  0  0  0  0
    8.0230    2.1920  -57.0330 C   0  0  0  0  0  0  0  0  0  0  0  0
    7.2400    2.9170  -57.8480 N   0  0  0  0  0  0  0  0  0  0  0  0
    8.1350    3.6840  -58.4850 N   0  0  0  0  0  0  0  0  0  0  0  0
    9.4180    3.4400  -58.0740 C   0  0  0  0  0  0  0  0  0  0  0  0
   10.6150    4.1170  -58.5820 C   0  0  0  0  0  0  0  0  0  0  0  0
   11.8810    3.6220  -58.2330 C   0  0  0  0  0  0  0  0  0  0  0  0
   13.0470    4.2370  -58.6940 C   0  0  0  0  0  0  0  0  0  0  0  0
   12.9650    5.3580  -59.5140 C   0  0  0  0  0  0  0  0  0  0  0  0
   11.7180    5.8640  -59.8720 C   0  0  0  0  0  0  0  0  0  0  0  0
   10.5490    5.2490  -59.4100 C   0  0  0  0  0  0  0  0  0  0  0  0
    9.3740    2.4950  -57.1520 N   0  0  0  0  0  0  0  0  0  0  0  0
    9.4120    1.2830  -55.3410 H   0  0  0  0  0  0  0  0  0  0  0  0
    6.7218    0.6454  -53.1474 H   0  0  0  0  0  0  0  0  0  0  0  0
    6.7391   -1.0895  -51.3545 H   0  0  0  0  0  0  0  0  0  0  0  0
   10.2396   -2.8950  -53.1239 H   0  0  0  0  0  0  0  0  0  0  0  0
   10.2233   -1.1625  -54.9190 H   0  0  0  0  0  0  0  0  0  0  0  0
    7.8050    4.3450  -59.1770 H   0  0  0  0  0  0  0  0  0  0  0  0
   11.9561    2.7355  -57.5861 H   0  0  0  0  0  0  0  0  0  0  0  0
   14.0304    3.8351  -58.4088 H   0  0  0  0  0  0  0  0  0  0  0  0
   13.8825    5.8432  -59.8784 H   0  0  0  0  0  0  0  0  0  0  0  0
   11.6517    6.7502  -60.5202 H   0  0  0  0  0  0  0  0  0  0  0  0
    9.5688    5.6564  -59.6984 H   0  0  0  0  0  0  0  0  0  0  0  0
  1  2  2  0
  2  3  1  0
  3  4  1  0
  4  5  1  0
  5  6  2  0
  6  7  1  0
  7  8  1  0
  7  9  2  0
  9 10  1  0
  2 11  1  0
 11 12  2  0
 12 13  1  0
 13 14  1  0
 14 15  1  0
 15 16  2  0
 16 17  1  0
 17 18  2  0
 18 19  1  0
 19 20  2  0
 14 21  2  0
 10  4  2  0
 21 11  1  0
 20 15  1  0
  3 22  1  0
  5 23  1  0
  6 24  1  0
  9 25  1  0
 10 26  1  0
 13 27  1  0
 16 28  1  0
 17 29  1  0
 18 30  1  0
 19 31  1  0
 20 32  1  0
M  END
>  <meeko>  (86) 
{"is_sidechain": false}

$$$$

     RDKit          3D

 31 32  0  0  0  0  0  0  0  0999 V2000
    2.6600    1.7490  -63.1620 C   0  0  0  0  0  0  0  0  0  0  0  0
    3.3720    0.7940  -62.2190 C   0  0  0  0  0  0  0  0  0  0  0  0
    3.9490    1.4940  -61.0430 C   0  0  0  0  0  0  0  0  0  0  0  0
    3.1940    2.0170  -60.0680 N   0  0  0  0  0  0  0  0  0  0  0  0
    4.1280    2.5250  -59.2460 N   0  0  0  0  0  0  0  0  0  0  0  0
    5.3830    2.3040  -59.7270 C   0  0  0  0  0  0  0  0  0  0  0  0
    6.6000    2.7260  -59.0750 C   0  0  0  0  0  0  0  0  0  0  0  0
    6.6360    2.9610  -57.8720 O   0  0  0  0  0  0  0  0  0  0  0  0
    7.6540    2.8190  -59.9630 N   0  0  0  0  0  0  0  0  0  0  0  0
    8.9850    3.1940  -59.7070 C   0  0  0  0  0  0  0  0  0  0  0  0
    9.8160    2.5460  -58.7930 C   0  0  0  0  0  0  0  0  0  0  0  0
   11.1320    2.9830  -58.5960 C   0  0  0  0  0  0  0  0  0  0  0  0
   11.6410    4.0730  -59.3160 C   0  0  0  0  0  0  0  0  0  0  0  0
   13.0530    4.5560  -59.0860 C   0  0  0  0  0  0  0  0  0  0  0  0
   13.2360    5.8610  -59.4290 F   0  0  0  0  0  0  0  0  0  0  0  0
   13.4440    4.4570  -57.7850 F   0  0  0  0  0  0  0  0  0  0  0  0
   13.9650    3.8470  -59.8050 F   0  0  0  0  0  0  0  0  0  0  0  0
   10.8010    4.7270  -60.2260 C   0  0  0  0  0  0  0  0  0  0  0  0
    9.4870    4.2880  -60.4210 C   0  0  0  0  0  0  0  0  0  0  0  0
    5.3030    1.6480  -60.8720 N   0  0  0  0  0  0  0  0  0  0  0  0
    2.1034    2.4955  -62.5764 H   0  0  0  0  0  0  0  0  0  0  0  0
    3.4006    2.2583  -63.7962 H   0  0  0  0  0  0  0  0  0  0  0  0
    1.9605    1.1846  -63.7962 H   0  0  0  0  0  0  0  0  0  0  0  0
    2.6512    0.0421  -61.8653 H   0  0  0  0  0  0  0  0  0  0  0  0
    4.1990    0.3258  -62.7730 H   0  0  0  0  0  0  0  0  0  0  0  0
    3.8570    3.0010  -58.3920 H   0  0  0  0  0  0  0  0  0  0  0  0
    7.4100    2.5780  -60.9200 H   0  0  0  0  0  0  0  0  0  0  0  0
    9.4351    1.6858  -58.2230 H   0  0  0  0  0  0  0  0  0  0  0  0
   11.7736    2.4650  -57.8680 H   0  0  0  0  0  0  0  0  0  0  0  0
   11.1771    5.5922  -60.7916 H   0  0  0  0  0  0  0  0  0  0  0  0
    8.8413    4.8085  -61.1436 H   0  0  0  0  0  0  0  0  0  0  0  0
  1  2  1  0
  2  3  1  0
  3  4  2  0
  4  5  1  0
  5  6  1  0
  6  7  1  0
  7  8  2  0
  7  9  1  0
  9 10  1  0
 10 11  1  0
 11 12  2  0
 12 13  1  0
 13 14  1  0
 14 15  1  0
 14 16  1  0
 14 17  1  0
 13 18  2  0
 18 19  1  0
  6 20  2  0
 20  3  1  0
 19 10  2  0
  1 21  1  0
  1 22  1  0
  1 23  1  0
  2 24  1  0
  2 25  1  0
  5 26  1  0
  9 27  1  0
 11 28  1  0
 12 29  1  0
 18 30  1  0
 19 31  1  0
M  END
>  <meeko>  (87) 
{"is_sidechain": false}

$$$$

     RDKit          3D

 31 32  0  0  0  0  0  0  0  0999 V2000
    3.8810    0.7600  -63.2230 C   0  0  0  0  0  0  0  0  0  0  0  0
    2.9900    1.4760  -62.2220 C   0  0  0  0  0  0  0  0  0  0  0  0
    3.7500    1.8890  -61.0150 C   0  0  0  0  0  0  0  0  0  0  0  0
    3.2650    2.2000  -59.8340 N   0  0  0  0  0  0  0  0  0  0  0  0
    4.3220    2.4880  -59.0020 N   0  0  0  0  0  0  0  0  0  0  0  0
    5.4350    2.3830  -59.6980 C   0  0  0  0  0  0  0  0  0  0  0  0
    6.7670    2.6140  -59.1730 C   0  0  0  0  0  0  0  0  0  0  0  0
    7.1750    2.0860  -58.1460 O   0  0  0  0  0  0  0  0  0  0  0  0
    7.5080    3.4930  -59.9580 N   0  0  0  0  0  0  0  0  0  0  0  0
    8.8600    3.8610  -59.7900 C   0  0  0  0  0  0  0  0  0  0  0  0
    9.8230    2.8700  -60.0150 C   0  0  0  0  0  0  0  0  0  0  0  0
   11.1860    3.1480  -59.8600 C   0  0  0  0  0  0  0  0  0  0  0  0
   11.6120    4.4230  -59.4660 C   0  0  0  0  0  0  0  0  0  0  0  0
   13.0830    4.7320  -59.3210 C   0  0  0  0  0  0  0  0  0  0  0  0
   13.8890    3.7660  -59.8400 F   0  0  0  0  0  0  0  0  0  0  0  0
   13.4560    4.8750  -58.0200 F   0  0  0  0  0  0  0  0  0  0  0  0
   13.4450    5.8900  -59.9430 F   0  0  0  0  0  0  0  0  0  0  0  0
   10.6460    5.4130  -59.2460 C   0  0  0  0  0  0  0  0  0  0  0  0
    9.2830    5.1330  -59.4020 C   0  0  0  0  0  0  0  0  0  0  0  0
    5.1130    1.9910  -60.9720 N   0  0  0  0  0  0  0  0  0  0  0  0
    4.6286    0.1592  -62.6844 H   0  0  0  0  0  0  0  0  0  0  0  0
    3.2671    0.1011  -63.8547 H   0  0  0  0  0  0  0  0  0  0  0  0
    4.3923    1.5013  -63.8547 H   0  0  0  0  0  0  0  0  0  0  0  0
    2.5633    2.3706  -62.6991 H   0  0  0  0  0  0  0  0  0  0  0  0
    2.1956    0.7824  -61.9091 H   0  0  0  0  0  0  0  0  0  0  0  0
    6.9920    4.0280  -60.6440 H   0  0  0  0  0  0  0  0  0  0  0  0
    9.5048    1.8613  -60.3171 H   0  0  0  0  0  0  0  0  0  0  0  0
   11.9287    2.3589  -60.0491 H   0  0  0  0  0  0  0  0  0  0  0  0
   10.9621    6.4233  -58.9469 H   0  0  0  0  0  0  0  0  0  0  0  0
    8.5394    5.9223  -59.2172 H   0  0  0  0  0  0  0  0  0  0  0  0
    5.7590    1.7680  -61.7140 H   0  0  0  0  0  0  0  0  0  0  0  0
  1  2  1  0
  2  3  1  0
  3  4  2  0
  4  5  1  0
  5  6  2  0
  6  7  1  0
  7  8  2  0
  7  9  1  0
  9 10  1  0
 10 11  1  0
 11 12  2  0
 12 13  1  0
 13 14  1  0
 14 15  1  0
 14 16  1  0
 14 17  1  0
 13 18  2  0
 18 19  1  0
  6 20  1  0
 20  3  1  0
 19 10  2  0
  1 21  1  0
  1 22  1  0
  1 23  1  0
  2 24  1  0
  2 25  1  0
  9 26  1  0
 11 27  1  0
 12 28  1  0
 18 29  1  0
 19 30  1  0
 20 31  1  0
M  END
>  <meeko>  (88) 
{"is_sidechain": false}

$$$$

     RDKit          3D

 31 32  0  0  0  0  0  0  0  0999 V2000
    2.6230    1.8390  -63.0660 C   0  0  0  0  0  0  0  0  0  0  0  0
    3.3230    0.8450  -62.1550 C   0  0  0  0  0  0  0  0  0  0  0  0
    3.9770    1.5260  -61.0090 C   0  0  0  0  0  0  0  0  0  0  0  0
    5.2610    1.7320  -60.8210 N   0  0  0  0  0  0  0  0  0  0  0  0
    5.3240    2.4010  -59.6150 C   0  0  0  0  0  0  0  0  0  0  0  0
    6.5840    2.8530  -58.9780 C   0  0  0  0  0  0  0  0  0  0  0  0
    6.6530    3.1600  -57.7920 O   0  0  0  0  0  0  0  0  0  0  0  0
    7.6320    2.8790  -59.8890 N   0  0  0  0  0  0  0  0  0  0  0  0
    8.9690    3.2460  -59.6760 C   0  0  0  0  0  0  0  0  0  0  0  0
    9.4040    4.4410  -60.2640 C   0  0  0  0  0  0  0  0  0  0  0  0
   10.7220    4.8800  -60.1010 C   0  0  0  0  0  0  0  0  0  0  0  0
   11.6310    4.1350  -59.3390 C   0  0  0  0  0  0  0  0  0  0  0  0
   13.0600    4.5940  -59.1800 C   0  0  0  0  0  0  0  0  0  0  0  0
   13.2820    5.8320  -59.7050 F   0  0  0  0  0  0  0  0  0  0  0  0
   13.4600    4.6660  -57.8790 F   0  0  0  0  0  0  0  0  0  0  0  0
   13.9420    3.7620  -59.7980 F   0  0  0  0  0  0  0  0  0  0  0  0
   11.1950    2.9360  -58.7590 C   0  0  0  0  0  0  0  0  0  0  0  0
    9.8750    2.4980  -58.9240 C   0  0  0  0  0  0  0  0  0  0  0  0
    4.1110    2.6140  -59.0530 N   0  0  0  0  0  0  0  0  0  0  0  0
    3.2870    2.0510  -59.9550 N   0  0  0  0  0  0  0  0  0  0  0  0
    2.0960    2.5874  -62.4559 H   0  0  0  0  0  0  0  0  0  0  0  0
    3.3674    2.3418  -63.7008 H   0  0  0  0  0  0  0  0  0  0  0  0
    1.8988    1.3075  -63.7008 H   0  0  0  0  0  0  0  0  0  0  0  0
    2.5818    0.1292  -61.7700 H   0  0  0  0  0  0  0  0  0  0  0  0
    4.0991    0.3283  -62.7387 H   0  0  0  0  0  0  0  0  0  0  0  0
    7.3590    2.5860  -60.8240 H   0  0  0  0  0  0  0  0  0  0  0  0
    8.7010    5.0408  -60.8606 H   0  0  0  0  0  0  0  0  0  0  0  0
   11.0473    5.8178  -60.5750 H   0  0  0  0  0  0  0  0  0  0  0  0
   11.8980    2.3316  -58.1670 H   0  0  0  0  0  0  0  0  0  0  0  0
    9.5501    1.5566  -58.4569 H   0  0  0  0  0  0  0  0  0  0  0  0
    2.2870    2.0620  -59.7930 H   0  0  0  0  0  0  0  0  0  0  0  0
  1  2  1  0
  2  3  1  0
  3  4  2  0
  4  5  1  0
  5  6  1  0
  6  7  2  0
  6  8  1  0
  8  9  1  0
  9 10  1  0
 10 11  2  0
 11 12  1  0
 12 13  1  0
 13 14  1  0
 13 15  1  0
 13 16  1  0
 12 17  2  0
 17 18  1  0
  5 19  2  0
 19 20  1  0
 20  3  1  0
 18  9  2  0
  1 21  1  0
  1 22  1  0
  1 23  1  0
  2 24  1  0
  2 25  1  0
  8 26  1  0
 10 27  1  0
 11 28  1  0
 17 29  1  0
 18 30  1  0
 20 31  1  0
M  END
>  <meeko>  (89) 
{"is_sidechain": false}

$$$$

     RDKit          3D

 38 40  0  0  0  0  0  0  0  0999 V2000
    8.7020    4.6460  -57.2510 O   0  0  0  0  0  0  0  0  0  0  0  0
    8.5710    4.0010  -58.2850 C   0  0  0  0  0  0  0  0  0  0  0  0
    9.5190    3.8300  -59.2740 N   0  0  0  0  0  0  0  0  0  0  0  0
   10.8280    4.3390  -59.3330 C   0  0  0  0  0  0  0  0  0  0  0  0
   10.9860    5.6370  -59.8350 C   0  0  0  0  0  0  0  0  0  0  0  0
   12.2530    6.2180  -59.9270 C   0  0  0  0  0  0  0  0  0  0  0  0
   13.3760    5.5040  -59.5160 C   0  0  0  0  0  0  0  0  0  0  0  0
   13.2280    4.2130  -59.0150 C   0  0  0  0  0  0  0  0  0  0  0  0
   11.9600    3.6310  -58.9240 C   0  0  0  0  0  0  0  0  0  0  0  0
    7.3390    3.3130  -58.5950 C   0  0  0  0  0  0  0  0  0  0  0  0
    6.9750    2.8670  -59.7860 N   0  0  0  0  0  0  0  0  0  0  0  0
    5.7470    2.3020  -59.5410 C   0  0  0  0  0  0  0  0  0  0  0  0
    4.9410    1.6620  -60.6270 C   0  0  0  0  0  0  0  0  0  0  0  0
    3.4330    1.8830  -60.4470 C   0  0  0  0  0  0  0  0  0  0  0  0
    2.6160    1.0890  -61.4690 C   0  0  0  0  0  0  0  0  0  0  0  0
    3.3380    0.8760  -62.8000 C   0  0  0  0  0  0  0  0  0  0  0  0
    4.3200    2.0000  -63.0980 C   0  0  0  0  0  0  0  0  0  0  0  0
    5.4060    2.1110  -62.0250 C   0  0  0  0  0  0  0  0  0  0  0  0
    5.3370    2.3800  -58.2680 N   0  0  0  0  0  0  0  0  0  0  0  0
    6.3640    3.0240  -57.6900 N   0  0  0  0  0  0  0  0  0  0  0  0
    9.2060    3.2540  -60.0530 H   0  0  0  0  0  0  0  0  0  0  0  0
   10.1023    6.2054  -60.1605 H   0  0  0  0  0  0  0  0  0  0  0  0
   12.3636    7.2381  -60.3235 H   0  0  0  0  0  0  0  0  0  0  0  0
   14.3755    5.9578  -59.5868 H   0  0  0  0  0  0  0  0  0  0  0  0
   14.1137    3.6480  -58.6890 H   0  0  0  0  0  0  0  0  0  0  0  0
   11.8536    2.6102  -58.5282 H   0  0  0  0  0  0  0  0  0  0  0  0
    5.1191    0.5795  -60.5461 H   0  0  0  0  0  0  0  0  0  0  0  0
    3.1446    1.5631  -59.4348 H   0  0  0  0  0  0  0  0  0  0  0  0
    3.2237    2.9522  -60.5985 H   0  0  0  0  0  0  0  0  0  0  0  0
    2.3837    0.1039  -61.0382 H   0  0  0  0  0  0  0  0  0  0  0  0
    1.7112    1.6765  -61.6841 H   0  0  0  0  0  0  0  0  0  0  0  0
    3.8884   -0.0755  -62.7580 H   0  0  0  0  0  0  0  0  0  0  0  0
    2.5827    0.8616  -63.5996 H   0  0  0  0  0  0  0  0  0  0  0  0
    4.7986    1.8055  -64.0691 H   0  0  0  0  0  0  0  0  0  0  0  0
    3.7593    2.9463  -63.1136 H   0  0  0  0  0  0  0  0  0  0  0  0
    6.2577    1.4834  -62.3262 H   0  0  0  0  0  0  0  0  0  0  0  0
    5.6759    3.1746  -61.9486 H   0  0  0  0  0  0  0  0  0  0  0  0
    6.3470    3.2360  -56.6970 H   0  0  0  0  0  0  0  0  0  0  0  0
  1  2  2  0
  2  3  1  0
  3  4  1  0
  4  5  2  0
  5  6  1  0
  6  7  2  0
  7  8  1  0
  8  9  2  0
  2 10  1  0
 10 11  2  0
 11 12  1  0
 12 13  1  0
 13 14  1  0
 14 15  1  0
 15 16  1  0
 16 17  1  0
 17 18  1  0
 12 19  2  0
 19 20  1  0
  9  4  1  0
 20 10  1  0
 18 13  1  0
  3 21  1  0
  5 22  1  0
  6 23  1  0
  7 24  1  0
  8 25  1  0
  9 26  1  0
 13 27  1  0
 14 28  1  0
 14 29  1  0
 15 30  1  0
 15 31  1  0
 16 32  1  0
 16 33  1  0
 17 34  1  0
 17 35  1  0
 18 36  1  0
 18 37  1  0
 20 38  1  0
M  END
>  <meeko>  (90) 
{"is_sidechain": false}

$$$$

     RDKit          3D

 38 40  0  0  0  0  0  0  0  0999 V2000
    8.7210    4.9940  -57.6010 O   0  0  0  0  0  0  0  0  0  0  0  0
    8.6610    4.1120  -58.4500 C   0  0  0  0  0  0  0  0  0  0  0  0
    9.7180    3.7280  -59.2700 N   0  0  0  0  0  0  0  0  0  0  0  0
   10.9920    4.3270  -59.3640 C   0  0  0  0  0  0  0  0  0  0  0  0
   12.1790    3.7100  -58.9620 C   0  0  0  0  0  0  0  0  0  0  0  0
   13.4010    4.3820  -59.0760 C   0  0  0  0  0  0  0  0  0  0  0  0
   13.4470    5.6760  -59.5890 C   0  0  0  0  0  0  0  0  0  0  0  0
   12.2700    6.3020  -59.9870 C   0  0  0  0  0  0  0  0  0  0  0  0
   11.0480    5.6320  -59.8740 C   0  0  0  0  0  0  0  0  0  0  0  0
    7.4540    3.3480  -58.7010 C   0  0  0  0  0  0  0  0  0  0  0  0
    6.6240    2.9230  -57.7710 N   0  0  0  0  0  0  0  0  0  0  0  0
    5.6020    2.2360  -58.3870 N   0  0  0  0  0  0  0  0  0  0  0  0
    5.8010    2.2840  -59.6860 C   0  0  0  0  0  0  0  0  0  0  0  0
    4.9250    1.7030  -60.7500 C   0  0  0  0  0  0  0  0  0  0  0  0
    3.4380    1.9180  -60.4330 C   0  0  0  0  0  0  0  0  0  0  0  0
    2.5430    1.3340  -61.5250 C   0  0  0  0  0  0  0  0  0  0  0  0
    2.9040    1.8830  -62.9030 C   0  0  0  0  0  0  0  0  0  0  0  0
    4.3810    1.6730  -63.2230 C   0  0  0  0  0  0  0  0  0  0  0  0
    5.2820    2.2580  -62.1370 C   0  0  0  0  0  0  0  0  0  0  0  0
    6.9590    2.9760  -59.9240 N   0  0  0  0  0  0  0  0  0  0  0  0
    9.6150    2.8500  -59.7580 H   0  0  0  0  0  0  0  0  0  0  0  0
   12.1529    2.6891  -58.5531 H   0  0  0  0  0  0  0  0  0  0  0  0
   14.3301    3.8858  -58.7588 H   0  0  0  0  0  0  0  0  0  0  0  0
   14.4096    6.2007  -59.6791 H   0  0  0  0  0  0  0  0  0  0  0  0
   12.3008    7.3247  -60.3908 H   0  0  0  0  0  0  0  0  0  0  0  0
   10.1210    6.1338  -60.1884 H   0  0  0  0  0  0  0  0  0  0  0  0
    5.1082    0.6185  -60.7681 H   0  0  0  0  0  0  0  0  0  0  0  0
    3.2017    1.4279  -59.4770 H   0  0  0  0  0  0  0  0  0  0  0  0
    3.2503    3.0003  -60.3748 H   0  0  0  0  0  0  0  0  0  0  0  0
    2.6599    0.2403  -61.5350 H   0  0  0  0  0  0  0  0  0  0  0  0
    1.5031    1.6167  -61.3044 H   0  0  0  0  0  0  0  0  0  0  0  0
    2.2976    1.3677  -63.6624 H   0  0  0  0  0  0  0  0  0  0  0  0
    2.7021    2.9643  -62.9058 H   0  0  0  0  0  0  0  0  0  0  0  0
    4.5779    0.5940  -63.3068 H   0  0  0  0  0  0  0  0  0  0  0  0
    4.6041    2.1885  -64.1688 H   0  0  0  0  0  0  0  0  0  0  0  0
    6.3277    2.0043  -62.3652 H   0  0  0  0  0  0  0  0  0  0  0  0
    5.1384    3.3484  -62.1198 H   0  0  0  0  0  0  0  0  0  0  0  0
    7.3430    3.2180  -60.8250 H   0  0  0  0  0  0  0  0  0  0  0  0
  1  2  2  0
  2  3  1  0
  3  4  1  0
  4  5  2  0
  5  6  1  0
  6  7  2  0
  7  8  1  0
  8  9  2  0
  2 10  1  0
 10 11  2  0
 11 12  1  0
 12 13  2  0
 13 14  1  0
 14 15  1  0
 15 16  1  0
 16 17  1  0
 17 18  1  0
 18 19  1  0
 13 20  1  0
  9  4  1  0
 20 10  1  0
 19 14  1  0
  3 21  1  0
  5 22  1  0
  6 23  1  0
  7 24  1  0
  8 25  1  0
  9 26  1  0
 14 27  1  0
 15 28  1  0
 15 29  1  0
 16 30  1  0
 16 31  1  0
 17 32  1  0
 17 33  1  0
 18 34  1  0
 18 35  1  0
 19 36  1  0
 19 37  1  0
 20 38  1  0
M  END
>  <meeko>  (91) 
{"is_sidechain": false}

$$$$

     RDKit          3D

 38 40  0  0  0  0  0  0  0  0999 V2000
   11.2510   -1.1160  -55.7230 O   0  0  0  0  0  0  0  0  0  0  0  0
   10.4560   -1.9050  -55.2240 C   0  0  0  0  0  0  0  0  0  0  0  0
   10.3800   -3.2640  -55.4900 N   0  0  0  0  0  0  0  0  0  0  0  0
   11.1670   -4.0350  -56.3620 C   0  0  0  0  0  0  0  0  0  0  0  0
   11.3750   -3.7220  -57.7060 C   0  0  0  0  0  0  0  0  0  0  0  0
   12.1750   -4.5440  -58.5070 C   0  0  0  0  0  0  0  0  0  0  0  0
   12.7690   -5.6840  -57.9720 C   0  0  0  0  0  0  0  0  0  0  0  0
   12.5670   -6.0040  -56.6320 C   0  0  0  0  0  0  0  0  0  0  0  0
   11.7690   -5.1830  -55.8320 C   0  0  0  0  0  0  0  0  0  0  0  0
    9.4330   -1.4890  -54.2320 C   0  0  0  0  0  0  0  0  0  0  0  0
    8.9850   -0.2160  -54.1420 N   0  0  0  0  0  0  0  0  0  0  0  0
    8.0970   -0.3090  -53.1380 N   0  0  0  0  0  0  0  0  0  0  0  0
    8.0140   -1.5780  -52.6450 C   0  0  0  0  0  0  0  0  0  0  0  0
    7.1200   -2.0190  -51.5230 C   0  0  0  0  0  0  0  0  0  0  0  0
    6.2020   -3.1860  -51.9140 C   0  0  0  0  0  0  0  0  0  0  0  0
    6.8580   -4.5620  -51.8090 C   0  0  0  0  0  0  0  0  0  0  0  0
    7.5210   -4.7730  -50.4520 C   0  0  0  0  0  0  0  0  0  0  0  0
    8.5210   -3.6690  -50.1330 C   0  0  0  0  0  0  0  0  0  0  0  0
    7.8850   -2.2820  -50.2180 C   0  0  0  0  0  0  0  0  0  0  0  0
    8.8480   -2.3410  -53.3200 N   0  0  0  0  0  0  0  0  0  0  0  0
    9.6470   -3.7380  -54.9680 H   0  0  0  0  0  0  0  0  0  0  0  0
   10.9077   -2.8246  -58.1377 H   0  0  0  0  0  0  0  0  0  0  0  0
   12.3355   -4.2884  -59.5648 H   0  0  0  0  0  0  0  0  0  0  0  0
   13.3954   -6.3293  -58.6054 H   0  0  0  0  0  0  0  0  0  0  0  0
   13.0354   -6.9025  -56.2039 H   0  0  0  0  0  0  0  0  0  0  0  0
   11.6117   -5.4409  -54.7743 H   0  0  0  0  0  0  0  0  0  0  0  0
    7.5950    0.5220  -52.8490 H   0  0  0  0  0  0  0  0  0  0  0  0
    6.4562   -1.1659  -51.3192 H   0  0  0  0  0  0  0  0  0  0  0  0
    5.3240   -3.1711  -51.2515 H   0  0  0  0  0  0  0  0  0  0  0  0
    5.9401   -3.0409  -52.9725 H   0  0  0  0  0  0  0  0  0  0  0  0
    6.0886   -5.3348  -51.9531 H   0  0  0  0  0  0  0  0  0  0  0  0
    7.6365   -4.6288  -52.5832 H   0  0  0  0  0  0  0  0  0  0  0  0
    6.7436   -4.7849  -49.6739 H   0  0  0  0  0  0  0  0  0  0  0  0
    8.0649   -5.7286  -50.4822 H   0  0  0  0  0  0  0  0  0  0  0  0
    8.9063   -3.8217  -49.1141 H   0  0  0  0  0  0  0  0  0  0  0  0
    9.3315   -3.7184  -50.8750 H   0  0  0  0  0  0  0  0  0  0  0  0
    7.1827   -2.1725  -49.3785 H   0  0  0  0  0  0  0  0  0  0  0  0
    8.7088   -1.5539  -50.1824 H   0  0  0  0  0  0  0  0  0  0  0  0
  1  2  2  0
  2  3  1  0
  3  4  1  0
  4  5  2  0
  5  6  1  0
  6  7  2  0
  7  8  1  0
  8  9  2  0
  2 10  1  0
 10 11  2  0
 11 12  1  0
 12 13  1  0
 13 14  1  0
 14 15  1  0
 15 16  1  0
 16 17  1  0
 17 18  1  0
 18 19  1  0
 13 20  2  0
  9  4  1  0
 20 10  1  0
 19 14  1  0
  3 21  1  0
  5 22  1  0
  6 23  1  0
  7 24  1  0
  8 25  1  0
  9 26  1  0
 12 27  1  0
 14 28  1  0
 15 29  1  0
 15 30  1  0
 16 31  1  0
 16 32  1  0
 17 33  1  0
 17 34  1  0
 18 35  1  0
 18 36  1  0
 19 37  1  0
 19 38  1  0
M  END
>  <meeko>  (92) 
{"is_sidechain": false}

$$$$

     RDKit          3D

 32 34  0  0  0  0  0  0  0  0999 V2000
    9.3620   -1.1530  -54.4210 O   0  0  0  0  0  0  0  0  0  0  0  0
    8.2150   -0.7310  -54.3260 C   0  0  0  0  0  0  0  0  0  0  0  0
    7.2590   -1.1410  -53.4180 N   0  0  0  0  0  0  0  0  0  0  0  0
    7.3670   -2.1190  -52.4130 C   0  0  0  0  0  0  0  0  0  0  0  0
    7.8090   -1.8570  -51.1160 C   0  0  0  0  0  0  0  0  0  0  0  0
    7.8860   -2.8890  -50.1740 C   0  0  0  0  0  0  0  0  0  0  0  0
    7.5210   -4.1880  -50.5220 C   0  0  0  0  0  0  0  0  0  0  0  0
    7.0790   -4.4570  -51.8140 C   0  0  0  0  0  0  0  0  0  0  0  0
    7.0020   -3.4270  -52.7550 C   0  0  0  0  0  0  0  0  0  0  0  0
    7.7180    0.3030  -55.2040 C   0  0  0  0  0  0  0  0  0  0  0  0
    8.4260    1.2860  -55.7270 N   0  0  0  0  0  0  0  0  0  0  0  0
    7.5000    1.9870  -56.4770 C   0  0  0  0  0  0  0  0  0  0  0  0
    7.8590    3.1790  -57.2430 C   0  0  0  0  0  0  0  0  0  0  0  0
    7.3110    3.3960  -58.5160 C   0  0  0  0  0  0  0  0  0  0  0  0
    7.6500    4.5340  -59.2540 C   0  0  0  0  0  0  0  0  0  0  0  0
    8.5400    5.4670  -58.7260 C   0  0  0  0  0  0  0  0  0  0  0  0
    9.0910    5.2650  -57.4620 C   0  0  0  0  0  0  0  0  0  0  0  0
    8.7520    4.1280  -56.7240 C   0  0  0  0  0  0  0  0  0  0  0  0
    6.2620    1.4680  -56.4300 N   0  0  0  0  0  0  0  0  0  0  0  0
    6.4300    0.4090  -55.6220 N   0  0  0  0  0  0  0  0  0  0  0  0
    6.3670   -0.6610  -53.5080 H   0  0  0  0  0  0  0  0  0  0  0  0
    8.0984   -0.8343  -50.8324 H   0  0  0  0  0  0  0  0  0  0  0  0
    8.2364   -2.6737  -49.1538 H   0  0  0  0  0  0  0  0  0  0  0  0
    7.5819   -4.9970  -49.7791 H   0  0  0  0  0  0  0  0  0  0  0  0
    6.7902   -5.4807  -52.0944 H   0  0  0  0  0  0  0  0  0  0  0  0
    6.6513   -3.6457  -53.7744 H   0  0  0  0  0  0  0  0  0  0  0  0
    6.6074    2.6633  -58.9379 H   0  0  0  0  0  0  0  0  0  0  0  0
    7.2141    4.6928  -60.2514 H   0  0  0  0  0  0  0  0  0  0  0  0
    8.8075    6.3623  -59.3064 H   0  0  0  0  0  0  0  0  0  0  0  0
    9.7936    6.0015  -57.0448 H   0  0  0  0  0  0  0  0  0  0  0  0
    9.1897    3.9757  -55.7264 H   0  0  0  0  0  0  0  0  0  0  0  0
    5.6460   -0.1930  -55.3950 H   0  0  0  0  0  0  0  0  0  0  0  0
  1  2  2  0
  2  3  1  0
  3  4  1  0
  4  5  2  0
  5  6  1  0
  6  7  2  0
  7  8  1  0
  8  9  2  0
  2 10  1  0
 10 11  2  0
 11 12  1  0
 12 13  1  0
 13 14  2  0
 14 15  1  0
 15 16  2  0
 16 17  1  0
 17 18  2  0
 12 19  2  0
 19 20  1  0
  9  4  1  0
 20 10  1  0
 18 13  1  0
  3 21  1  0
  5 22  1  0
  6 23  1  0
  7 24  1  0
  8 25  1  0
  9 26  1  0
 14 27  1  0
 15 28  1  0
 16 29  1  0
 17 30  1  0
 18 31  1  0
 20 32  1  0
M  END
>  <meeko>  (93) 
{"is_sidechain": false}

$$$$

     RDKit          3D

 32 34  0  0  0  0  0  0  0  0999 V2000
    9.3210   -1.1620  -54.4120 O   0  0  0  0  0  0  0  0  0  0  0  0
    8.1590   -0.7740  -54.3610 C   0  0  0  0  0  0  0  0  0  0  0  0
    7.1950   -1.2660  -53.4880 N   0  0  0  0  0  0  0  0  0  0  0  0
    7.3770   -2.1980  -52.4440 C   0  0  0  0  0  0  0  0  0  0  0  0
    7.0250   -3.5290  -52.7070 C   0  0  0  0  0  0  0  0  0  0  0  0
    7.1610   -4.5130  -51.7230 C   0  0  0  0  0  0  0  0  0  0  0  0
    7.6490   -4.1740  -50.4650 C   0  0  0  0  0  0  0  0  0  0  0  0
    7.9980   -2.8540  -50.1920 C   0  0  0  0  0  0  0  0  0  0  0  0
    7.8610   -1.8680  -51.1760 C   0  0  0  0  0  0  0  0  0  0  0  0
    7.6440    0.2660  -55.2300 C   0  0  0  0  0  0  0  0  0  0  0  0
    6.4040    0.3400  -55.6660 N   0  0  0  0  0  0  0  0  0  0  0  0
    6.2970    1.4660  -56.4500 N   0  0  0  0  0  0  0  0  0  0  0  0
    7.4810    2.0470  -56.5240 C   0  0  0  0  0  0  0  0  0  0  0  0
    7.8170    3.2600  -57.2700 C   0  0  0  0  0  0  0  0  0  0  0  0
    8.7670    4.1480  -56.7390 C   0  0  0  0  0  0  0  0  0  0  0  0
    9.1210    5.3150  -57.4180 C   0  0  0  0  0  0  0  0  0  0  0  0
    8.5270    5.6160  -58.6400 C   0  0  0  0  0  0  0  0  0  0  0  0
    7.5790    4.7520  -59.1810 C   0  0  0  0  0  0  0  0  0  0  0  0
    7.2240    3.5810  -58.5010 C   0  0  0  0  0  0  0  0  0  0  0  0
    8.3520    1.3100  -55.7630 N   0  0  0  0  0  0  0  0  0  0  0  0
    6.2340   -1.0350  -53.6990 H   0  0  0  0  0  0  0  0  0  0  0  0
    6.6372   -3.8027  -53.6993 H   0  0  0  0  0  0  0  0  0  0  0  0
    6.8824   -5.5541  -51.9433 H   0  0  0  0  0  0  0  0  0  0  0  0
    7.7587   -4.9459  -49.6890 H   0  0  0  0  0  0  0  0  0  0  0  0
    8.3835   -2.5846  -49.1976 H   0  0  0  0  0  0  0  0  0  0  0  0
    8.1361   -0.8273  -50.9494 H   0  0  0  0  0  0  0  0  0  0  0  0
    9.2397    3.9200  -55.7723 H   0  0  0  0  0  0  0  0  0  0  0  0
    9.8693    5.9966  -56.9873 H   0  0  0  0  0  0  0  0  0  0  0  0
    8.8059    6.5345  -59.1772 H   0  0  0  0  0  0  0  0  0  0  0  0
    7.1074    4.9902  -60.1458 H   0  0  0  0  0  0  0  0  0  0  0  0
    6.4726    2.9055  -58.9359 H   0  0  0  0  0  0  0  0  0  0  0  0
    9.3390    1.4750  -55.6470 H   0  0  0  0  0  0  0  0  0  0  0  0
  1  2  2  0
  2  3  1  0
  3  4  1  0
  4  5  2  0
  5  6  1  0
  6  7  2  0
  7  8  1  0
  8  9  2  0
  2 10  1  0
 10 11  2  0
 11 12  1  0
 12 13  2  0
 13 14  1  0
 14 15  2  0
 15 16  1  0
 16 17  2  0
 17 18  1  0
 18 19  2  0
 13 20  1  0
  9  4  1  0
 20 10  1  0
 19 14  1  0
  3 21  1  0
  5 22  1  0
  6 23  1  0
  7 24  1  0
  8 25  1  0
  9 26  1  0
 15 27  1  0
 16 28  1  0
 17 29  1  0
 18 30  1  0
 19 31  1  0
 20 32  1  0
M  END
>  <meeko>  (94) 
{"is_sidechain": false}

$$$$

     RDKit          3D

 32 34  0  0  0  0  0  0  0  0999 V2000
    9.3560   -1.2120  -54.4320 O   0  0  0  0  0  0  0  0  0  0  0  0
    8.2190   -0.7640  -54.3180 C   0  0  0  0  0  0  0  0  0  0  0  0
    7.2730   -1.1630  -53.3850 N   0  0  0  0  0  0  0  0  0  0  0  0
    7.3860   -2.1420  -52.3840 C   0  0  0  0  0  0  0  0  0  0  0  0
    7.0350   -3.4530  -52.7320 C   0  0  0  0  0  0  0  0  0  0  0  0
    7.1200   -4.4860  -51.7940 C   0  0  0  0  0  0  0  0  0  0  0  0
    7.5550   -4.2170  -50.5000 C   0  0  0  0  0  0  0  0  0  0  0  0
    7.9060   -2.9170  -50.1450 C   0  0  0  0  0  0  0  0  0  0  0  0
    7.8210   -1.8820  -51.0830 C   0  0  0  0  0  0  0  0  0  0  0  0
    7.6940    0.3060  -55.2000 C   0  0  0  0  0  0  0  0  0  0  0  0
    6.3920    0.3830  -55.5530 N   0  0  0  0  0  0  0  0  0  0  0  0
    6.3890    1.4770  -56.3330 N   0  0  0  0  0  0  0  0  0  0  0  0
    7.6300    2.0400  -56.4510 C   0  0  0  0  0  0  0  0  0  0  0  0
    7.9510    3.2370  -57.2310 C   0  0  0  0  0  0  0  0  0  0  0  0
    8.8860    4.1520  -56.7200 C   0  0  0  0  0  0  0  0  0  0  0  0
    9.2240    5.3080  -57.4280 C   0  0  0  0  0  0  0  0  0  0  0  0
    8.6310    5.5680  -58.6590 C   0  0  0  0  0  0  0  0  0  0  0  0
    7.7010    4.6730  -59.1820 C   0  0  0  0  0  0  0  0  0  0  0  0
    7.3620    3.5140  -58.4740 C   0  0  0  0  0  0  0  0  0  0  0  0
    8.4680    1.3120  -55.7400 N   0  0  0  0  0  0  0  0  0  0  0  0
    6.3920   -0.6630  -53.4610 H   0  0  0  0  0  0  0  0  0  0  0  0
    6.6892   -3.6715  -53.7531 H   0  0  0  0  0  0  0  0  0  0  0  0
    6.8429   -5.5117  -52.0789 H   0  0  0  0  0  0  0  0  0  0  0  0
    7.6214   -5.0283  -49.7601 H   0  0  0  0  0  0  0  0  0  0  0  0
    8.2516   -2.7028  -49.1229 H   0  0  0  0  0  0  0  0  0  0  0  0
    8.0985   -0.8577  -50.7937 H   0  0  0  0  0  0  0  0  0  0  0  0
    5.5170    1.7820  -56.7490 H   0  0  0  0  0  0  0  0  0  0  0  0
    9.3597    3.9553  -55.7469 H   0  0  0  0  0  0  0  0  0  0  0  0
    9.9591    6.0126  -57.0119 H   0  0  0  0  0  0  0  0  0  0  0  0
    8.8958    6.4778  -59.2177 H   0  0  0  0  0  0  0  0  0  0  0  0
    7.2310    4.8776  -60.1552 H   0  0  0  0  0  0  0  0  0  0  0  0
    6.6266    2.8134  -58.8963 H   0  0  0  0  0  0  0  0  0  0  0  0
  1  2  2  0
  2  3  1  0
  3  4  1  0
  4  5  2  0
  5  6  1  0
  6  7  2  0
  7  8  1  0
  8  9  2  0
  2 10  1  0
 10 11  2  0
 11 12  1  0
 12 13  1  0
 13 14  1  0
 14 15  2  0
 15 16  1  0
 16 17  2  0
 17 18  1  0
 18 19  2  0
 13 20  2  0
  9  4  1  0
 20 10  1  0
 19 14  1  0
  3 21  1  0
  5 22  1  0
  6 23  1  0
  7 24  1  0
  8 25  1  0
  9 26  1  0
 12 27  1  0
 15 28  1  0
 16 29  1  0
 17 30  1  0
 18 31  1  0
 19 32  1  0
M  END
>  <meeko>  (95) 
{"is_sidechain": false}

$$$$

     RDKit          3D

 38 40  0  0  0  0  0  0  0  0999 V2000
    6.7470    1.1250  -56.2270 O   0  0  0  0  0  0  0  0  0  0  0  0
    7.9460    1.3790  -56.1880 C   0  0  0  0  0  0  0  0  0  0  0  0
    8.8670    0.8600  -55.2990 N   0  0  0  0  0  0  0  0  0  0  0  0
    8.6580   -0.0580  -54.2560 C   0  0  0  0  0  0  0  0  0  0  0  0
    7.6880    0.0980  -53.2620 C   0  0  0  0  0  0  0  0  0  0  0  0
    7.5460   -0.8640  -52.2570 C   0  0  0  0  0  0  0  0  0  0  0  0
    8.3740   -1.9800  -52.2480 C   0  0  0  0  0  0  0  0  0  0  0  0
    8.2350   -2.8990  -51.2850 F   0  0  0  0  0  0  0  0  0  0  0  0
    9.3420   -2.1520  -53.2260 C   0  0  0  0  0  0  0  0  0  0  0  0
    9.4850   -1.1910  -54.2300 C   0  0  0  0  0  0  0  0  0  0  0  0
    8.5550    2.2990  -57.1190 C   0  0  0  0  0  0  0  0  0  0  0  0
    9.7120    2.1300  -57.7340 N   0  0  0  0  0  0  0  0  0  0  0  0
    9.8290    3.2700  -58.4930 C   0  0  0  0  0  0  0  0  0  0  0  0
   11.0160    3.5170  -59.3730 C   0  0  0  0  0  0  0  0  0  0  0  0
   12.3210    3.5560  -58.5520 C   0  0  0  0  0  0  0  0  0  0  0  0
   13.4320    4.2800  -59.3020 C   0  0  0  0  0  0  0  0  0  0  0  0
   13.0700    5.7390  -59.5830 C   0  0  0  0  0  0  0  0  0  0  0  0
   11.5660    5.9820  -59.7220 C   0  0  0  0  0  0  0  0  0  0  0  0
   10.8380    4.7580  -60.2710 C   0  0  0  0  0  0  0  0  0  0  0  0
    8.8080    4.1290  -58.3740 N   0  0  0  0  0  0  0  0  0  0  0  0
    8.0130    3.4900  -57.4990 N   0  0  0  0  0  0  0  0  0  0  0  0
    9.8140    1.2040  -55.4410 H   0  0  0  0  0  0  0  0  0  0  0  0
    7.0331    0.9817  -53.2702 H   0  0  0  0  0  0  0  0  0  0  0  0
    6.7815   -0.7377  -51.4762 H   0  0  0  0  0  0  0  0  0  0  0  0
    9.9927   -3.0388  -53.2114 H   0  0  0  0  0  0  0  0  0  0  0  0
   10.2525   -1.3238  -55.0067 H   0  0  0  0  0  0  0  0  0  0  0  0
   11.0950    2.6636  -60.0625 H   0  0  0  0  0  0  0  0  0  0  0  0
   12.1307    4.0791  -57.6032 H   0  0  0  0  0  0  0  0  0  0  0  0
   12.6453    2.5207  -58.3707 H   0  0  0  0  0  0  0  0  0  0  0  0
   14.3489    4.2512  -58.6950 H   0  0  0  0  0  0  0  0  0  0  0  0
   13.5805    3.7726  -60.2666 H   0  0  0  0  0  0  0  0  0  0  0  0
   13.4467    6.3564  -58.7542 H   0  0  0  0  0  0  0  0  0  0  0  0
   13.5297    6.0052  -60.5462 H   0  0  0  0  0  0  0  0  0  0  0  0
   11.1528    6.2269  -58.7324 H   0  0  0  0  0  0  0  0  0  0  0  0
   11.4195    6.8108  -60.4303 H   0  0  0  0  0  0  0  0  0  0  0  0
    9.7651    4.9890  -60.3459 H   0  0  0  0  0  0  0  0  0  0  0  0
   11.2694    4.5245  -61.2556 H   0  0  0  0  0  0  0  0  0  0  0  0
    7.1360    3.9040  -57.2040 H   0  0  0  0  0  0  0  0  0  0  0  0
  1  2  2  0
  2  3  1  0
  3  4  1  0
  4  5  1  0
  5  6  2  0
  6  7  1  0
  7  8  1  0
  7  9  2  0
  9 10  1  0
  2 11  1  0
 11 12  2  0
 12 13  1  0
 13 14  1  0
 14 15  1  0
 15 16  1  0
 16 17  1  0
 17 18  1  0
 18 19  1  0
 13 20  2  0
 20 21  1  0
 10  4  2  0
 21 11  1  0
 19 14  1  0
  3 22  1  0
  5 23  1  0
  6 24  1  0
  9 25  1  0
 10 26  1  0
 14 27  1  0
 15 28  1  0
 15 29  1  0
 16 30  1  0
 16 31  1  0
 17 32  1  0
 17 33  1  0
 18 34  1  0
 18 35  1  0
 19 36  1  0
 19 37  1  0
 21 38  1  0
M  END
>  <meeko>  (96) 
{"is_sidechain": false}

$$$$

     RDKit          3D

 38 40  0  0  0  0  0  0  0  0999 V2000
    8.7030    4.5050  -56.4920 O   0  0  0  0  0  0  0  0  0  0  0  0
    8.9290    3.3710  -56.8980 C   0  0  0  0  0  0  0  0  0  0  0  0
    9.8850    3.0510  -57.8580 N   0  0  0  0  0  0  0  0  0  0  0  0
   10.8180    3.9200  -58.4610 C   0  0  0  0  0  0  0  0  0  0  0  0
   12.1480    3.8340  -58.0180 C   0  0  0  0  0  0  0  0  0  0  0  0
   13.1330    4.6670  -58.5570 C   0  0  0  0  0  0  0  0  0  0  0  0
   12.7890    5.5890  -59.5340 C   0  0  0  0  0  0  0  0  0  0  0  0
   13.7310    6.3900  -60.0490 F   0  0  0  0  0  0  0  0  0  0  0  0
   11.4790    5.6920  -59.9820 C   0  0  0  0  0  0  0  0  0  0  0  0
   10.4920    4.8590  -59.4440 C   0  0  0  0  0  0  0  0  0  0  0  0
    8.2100    2.2080  -56.4170 C   0  0  0  0  0  0  0  0  0  0  0  0
    6.9580    1.9210  -56.7110 N   0  0  0  0  0  0  0  0  0  0  0  0
    6.6260    0.7450  -56.0790 N   0  0  0  0  0  0  0  0  0  0  0  0
    7.6650    0.3510  -55.3760 C   0  0  0  0  0  0  0  0  0  0  0  0
    7.7710   -0.8520  -54.4960 C   0  0  0  0  0  0  0  0  0  0  0  0
    7.4450   -0.4910  -53.0390 C   0  0  0  0  0  0  0  0  0  0  0  0
    7.5960   -1.6960  -52.1140 C   0  0  0  0  0  0  0  0  0  0  0  0
    8.9810   -2.3260  -52.2310 C   0  0  0  0  0  0  0  0  0  0  0  0
    9.3150   -2.6860  -53.6760 C   0  0  0  0  0  0  0  0  0  0  0  0
    9.1670   -1.4830  -54.6050 C   0  0  0  0  0  0  0  0  0  0  0  0
    8.6850    1.2440  -55.5650 N   0  0  0  0  0  0  0  0  0  0  0  0
    9.8210    2.1270  -58.2650 H   0  0  0  0  0  0  0  0  0  0  0  0
   12.4171    3.1046  -57.2399 H   0  0  0  0  0  0  0  0  0  0  0  0
   14.1736    4.5916  -58.2085 H   0  0  0  0  0  0  0  0  0  0  0  0
   11.2177    6.4266  -60.7579 H   0  0  0  0  0  0  0  0  0  0  0  0
    9.4535    4.9434  -59.7966 H   0  0  0  0  0  0  0  0  0  0  0  0
    7.0334   -1.5937  -54.8362 H   0  0  0  0  0  0  0  0  0  0  0  0
    8.1301    0.3026  -52.7061 H   0  0  0  0  0  0  0  0  0  0  0  0
    6.3995   -0.1519  -52.9943 H   0  0  0  0  0  0  0  0  0  0  0  0
    7.4390   -1.3701  -51.0752 H   0  0  0  0  0  0  0  0  0  0  0  0
    6.8502   -2.4495  -52.4072 H   0  0  0  0  0  0  0  0  0  0  0  0
    9.7304   -1.6120  -51.8588 H   0  0  0  0  0  0  0  0  0  0  0  0
    8.9893   -3.2509  -51.6356 H   0  0  0  0  0  0  0  0  0  0  0  0
   10.3529   -3.0474  -53.7228 H   0  0  0  0  0  0  0  0  0  0  0  0
    8.6120   -3.4644  -54.0074 H   0  0  0  0  0  0  0  0  0  0  0  0
    9.9214   -0.7291  -54.3356 H   0  0  0  0  0  0  0  0  0  0  0  0
    9.3083   -1.8283  -55.6398 H   0  0  0  0  0  0  0  0  0  0  0  0
    9.5890    1.2320  -55.1170 H   0  0  0  0  0  0  0  0  0  0  0  0
  1  2  2  0
  2  3  1  0
  3  4  1  0
  4  5  1  0
  5  6  2  0
  6  7  1  0
  7  8  1  0
  7  9  2  0
  9 10  1  0
  2 11  1  0
 11 12  2  0
 12 13  1  0
 13 14  2  0
 14 15  1  0
 15 16  1  0
 16 17  1  0
 17 18  1  0
 18 19  1  0
 19 20  1  0
 14 21  1  0
 10  4  2  0
 21 11  1  0
 20 15  1  0
  3 22  1  0
  5 23  1  0
  6 24  1  0
  9 25  1  0
 10 26  1  0
 15 27  1  0
 16 28  1  0
 16 29  1  0
 17 30  1  0
 17 31  1  0
 18 32  1  0
 18 33  1  0
 19 34  1  0
 19 35  1  0
 20 36  1  0
 20 37  1  0
 21 38  1  0
M  END
>  <meeko>  (97) 
{"is_sidechain": false}

$$$$

     RDKit          3D

 38 40  0  0  0  0  0  0  0  0999 V2000
    6.6560    1.0540  -56.4480 O   0  0  0  0  0  0  0  0  0  0  0  0
    7.7870    1.5120  -56.3170 C   0  0  0  0  0  0  0  0  0  0  0  0
    8.7480    1.0690  -55.4200 N   0  0  0  0  0  0  0  0  0  0  0  0
    8.6570    0.0260  -54.4830 C   0  0  0  0  0  0  0  0  0  0  0  0
    7.7380    0.0010  -53.4300 C   0  0  0  0  0  0  0  0  0  0  0  0
    7.7130   -1.0760  -52.5390 C   0  0  0  0  0  0  0  0  0  0  0  0
    8.6070   -2.1260  -52.7030 C   0  0  0  0  0  0  0  0  0  0  0  0
    8.5820   -3.1560  -51.8480 F   0  0  0  0  0  0  0  0  0  0  0  0
    9.5280   -2.1200  -53.7410 C   0  0  0  0  0  0  0  0  0  0  0  0
    9.5520   -1.0440  -54.6320 C   0  0  0  0  0  0  0  0  0  0  0  0
    8.3010    2.6420  -57.1260 C   0  0  0  0  0  0  0  0  0  0  0  0
    7.5400    3.4620  -57.8710 N   0  0  0  0  0  0  0  0  0  0  0  0
    8.4480    4.2950  -58.3950 N   0  0  0  0  0  0  0  0  0  0  0  0
    9.7140    3.9910  -57.9800 C   0  0  0  0  0  0  0  0  0  0  0  0
   10.9350    4.7470  -58.3990 C   0  0  0  0  0  0  0  0  0  0  0  0
   10.8010    5.3210  -59.8130 C   0  0  0  0  0  0  0  0  0  0  0  0
   11.9870    6.2200  -60.1750 C   0  0  0  0  0  0  0  0  0  0  0  0
   13.2930    5.8170  -59.4890 C   0  0  0  0  0  0  0  0  0  0  0  0
   13.3410    4.3260  -59.1900 C   0  0  0  0  0  0  0  0  0  0  0  0
   12.2070    3.8900  -58.2580 C   0  0  0  0  0  0  0  0  0  0  0  0
    9.6570    2.9500  -57.1760 N   0  0  0  0  0  0  0  0  0  0  0  0
    9.6230    1.5850  -55.4710 H   0  0  0  0  0  0  0  0  0  0  0  0
    7.0305    0.8335  -53.3017 H   0  0  0  0  0  0  0  0  0  0  0  0
    6.9883   -1.0917  -51.7116 H   0  0  0  0  0  0  0  0  0  0  0  0
   10.2333   -2.9555  -53.8613 H   0  0  0  0  0  0  0  0  0  0  0  0
   10.2790   -1.0358  -55.4575 H   0  0  0  0  0  0  0  0  0  0  0  0
    8.1390    5.0350  -59.0170 H   0  0  0  0  0  0  0  0  0  0  0  0
   11.0318    5.6016  -57.7132 H   0  0  0  0  0  0  0  0  0  0  0  0
   10.7515    4.4898  -60.5318 H   0  0  0  0  0  0  0  0  0  0  0  0
    9.8857    5.9299  -59.8502 H   0  0  0  0  0  0  0  0  0  0  0  0
   12.1378    6.1750  -61.2637 H   0  0  0  0  0  0  0  0  0  0  0  0
   11.7403    7.2343  -59.8282 H   0  0  0  0  0  0  0  0  0  0  0  0
   14.1350    6.0747  -60.1482 H   0  0  0  0  0  0  0  0  0  0  0  0
   13.3569    6.3582  -58.5335 H   0  0  0  0  0  0  0  0  0  0  0  0
   13.2560    3.7713  -60.1361 H   0  0  0  0  0  0  0  0  0  0  0  0
   14.2953    4.1114  -58.6867 H   0  0  0  0  0  0  0  0  0  0  0  0
   11.9504    2.8450  -58.4864 H   0  0  0  0  0  0  0  0  0  0  0  0
   12.5689    4.0136  -57.2266 H   0  0  0  0  0  0  0  0  0  0  0  0
  1  2  2  0
  2  3  1  0
  3  4  1  0
  4  5  1  0
  5  6  2  0
  6  7  1  0
  7  8  1  0
  7  9  2  0
  9 10  1  0
  2 11  1  0
 11 12  2  0
 12 13  1  0
 13 14  1  0
 14 15  1  0
 15 16  1  0
 16 17  1  0
 17 18  1  0
 18 19  1  0
 19 20  1  0
 14 21  2  0
 10  4  2  0
 21 11  1  0
 20 15  1  0
  3 22  1  0
  5 23  1  0
  6 24  1  0
  9 25  1  0
 10 26  1  0
 13 27  1  0
 15 28  1  0
 16 29  1  0
 16 30  1  0
 17 31  1  0
 17 32  1  0
 18 33  1  0
 18 34  1  0
 19 35  1  0
 19 36  1  0
 20 37  1  0
 20 38  1  0
M  END
>  <meeko>  (98) 
{"is_sidechain": false}

$$$$

     RDKit          3D

 41 43  0  0  0  0  0  0  0  0999 V2000
   10.9080    5.3220  -59.8320 C   0  0  0  0  0  0  0  0  0  0  0  0
   10.2950    4.3880  -58.8320 C   0  0  0  0  0  0  0  0  0  0  0  0
    9.5260    4.8860  -57.7750 C   0  0  0  0  0  0  0  0  0  0  0  0
    8.9790    4.0210  -56.8200 C   0  0  0  0  0  0  0  0  0  0  0  0
    9.2050    2.6480  -56.8950 C   0  0  0  0  0  0  0  0  0  0  0  0
    8.6810    1.7070  -55.9830 N   0  0  0  0  0  0  0  0  0  0  0  0
    7.4200    1.1220  -56.0010 C   0  0  0  0  0  0  0  0  0  0  0  0
    6.5220    1.4140  -56.7830 O   0  0  0  0  0  0  0  0  0  0  0  0
    7.2600    0.1110  -54.9770 C   0  0  0  0  0  0  0  0  0  0  0  0
    8.2340   -0.4530  -54.2870 N   0  0  0  0  0  0  0  0  0  0  0  0
    7.5790   -1.3270  -53.4580 C   0  0  0  0  0  0  0  0  0  0  0  0
    8.2970   -2.2080  -52.4820 C   0  0  0  0  0  0  0  0  0  0  0  0
    7.8280   -1.9210  -51.0410 C   0  0  0  0  0  0  0  0  0  0  0  0
    8.0960   -3.1030  -50.1180 C   0  0  0  0  0  0  0  0  0  0  0  0
    7.3350   -4.3530  -50.5640 C   0  0  0  0  0  0  0  0  0  0  0  0
    7.0870   -4.4130  -52.0720 C   0  0  0  0  0  0  0  0  0  0  0  0
    8.1820   -3.7000  -52.8590 C   0  0  0  0  0  0  0  0  0  0  0  0
    6.2480   -1.3380  -53.6000 N   0  0  0  0  0  0  0  0  0  0  0  0
    6.0710   -0.3920  -54.5350 N   0  0  0  0  0  0  0  0  0  0  0  0
    9.9840    2.1510  -57.9480 C   0  0  0  0  0  0  0  0  0  0  0  0
   10.5300    3.0130  -58.9030 C   0  0  0  0  0  0  0  0  0  0  0  0
   11.4374    6.1287  -59.3038 H   0  0  0  0  0  0  0  0  0  0  0  0
   11.6190    4.7685  -60.4629 H   0  0  0  0  0  0  0  0  0  0  0  0
   10.1173    5.7541  -60.4629 H   0  0  0  0  0  0  0  0  0  0  0  0
    9.3493    5.9686  -57.6934 H   0  0  0  0  0  0  0  0  0  0  0  0
    8.3654    4.4287  -56.0031 H   0  0  0  0  0  0  0  0  0  0  0  0
    9.2480    1.5380  -55.1620 H   0  0  0  0  0  0  0  0  0  0  0  0
    9.3692   -1.9672  -52.5301 H   0  0  0  0  0  0  0  0  0  0  0  0
    8.3660   -1.0408  -50.6592 H   0  0  0  0  0  0  0  0  0  0  0  0
    6.7432   -1.7399  -51.0619 H   0  0  0  0  0  0  0  0  0  0  0  0
    9.1741   -3.3215  -50.1224 H   0  0  0  0  0  0  0  0  0  0  0  0
    7.7524   -2.8344  -49.1082 H   0  0  0  0  0  0  0  0  0  0  0  0
    7.9189   -5.2383  -50.2721 H   0  0  0  0  0  0  0  0  0  0  0  0
    6.3497   -4.3223  -50.0759 H   0  0  0  0  0  0  0  0  0  0  0  0
    7.0535   -5.4670  -52.3849 H   0  0  0  0  0  0  0  0  0  0  0  0
    6.1333   -3.9061  -52.2803 H   0  0  0  0  0  0  0  0  0  0  0  0
    9.1438   -4.1922  -52.6525 H   0  0  0  0  0  0  0  0  0  0  0  0
    7.9219   -3.7584  -53.9262 H   0  0  0  0  0  0  0  0  0  0  0  0
    5.1310   -0.1340  -54.8120 H   0  0  0  0  0  0  0  0  0  0  0  0
   10.1681    1.0692  -58.0241 H   0  0  0  0  0  0  0  0  0  0  0  0
   11.1490    2.6058  -59.7161 H   0  0  0  0  0  0  0  0  0  0  0  0
  1  2  1  0
  2  3  1  0
  3  4  2  0
  4  5  1  0
  5  6  1  0
  6  7  1  0
  7  8  2  0
  7  9  1  0
  9 10  2  0
 10 11  1  0
 11 12  1  0
 12 13  1  0
 13 14  1  0
 14 15  1  0
 15 16  1  0
 16 17  1  0
 11 18  2  0
 18 19  1  0
  5 20  2  0
 20 21  1  0
 21  2  2  0
 19  9  1  0
 17 12  1  0
  1 22  1  0
  1 23  1  0
  1 24  1  0
  3 25  1  0
  4 26  1  0
  6 27  1  0
 12 28  1  0
 13 29  1  0
 13 30  1  0
 14 31  1  0
 14 32  1  0
 15 33  1  0
 15 34  1  0
 16 35  1  0
 16 36  1  0
 17 37  1  0
 17 38  1  0
 19 39  1  0
 20 40  1  0
 21 41  1  0
M  END
>  <meeko>  (99) 
{"is_sidechain": false}

$$$$

     RDKit          3D

 41 43  0  0  0  0  0  0  0  0999 V2000
    8.3010   -3.2090  -50.9400 C   0  0  0  0  0  0  0  0  0  0  0  0
    8.3740   -2.1400  -51.9900 C   0  0  0  0  0  0  0  0  0  0  0  0
    9.3820   -2.1600  -52.9560 C   0  0  0  0  0  0  0  0  0  0  0  0
    9.4280   -1.1800  -53.9520 C   0  0  0  0  0  0  0  0  0  0  0  0
    8.4610   -0.1690  -54.0060 C   0  0  0  0  0  0  0  0  0  0  0  0
    8.5820    0.7780  -55.0390 N   0  0  0  0  0  0  0  0  0  0  0  0
    7.6560    1.1220  -56.0030 C   0  0  0  0  0  0  0  0  0  0  0  0
    6.5310    0.6510  -56.1350 O   0  0  0  0  0  0  0  0  0  0  0  0
    8.1470    2.1440  -56.8980 C   0  0  0  0  0  0  0  0  0  0  0  0
    7.4290    2.7730  -57.8090 N   0  0  0  0  0  0  0  0  0  0  0  0
    8.2540    3.6670  -58.4500 N   0  0  0  0  0  0  0  0  0  0  0  0
    9.4590    3.5680  -57.9230 C   0  0  0  0  0  0  0  0  0  0  0  0
   10.6750    4.3470  -58.3060 C   0  0  0  0  0  0  0  0  0  0  0  0
   10.5150    5.0320  -59.6670 C   0  0  0  0  0  0  0  0  0  0  0  0
   11.7000    5.9490  -59.9840 C   0  0  0  0  0  0  0  0  0  0  0  0
   13.0180    5.4850  -59.3600 C   0  0  0  0  0  0  0  0  0  0  0  0
   13.0600    3.9740  -59.1800 C   0  0  0  0  0  0  0  0  0  0  0  0
   11.9430    3.4740  -58.2610 C   0  0  0  0  0  0  0  0  0  0  0  0
    9.4280    2.6160  -56.9390 N   0  0  0  0  0  0  0  0  0  0  0  0
    7.4460   -0.1560  -53.0500 C   0  0  0  0  0  0  0  0  0  0  0  0
    7.4000   -1.1390  -52.0530 C   0  0  0  0  0  0  0  0  0  0  0  0
    8.3326   -2.7461  -49.9426 H   0  0  0  0  0  0  0  0  0  0  0  0
    7.3624   -3.7712  -51.0537 H   0  0  0  0  0  0  0  0  0  0  0  0
    9.1545   -3.8936  -51.0537 H   0  0  0  0  0  0  0  0  0  0  0  0
   10.1450   -2.9521  -52.9332 H   0  0  0  0  0  0  0  0  0  0  0  0
   10.2328   -1.2035  -54.7015 H   0  0  0  0  0  0  0  0  0  0  0  0
    9.4600    1.2870  -55.1000 H   0  0  0  0  0  0  0  0  0  0  0  0
   10.7931    5.1438  -57.5569 H   0  0  0  0  0  0  0  0  0  0  0  0
   10.4427    4.2605  -60.4478 H   0  0  0  0  0  0  0  0  0  0  0  0
    9.6043    5.6482  -59.6351 H   0  0  0  0  0  0  0  0  0  0  0  0
   11.8270    5.9881  -61.0759 H   0  0  0  0  0  0  0  0  0  0  0  0
   11.4690    6.9348  -59.5540 H   0  0  0  0  0  0  0  0  0  0  0  0
   13.8479    5.7883  -60.0152 H   0  0  0  0  0  0  0  0  0  0  0  0
   13.1069    5.9492  -58.3667 H   0  0  0  0  0  0  0  0  0  0  0  0
   12.9502    3.4960  -60.1646 H   0  0  0  0  0  0  0  0  0  0  0  0
   14.0230    3.7141  -58.7162 H   0  0  0  0  0  0  0  0  0  0  0  0
   11.6732    2.4518  -58.5649 H   0  0  0  0  0  0  0  0  0  0  0  0
   12.3280    3.5146  -57.2314 H   0  0  0  0  0  0  0  0  0  0  0  0
   10.1880    2.3080  -56.3470 H   0  0  0  0  0  0  0  0  0  0  0  0
    6.6773    0.6303  -53.0789 H   0  0  0  0  0  0  0  0  0  0  0  0
    6.5881   -1.1231  -51.3110 H   0  0  0  0  0  0  0  0  0  0  0  0
  1  2  1  0
  2  3  1  0
  3  4  2  0
  4  5  1  0
  5  6  1  0
  6  7  1  0
  7  8  2  0
  7  9  1  0
  9 10  2  0
 10 11  1  0
 11 12  2  0
 12 13  1  0
 13 14  1  0
 14 15  1  0
 15 16  1  0
 16 17  1  0
 17 18  1  0
 12 19  1  0
  5 20  2  0
 20 21  1  0
 21  2  2  0
 19  9  1  0
 18 13  1  0
  1 22  1  0
  1 23  1  0
  1 24  1  0
  3 25  1  0
  4 26  1  0
  6 27  1  0
 13 28  1  0
 14 29  1  0
 14 30  1  0
 15 31  1  0
 15 32  1  0
 16 33  1  0
 16 34  1  0
 17 35  1  0
 17 36  1  0
 18 37  1  0
 18 38  1  0
 19 39  1  0
 20 40  1  0
 21 41  1  0
M  END
>  <meeko>  (100) 
{"is_sidechain": false}

$$$$

     RDKit          3D

 41 43  0  0  0  0  0  0  0  0999 V2000
   10.9300    5.4180  -59.6710 C   0  0  0  0  0  0  0  0  0  0  0  0
   10.2870    4.4360  -58.7380 C   0  0  0  0  0  0  0  0  0  0  0  0
   10.5430    3.0660  -58.8590 C   0  0  0  0  0  0  0  0  0  0  0  0
    9.9650    2.1580  -57.9670 C   0  0  0  0  0  0  0  0  0  0  0  0
    9.1310    2.6000  -56.9340 C   0  0  0  0  0  0  0  0  0  0  0  0
    8.5910    1.6230  -56.0820 N   0  0  0  0  0  0  0  0  0  0  0  0
    7.2950    1.1330  -56.0360 C   0  0  0  0  0  0  0  0  0  0  0  0
    6.3650    1.4810  -56.7560 O   0  0  0  0  0  0  0  0  0  0  0  0
    7.1430    0.1000  -54.9810 C   0  0  0  0  0  0  0  0  0  0  0  0
    5.9330   -0.3420  -54.5690 N   0  0  0  0  0  0  0  0  0  0  0  0
    6.2740   -1.2410  -53.6300 N   0  0  0  0  0  0  0  0  0  0  0  0
    7.6290   -1.3350  -53.4860 C   0  0  0  0  0  0  0  0  0  0  0  0
    8.3140   -2.2510  -52.5190 C   0  0  0  0  0  0  0  0  0  0  0  0
    8.1540   -3.7340  -52.9080 C   0  0  0  0  0  0  0  0  0  0  0  0
    7.1020   -4.4490  -52.0670 C   0  0  0  0  0  0  0  0  0  0  0  0
    7.4270   -4.3960  -50.5730 C   0  0  0  0  0  0  0  0  0  0  0  0
    8.1790   -3.1320  -50.1520 C   0  0  0  0  0  0  0  0  0  0  0  0
    7.8720   -1.9580  -51.0730 C   0  0  0  0  0  0  0  0  0  0  0  0
    8.1990   -0.4990  -54.3250 N   0  0  0  0  0  0  0  0  0  0  0  0
    8.8870    3.9670  -56.8050 C   0  0  0  0  0  0  0  0  0  0  0  0
    9.4650    4.8790  -57.6980 C   0  0  0  0  0  0  0  0  0  0  0  0
   11.4407    6.1980  -59.0873 H   0  0  0  0  0  0  0  0  0  0  0  0
   11.6619    4.8962  -60.3051 H   0  0  0  0  0  0  0  0  0  0  0  0
   10.1591    5.8802  -60.3051 H   0  0  0  0  0  0  0  0  0  0  0  0
   11.2026    2.7013  -59.6602 H   0  0  0  0  0  0  0  0  0  0  0  0
   10.1683    1.0827  -58.0785 H   0  0  0  0  0  0  0  0  0  0  0  0
    9.2090    1.1980  -55.3960 H   0  0  0  0  0  0  0  0  0  0  0  0
    5.5480   -1.7460  -53.1360 H   0  0  0  0  0  0  0  0  0  0  0  0
    9.3937   -2.0470  -52.5710 H   0  0  0  0  0  0  0  0  0  0  0  0
    7.8581   -3.7911  -53.9659 H   0  0  0  0  0  0  0  0  0  0  0  0
    9.1186   -4.2318  -52.7299 H   0  0  0  0  0  0  0  0  0  0  0  0
    6.1268   -3.9687  -52.2352 H   0  0  0  0  0  0  0  0  0  0  0  0
    7.0843   -5.5055  -52.3728 H   0  0  0  0  0  0  0  0  0  0  0  0
    6.4829   -4.4421  -50.0103 H   0  0  0  0  0  0  0  0  0  0  0  0
    8.0864   -5.2495  -50.3568 H   0  0  0  0  0  0  0  0  0  0  0  0
    7.8832   -2.8667  -49.1263 H   0  0  0  0  0  0  0  0  0  0  0  0
    9.2575   -3.3401  -50.2111 H   0  0  0  0  0  0  0  0  0  0  0  0
    6.7888   -1.7669  -51.0611 H   0  0  0  0  0  0  0  0  0  0  0  0
    8.4261   -1.0791  -50.7118 H   0  0  0  0  0  0  0  0  0  0  0  0
    8.2363    4.3318  -55.9966 H   0  0  0  0  0  0  0  0  0  0  0  0
    9.2698    5.9550  -57.5793 H   0  0  0  0  0  0  0  0  0  0  0  0
  1  2  1  0
  2  3  1  0
  3  4  2  0
  4  5  1  0
  5  6  1  0
  6  7  1  0
  7  8  2  0
  7  9  1  0
  9 10  2  0
 10 11  1  0
 11 12  1  0
 12 13  1  0
 13 14  1  0
 14 15  1  0
 15 16  1  0
 16 17  1  0
 17 18  1  0
 12 19  2  0
  5 20  2  0
 20 21  1  0
 21  2  2  0
 19  9  1  0
 18 13  1  0
  1 22  1  0
  1 23  1  0
  1 24  1  0
  3 25  1  0
  4 26  1  0
  6 27  1  0
 11 28  1  0
 13 29  1  0
 14 30  1  0
 14 31  1  0
 15 32  1  0
 15 33  1  0
 16 34  1  0
 16 35  1  0
 17 36  1  0
 17 37  1  0
 18 38  1  0
 18 39  1  0
 20 40  1  0
 21 41  1  0
M  END
>  <meeko>  (101) 
{"is_sidechain": false}

$$$$

     RDKit          3D

 42 44  0  0  0  0  0  0  0  0999 V2000
   11.4520    5.7210  -59.7900 C   0  0  0  0  0  0  0  0  0  0  0  0
   12.0370    5.2610  -58.5790 O   0  0  0  0  0  0  0  0  0  0  0  0
   11.3410    4.3180  -57.8730 C   0  0  0  0  0  0  0  0  0  0  0  0
   11.7240    2.9950  -57.6720 C   0  0  0  0  0  0  0  0  0  0  0  0
   10.9110    2.1340  -56.9240 C   0  0  0  0  0  0  0  0  0  0  0  0
    9.7070    2.5830  -56.3680 C   0  0  0  0  0  0  0  0  0  0  0  0
    8.9540    1.6530  -55.6320 N   0  0  0  0  0  0  0  0  0  0  0  0
    7.7340    1.0890  -55.9510 C   0  0  0  0  0  0  0  0  0  0  0  0
    7.0700    1.3040  -56.9580 O   0  0  0  0  0  0  0  0  0  0  0  0
    7.2830    0.1710  -54.9310 C   0  0  0  0  0  0  0  0  0  0  0  0
    8.0410   -0.6780  -54.2590 N   0  0  0  0  0  0  0  0  0  0  0  0
    7.1430   -1.3030  -53.4280 C   0  0  0  0  0  0  0  0  0  0  0  0
    7.5640   -2.3700  -52.4670 C   0  0  0  0  0  0  0  0  0  0  0  0
    7.7270   -1.8410  -51.0370 C   0  0  0  0  0  0  0  0  0  0  0  0
    8.3130   -2.9020  -50.1000 C   0  0  0  0  0  0  0  0  0  0  0  0
    7.9440   -4.3340  -50.4890 C   0  0  0  0  0  0  0  0  0  0  0  0
    6.6060   -4.3990  -51.2120 C   0  0  0  0  0  0  0  0  0  0  0  0
    6.6140   -3.5830  -52.5070 C   0  0  0  0  0  0  0  0  0  0  0  0
    5.8760   -0.8860  -53.5560 N   0  0  0  0  0  0  0  0  0  0  0  0
    5.9930    0.0490  -54.5130 N   0  0  0  0  0  0  0  0  0  0  0  0
    9.3280    3.9080  -56.5720 C   0  0  0  0  0  0  0  0  0  0  0  0
   10.1420    4.7670  -57.3210 C   0  0  0  0  0  0  0  0  0  0  0  0
   10.6065    6.3858  -59.5594 H   0  0  0  0  0  0  0  0  0  0  0  0
   12.2035    6.2726  -60.3739 H   0  0  0  0  0  0  0  0  0  0  0  0
   11.0932    4.8606  -60.3739 H   0  0  0  0  0  0  0  0  0  0  0  0
   12.6668    2.6250  -58.1013 H   0  0  0  0  0  0  0  0  0  0  0  0
   11.2228    1.0903  -56.7712 H   0  0  0  0  0  0  0  0  0  0  0  0
    9.3360    1.3360  -54.7450 H   0  0  0  0  0  0  0  0  0  0  0  0
    8.5563   -2.7098  -52.7985 H   0  0  0  0  0  0  0  0  0  0  0  0
    8.3996   -0.9707  -51.0540 H   0  0  0  0  0  0  0  0  0  0  0  0
    6.7314   -1.5646  -50.6596 H   0  0  0  0  0  0  0  0  0  0  0  0
    9.4091   -2.8098  -50.1126 H   0  0  0  0  0  0  0  0  0  0  0  0
    7.8890   -2.7198  -49.1015 H   0  0  0  0  0  0  0  0  0  0  0  0
    8.7257   -4.7354  -51.1507 H   0  0  0  0  0  0  0  0  0  0  0  0
    7.8621   -4.9275  -49.5665 H   0  0  0  0  0  0  0  0  0  0  0  0
    6.3842   -5.4487  -51.4550 H   0  0  0  0  0  0  0  0  0  0  0  0
    5.8395   -3.9740  -50.5473 H   0  0  0  0  0  0  0  0  0  0  0  0
    6.9258   -4.2417  -53.3310 H   0  0  0  0  0  0  0  0  0  0  0  0
    5.5960   -3.1905  -52.6469 H   0  0  0  0  0  0  0  0  0  0  0  0
    5.1790    0.5590  -54.8350 H   0  0  0  0  0  0  0  0  0  0  0  0
    8.3861    4.2808  -56.1433 H   0  0  0  0  0  0  0  0  0  0  0  0
    9.8310    5.8107  -57.4760 H   0  0  0  0  0  0  0  0  0  0  0  0
  1  2  1  0
  2  3  1  0
  3  4  1  0
  4  5  2  0
  5  6  1  0
  6  7  1  0
  7  8  1  0
  8  9  2  0
  8 10  1  0
 10 11  2  0
 11 12  1  0
 12 13  1  0
 13 14  1  0
 14 15  1  0
 15 16  1  0
 16 17  1  0
 17 18  1  0
 12 19  2  0
 19 20  1  0
  6 21  2  0
 21 22  1  0
 22  3  2  0
 20 10  1  0
 18 13  1  0
  1 23  1  0
  1 24  1  0
  1 25  1  0
  4 26  1  0
  5 27  1  0
  7 28  1  0
 13 29  1  0
 14 30  1  0
 14 31  1  0
 15 32  1  0
 15 33  1  0
 16 34  1  0
 16 35  1  0
 17 36  1  0
 17 37  1  0
 18 38  1  0
 18 39  1  0
 20 40  1  0
 21 41  1  0
 22 42  1  0
M  END
>  <meeko>  (102) 
{"is_sidechain": false}

$$$$

     RDKit          3D

 42 44  0  0  0  0  0  0  0  0999 V2000
   13.2550    4.7000  -59.0230 C   0  0  0  0  0  0  0  0  0  0  0  0
   11.9540    5.1830  -58.7110 O   0  0  0  0  0  0  0  0  0  0  0  0
   11.1590    4.3750  -57.9480 C   0  0  0  0  0  0  0  0  0  0  0  0
   10.0310    4.7690  -57.2330 C   0  0  0  0  0  0  0  0  0  0  0  0
    9.3060    3.8290  -56.4880 C   0  0  0  0  0  0  0  0  0  0  0  0
    9.6960    2.4840  -56.4490 C   0  0  0  0  0  0  0  0  0  0  0  0
    8.9180    1.6100  -55.6620 N   0  0  0  0  0  0  0  0  0  0  0  0
    7.6700    1.0790  -55.9700 C   0  0  0  0  0  0  0  0  0  0  0  0
    7.0090    1.3740  -56.9600 O   0  0  0  0  0  0  0  0  0  0  0  0
    7.2160    0.1190  -54.9840 C   0  0  0  0  0  0  0  0  0  0  0  0
    5.9540   -0.1290  -54.6960 N   0  0  0  0  0  0  0  0  0  0  0  0
    5.9200   -1.0890  -53.7100 N   0  0  0  0  0  0  0  0  0  0  0  0
    7.1570   -1.4420  -53.4370 C   0  0  0  0  0  0  0  0  0  0  0  0
    7.6000   -2.4780  -52.4550 C   0  0  0  0  0  0  0  0  0  0  0  0
    6.6620   -3.7000  -52.4600 C   0  0  0  0  0  0  0  0  0  0  0  0
    6.6660   -4.4760  -51.1400 C   0  0  0  0  0  0  0  0  0  0  0  0
    8.0060   -4.3760  -50.4240 C   0  0  0  0  0  0  0  0  0  0  0  0
    8.3620   -2.9290  -50.0780 C   0  0  0  0  0  0  0  0  0  0  0  0
    7.7630   -1.9030  -51.0450 C   0  0  0  0  0  0  0  0  0  0  0  0
    8.0040   -0.7010  -54.2180 N   0  0  0  0  0  0  0  0  0  0  0  0
   10.8280    2.0970  -57.1630 C   0  0  0  0  0  0  0  0  0  0  0  0
   11.5510    3.0370  -57.9060 C   0  0  0  0  0  0  0  0  0  0  0  0
   13.8036    4.4963  -58.0916 H   0  0  0  0  0  0  0  0  0  0  0  0
   13.1712    3.7731  -59.6093 H   0  0  0  0  0  0  0  0  0  0  0  0
   13.7963    5.4571  -59.6093 H   0  0  0  0  0  0  0  0  0  0  0  0
    9.7082    5.8204  -57.2529 H   0  0  0  0  0  0  0  0  0  0  0  0
    8.4176    4.1521  -55.9256 H   0  0  0  0  0  0  0  0  0  0  0  0
    9.2480    1.4600  -54.7180 H   0  0  0  0  0  0  0  0  0  0  0  0
    8.5938   -2.8206  -52.7790 H   0  0  0  0  0  0  0  0  0  0  0  0
    5.6372   -3.3520  -52.6566 H   0  0  0  0  0  0  0  0  0  0  0  0
    7.0257   -4.3850  -53.2401 H   0  0  0  0  0  0  0  0  0  0  0  0
    5.8821   -4.0674  -50.4854 H   0  0  0  0  0  0  0  0  0  0  0  0
    6.4809   -5.5360  -51.3683 H   0  0  0  0  0  0  0  0  0  0  0  0
    7.9570   -4.9621  -49.4944 H   0  0  0  0  0  0  0  0  0  0  0  0
    8.7826   -4.7659  -51.0985 H   0  0  0  0  0  0  0  0  0  0  0  0
    7.9900   -2.7117  -49.0659 H   0  0  0  0  0  0  0  0  0  0  0  0
    9.4560   -2.8397  -50.1493 H   0  0  0  0  0  0  0  0  0  0  0  0
    6.7760   -1.5943  -50.6701 H   0  0  0  0  0  0  0  0  0  0  0  0
    8.4499   -1.0458  -51.1026 H   0  0  0  0  0  0  0  0  0  0  0  0
    9.0080   -0.7800  -54.2660 H   0  0  0  0  0  0  0  0  0  0  0  0
   11.1552    1.0470  -57.1426 H   0  0  0  0  0  0  0  0  0  0  0  0
   12.4420    2.7158  -58.4654 H   0  0  0  0  0  0  0  0  0  0  0  0
  1  2  1  0
  2  3  1  0
  3  4  1  0
  4  5  2  0
  5  6  1  0
  6  7  1  0
  7  8  1  0
  8  9  2  0
  8 10  1  0
 10 11  2  0
 11 12  1  0
 12 13  2  0
 13 14  1  0
 14 15  1  0
 15 16  1  0
 16 17  1  0
 17 18  1  0
 18 19  1  0
 13 20  1  0
  6 21  2  0
 21 22  1  0
 22  3  2  0
 20 10  1  0
 19 14  1  0
  1 23  1  0
  1 24  1  0
  1 25  1  0
  4 26  1  0
  5 27  1  0
  7 28  1  0
 14 29  1  0
 15 30  1  0
 15 31  1  0
 16 32  1  0
 16 33  1  0
 17 34  1  0
 17 35  1  0
 18 36  1  0
 18 37  1  0
 19 38  1  0
 19 39  1  0
 20 40  1  0
 21 41  1  0
 22 42  1  0
M  END
>  <meeko>  (103) 
{"is_sidechain": false}

$$$$

     RDKit          3D

 42 44  0  0  0  0  0  0  0  0999 V2000
    8.1300   -2.9580  -50.0960 C   0  0  0  0  0  0  0  0  0  0  0  0
    8.0170   -3.2690  -51.4800 O   0  0  0  0  0  0  0  0  0  0  0  0
    8.1160   -2.2240  -52.3550 C   0  0  0  0  0  0  0  0  0  0  0  0
    9.0120   -2.4230  -53.4060 C   0  0  0  0  0  0  0  0  0  0  0  0
    9.2090   -1.4310  -54.3730 C   0  0  0  0  0  0  0  0  0  0  0  0
    8.5100   -0.2220  -54.3020 C   0  0  0  0  0  0  0  0  0  0  0  0
    8.7620    0.7240  -55.3090 N   0  0  0  0  0  0  0  0  0  0  0  0
    7.8610    1.3340  -56.1690 C   0  0  0  0  0  0  0  0  0  0  0  0
    6.6490    1.1470  -56.1970 O   0  0  0  0  0  0  0  0  0  0  0  0
    8.5440    2.2770  -57.0890 C   0  0  0  0  0  0  0  0  0  0  0  0
    8.0400    3.4990  -57.3810 N   0  0  0  0  0  0  0  0  0  0  0  0
    8.9650    3.9830  -58.2260 N   0  0  0  0  0  0  0  0  0  0  0  0
    9.9790    3.0930  -58.4310 C   0  0  0  0  0  0  0  0  0  0  0  0
   11.1430    3.3690  -59.3300 C   0  0  0  0  0  0  0  0  0  0  0  0
   10.8540    4.5570  -60.2690 C   0  0  0  0  0  0  0  0  0  0  0  0
   11.4230    5.8680  -59.7360 C   0  0  0  0  0  0  0  0  0  0  0  0
   12.9410    5.8000  -59.5580 C   0  0  0  0  0  0  0  0  0  0  0  0
   13.4580    4.3960  -59.2430 C   0  0  0  0  0  0  0  0  0  0  0  0
   12.4230    3.5680  -58.4950 C   0  0  0  0  0  0  0  0  0  0  0  0
    9.7380    2.0090  -57.7280 N   0  0  0  0  0  0  0  0  0  0  0  0
    7.6160   -0.0250  -53.2500 C   0  0  0  0  0  0  0  0  0  0  0  0
    7.4190   -1.0190  -52.2810 C   0  0  0  0  0  0  0  0  0  0  0  0
    7.8147   -3.8259  -49.4982 H   0  0  0  0  0  0  0  0  0  0  0  0
    9.1755   -2.7106  -49.8600 H   0  0  0  0  0  0  0  0  0  0  0  0
    7.4872   -2.0971  -49.8600 H   0  0  0  0  0  0  0  0  0  0  0  0
    9.5690   -3.3691  -53.4750 H   0  0  0  0  0  0  0  0  0  0  0  0
    9.9191   -1.6035  -55.1952 H   0  0  0  0  0  0  0  0  0  0  0  0
    9.7240    1.0200  -55.4530 H   0  0  0  0  0  0  0  0  0  0  0  0
    8.8460    4.9100  -58.6190 H   0  0  0  0  0  0  0  0  0  0  0  0
   11.3073    2.4971  -59.9802 H   0  0  0  0  0  0  0  0  0  0  0  0
   11.3041    4.3493  -61.2510 H   0  0  0  0  0  0  0  0  0  0  0  0
    9.7623    4.6695  -60.3431 H   0  0  0  0  0  0  0  0  0  0  0  0
   11.1838    6.6740  -60.4453 H   0  0  0  0  0  0  0  0  0  0  0  0
   10.9723    6.0600  -58.7511 H   0  0  0  0  0  0  0  0  0  0  0  0
   13.4160    6.1449  -60.4882 H   0  0  0  0  0  0  0  0  0  0  0  0
   13.1938    6.4374  -58.6979 H   0  0  0  0  0  0  0  0  0  0  0  0
   13.7064    3.8879  -60.1865 H   0  0  0  0  0  0  0  0  0  0  0  0
   14.3462    4.4943  -58.6016 H   0  0  0  0  0  0  0  0  0  0  0  0
   12.8542    2.5831  -58.2627 H   0  0  0  0  0  0  0  0  0  0  0  0
   12.1526    4.1060  -57.5745 H   0  0  0  0  0  0  0  0  0  0  0  0
    7.0591    0.9210  -53.1796 H   0  0  0  0  0  0  0  0  0  0  0  0
    6.7103   -0.8470  -51.4575 H   0  0  0  0  0  0  0  0  0  0  0  0
  1  2  1  0
  2  3  1  0
  3  4  1  0
  4  5  2  0
  5  6  1  0
  6  7  1  0
  7  8  1  0
  8  9  2  0
  8 10  1  0
 10 11  2  0
 11 12  1  0
 12 13  1  0
 13 14  1  0
 14 15  1  0
 15 16  1  0
 16 17  1  0
 17 18  1  0
 18 19  1  0
 13 20  2  0
  6 21  2  0
 21 22  1  0
 22  3  2  0
 20 10  1  0
 19 14  1  0
  1 23  1  0
  1 24  1  0
  1 25  1  0
  4 26  1  0
  5 27  1  0
  7 28  1  0
 12 29  1  0
 14 30  1  0
 15 31  1  0
 15 32  1  0
 16 33  1  0
 16 34  1  0
 17 35  1  0
 17 36  1  0
 18 37  1  0
 18 38  1  0
 19 39  1  0
 19 40  1  0
 21 41  1  0
 22 42  1  0
M  END
>  <meeko>  (104) 
{"is_sidechain": false}

$$$$

     RDKit          3D

 32 34  0  0  0  0  0  0  0  0999 V2000
    6.8560    3.0070  -57.2750 O   0  0  0  0  0  0  0  0  0  0  0  0
    7.7550    2.2540  -56.9150 C   0  0  0  0  0  0  0  0  0  0  0  0
    9.0770    2.3030  -57.3110 N   0  0  0  0  0  0  0  0  0  0  0  0
    9.6930    3.2040  -58.1970 C   0  0  0  0  0  0  0  0  0  0  0  0
    9.7540    3.0190  -59.5820 C   0  0  0  0  0  0  0  0  0  0  0  0
   10.3870    3.9650  -60.3930 C   0  0  0  0  0  0  0  0  0  0  0  0
   10.9590    5.0940  -59.8210 C   0  0  0  0  0  0  0  0  0  0  0  0
   11.5650    5.9980  -60.6000 F   0  0  0  0  0  0  0  0  0  0  0  0
   10.9100    5.2950  -58.4480 C   0  0  0  0  0  0  0  0  0  0  0  0
   10.2760    4.3500  -57.6370 C   0  0  0  0  0  0  0  0  0  0  0  0
    7.5090    1.1760  -55.9860 C   0  0  0  0  0  0  0  0  0  0  0  0
    8.4020    0.6180  -55.1920 N   0  0  0  0  0  0  0  0  0  0  0  0
    7.6760   -0.3460  -54.5170 C   0  0  0  0  0  0  0  0  0  0  0  0
    8.2830   -1.2210  -53.5160 C   0  0  0  0  0  0  0  0  0  0  0  0
    9.5920   -1.6990  -53.6770 C   0  0  0  0  0  0  0  0  0  0  0  0
   10.1680   -2.5370  -52.7160 C   0  0  0  0  0  0  0  0  0  0  0  0
    9.4400   -2.9050  -51.5860 C   0  0  0  0  0  0  0  0  0  0  0  0
    8.1380   -2.4380  -51.4140 C   0  0  0  0  0  0  0  0  0  0  0  0
    7.5630   -1.6000  -52.3740 C   0  0  0  0  0  0  0  0  0  0  0  0
    6.3800   -0.3920  -54.8710 N   0  0  0  0  0  0  0  0  0  0  0  0
    6.3050    0.5760  -55.7960 N   0  0  0  0  0  0  0  0  0  0  0  0
    9.6610    1.5830  -56.8930 H   0  0  0  0  0  0  0  0  0  0  0  0
    9.3016    2.1246  -60.0352 H   0  0  0  0  0  0  0  0  0  0  0  0
   10.4321    3.8157  -61.4819 H   0  0  0  0  0  0  0  0  0  0  0  0
   11.3666    6.1910  -58.0022 H   0  0  0  0  0  0  0  0  0  0  0  0
   10.2338    4.5065  -56.5490 H   0  0  0  0  0  0  0  0  0  0  0  0
   10.1711   -1.4123  -54.5672 H   0  0  0  0  0  0  0  0  0  0  0  0
   11.1955   -2.9054  -52.8523 H   0  0  0  0  0  0  0  0  0  0  0  0
    9.8927   -3.5637  -50.8302 H   0  0  0  0  0  0  0  0  0  0  0  0
    7.5628   -2.7289  -50.5227 H   0  0  0  0  0  0  0  0  0  0  0  0
    6.5353   -1.2343  -52.2320 H   0  0  0  0  0  0  0  0  0  0  0  0
    5.4230    0.7790  -56.2550 H   0  0  0  0  0  0  0  0  0  0  0  0
  1  2  2  0
  2  3  1  0
  3  4  1  0
  4  5  1  0
  5  6  2  0
  6  7  1  0
  7  8  1  0
  7  9  2  0
  9 10  1  0
  2 11  1  0
 11 12  2  0
 12 13  1  0
 13 14  1  0
 14 15  2  0
 15 16  1  0
 16 17  2  0
 17 18  1  0
 18 19  2  0
 13 20  2  0
 20 21  1  0
 10  4  2  0
 21 11  1  0
 19 14  1  0
  3 22  1  0
  5 23  1  0
  6 24  1  0
  9 25  1  0
 10 26  1  0
 15 27  1  0
 16 28  1  0
 17 29  1  0
 18 30  1  0
 19 31  1  0
 21 32  1  0
M  END
>  <meeko>  (105) 
{"is_sidechain": false}

$$$$

     RDKit          3D

 32 34  0  0  0  0  0  0  0  0999 V2000
    6.8850    3.1700  -57.3860 O   0  0  0  0  0  0  0  0  0  0  0  0
    7.7580    2.3930  -57.0150 C   0  0  0  0  0  0  0  0  0  0  0  0
    9.0870    2.4130  -57.3920 N   0  0  0  0  0  0  0  0  0  0  0  0
    9.7360    3.3020  -58.2660 C   0  0  0  0  0  0  0  0  0  0  0  0
    9.6770    3.2100  -59.6600 C   0  0  0  0  0  0  0  0  0  0  0  0
   10.3540    4.1380  -60.4570 C   0  0  0  0  0  0  0  0  0  0  0  0
   11.0860    5.1560  -59.8620 C   0  0  0  0  0  0  0  0  0  0  0  0
   11.7330    6.0440  -60.6280 F   0  0  0  0  0  0  0  0  0  0  0  0
   11.1560    5.2640  -58.4790 C   0  0  0  0  0  0  0  0  0  0  0  0
   10.4820    4.3370  -57.6820 C   0  0  0  0  0  0  0  0  0  0  0  0
    7.4630    1.3190  -56.0940 C   0  0  0  0  0  0  0  0  0  0  0  0
    6.2790    0.7700  -55.9190 N   0  0  0  0  0  0  0  0  0  0  0  0
    6.4170   -0.2100  -54.9630 N   0  0  0  0  0  0  0  0  0  0  0  0
    7.6800   -0.2480  -54.5670 C   0  0  0  0  0  0  0  0  0  0  0  0
    8.2580   -1.1440  -53.5630 C   0  0  0  0  0  0  0  0  0  0  0  0
    7.5280   -1.4300  -52.3990 C   0  0  0  0  0  0  0  0  0  0  0  0
    8.0420   -2.2790  -51.4170 C   0  0  0  0  0  0  0  0  0  0  0  0
    9.2980   -2.8570  -51.5840 C   0  0  0  0  0  0  0  0  0  0  0  0
   10.0370   -2.5840  -52.7310 C   0  0  0  0  0  0  0  0  0  0  0  0
    9.5220   -1.7330  -53.7160 C   0  0  0  0  0  0  0  0  0  0  0  0
    8.3640    0.7110  -55.2690 N   0  0  0  0  0  0  0  0  0  0  0  0
    9.6520    1.6780  -56.9710 H   0  0  0  0  0  0  0  0  0  0  0  0
    9.0955    2.4041  -60.1316 H   0  0  0  0  0  0  0  0  0  0  0  0
   10.3066    4.0614  -61.5533 H   0  0  0  0  0  0  0  0  0  0  0  0
   11.7382    6.0739  -58.0152 H   0  0  0  0  0  0  0  0  0  0  0  0
   10.5362    4.4187  -56.5864 H   0  0  0  0  0  0  0  0  0  0  0  0
    6.5351   -0.9781  -52.2581 H   0  0  0  0  0  0  0  0  0  0  0  0
    7.4549   -2.4914  -50.5114 H   0  0  0  0  0  0  0  0  0  0  0  0
    9.7044   -3.5269  -50.8120 H   0  0  0  0  0  0  0  0  0  0  0  0
   11.0297   -3.0387  -52.8642 H   0  0  0  0  0  0  0  0  0  0  0  0
   10.1144   -1.5240  -54.6190 H   0  0  0  0  0  0  0  0  0  0  0  0
    9.3430    0.9440  -55.2060 H   0  0  0  0  0  0  0  0  0  0  0  0
  1  2  2  0
  2  3  1  0
  3  4  1  0
  4  5  1  0
  5  6  2  0
  6  7  1  0
  7  8  1  0
  7  9  2  0
  9 10  1  0
  2 11  1  0
 11 12  2  0
 12 13  1  0
 13 14  2  0
 14 15  1  0
 15 16  2  0
 16 17  1  0
 17 18  2  0
 18 19  1  0
 19 20  2  0
 14 21  1  0
 10  4  2  0
 21 11  1  0
 20 15  1  0
  3 22  1  0
  5 23  1  0
  6 24  1  0
  9 25  1  0
 10 26  1  0
 16 27  1  0
 17 28  1  0
 18 29  1  0
 19 30  1  0
 20 31  1  0
 21 32  1  0
M  END
>  <meeko>  (106) 
{"is_sidechain": false}

$$$$

     RDKit          3D

 32 34  0  0  0  0  0  0  0  0999 V2000
    6.9630    3.3190  -57.1980 O   0  0  0  0  0  0  0  0  0  0  0  0
    7.7740    2.4350  -56.9400 C   0  0  0  0  0  0  0  0  0  0  0  0
    9.0720    2.3520  -57.4230 N   0  0  0  0  0  0  0  0  0  0  0  0
    9.7400    3.2310  -58.2920 C   0  0  0  0  0  0  0  0  0  0  0  0
    9.6960    3.1340  -59.6860 C   0  0  0  0  0  0  0  0  0  0  0  0
   10.3920    4.0520  -60.4800 C   0  0  0  0  0  0  0  0  0  0  0  0
   11.1280    5.0640  -59.8800 C   0  0  0  0  0  0  0  0  0  0  0  0
   11.7930    5.9420  -60.6420 F   0  0  0  0  0  0  0  0  0  0  0  0
   11.1840    5.1780  -58.4970 C   0  0  0  0  0  0  0  0  0  0  0  0
   10.4890    4.2610  -57.7040 C   0  0  0  0  0  0  0  0  0  0  0  0
    7.4690    1.2930  -56.0460 C   0  0  0  0  0  0  0  0  0  0  0  0
    6.2770    0.6820  -55.9640 N   0  0  0  0  0  0  0  0  0  0  0  0
    6.5080   -0.2590  -55.0400 N   0  0  0  0  0  0  0  0  0  0  0  0
    7.7930   -0.2260  -54.5710 C   0  0  0  0  0  0  0  0  0  0  0  0
    8.3490   -1.1250  -53.5580 C   0  0  0  0  0  0  0  0  0  0  0  0
    7.5870   -1.4260  -52.4170 C   0  0  0  0  0  0  0  0  0  0  0  0
    8.0780   -2.2780  -51.4260 C   0  0  0  0  0  0  0  0  0  0  0  0
    9.3410   -2.8460  -51.5600 C   0  0  0  0  0  0  0  0  0  0  0  0
   10.1130   -2.5610  -52.6840 C   0  0  0  0  0  0  0  0  0  0  0  0
    9.6210   -1.7060  -53.6770 C   0  0  0  0  0  0  0  0  0  0  0  0
    8.4250    0.7530  -55.1950 N   0  0  0  0  0  0  0  0  0  0  0  0
    9.5830    1.5400  -57.0880 H   0  0  0  0  0  0  0  0  0  0  0  0
    9.1115    2.3322  -60.1608 H   0  0  0  0  0  0  0  0  0  0  0  0
   10.3559    3.9718  -61.5765 H   0  0  0  0  0  0  0  0  0  0  0  0
   11.7703    5.9831  -58.0299 H   0  0  0  0  0  0  0  0  0  0  0  0
   10.5297    4.3477  -56.6082 H   0  0  0  0  0  0  0  0  0  0  0  0
    5.7530   -0.8830  -54.7800 H   0  0  0  0  0  0  0  0  0  0  0  0
    6.5867   -0.9830  -52.3024 H   0  0  0  0  0  0  0  0  0  0  0  0
    7.4663   -2.5002  -50.5392 H   0  0  0  0  0  0  0  0  0  0  0  0
    9.7289   -3.5183  -50.7805 H   0  0  0  0  0  0  0  0  0  0  0  0
   11.1119   -3.0091  -52.7914 H   0  0  0  0  0  0  0  0  0  0  0  0
   10.2383   -1.4869  -54.5607 H   0  0  0  0  0  0  0  0  0  0  0  0
  1  2  2  0
  2  3  1  0
  3  4  1  0
  4  5  1  0
  5  6  2  0
  6  7  1  0
  7  8  1  0
  7  9  2  0
  9 10  1  0
  2 11  1  0
 11 12  2  0
 12 13  1  0
 13 14  1  0
 14 15  1  0
 15 16  2  0
 16 17  1  0
 17 18  2  0
 18 19  1  0
 19 20  2  0
 14 21  2  0
 10  4  2  0
 21 11  1  0
 20 15  1  0
  3 22  1  0
  5 23  1  0
  6 24  1  0
  9 25  1  0
 10 26  1  0
 13 27  1  0
 16 28  1  0
 17 29  1  0
 18 30  1  0
 19 31  1  0
 20 32  1  0
M  END
>  <meeko>  (107) 
{"is_sidechain": false}

$$$$

     RDKit          3D

 38 40  0  0  0  0  0  0  0  0999 V2000
    7.5790    2.2960  -56.4610 O   0  0  0  0  0  0  0  0  0  0  0  0
    8.3880    1.4480  -56.1030 C   0  0  0  0  0  0  0  0  0  0  0  0
    9.6920    1.3210  -56.5400 N   0  0  0  0  0  0  0  0  0  0  0  0
   10.3860    2.1100  -57.4740 C   0  0  0  0  0  0  0  0  0  0  0  0
   11.6220    2.7120  -57.2200 C   0  0  0  0  0  0  0  0  0  0  0  0
   12.2510    3.4840  -58.2020 C   0  0  0  0  0  0  0  0  0  0  0  0
   11.6490    3.6630  -59.4450 C   0  0  0  0  0  0  0  0  0  0  0  0
   10.4190    3.0660  -59.7020 C   0  0  0  0  0  0  0  0  0  0  0  0
    9.6700    3.2810  -61.2370 Cl  0  0  0  0  0  0  0  0  0  0  0  0
    9.7870    2.2930  -58.7260 C   0  0  0  0  0  0  0  0  0  0  0  0
    8.0450    0.4360  -55.1330 C   0  0  0  0  0  0  0  0  0  0  0  0
    8.8770   -0.1250  -54.2730 N   0  0  0  0  0  0  0  0  0  0  0  0
    8.0700   -1.0020  -53.5900 C   0  0  0  0  0  0  0  0  0  0  0  0
    8.5810   -1.8840  -52.4930 C   0  0  0  0  0  0  0  0  0  0  0  0
    7.7460   -1.7000  -51.2100 C   0  0  0  0  0  0  0  0  0  0  0  0
    7.8480   -2.9120  -50.2930 C   0  0  0  0  0  0  0  0  0  0  0  0
    7.3090   -4.1760  -50.9620 C   0  0  0  0  0  0  0  0  0  0  0  0
    7.4610   -4.1740  -52.4840 C   0  0  0  0  0  0  0  0  0  0  0  0
    8.6700   -3.3600  -52.9360 C   0  0  0  0  0  0  0  0  0  0  0  0
    6.7890   -1.0110  -53.9840 N   0  0  0  0  0  0  0  0  0  0  0  0
    6.8000   -0.0890  -54.9620 N   0  0  0  0  0  0  0  0  0  0  0  0
   10.1940    0.5450  -56.1130 H   0  0  0  0  0  0  0  0  0  0  0  0
   12.1035    2.5774  -56.2402 H   0  0  0  0  0  0  0  0  0  0  0  0
   13.2244    3.9513  -57.9919 H   0  0  0  0  0  0  0  0  0  0  0  0
   12.1421    4.2715  -60.2174 H   0  0  0  0  0  0  0  0  0  0  0  0
    8.8147    1.8260  -58.9417 H   0  0  0  0  0  0  0  0  0  0  0  0
    9.6104   -1.5748  -52.2592 H   0  0  0  0  0  0  0  0  0  0  0  0
    8.1113   -0.8134  -50.6710 H   0  0  0  0  0  0  0  0  0  0  0  0
    6.6923   -1.5779  -51.5011 H   0  0  0  0  0  0  0  0  0  0  0  0
    8.9040   -3.0712  -50.0293 H   0  0  0  0  0  0  0  0  0  0  0  0
    7.2423   -2.7146  -49.3963 H   0  0  0  0  0  0  0  0  0  0  0  0
    7.8539   -5.0424  -50.5590 H   0  0  0  0  0  0  0  0  0  0  0  0
    6.2316   -4.2223  -50.7449 H   0  0  0  0  0  0  0  0  0  0  0  0
    7.5814   -5.2111  -52.8304 H   0  0  0  0  0  0  0  0  0  0  0  0
    6.5602   -3.7129  -52.9151 H   0  0  0  0  0  0  0  0  0  0  0  0
    9.5780   -3.8051  -52.5032 H   0  0  0  0  0  0  0  0  0  0  0  0
    8.6975   -3.3804  -54.0355 H   0  0  0  0  0  0  0  0  0  0  0  0
    5.9500    0.1330  -55.4680 H   0  0  0  0  0  0  0  0  0  0  0  0
  1  2  2  0
  2  3  1  0
  3  4  1  0
  4  5  2  0
  5  6  1  0
  6  7  2  0
  7  8  1  0
  8  9  1  0
  8 10  2  0
  2 11  1  0
 11 12  2  0
 12 13  1  0
 13 14  1  0
 14 15  1  0
 15 16  1  0
 16 17  1  0
 17 18  1  0
 18 19  1  0
 13 20  2  0
 20 21  1  0
 10  4  1  0
 21 11  1  0
 19 14  1  0
  3 22  1  0
  5 23  1  0
  6 24  1  0
  7 25  1  0
 10 26  1  0
 14 27  1  0
 15 28  1  0
 15 29  1  0
 16 30  1  0
 16 31  1  0
 17 32  1  0
 17 33  1  0
 18 34  1  0
 18 35  1  0
 19 36  1  0
 19 37  1  0
 21 38  1  0
M  END
>  <meeko>  (108) 
{"is_sidechain": false}

$$$$

     RDKit          3D

 38 40  0  0  0  0  0  0  0  0999 V2000
    7.0540    1.3170  -56.1000 O   0  0  0  0  0  0  0  0  0  0  0  0
    8.2120    1.1000  -55.7630 C   0  0  0  0  0  0  0  0  0  0  0  0
    9.3300    1.7980  -56.1780 N   0  0  0  0  0  0  0  0  0  0  0  0
    9.4030    2.8920  -57.0580 C   0  0  0  0  0  0  0  0  0  0  0  0
    9.2290    4.1670  -56.5020 C   0  0  0  0  0  0  0  0  0  0  0  0
    9.2870    5.3110  -57.3040 C   0  0  0  0  0  0  0  0  0  0  0  0
    9.5180    5.1880  -58.6710 C   0  0  0  0  0  0  0  0  0  0  0  0
    9.6920    3.9230  -59.2270 C   0  0  0  0  0  0  0  0  0  0  0  0
    9.9780    3.7740  -60.9190 Cl  0  0  0  0  0  0  0  0  0  0  0  0
    9.6350    2.7770  -58.4300 C   0  0  0  0  0  0  0  0  0  0  0  0
    8.5400    0.0310  -54.8480 C   0  0  0  0  0  0  0  0  0  0  0  0
    9.6410   -0.6930  -54.8830 N   0  0  0  0  0  0  0  0  0  0  0  0
    9.5800   -1.6010  -53.8520 N   0  0  0  0  0  0  0  0  0  0  0  0
    8.4450   -1.4160  -53.2070 C   0  0  0  0  0  0  0  0  0  0  0  0
    7.9550   -2.1750  -52.0150 C   0  0  0  0  0  0  0  0  0  0  0  0
    6.8040   -3.1220  -52.3860 C   0  0  0  0  0  0  0  0  0  0  0  0
    6.3100   -3.9050  -51.1710 C   0  0  0  0  0  0  0  0  0  0  0  0
    7.4470   -4.6550  -50.4830 C   0  0  0  0  0  0  0  0  0  0  0  0
    8.5950   -3.7200  -50.1140 C   0  0  0  0  0  0  0  0  0  0  0  0
    9.0960   -2.9350  -51.3240 C   0  0  0  0  0  0  0  0  0  0  0  0
    7.7620   -0.3930  -53.8070 N   0  0  0  0  0  0  0  0  0  0  0  0
   10.2040    1.4600  -55.7810 H   0  0  0  0  0  0  0  0  0  0  0  0
    9.0447    4.2687  -55.4223 H   0  0  0  0  0  0  0  0  0  0  0  0
    9.1503    6.3061  -56.8555 H   0  0  0  0  0  0  0  0  0  0  0  0
    9.5628    6.0838  -59.3079 H   0  0  0  0  0  0  0  0  0  0  0  0
    9.7729    1.7843  -58.8833 H   0  0  0  0  0  0  0  0  0  0  0  0
    7.5632   -1.4387  -51.2978 H   0  0  0  0  0  0  0  0  0  0  0  0
    5.9709   -2.5299  -52.7926 H   0  0  0  0  0  0  0  0  0  0  0  0
    7.1746   -3.8402  -53.1322 H   0  0  0  0  0  0  0  0  0  0  0  0
    5.8602   -3.2032  -50.4533 H   0  0  0  0  0  0  0  0  0  0  0  0
    5.5712   -4.6434  -51.5159 H   0  0  0  0  0  0  0  0  0  0  0  0
    7.0612   -5.1254  -49.5665 H   0  0  0  0  0  0  0  0  0  0  0  0
    7.8316   -5.4125  -51.1817 H   0  0  0  0  0  0  0  0  0  0  0  0
    8.2454   -3.0110  -49.3491 H   0  0  0  0  0  0  0  0  0  0  0  0
    9.4266   -4.3317  -49.7342 H   0  0  0  0  0  0  0  0  0  0  0  0
    9.8562   -2.2129  -50.9915 H   0  0  0  0  0  0  0  0  0  0  0  0
    9.5214   -3.6482  -52.0454 H   0  0  0  0  0  0  0  0  0  0  0  0
    6.8620   -0.0100  -53.5510 H   0  0  0  0  0  0  0  0  0  0  0  0
  1  2  2  0
  2  3  1  0
  3  4  1  0
  4  5  2  0
  5  6  1  0
  6  7  2  0
  7  8  1  0
  8  9  1  0
  8 10  2  0
  2 11  1  0
 11 12  2  0
 12 13  1  0
 13 14  2  0
 14 15  1  0
 15 16  1  0
 16 17  1  0
 17 18  1  0
 18 19  1  0
 19 20  1  0
 14 21  1  0
 10  4  1  0
 21 11  1  0
 20 15  1  0
  3 22  1  0
  5 23  1  0
  6 24  1  0
  7 25  1  0
 10 26  1  0
 15 27  1  0
 16 28  1  0
 16 29  1  0
 17 30  1  0
 17 31  1  0
 18 32  1  0
 18 33  1  0
 19 34  1  0
 19 35  1  0
 20 36  1  0
 20 37  1  0
 21 38  1  0
M  END
>  <meeko>  (109) 
{"is_sidechain": false}

$$$$

     RDKit          3D

 38 40  0  0  0  0  0  0  0  0999 V2000
   11.4090   -0.6000  -56.4480 O   0  0  0  0  0  0  0  0  0  0  0  0
   10.4210   -0.0110  -56.0220 C   0  0  0  0  0  0  0  0  0  0  0  0
    9.9490    1.2140  -56.4670 N   0  0  0  0  0  0  0  0  0  0  0  0
   10.4710    2.0430  -57.4740 C   0  0  0  0  0  0  0  0  0  0  0  0
   11.6800    2.6970  -57.1950 C   0  0  0  0  0  0  0  0  0  0  0  0
   12.2710    3.5410  -58.1390 C   0  0  0  0  0  0  0  0  0  0  0  0
   11.6570    3.7390  -59.3730 C   0  0  0  0  0  0  0  0  0  0  0  0
   10.4560    3.0910  -59.6540 C   0  0  0  0  0  0  0  0  0  0  0  0
    9.6990    3.3390  -61.1810 Cl  0  0  0  0  0  0  0  0  0  0  0  0
    9.8610    2.2470  -58.7130 C   0  0  0  0  0  0  0  0  0  0  0  0
    9.5720   -0.5580  -54.9350 C   0  0  0  0  0  0  0  0  0  0  0  0
    8.6320    0.1850  -54.3070 N   0  0  0  0  0  0  0  0  0  0  0  0
    8.1300   -0.6950  -53.4250 N   0  0  0  0  0  0  0  0  0  0  0  0
    8.7410   -1.9120  -53.5190 C   0  0  0  0  0  0  0  0  0  0  0  0
    8.3990   -3.0970  -52.6680 C   0  0  0  0  0  0  0  0  0  0  0  0
    6.8840   -3.3690  -52.6830 C   0  0  0  0  0  0  0  0  0  0  0  0
    6.4670   -4.2380  -51.5030 C   0  0  0  0  0  0  0  0  0  0  0  0
    6.7600   -3.5590  -50.1640 C   0  0  0  0  0  0  0  0  0  0  0  0
    7.9250   -2.5690  -50.2180 C   0  0  0  0  0  0  0  0  0  0  0  0
    8.9770   -2.9770  -51.2440 C   0  0  0  0  0  0  0  0  0  0  0  0
    9.6530   -1.8520  -54.4630 N   0  0  0  0  0  0  0  0  0  0  0  0
    9.1130    1.5250  -55.9780 H   0  0  0  0  0  0  0  0  0  0  0  0
   12.1688    2.5437  -56.2215 H   0  0  0  0  0  0  0  0  0  0  0  0
   13.2194    4.0480  -57.9077 H   0  0  0  0  0  0  0  0  0  0  0  0
   12.1168    4.4022  -60.1205 H   0  0  0  0  0  0  0  0  0  0  0  0
    8.9119    1.7432  -58.9484 H   0  0  0  0  0  0  0  0  0  0  0  0
    7.3850   -0.4070  -52.8020 H   0  0  0  0  0  0  0  0  0  0  0  0
    8.8850   -3.9796  -53.1095 H   0  0  0  0  0  0  0  0  0  0  0  0
    6.3471   -2.4104  -52.6297 H   0  0  0  0  0  0  0  0  0  0  0  0
    6.6357   -3.9024  -53.6125 H   0  0  0  0  0  0  0  0  0  0  0  0
    5.3874   -4.4375  -51.5720 H   0  0  0  0  0  0  0  0  0  0  0  0
    7.0460   -5.1723  -51.5458 H   0  0  0  0  0  0  0  0  0  0  0  0
    5.8578   -3.0165  -49.8451 H   0  0  0  0  0  0  0  0  0  0  0  0
    7.0449   -4.3522  -49.4571 H   0  0  0  0  0  0  0  0  0  0  0  0
    7.5346   -1.5761  -50.4858 H   0  0  0  0  0  0  0  0  0  0  0  0
    8.4044   -2.5555  -49.2281 H   0  0  0  0  0  0  0  0  0  0  0  0
    9.7755   -2.2204  -51.2502 H   0  0  0  0  0  0  0  0  0  0  0  0
    9.3593   -3.9669  -50.9545 H   0  0  0  0  0  0  0  0  0  0  0  0
  1  2  2  0
  2  3  1  0
  3  4  1  0
  4  5  2  0
  5  6  1  0
  6  7  2  0
  7  8  1  0
  8  9  1  0
  8 10  2  0
  2 11  1  0
 11 12  2  0
 12 13  1  0
 13 14  1  0
 14 15  1  0
 15 16  1  0
 16 17  1  0
 17 18  1  0
 18 19  1  0
 19 20  1  0
 14 21  2  0
 10  4  1  0
 21 11  1  0
 20 15  1  0
  3 22  1  0
  5 23  1  0
  6 24  1  0
  7 25  1  0
 10 26  1  0
 13 27  1  0
 15 28  1  0
 16 29  1  0
 16 30  1  0
 17 31  1  0
 17 32  1  0
 18 33  1  0
 18 34  1  0
 19 35  1  0
 19 36  1  0
 20 37  1  0
 20 38  1  0
M  END
>  <meeko>  (110) 
{"is_sidechain": false}

$$$$

     RDKit          3D

 38 40  0  0  0  0  0  0  0  0999 V2000
    9.1590    3.9190  -56.8930 O   0  0  0  0  0  0  0  0  0  0  0  0
    8.8270    3.6330  -58.0370 C   0  0  0  0  0  0  0  0  0  0  0  0
    9.5880    3.7980  -59.1780 N   0  0  0  0  0  0  0  0  0  0  0  0
   10.8870    4.3210  -59.2990 C   0  0  0  0  0  0  0  0  0  0  0  0
   12.0460    3.6200  -58.9540 C   0  0  0  0  0  0  0  0  0  0  0  0
   13.3070    4.2100  -59.1040 C   0  0  0  0  0  0  0  0  0  0  0  0
   13.4180    5.5060  -59.6000 C   0  0  0  0  0  0  0  0  0  0  0  0
   12.2660    6.2000  -59.9410 C   0  0  0  0  0  0  0  0  0  0  0  0
   12.3650    7.4480  -60.4180 F   0  0  0  0  0  0  0  0  0  0  0  0
   11.0070    5.6230  -59.7960 C   0  0  0  0  0  0  0  0  0  0  0  0
    7.5350    3.0600  -58.3290 C   0  0  0  0  0  0  0  0  0  0  0  0
    7.0770    2.7480  -59.5300 N   0  0  0  0  0  0  0  0  0  0  0  0
    5.8250    2.2480  -59.2620 C   0  0  0  0  0  0  0  0  0  0  0  0
    4.9210    1.7590  -60.3500 C   0  0  0  0  0  0  0  0  0  0  0  0
    5.3880    2.2290  -61.7360 C   0  0  0  0  0  0  0  0  0  0  0  0
    4.4630    1.7280  -62.8430 C   0  0  0  0  0  0  0  0  0  0  0  0
    3.0120    2.1220  -62.5860 C   0  0  0  0  0  0  0  0  0  0  0  0
    2.5390    1.6560  -61.2120 C   0  0  0  0  0  0  0  0  0  0  0  0
    3.4580    2.1570  -60.0990 C   0  0  0  0  0  0  0  0  0  0  0  0
    5.4920    2.2360  -57.9640 N   0  0  0  0  0  0  0  0  0  0  0  0
    6.5920    2.7550  -57.3960 N   0  0  0  0  0  0  0  0  0  0  0  0
    9.1210    3.4950  -60.0310 H   0  0  0  0  0  0  0  0  0  0  0  0
   11.9668    2.5956  -58.5611 H   0  0  0  0  0  0  0  0  0  0  0  0
   14.2119    3.6482  -58.8293 H   0  0  0  0  0  0  0  0  0  0  0  0
   14.4063    5.9738  -59.7200 H   0  0  0  0  0  0  0  0  0  0  0  0
   10.1066    6.1912  -60.0724 H   0  0  0  0  0  0  0  0  0  0  0  0
    4.9752    0.6604  -60.3353 H   0  0  0  0  0  0  0  0  0  0  0  0
    5.4020    3.3288  -61.7536 H   0  0  0  0  0  0  0  0  0  0  0  0
    6.3927    1.8193  -61.9167 H   0  0  0  0  0  0  0  0  0  0  0  0
    4.7859    2.1615  -63.8010 H   0  0  0  0  0  0  0  0  0  0  0  0
    4.5212    0.6298  -62.8682 H   0  0  0  0  0  0  0  0  0  0  0  0
    2.9241    3.2171  -62.6415 H   0  0  0  0  0  0  0  0  0  0  0  0
    2.3837    1.6387  -63.3487 H   0  0  0  0  0  0  0  0  0  0  0  0
    1.5233    2.0395  -61.0355 H   0  0  0  0  0  0  0  0  0  0  0  0
    2.5524    0.5562  -61.1992 H   0  0  0  0  0  0  0  0  0  0  0  0
    3.3904    3.2537  -60.0471 H   0  0  0  0  0  0  0  0  0  0  0  0
    3.1343    1.6978  -59.1533 H   0  0  0  0  0  0  0  0  0  0  0  0
    6.6410    2.8760  -56.3890 H   0  0  0  0  0  0  0  0  0  0  0  0
  1  2  2  0
  2  3  1  0
  3  4  1  0
  4  5  2  0
  5  6  1  0
  6  7  2  0
  7  8  1  0
  8  9  1  0
  8 10  2  0
  2 11  1  0
 11 12  2  0
 12 13  1  0
 13 14  1  0
 14 15  1  0
 15 16  1  0
 16 17  1  0
 17 18  1  0
 18 19  1  0
 13 20  2  0
 20 21  1  0
 10  4  1  0
 21 11  1  0
 19 14  1  0
  3 22  1  0
  5 23  1  0
  6 24  1  0
  7 25  1  0
 10 26  1  0
 14 27  1  0
 15 28  1  0
 15 29  1  0
 16 30  1  0
 16 31  1  0
 17 32  1  0
 17 33  1  0
 18 34  1  0
 18 35  1  0
 19 36  1  0
 19 37  1  0
 21 38  1  0
M  END
>  <meeko>  (111) 
{"is_sidechain": false}

$$$$

     RDKit          3D

 38 40  0  0  0  0  0  0  0  0999 V2000
    9.2790    3.6890  -56.9910 O   0  0  0  0  0  0  0  0  0  0  0  0
    8.9300    3.4370  -58.1370 C   0  0  0  0  0  0  0  0  0  0  0  0
    9.6620    3.7650  -59.2750 N   0  0  0  0  0  0  0  0  0  0  0  0
   10.9520    4.3390  -59.3300 C   0  0  0  0  0  0  0  0  0  0  0  0
   12.1180    3.6900  -58.9120 C   0  0  0  0  0  0  0  0  0  0  0  0
   13.3620    4.3240  -59.0110 C   0  0  0  0  0  0  0  0  0  0  0  0
   13.4520    5.6100  -59.5340 C   0  0  0  0  0  0  0  0  0  0  0  0
   12.2950    6.2500  -59.9530 C   0  0  0  0  0  0  0  0  0  0  0  0
   12.3730    7.4870  -60.4620 F   0  0  0  0  0  0  0  0  0  0  0  0
   11.0520    5.6300  -59.8590 C   0  0  0  0  0  0  0  0  0  0  0  0
    7.6840    2.7610  -58.4460 C   0  0  0  0  0  0  0  0  0  0  0  0
    6.9470    2.1060  -57.5730 N   0  0  0  0  0  0  0  0  0  0  0  0
    5.8470    1.6030  -58.2280 N   0  0  0  0  0  0  0  0  0  0  0  0
    5.9440    1.9250  -59.5000 C   0  0  0  0  0  0  0  0  0  0  0  0
    4.9910    1.5610  -60.5930 C   0  0  0  0  0  0  0  0  0  0  0  0
    5.3860    2.2180  -61.9240 C   0  0  0  0  0  0  0  0  0  0  0  0
    4.4080    1.8540  -63.0400 C   0  0  0  0  0  0  0  0  0  0  0  0
    2.9690    2.1920  -62.6580 C   0  0  0  0  0  0  0  0  0  0  0  0
    2.5710    1.5420  -61.3370 C   0  0  0  0  0  0  0  0  0  0  0  0
    3.5430    1.9040  -60.2150 C   0  0  0  0  0  0  0  0  0  0  0  0
    7.0890    2.6550  -59.6780 N   0  0  0  0  0  0  0  0  0  0  0  0
    9.1720    3.7080  -60.1580 H   0  0  0  0  0  0  0  0  0  0  0  0
   12.0570    2.6713  -58.5014 H   0  0  0  0  0  0  0  0  0  0  0  0
   14.2710    3.8040  -58.6743 H   0  0  0  0  0  0  0  0  0  0  0  0
   14.4273    6.1123  -59.6141 H   0  0  0  0  0  0  0  0  0  0  0  0
   10.1482    6.1556  -60.2009 H   0  0  0  0  0  0  0  0  0  0  0  0
    5.0502    0.4709  -60.7279 H   0  0  0  0  0  0  0  0  0  0  0  0
    5.3914    3.3105  -61.7956 H   0  0  0  0  0  0  0  0  0  0  0  0
    6.3841    1.8521  -62.2067 H   0  0  0  0  0  0  0  0  0  0  0  0
    4.6774    2.4140  -63.9476 H   0  0  0  0  0  0  0  0  0  0  0  0
    4.4724    0.7698  -63.2141 H   0  0  0  0  0  0  0  0  0  0  0  0
    2.8722    3.2835  -62.5621 H   0  0  0  0  0  0  0  0  0  0  0  0
    2.3045    1.8061  -63.4451 H   0  0  0  0  0  0  0  0  0  0  0  0
    1.5631    1.8848  -61.0602 H   0  0  0  0  0  0  0  0  0  0  0  0
    2.5925    0.4504  -61.4711 H   0  0  0  0  0  0  0  0  0  0  0  0
    3.4719    2.9833  -60.0147 H   0  0  0  0  0  0  0  0  0  0  0  0
    3.2720    1.3215  -59.3221 H   0  0  0  0  0  0  0  0  0  0  0  0
    7.4550    2.9970  -60.5520 H   0  0  0  0  0  0  0  0  0  0  0  0
  1  2  2  0
  2  3  1  0
  3  4  1  0
  4  5  2  0
  5  6  1  0
  6  7  2  0
  7  8  1  0
  8  9  1  0
  8 10  2  0
  2 11  1  0
 11 12  2  0
 12 13  1  0
 13 14  2  0
 14 15  1  0
 15 16  1  0
 16 17  1  0
 17 18  1  0
 18 19  1  0
 19 20  1  0
 14 21  1  0
 10  4  1  0
 21 11  1  0
 20 15  1  0
  3 22  1  0
  5 23  1  0
  6 24  1  0
  7 25  1  0
 10 26  1  0
 15 27  1  0
 16 28  1  0
 16 29  1  0
 17 30  1  0
 17 31  1  0
 18 32  1  0
 18 33  1  0
 19 34  1  0
 19 35  1  0
 20 36  1  0
 20 37  1  0
 21 38  1  0
M  END
>  <meeko>  (112) 
{"is_sidechain": false}

$$$$

     RDKit          3D

 38 40  0  0  0  0  0  0  0  0999 V2000
    8.9070    5.0430  -57.2480 O   0  0  0  0  0  0  0  0  0  0  0  0
    8.7600    4.2630  -58.1830 C   0  0  0  0  0  0  0  0  0  0  0  0
    9.6900    4.0040  -59.1800 N   0  0  0  0  0  0  0  0  0  0  0  0
   10.9710    4.5560  -59.3490 C   0  0  0  0  0  0  0  0  0  0  0  0
   12.0650    3.7300  -59.0480 C   0  0  0  0  0  0  0  0  0  0  0  0
   13.3760    4.1970  -59.1860 C   0  0  0  0  0  0  0  0  0  0  0  0
   13.6020    5.4960  -59.6270 C   0  0  0  0  0  0  0  0  0  0  0  0
   12.5170    6.3140  -59.9240 C   0  0  0  0  0  0  0  0  0  0  0  0
   12.7400    7.5640  -60.3490 F   0  0  0  0  0  0  0  0  0  0  0  0
   11.2080    5.8580  -59.7900 C   0  0  0  0  0  0  0  0  0  0  0  0
    7.5240    3.4670  -58.3740 C   0  0  0  0  0  0  0  0  0  0  0  0
    6.7800    3.0210  -57.3340 N   0  0  0  0  0  0  0  0  0  0  0  0
    5.7900    2.3680  -57.9650 N   0  0  0  0  0  0  0  0  0  0  0  0
    5.9320    2.4200  -59.3200 C   0  0  0  0  0  0  0  0  0  0  0  0
    4.9760    1.7740  -60.2690 C   0  0  0  0  0  0  0  0  0  0  0  0
    3.5370    2.2320  -60.0040 C   0  0  0  0  0  0  0  0  0  0  0  0
    2.5330    1.4950  -60.8950 C   0  0  0  0  0  0  0  0  0  0  0  0
    3.1090    1.0720  -62.2470 C   0  0  0  0  0  0  0  0  0  0  0  0
    4.2120    2.0120  -62.7120 C   0  0  0  0  0  0  0  0  0  0  0  0
    5.3860    2.0490  -61.7280 C   0  0  0  0  0  0  0  0  0  0  0  0
    7.0170    3.1050  -59.6050 N   0  0  0  0  0  0  0  0  0  0  0  0
    9.3690    3.3220  -59.8640 H   0  0  0  0  0  0  0  0  0  0  0  0
   11.8890    2.7018  -58.6990 H   0  0  0  0  0  0  0  0  0  0  0  0
   14.2247    3.5394  -58.9467 H   0  0  0  0  0  0  0  0  0  0  0  0
   14.6291    5.8732  -59.7399 H   0  0  0  0  0  0  0  0  0  0  0  0
   10.3645    6.5217  -60.0309 H   0  0  0  0  0  0  0  0  0  0  0  0
    5.0630    1.9170  -57.4200 H   0  0  0  0  0  0  0  0  0  0  0  0
    5.0148    0.6873  -60.1028 H   0  0  0  0  0  0  0  0  0  0  0  0
    3.2891    2.0359  -58.9504 H   0  0  0  0  0  0  0  0  0  0  0  0
    3.4724    3.3062  -60.2317 H   0  0  0  0  0  0  0  0  0  0  0  0
    2.1936    0.5933  -60.3642 H   0  0  0  0  0  0  0  0  0  0  0  0
    1.7095    2.1949  -61.1001 H   0  0  0  0  0  0  0  0  0  0  0  0
    3.5219    0.0565  -62.1558 H   0  0  0  0  0  0  0  0  0  0  0  0
    2.2975    1.1045  -62.9890 H   0  0  0  0  0  0  0  0  0  0  0  0
    4.5797    1.6715  -63.6912 H   0  0  0  0  0  0  0  0  0  0  0  0
    3.7902    3.0258  -62.7766 H   0  0  0  0  0  0  0  0  0  0  0  0
    6.1193    1.2878  -62.0326 H   0  0  0  0  0  0  0  0  0  0  0  0
    5.8020    3.0668  -61.7600 H   0  0  0  0  0  0  0  0  0  0  0  0
  1  2  2  0
  2  3  1  0
  3  4  1  0
  4  5  2  0
  5  6  1  0
  6  7  2  0
  7  8  1  0
  8  9  1  0
  8 10  2  0
  2 11  1  0
 11 12  2  0
 12 13  1  0
 13 14  1  0
 14 15  1  0
 15 16  1  0
 16 17  1  0
 17 18  1  0
 18 19  1  0
 19 20  1  0
 14 21  2  0
 10  4  1  0
 21 11  1  0
 20 15  1  0
  3 22  1  0
  5 23  1  0
  6 24  1  0
  7 25  1  0
 10 26  1  0
 13 27  1  0
 15 28  1  0
 16 29  1  0
 16 30  1  0
 17 31  1  0
 17 32  1  0
 18 33  1  0
 18 34  1  0
 19 35  1  0
 19 36  1  0
 20 37  1  0
 20 38  1  0
M  END
>  <meeko>  (113) 
{"is_sidechain": false}

$$$$

     RDKit          3D

 38 40  0  0  0  0  0  0  0  0999 V2000
    6.6220    0.9680  -56.1820 O   0  0  0  0  0  0  0  0  0  0  0  0
    7.8040    1.2850  -56.1240 C   0  0  0  0  0  0  0  0  0  0  0  0
    8.7350    0.8260  -55.2120 N   0  0  0  0  0  0  0  0  0  0  0  0
    8.5550   -0.0900  -54.1610 C   0  0  0  0  0  0  0  0  0  0  0  0
    7.5240   -0.0060  -53.2220 C   0  0  0  0  0  0  0  0  0  0  0  0
    7.4140   -0.9610  -52.2040 C   0  0  0  0  0  0  0  0  0  0  0  0
    8.3360   -2.0010  -52.1240 C   0  0  0  0  0  0  0  0  0  0  0  0
    8.1850   -3.2870  -50.7480 Br  0  0  0  0  0  0  0  0  0  0  0  0
    9.3670   -2.0970  -53.0520 C   0  0  0  0  0  0  0  0  0  0  0  0
    9.4750   -1.1420  -54.0680 C   0  0  0  0  0  0  0  0  0  0  0  0
    8.3830    2.2250  -57.0550 C   0  0  0  0  0  0  0  0  0  0  0  0
    9.5760    2.7830  -56.9520 N   0  0  0  0  0  0  0  0  0  0  0  0
    9.6410    3.5800  -58.0720 C   0  0  0  0  0  0  0  0  0  0  0  0
   10.8310    4.4280  -58.3890 C   0  0  0  0  0  0  0  0  0  0  0  0
   12.1410    3.6250  -58.2690 C   0  0  0  0  0  0  0  0  0  0  0  0
   13.2790    4.1760  -59.1340 C   0  0  0  0  0  0  0  0  0  0  0  0
   13.1650    5.6800  -59.3370 C   0  0  0  0  0  0  0  0  0  0  0  0
   11.8610    6.0610  -60.0380 C   0  0  0  0  0  0  0  0  0  0  0  0
   10.7110    5.0850  -59.7690 C   0  0  0  0  0  0  0  0  0  0  0  0
    8.5530    3.5420  -58.8510 N   0  0  0  0  0  0  0  0  0  0  0  0
    7.7710    2.6760  -58.1850 N   0  0  0  0  0  0  0  0  0  0  0  0
    9.6650    1.2170  -55.3400 H   0  0  0  0  0  0  0  0  0  0  0  0
    6.7945    0.8151  -53.2828 H   0  0  0  0  0  0  0  0  0  0  0  0
    6.5997   -0.8896  -51.4680 H   0  0  0  0  0  0  0  0  0  0  0  0
   10.0940   -2.9199  -52.9874 H   0  0  0  0  0  0  0  0  0  0  0  0
   10.2910   -1.2179  -54.8017 H   0  0  0  0  0  0  0  0  0  0  0  0
   10.8606    5.2352  -57.6423 H   0  0  0  0  0  0  0  0  0  0  0  0
   12.4640    3.6414  -57.2176 H   0  0  0  0  0  0  0  0  0  0  0  0
   11.9289    2.6062  -58.6254 H   0  0  0  0  0  0  0  0  0  0  0  0
   14.2377    3.9559  -58.6416 H   0  0  0  0  0  0  0  0  0  0  0  0
   13.2186    3.6947  -60.1213 H   0  0  0  0  0  0  0  0  0  0  0  0
   13.1995    6.1754  -58.3555 H   0  0  0  0  0  0  0  0  0  0  0  0
   14.0022    6.0036  -59.9729 H   0  0  0  0  0  0  0  0  0  0  0  0
   11.5581    7.0595  -59.6898 H   0  0  0  0  0  0  0  0  0  0  0  0
   12.0578    6.0366  -61.1200 H   0  0  0  0  0  0  0  0  0  0  0  0
    9.7591    5.6339  -59.8202 H   0  0  0  0  0  0  0  0  0  0  0  0
   10.7519    4.2914  -60.5296 H   0  0  0  0  0  0  0  0  0  0  0  0
    6.8520    2.4350  -58.5390 H   0  0  0  0  0  0  0  0  0  0  0  0
  1  2  2  0
  2  3  1  0
  3  4  1  0
  4  5  1  0
  5  6  2  0
  6  7  1  0
  7  8  1  0
  7  9  2  0
  9 10  1  0
  2 11  1  0
 11 12  2  0
 12 13  1  0
 13 14  1  0
 14 15  1  0
 15 16  1  0
 16 17  1  0
 17 18  1  0
 18 19  1  0
 13 20  2  0
 20 21  1  0
 10  4  2  0
 21 11  1  0
 19 14  1  0
  3 22  1  0
  5 23  1  0
  6 24  1  0
  9 25  1  0
 10 26  1  0
 14 27  1  0
 15 28  1  0
 15 29  1  0
 16 30  1  0
 16 31  1  0
 17 32  1  0
 17 33  1  0
 18 34  1  0
 18 35  1  0
 19 36  1  0
 19 37  1  0
 21 38  1  0
M  END
>  <meeko>  (114) 
{"is_sidechain": false}

$$$$

     RDKit          3D

 38 40  0  0  0  0  0  0  0  0999 V2000
    6.5280    0.8940  -55.9160 O   0  0  0  0  0  0  0  0  0  0  0  0
    7.7270    1.1510  -55.9280 C   0  0  0  0  0  0  0  0  0  0  0  0
    8.6800    0.6530  -55.0590 N   0  0  0  0  0  0  0  0  0  0  0  0
    8.5060   -0.2390  -53.9870 C   0  0  0  0  0  0  0  0  0  0  0  0
    9.4220   -1.2950  -53.8830 C   0  0  0  0  0  0  0  0  0  0  0  0
    9.3210   -2.2290  -52.8470 C   0  0  0  0  0  0  0  0  0  0  0  0
    8.3000   -2.1090  -51.9090 C   0  0  0  0  0  0  0  0  0  0  0  0
    8.1580   -3.3670  -50.5060 Br  0  0  0  0  0  0  0  0  0  0  0  0
    7.3830   -1.0650  -52.0000 C   0  0  0  0  0  0  0  0  0  0  0  0
    7.4870   -0.1320  -53.0380 C   0  0  0  0  0  0  0  0  0  0  0  0
    8.2930    2.0510  -56.9060 C   0  0  0  0  0  0  0  0  0  0  0  0
    7.7200    3.1520  -57.3500 N   0  0  0  0  0  0  0  0  0  0  0  0
    8.5710    3.7270  -58.2660 N   0  0  0  0  0  0  0  0  0  0  0  0
    9.6430    2.9670  -58.3650 C   0  0  0  0  0  0  0  0  0  0  0  0
   10.8450    3.1830  -59.2300 C   0  0  0  0  0  0  0  0  0  0  0  0
   12.0910    3.4190  -58.3550 C   0  0  0  0  0  0  0  0  0  0  0  0
   13.1670    4.1920  -59.1070 C   0  0  0  0  0  0  0  0  0  0  0  0
   12.6800    5.5800  -59.5250 C   0  0  0  0  0  0  0  0  0  0  0  0
   11.1710    5.6510  -59.7670 C   0  0  0  0  0  0  0  0  0  0  0  0
   10.6070    4.3180  -60.2470 C   0  0  0  0  0  0  0  0  0  0  0  0
    9.5040    1.8990  -57.5210 N   0  0  0  0  0  0  0  0  0  0  0  0
    9.6230    0.9910  -55.2360 H   0  0  0  0  0  0  0  0  0  0  0  0
   10.2291   -1.3901  -54.6244 H   0  0  0  0  0  0  0  0  0  0  0  0
   10.0448   -3.0541  -52.7739 H   0  0  0  0  0  0  0  0  0  0  0  0
    6.5774   -0.9737  -51.2566 H   0  0  0  0  0  0  0  0  0  0  0  0
    6.7609    0.6915  -53.1068 H   0  0  0  0  0  0  0  0  0  0  0  0
   11.0264    2.2748  -59.8234 H   0  0  0  0  0  0  0  0  0  0  0  0
   11.7974    3.9920  -57.4631 H   0  0  0  0  0  0  0  0  0  0  0  0
   12.5045    2.4391  -58.0742 H   0  0  0  0  0  0  0  0  0  0  0  0
   14.0462    4.3041  -58.4555 H   0  0  0  0  0  0  0  0  0  0  0  0
   13.4197    3.6291  -60.0177 H   0  0  0  0  0  0  0  0  0  0  0  0
   12.9388    6.2939  -58.7291 H   0  0  0  0  0  0  0  0  0  0  0  0
   13.1720    5.8214  -60.4788 H   0  0  0  0  0  0  0  0  0  0  0  0
   10.6730    5.9295  -58.8265 H   0  0  0  0  0  0  0  0  0  0  0  0
   10.9871    6.4003  -60.5511 H   0  0  0  0  0  0  0  0  0  0  0  0
    9.5243    4.4287  -60.4070 H   0  0  0  0  0  0  0  0  0  0  0  0
   11.1247    4.0491  -61.1795 H   0  0  0  0  0  0  0  0  0  0  0  0
   10.1530    1.1400  -57.3640 H   0  0  0  0  0  0  0  0  0  0  0  0
  1  2  2  0
  2  3  1  0
  3  4  1  0
  4  5  1  0
  5  6  2  0
  6  7  1  0
  7  8  1  0
  7  9  2  0
  9 10  1  0
  2 11  1  0
 11 12  2  0
 12 13  1  0
 13 14  2  0
 14 15  1  0
 15 16  1  0
 16 17  1  0
 17 18  1  0
 18 19  1  0
 19 20  1  0
 14 21  1  0
 10  4  2  0
 21 11  1  0
 20 15  1  0
  3 22  1  0
  5 23  1  0
  6 24  1  0
  9 25  1  0
 10 26  1  0
 15 27  1  0
 16 28  1  0
 16 29  1  0
 17 30  1  0
 17 31  1  0
 18 32  1  0
 18 33  1  0
 19 34  1  0
 19 35  1  0
 20 36  1  0
 20 37  1  0
 21 38  1  0
M  END
>  <meeko>  (115) 
{"is_sidechain": false}

$$$$

     RDKit          3D

 38 40  0  0  0  0  0  0  0  0999 V2000
    6.6140    1.1280  -56.1550 O   0  0  0  0  0  0  0  0  0  0  0  0
    7.8140    1.3800  -56.1670 C   0  0  0  0  0  0  0  0  0  0  0  0
    8.7650    0.8610  -55.3010 N   0  0  0  0  0  0  0  0  0  0  0  0
    8.5870   -0.0440  -54.2420 C   0  0  0  0  0  0  0  0  0  0  0  0
    7.5560    0.0470  -53.3050 C   0  0  0  0  0  0  0  0  0  0  0  0
    7.4470   -0.8970  -52.2760 C   0  0  0  0  0  0  0  0  0  0  0  0
    8.3710   -1.9350  -52.1850 C   0  0  0  0  0  0  0  0  0  0  0  0
    8.2220   -3.2080  -50.7970 Br  0  0  0  0  0  0  0  0  0  0  0  0
    9.4040   -2.0370  -53.1120 C   0  0  0  0  0  0  0  0  0  0  0  0
    9.5100   -1.0930  -54.1370 C   0  0  0  0  0  0  0  0  0  0  0  0
    8.4250    2.3100  -57.1490 C   0  0  0  0  0  0  0  0  0  0  0  0
    7.8300    2.6160  -58.3250 N   0  0  0  0  0  0  0  0  0  0  0  0
    8.7170    3.4650  -58.8700 N   0  0  0  0  0  0  0  0  0  0  0  0
    9.7970    3.6570  -58.0590 C   0  0  0  0  0  0  0  0  0  0  0  0
   10.9380    4.5560  -58.4130 C   0  0  0  0  0  0  0  0  0  0  0  0
   12.2790    3.8090  -58.2890 C   0  0  0  0  0  0  0  0  0  0  0  0
   13.3780    4.3730  -59.1940 C   0  0  0  0  0  0  0  0  0  0  0  0
   13.1960    5.8610  -59.4550 C   0  0  0  0  0  0  0  0  0  0  0  0
   11.8640    6.1580  -60.1460 C   0  0  0  0  0  0  0  0  0  0  0  0
   10.7620    5.1480  -59.8140 C   0  0  0  0  0  0  0  0  0  0  0  0
    9.6380    2.9420  -56.9680 N   0  0  0  0  0  0  0  0  0  0  0  0
    9.7070    1.2020  -55.4840 H   0  0  0  0  0  0  0  0  0  0  0  0
    6.8245    0.8655  -53.3753 H   0  0  0  0  0  0  0  0  0  0  0  0
    6.6326   -0.8186  -51.5407 H   0  0  0  0  0  0  0  0  0  0  0  0
   10.1337   -2.8569  -53.0382 H   0  0  0  0  0  0  0  0  0  0  0  0
   10.3268   -1.1743  -54.8693 H   0  0  0  0  0  0  0  0  0  0  0  0
    8.5270    3.8710  -59.7800 H   0  0  0  0  0  0  0  0  0  0  0  0
   10.9468    5.3923  -57.6985 H   0  0  0  0  0  0  0  0  0  0  0  0
   12.6194    3.8754  -57.2451 H   0  0  0  0  0  0  0  0  0  0  0  0
   12.1013    2.7703  -58.6045 H   0  0  0  0  0  0  0  0  0  0  0  0
   14.3528    4.2144  -58.7096 H   0  0  0  0  0  0  0  0  0  0  0  0
   13.3231    3.8501  -60.1602 H   0  0  0  0  0  0  0  0  0  0  0  0
   13.2264    6.3972  -58.4950 H   0  0  0  0  0  0  0  0  0  0  0  0
   14.0073    6.1932  -60.1194 H   0  0  0  0  0  0  0  0  0  0  0  0
   11.5255    7.1570  -59.8338 H   0  0  0  0  0  0  0  0  0  0  0  0
   12.0422    6.0961  -61.2297 H   0  0  0  0  0  0  0  0  0  0  0  0
    9.7869    5.6544  -59.8668 H   0  0  0  0  0  0  0  0  0  0  0  0
   10.8201    4.3261  -60.5427 H   0  0  0  0  0  0  0  0  0  0  0  0
  1  2  2  0
  2  3  1  0
  3  4  1  0
  4  5  1  0
  5  6  2  0
  6  7  1  0
  7  8  1  0
  7  9  2  0
  9 10  1  0
  2 11  1  0
 11 12  2  0
 12 13  1  0
 13 14  1  0
 14 15  1  0
 15 16  1  0
 16 17  1  0
 17 18  1  0
 18 19  1  0
 19 20  1  0
 14 21  2  0
 10  4  2  0
 21 11  1  0
 20 15  1  0
  3 22  1  0
  5 23  1  0
  6 24  1  0
  9 25  1  0
 10 26  1  0
 13 27  1  0
 15 28  1  0
 16 29  1  0
 16 30  1  0
 17 31  1  0
 17 32  1  0
 18 33  1  0
 18 34  1  0
 19 35  1  0
 19 36  1  0
 20 37  1  0
 20 38  1  0
M  END
>  <meeko>  (116) 
{"is_sidechain": false}

$$$$

     RDKit          3D

 29 31  0  0  0  0  0  0  0  0999 V2000
    6.9010    2.7430  -57.5890 O   0  0  0  0  0  0  0  0  0  0  0  0
    6.7750    2.6610  -58.8070 C   0  0  0  0  0  0  0  0  0  0  0  0
    7.7620    2.8670  -59.7510 N   0  0  0  0  0  0  0  0  0  0  0  0
    9.1090    3.2100  -59.5500 C   0  0  0  0  0  0  0  0  0  0  0  0
    9.9400    2.5930  -58.6110 C   0  0  0  0  0  0  0  0  0  0  0  0
   11.2750    2.9940  -58.4720 C   0  0  0  0  0  0  0  0  0  0  0  0
   11.7810    4.0140  -59.2740 C   0  0  0  0  0  0  0  0  0  0  0  0
   13.4200    4.5040  -59.1020 Cl  0  0  0  0  0  0  0  0  0  0  0  0
   10.9660    4.6360  -60.2130 C   0  0  0  0  0  0  0  0  0  0  0  0
    9.6340    4.2340  -60.3500 C   0  0  0  0  0  0  0  0  0  0  0  0
    5.5100    2.3210  -59.4140 C   0  0  0  0  0  0  0  0  0  0  0  0
    5.3470    1.6090  -60.5160 N   0  0  0  0  0  0  0  0  0  0  0  0
    3.9830    1.5760  -60.6550 C   0  0  0  0  0  0  0  0  0  0  0  0
    3.2840    0.8400  -61.8280 C   0  0  0  0  0  0  0  0  0  0  0  0
    3.8360    0.9920  -63.2230 C   0  0  0  0  0  0  0  0  0  0  0  0
    2.5330    1.6430  -62.8600 C   0  0  0  0  0  0  0  0  0  0  0  0
    3.3000    2.2300  -59.7110 N   0  0  0  0  0  0  0  0  0  0  0  0
    4.2920    2.6920  -58.9330 N   0  0  0  0  0  0  0  0  0  0  0  0
    7.4450    2.7480  -60.7110 H   0  0  0  0  0  0  0  0  0  0  0  0
    9.5430    1.7868  -57.9766 H   0  0  0  0  0  0  0  0  0  0  0  0
   11.9228    2.5039  -57.7303 H   0  0  0  0  0  0  0  0  0  0  0  0
   11.3676    5.4413  -60.8457 H   0  0  0  0  0  0  0  0  0  0  0  0
    8.9909    4.7269  -61.0940 H   0  0  0  0  0  0  0  0  0  0  0  0
    3.0396   -0.0097  -61.1735 H   0  0  0  0  0  0  0  0  0  0  0  0
    4.7295    1.6097  -63.3962 H   0  0  0  0  0  0  0  0  0  0  0  0
    4.1643    0.2958  -64.0088 H   0  0  0  0  0  0  0  0  0  0  0  0
    2.4724    2.7374  -62.7674 H   0  0  0  0  0  0  0  0  0  0  0  0
    1.5125    1.6206  -63.2700 H   0  0  0  0  0  0  0  0  0  0  0  0
    4.0840    3.2410  -58.1050 H   0  0  0  0  0  0  0  0  0  0  0  0
  1  2  2  0
  2  3  1  0
  3  4  1  0
  4  5  1  0
  5  6  2  0
  6  7  1  0
  7  8  1  0
  7  9  2  0
  9 10  1  0
  2 11  1  0
 11 12  2  0
 12 13  1  0
 13 14  1  0
 14 15  1  0
 15 16  1  0
 13 17  2  0
 17 18  1  0
 10  4  2  0
 18 11  1  0
 16 14  1  0
  3 19  1  0
  5 20  1  0
  6 21  1  0
  9 22  1  0
 10 23  1  0
 14 24  1  0
 15 25  1  0
 15 26  1  0
 16 27  1  0
 16 28  1  0
 18 29  1  0
M  END
>  <meeko>  (117) 
{"is_sidechain": false}

$$$$

     RDKit          3D

 29 31  0  0  0  0  0  0  0  0999 V2000
    6.9070    2.9850  -57.6170 O   0  0  0  0  0  0  0  0  0  0  0  0
    6.7460    2.7150  -58.8020 C   0  0  0  0  0  0  0  0  0  0  0  0
    7.7630    2.6970  -59.7520 N   0  0  0  0  0  0  0  0  0  0  0  0
    9.1120    3.0680  -59.5720 C   0  0  0  0  0  0  0  0  0  0  0  0
    9.9720    2.4710  -58.6470 C   0  0  0  0  0  0  0  0  0  0  0  0
   11.2960    2.9080  -58.5210 C   0  0  0  0  0  0  0  0  0  0  0  0
   11.7640    3.9490  -59.3180 C   0  0  0  0  0  0  0  0  0  0  0  0
   13.3890    4.4880  -59.1610 Cl  0  0  0  0  0  0  0  0  0  0  0  0
   10.9180    4.5570  -60.2400 C   0  0  0  0  0  0  0  0  0  0  0  0
    9.5960    4.1190  -60.3640 C   0  0  0  0  0  0  0  0  0  0  0  0
    5.4520    2.3730  -59.3570 C   0  0  0  0  0  0  0  0  0  0  0  0
    4.2930    2.6510  -58.7920 N   0  0  0  0  0  0  0  0  0  0  0  0
    3.2910    2.1700  -59.6080 N   0  0  0  0  0  0  0  0  0  0  0  0
    3.8560    1.6440  -60.6700 C   0  0  0  0  0  0  0  0  0  0  0  0
    3.0640    1.0230  -61.8490 C   0  0  0  0  0  0  0  0  0  0  0  0
    2.6100    1.8950  -62.9890 C   0  0  0  0  0  0  0  0  0  0  0  0
    3.7020    0.8860  -63.2060 C   0  0  0  0  0  0  0  0  0  0  0  0
    5.2100    1.7480  -60.5540 N   0  0  0  0  0  0  0  0  0  0  0  0
    7.5480    2.2460  -60.6320 H   0  0  0  0  0  0  0  0  0  0  0  0
    9.6057    1.6506  -58.0123 H   0  0  0  0  0  0  0  0  0  0  0  0
   11.9664    2.4289  -57.7923 H   0  0  0  0  0  0  0  0  0  0  0  0
   11.2880    5.3797  -60.8695 H   0  0  0  0  0  0  0  0  0  0  0  0
    8.9282    4.6043  -61.0910 H   0  0  0  0  0  0  0  0  0  0  0  0
    2.5713    0.3311  -61.1501 H   0  0  0  0  0  0  0  0  0  0  0  0
    1.6191    1.7383  -63.4402 H   0  0  0  0  0  0  0  0  0  0  0  0
    2.5108    2.9791  -63.1467 H   0  0  0  0  0  0  0  0  0  0  0  0
    3.5103   -0.0091  -63.8159 H   0  0  0  0  0  0  0  0  0  0  0  0
    4.7327    0.9259  -63.5882 H   0  0  0  0  0  0  0  0  0  0  0  0
    5.8940    1.4740  -61.2430 H   0  0  0  0  0  0  0  0  0  0  0  0
  1  2  2  0
  2  3  1  0
  3  4  1  0
  4  5  1  0
  5  6  2  0
  6  7  1  0
  7  8  1  0
  7  9  2  0
  9 10  1  0
  2 11  1  0
 11 12  2  0
 12 13  1  0
 13 14  2  0
 14 15  1  0
 15 16  1  0
 16 17  1  0
 14 18  1  0
 10  4  2  0
 18 11  1  0
 17 15  1  0
  3 19  1  0
  5 20  1  0
  6 21  1  0
  9 22  1  0
 10 23  1  0
 15 24  1  0
 16 25  1  0
 16 26  1  0
 17 27  1  0
 17 28  1  0
 18 29  1  0
M  END
>  <meeko>  (118) 
{"is_sidechain": false}

$$$$

     RDKit          3D

 29 31  0  0  0  0  0  0  0  0999 V2000
    7.4050    1.9150  -58.2630 O   0  0  0  0  0  0  0  0  0  0  0  0
    6.8270    2.5670  -59.1270 C   0  0  0  0  0  0  0  0  0  0  0  0
    7.3460    3.6610  -59.8040 N   0  0  0  0  0  0  0  0  0  0  0  0
    8.6070    4.2610  -59.6670 C   0  0  0  0  0  0  0  0  0  0  0  0
    9.5500    3.9990  -60.6700 C   0  0  0  0  0  0  0  0  0  0  0  0
   10.8310    4.5570  -60.6090 C   0  0  0  0  0  0  0  0  0  0  0  0
   11.1740    5.3820  -59.5410 C   0  0  0  0  0  0  0  0  0  0  0  0
   12.7480    6.0700  -59.4620 Cl  0  0  0  0  0  0  0  0  0  0  0  0
   10.2470    5.6500  -58.5380 C   0  0  0  0  0  0  0  0  0  0  0  0
    8.9650    5.0900  -58.6010 C   0  0  0  0  0  0  0  0  0  0  0  0
    5.4480    2.2550  -59.5740 C   0  0  0  0  0  0  0  0  0  0  0  0
    4.3580    2.5750  -58.8360 N   0  0  0  0  0  0  0  0  0  0  0  0
    3.3610    2.1160  -59.6140 N   0  0  0  0  0  0  0  0  0  0  0  0
    3.8370    1.5530  -60.7560 C   0  0  0  0  0  0  0  0  0  0  0  0
    2.9800    0.9160  -61.8750 C   0  0  0  0  0  0  0  0  0  0  0  0
    3.6110    0.6760  -63.2220 C   0  0  0  0  0  0  0  0  0  0  0  0
    2.5790    1.7540  -63.0610 C   0  0  0  0  0  0  0  0  0  0  0  0
    5.1460    1.6190  -60.7630 N   0  0  0  0  0  0  0  0  0  0  0  0
    6.6990    4.0580  -60.4830 H   0  0  0  0  0  0  0  0  0  0  0  0
    9.2798    3.3476  -61.5142 H   0  0  0  0  0  0  0  0  0  0  0  0
   11.5642    4.3451  -61.4011 H   0  0  0  0  0  0  0  0  0  0  0  0
   10.5215    6.3019  -57.6955 H   0  0  0  0  0  0  0  0  0  0  0  0
    8.2353    5.3042  -57.8062 H   0  0  0  0  0  0  0  0  0  0  0  0
    2.3980    2.2190  -59.3150 H   0  0  0  0  0  0  0  0  0  0  0  0
    2.4398    0.2978  -61.1429 H   0  0  0  0  0  0  0  0  0  0  0  0
    4.6643    0.9442  -63.3912 H   0  0  0  0  0  0  0  0  0  0  0  0
    3.7268   -0.1967  -63.8815 H   0  0  0  0  0  0  0  0  0  0  0  0
    2.8765    2.8118  -63.1124 H   0  0  0  0  0  0  0  0  0  0  0  0
    1.6262    1.9975  -63.5539 H   0  0  0  0  0  0  0  0  0  0  0  0
  1  2  2  0
  2  3  1  0
  3  4  1  0
  4  5  1  0
  5  6  2  0
  6  7  1  0
  7  8  1  0
  7  9  2  0
  9 10  1  0
  2 11  1  0
 11 12  2  0
 12 13  1  0
 13 14  1  0
 14 15  1  0
 15 16  1  0
 16 17  1  0
 14 18  2  0
 10  4  2  0
 18 11  1  0
 17 15  1  0
  3 19  1  0
  5 20  1  0
  6 21  1  0
  9 22  1  0
 10 23  1  0
 13 24  1  0
 15 25  1  0
 16 26  1  0
 16 27  1  0
 17 28  1  0
 17 29  1  0
M  END
>  <meeko>  (119) 
{"is_sidechain": false}

$$$$

     RDKit          3D

 36 39  0  0  0  0  0  0  0  0999 V2000
    5.8500    2.3670  -59.0620 O   0  0  0  0  0  0  0  0  0  0  0  0
    6.1280    2.3850  -60.2560 C   0  0  0  0  0  0  0  0  0  0  0  0
    7.3190    2.8540  -60.7700 N   0  0  0  0  0  0  0  0  0  0  0  0
    8.4310    3.4000  -59.9960 C   0  0  2  0  0  0  0  0  0  0  0  0
    8.9730    2.3720  -58.9710 C   0  0  0  0  0  0  0  0  0  0  0  0
   10.1730    2.9550  -58.2040 C   0  0  1  0  0  0  0  0  0  0  0  0
   11.2920    3.3010  -59.1980 C   0  0  0  0  0  0  0  0  0  0  0  0
   10.7880    4.3360  -60.2150 C   0  0  2  0  0  0  0  0  0  0  0  0
   10.3510    5.6090  -59.4720 C   0  0  0  0  0  0  0  0  0  0  0  0
    9.2260    5.2760  -58.4800 C   0  0  2  0  0  0  0  0  0  0  0  0
    9.7340    4.2320  -57.4700 C   0  0  0  0  0  0  0  0  0  0  0  0
    8.0250    4.6950  -59.2470 C   0  0  0  0  0  0  0  0  0  0  0  0
    9.5840    3.7550  -60.9720 C   0  0  0  0  0  0  0  0  0  0  0  0
    5.1960    1.8960  -61.2760 C   0  0  0  0  0  0  0  0  0  0  0  0
    4.1130    0.9990  -61.0930 C   0  0  0  0  0  0  0  0  0  0  0  0
    3.5650    0.8660  -62.3400 C   0  0  0  0  0  0  0  0  0  0  0  0
    4.2570    1.6240  -63.2230 O   0  0  0  0  0  0  0  0  0  0  0  0
    5.2860    2.2760  -62.5650 N   0  0  0  0  0  0  0  0  0  0  0  0
    7.4000    2.8030  -61.7820 H   0  0  0  0  0  0  0  0  0  0  0  0
    8.1757    2.1185  -58.2568 H   0  0  0  0  0  0  0  0  0  0  0  0
    9.3002    1.4710  -59.5106 H   0  0  0  0  0  0  0  0  0  0  0  0
   10.5403    2.2168  -57.4760 H   0  0  0  0  0  0  0  0  0  0  0  0
   12.1506    3.7165  -58.6501 H   0  0  0  0  0  0  0  0  0  0  0  0
   11.5968    2.3885  -59.7314 H   0  0  0  0  0  0  0  0  0  0  0  0
   11.5925    4.5795  -60.9246 H   0  0  0  0  0  0  0  0  0  0  0  0
   11.2096    6.0241  -58.9237 H   0  0  0  0  0  0  0  0  0  0  0  0
    9.9839    6.3459  -60.2015 H   0  0  0  0  0  0  0  0  0  0  0  0
    8.9192    6.1893  -57.9492 H   0  0  0  0  0  0  0  0  0  0  0  0
   10.5904    4.6467  -56.9181 H   0  0  0  0  0  0  0  0  0  0  0  0
    8.9220    3.9836  -56.7707 H   0  0  0  0  0  0  0  0  0  0  0  0
    7.2191    4.4633  -58.5350 H   0  0  0  0  0  0  0  0  0  0  0  0
    7.6811    5.4372  -59.9825 H   0  0  0  0  0  0  0  0  0  0  0  0
    9.2238    4.4978  -61.6990 H   0  0  0  0  0  0  0  0  0  0  0  0
    9.9035    2.8361  -61.4854 H   0  0  0  0  0  0  0  0  0  0  0  0
    3.7868    0.5183  -60.1589 H   0  0  0  0  0  0  0  0  0  0  0  0
    2.6955    0.2392  -62.5871 H   0  0  0  0  0  0  0  0  0  0  0  0
  1  2  2  0
  2  3  1  0
  4  3  1  6
  4  5  1  0
  5  6  1  0
  6  7  1  0
  7  8  1  0
  8  9  1  0
  9 10  1  0
 10 11  1  0
 10 12  1  0
  8 13  1  0
  2 14  1  0
 14 15  1  0
 15 16  2  0
 16 17  1  0
 17 18  1  0
 12  4  1  0
 18 14  2  0
 13  4  1  0
 11  6  1  0
  3 19  1  0
  5 20  1  0
  5 21  1  0
  6 22  1  1
  7 23  1  0
  7 24  1  0
  8 25  1  6
  9 26  1  0
  9 27  1  0
 10 28  1  1
 11 29  1  0
 11 30  1  0
 12 31  1  0
 12 32  1  0
 13 33  1  0
 13 34  1  0
 15 35  1  0
 16 36  1  0
M  END
>  <meeko>  (120) 
{"is_sidechain": false}

$$$$

     RDKit          3D

 35 38  0  0  0  0  0  0  0  0999 V2000
    5.8500    2.5060  -59.0910 O   0  0  0  0  0  0  0  0  0  0  0  0
    6.1480    2.4620  -60.2800 C   0  0  0  0  0  0  0  0  0  0  0  0
    7.3730    2.8790  -60.7780 N   0  0  0  0  0  0  0  0  0  0  0  0
    8.4740    3.4250  -59.9840 C   0  0  2  0  0  0  0  0  0  0  0  0
    8.0660    4.7340  -59.2630 C   0  0  0  0  0  0  0  0  0  0  0  0
    9.2570    5.3130  -58.4780 C   0  0  1  0  0  0  0  0  0  0  0  0
    9.7320    4.2780  -57.4430 C   0  0  0  0  0  0  0  0  0  0  0  0
   10.1750    2.9860  -58.1500 C   0  0  2  0  0  0  0  0  0  0  0  0
   11.3180    3.3080  -59.1250 C   0  0  0  0  0  0  0  0  0  0  0  0
   10.8460    4.3340  -60.1670 C   0  0  2  0  0  0  0  0  0  0  0  0
   10.4060    5.6210  -59.4510 C   0  0  0  0  0  0  0  0  0  0  0  0
    9.6510    3.7540  -60.9410 C   0  0  0  0  0  0  0  0  0  0  0  0
    8.9850    2.4050  -58.9350 C   0  0  0  0  0  0  0  0  0  0  0  0
    5.2280    1.9540  -61.3160 C   0  0  0  0  0  0  0  0  0  0  0  0
    4.2330    1.0240  -61.0810 N   0  0  0  0  0  0  0  0  0  0  0  0
    3.6930    0.8890  -62.2630 C   0  0  0  0  0  0  0  0  0  0  0  0
    4.2670    1.6550  -63.2230 O   0  0  0  0  0  0  0  0  0  0  0  0
    5.2920    2.3690  -62.6000 N   0  0  0  0  0  0  0  0  0  0  0  0
    7.4920    2.7880  -61.7810 H   0  0  0  0  0  0  0  0  0  0  0  0
    7.7332    5.4697  -60.0100 H   0  0  0  0  0  0  0  0  0  0  0  0
    7.2508    4.5121  -58.5586 H   0  0  0  0  0  0  0  0  0  0  0  0
    8.9492    6.2365  -57.9658 H   0  0  0  0  0  0  0  0  0  0  0  0
   10.5799    4.6920  -56.8776 H   0  0  0  0  0  0  0  0  0  0  0  0
    8.9021    4.0469  -56.7590 H   0  0  0  0  0  0  0  0  0  0  0  0
   10.5202    2.2543  -57.4047 H   0  0  0  0  0  0  0  0  0  0  0  0
   12.1689    3.7228  -58.5647 H   0  0  0  0  0  0  0  0  0  0  0  0
   11.6246    2.3854  -59.6396 H   0  0  0  0  0  0  0  0  0  0  0  0
   11.6676    4.5596  -60.8627 H   0  0  0  0  0  0  0  0  0  0  0  0
   11.2570    6.0355  -58.8906 H   0  0  0  0  0  0  0  0  0  0  0  0
   10.0612    6.3508  -60.1983 H   0  0  0  0  0  0  0  0  0  0  0  0
    9.3138    4.4898  -61.6859 H   0  0  0  0  0  0  0  0  0  0  0  0
    9.9713    2.8245  -61.4344 H   0  0  0  0  0  0  0  0  0  0  0  0
    9.3048    1.4868  -59.4494 H   0  0  0  0  0  0  0  0  0  0  0  0
    8.1701    2.1821  -58.2306 H   0  0  0  0  0  0  0  0  0  0  0  0
    2.8477    0.2138  -62.4616 H   0  0  0  0  0  0  0  0  0  0  0  0
  1  2  2  0
  2  3  1  0
  4  3  1  6
  4  5  1  0
  5  6  1  0
  6  7  1  0
  7  8  1  0
  8  9  1  0
  9 10  1  0
 10 11  1  0
 10 12  1  0
  8 13  1  0
  2 14  1  0
 14 15  1  0
 15 16  2  0
 16 17  1  0
 17 18  1  0
 12  4  1  0
 18 14  2  0
 13  4  1  0
 11  6  1  0
  3 19  1  0
  5 20  1  0
  5 21  1  0
  6 22  1  1
  7 23  1  0
  7 24  1  0
  8 25  1  1
  9 26  1  0
  9 27  1  0
 10 28  1  6
 11 29  1  0
 11 30  1  0
 12 31  1  0
 12 32  1  0
 13 33  1  0
 13 34  1  0
 16 35  1  0
M  END
>  <meeko>  (121) 
{"is_sidechain": false}

$$$$

     RDKit          3D

 36 39  0  0  0  0  0  0  0  0999 V2000
    5.9810    2.5130  -58.8810 O   0  0  0  0  0  0  0  0  0  0  0  0
    6.2300    2.4810  -60.0810 C   0  0  0  0  0  0  0  0  0  0  0  0
    7.4200    2.8950  -60.6400 N   0  0  0  0  0  0  0  0  0  0  0  0
    8.5700    3.4340  -59.9160 C   0  0  2  0  0  0  0  0  0  0  0  0
    9.1490    2.4020  -58.9160 C   0  0  0  0  0  0  0  0  0  0  0  0
   10.3860    2.9770  -58.2040 C   0  0  1  0  0  0  0  0  0  0  0  0
   11.4630    3.3140  -59.2470 C   0  0  0  0  0  0  0  0  0  0  0  0
   10.9220    4.3530  -60.2420 C   0  0  2  0  0  0  0  0  0  0  0  0
   10.5260    5.6290  -59.4810 C   0  0  0  0  0  0  0  0  0  0  0  0
    9.4440    5.3040  -58.4390 C   0  0  2  0  0  0  0  0  0  0  0  0
    9.9880    4.2570  -57.4520 C   0  0  0  0  0  0  0  0  0  0  0  0
    8.2060    4.7310  -59.1520 C   0  0  0  0  0  0  0  0  0  0  0  0
    9.6810    3.7790  -60.9440 C   0  0  0  0  0  0  0  0  0  0  0  0
    5.2560    1.9830  -61.0720 C   0  0  0  0  0  0  0  0  0  0  0  0
    4.1590    1.1040  -60.7700 C   0  0  0  0  0  0  0  0  0  0  0  0
    3.4280    0.8170  -61.9000 C   0  0  0  0  0  0  0  0  0  0  0  0
    4.1320    1.6350  -63.2230 S   0  0  0  0  0  0  0  0  0  0  0  0
    5.3550    2.3460  -62.3600 N   0  0  0  0  0  0  0  0  0  0  0  0
    7.4660    2.8020  -61.6520 H   0  0  0  0  0  0  0  0  0  0  0  0
    8.3825    2.1545  -58.1668 H   0  0  0  0  0  0  0  0  0  0  0  0
    9.4448    1.4982  -59.4688 H   0  0  0  0  0  0  0  0  0  0  0  0
   10.7809    2.2369  -57.4925 H   0  0  0  0  0  0  0  0  0  0  0  0
   12.3481    3.7231  -58.7379 H   0  0  0  0  0  0  0  0  0  0  0  0
   11.7370    2.3990  -59.7926 H   0  0  0  0  0  0  0  0  0  0  0  0
   11.6961    4.5914  -60.9863 H   0  0  0  0  0  0  0  0  0  0  0  0
   11.4107    6.0391  -58.9720 H   0  0  0  0  0  0  0  0  0  0  0  0
   10.1308    6.3673  -60.1942 H   0  0  0  0  0  0  0  0  0  0  0  0
    9.1683    6.2197  -57.8954 H   0  0  0  0  0  0  0  0  0  0  0  0
   10.8703    4.6659  -56.9379 H   0  0  0  0  0  0  0  0  0  0  0  0
    9.2055    4.0141  -56.7180 H   0  0  0  0  0  0  0  0  0  0  0  0
    7.4306    4.5053  -58.4051 H   0  0  0  0  0  0  0  0  0  0  0  0
    7.8349    5.4751  -59.8722 H   0  0  0  0  0  0  0  0  0  0  0  0
    9.2940    4.5230  -61.6558 H   0  0  0  0  0  0  0  0  0  0  0  0
    9.9707    2.8571  -61.4696 H   0  0  0  0  0  0  0  0  0  0  0  0
    3.9336    0.7123  -59.7671 H   0  0  0  0  0  0  0  0  0  0  0  0
    2.5397    0.1696  -61.9436 H   0  0  0  0  0  0  0  0  0  0  0  0
  1  2  2  0
  2  3  1  0
  4  3  1  6
  4  5  1  0
  5  6  1  0
  6  7  1  0
  7  8  1  0
  8  9  1  0
  9 10  1  0
 10 11  1  0
 10 12  1  0
  8 13  1  0
  2 14  1  0
 14 15  1  0
 15 16  2  0
 16 17  1  0
 17 18  1  0
 12  4  1  0
 18 14  2  0
 13  4  1  0
 11  6  1  0
  3 19  1  0
  5 20  1  0
  5 21  1  0
  6 22  1  1
  7 23  1  0
  7 24  1  0
  8 25  1  6
  9 26  1  0
  9 27  1  0
 10 28  1  1
 11 29  1  0
 11 30  1  0
 12 31  1  0
 12 32  1  0
 13 33  1  0
 13 34  1  0
 15 35  1  0
 16 36  1  0
M  END
>  <meeko>  (122) 
{"is_sidechain": false}

$$$$

     RDKit          3D

 36 39  0  0  0  0  0  0  0  0999 V2000
    5.8170    2.4090  -59.0360 O   0  0  0  0  0  0  0  0  0  0  0  0
    6.1110    2.4100  -60.2240 C   0  0  0  0  0  0  0  0  0  0  0  0
    7.3050    2.8560  -60.7440 N   0  0  0  0  0  0  0  0  0  0  0  0
    8.4230    3.4010  -59.9770 C   0  0  2  0  0  0  0  0  0  0  0  0
    8.9810    2.3670  -58.9670 C   0  0  0  0  0  0  0  0  0  0  0  0
   10.1860    2.9500  -58.2060 C   0  0  1  0  0  0  0  0  0  0  0  0
   11.2930    3.3110  -59.2090 C   0  0  0  0  0  0  0  0  0  0  0  0
   10.7720    4.3530  -60.2120 C   0  0  2  0  0  0  0  0  0  0  0  0
   10.3340    5.6150  -59.4530 C   0  0  0  0  0  0  0  0  0  0  0  0
    9.2210    5.2670  -58.4520 C   0  0  2  0  0  0  0  0  0  0  0  0
    9.7460    4.2180  -57.4560 C   0  0  0  0  0  0  0  0  0  0  0  0
    8.0170    4.6860  -59.2120 C   0  0  0  0  0  0  0  0  0  0  0  0
    9.5630    3.7710  -60.9620 C   0  0  0  0  0  0  0  0  0  0  0  0
    5.2060    1.9260  -61.2580 C   0  0  0  0  0  0  0  0  0  0  0  0
    5.1730    2.3300  -62.5720 C   0  0  0  0  0  0  0  0  0  0  0  0
    4.1860    1.6380  -63.2050 O   0  0  0  0  0  0  0  0  0  0  0  0
    3.6650    0.8430  -62.2310 C   0  0  0  0  0  0  0  0  0  0  0  0
    4.2260    0.9630  -61.0480 N   0  0  0  0  0  0  0  0  0  0  0  0
    7.3840    2.7840  -61.7550 H   0  0  0  0  0  0  0  0  0  0  0  0
    8.1923    2.1024  -58.2473 H   0  0  0  0  0  0  0  0  0  0  0  0
    9.3080    1.4730  -59.5182 H   0  0  0  0  0  0  0  0  0  0  0  0
   10.5656    2.2081  -57.4880 H   0  0  0  0  0  0  0  0  0  0  0  0
   12.1551    3.7263  -58.6666 H   0  0  0  0  0  0  0  0  0  0  0  0
   11.5972    2.4050  -59.7537 H   0  0  0  0  0  0  0  0  0  0  0  0
   11.5678    4.6083  -60.9273 H   0  0  0  0  0  0  0  0  0  0  0  0
   11.1955    6.0307  -58.9098 H   0  0  0  0  0  0  0  0  0  0  0  0
    9.9539    6.3552  -60.1725 H   0  0  0  0  0  0  0  0  0  0  0  0
    8.9137    6.1734  -57.9098 H   0  0  0  0  0  0  0  0  0  0  0  0
   10.6052    4.6337  -56.9092 H   0  0  0  0  0  0  0  0  0  0  0  0
    8.9430    3.9583  -56.7505 H   0  0  0  0  0  0  0  0  0  0  0  0
    7.2197    4.4427  -58.4943 H   0  0  0  0  0  0  0  0  0  0  0  0
    7.6615    5.4329  -59.9371 H   0  0  0  0  0  0  0  0  0  0  0  0
    9.1908    4.5178  -61.6787 H   0  0  0  0  0  0  0  0  0  0  0  0
    9.8824    2.8586  -61.4869 H   0  0  0  0  0  0  0  0  0  0  0  0
    5.8305    3.0823  -63.0322 H   0  0  0  0  0  0  0  0  0  0  0  0
    2.8330    0.1488  -62.4202 H   0  0  0  0  0  0  0  0  0  0  0  0
  1  2  2  0
  2  3  1  0
  4  3  1  6
  4  5  1  0
  5  6  1  0
  6  7  1  0
  7  8  1  0
  8  9  1  0
  9 10  1  0
 10 11  1  0
 10 12  1  0
  8 13  1  0
  2 14  1  0
 14 15  2  0
 15 16  1  0
 16 17  1  0
 17 18  2  0
 12  4  1  0
 18 14  1  0
 13  4  1  0
 11  6  1  0
  3 19  1  0
  5 20  1  0
  5 21  1  0
  6 22  1  1
  7 23  1  0
  7 24  1  0
  8 25  1  6
  9 26  1  0
  9 27  1  0
 10 28  1  1
 11 29  1  0
 11 30  1  0
 12 31  1  0
 12 32  1  0
 13 33  1  0
 13 34  1  0
 15 35  1  0
 17 36  1  0
M  END
>  <meeko>  (123) 
{"is_sidechain": false}

$$$$

     RDKit          3D

 27 28  0  0  0  0  0  0  0  0999 V2000
   11.6650   -2.9550  -52.9200 O   0  0  0  0  0  0  0  0  0  0  0  0
   10.5560   -2.8260  -53.4320 C   0  0  0  0  0  0  0  0  0  0  0  0
   10.3130   -3.1020  -54.7700 N   0  0  0  0  0  0  0  0  0  0  0  0
   11.3100   -3.7090  -55.6330 C   0  0  0  0  0  0  0  0  0  0  0  0
   11.5830   -2.8140  -56.8520 C   0  0  0  0  0  0  0  0  0  0  0  0
   12.1080   -3.5770  -58.0710 C   0  0  0  0  0  0  0  0  0  0  0  0
   12.8590   -4.8400  -57.6740 C   0  0  0  0  0  0  0  0  0  0  0  0
   11.9690   -5.8090  -56.8940 C   0  0  0  0  0  0  0  0  0  0  0  0
   10.8850   -5.1150  -56.0650 C   0  0  0  0  0  0  0  0  0  0  0  0
    9.3680   -2.3790  -52.6840 C   0  0  0  0  0  0  0  0  0  0  0  0
    8.8950   -2.9950  -51.5400 N   0  0  0  0  0  0  0  0  0  0  0  0
    7.8490   -2.2680  -51.2440 C   0  0  0  0  0  0  0  0  0  0  0  0
    7.6230   -1.2490  -52.1090 O   0  0  0  0  0  0  0  0  0  0  0  0
    8.6290   -1.3160  -53.0730 N   0  0  0  0  0  0  0  0  0  0  0  0
    9.3390   -3.0870  -55.0600 H   0  0  0  0  0  0  0  0  0  0  0  0
   12.2448   -3.8067  -55.0616 H   0  0  0  0  0  0  0  0  0  0  0  0
   10.6442   -2.3143  -57.1331 H   0  0  0  0  0  0  0  0  0  0  0  0
   12.3667   -2.1005  -56.5576 H   0  0  0  0  0  0  0  0  0  0  0  0
   11.2564   -3.8560  -58.7089 H   0  0  0  0  0  0  0  0  0  0  0  0
   12.8086   -2.9198  -58.6070 H   0  0  0  0  0  0  0  0  0  0  0  0
   13.2186   -5.3414  -58.5846 H   0  0  0  0  0  0  0  0  0  0  0  0
   13.6981   -4.5489  -57.0251 H   0  0  0  0  0  0  0  0  0  0  0  0
   11.4792   -6.4847  -57.6107 H   0  0  0  0  0  0  0  0  0  0  0  0
   12.6193   -6.3468  -56.1884 H   0  0  0  0  0  0  0  0  0  0  0  0
    9.9688   -5.0398  -56.6690 H   0  0  0  0  0  0  0  0  0  0  0  0
   10.7137   -5.7134  -55.1580 H   0  0  0  0  0  0  0  0  0  0  0  0
    7.2096   -2.4657  -50.3710 H   0  0  0  0  0  0  0  0  0  0  0  0
  1  2  2  0
  2  3  1  0
  3  4  1  0
  4  5  1  0
  5  6  1  0
  6  7  1  0
  7  8  1  0
  8  9  1  0
  2 10  1  0
 10 11  1  0
 11 12  2  0
 12 13  1  0
 13 14  1  0
  9  4  1  0
 14 10  2  0
  3 15  1  0
  4 16  1  0
  5 17  1  0
  5 18  1  0
  6 19  1  0
  6 20  1  0
  7 21  1  0
  7 22  1  0
  8 23  1  0
  8 24  1  0
  9 25  1  0
  9 26  1  0
 12 27  1  0
M  END
>  <meeko>  (124) 
{"is_sidechain": false}

$$$$

     RDKit          3D

 36 39  0  0  0  0  0  0  0  0999 V2000
    6.0260    2.1500  -58.9550 O   0  0  0  0  0  0  0  0  0  0  0  0
    6.2110    2.3310  -60.1520 C   0  0  0  0  0  0  0  0  0  0  0  0
    7.3270    2.9230  -60.6980 N   0  0  0  0  0  0  0  0  0  0  0  0
    8.4750    3.4360  -59.9560 C   0  0  2  0  0  0  0  0  0  0  0  0
    9.6050    3.7690  -60.9670 C   0  0  0  0  0  0  0  0  0  0  0  0
   10.8480    4.3150  -60.2450 C   0  0  1  0  0  0  0  0  0  0  0  0
   10.4650    5.5930  -59.4800 C   0  0  0  0  0  0  0  0  0  0  0  0
    9.3630    5.2800  -58.4550 C   0  0  2  0  0  0  0  0  0  0  0  0
    9.8770    4.2180  -57.4680 C   0  0  0  0  0  0  0  0  0  0  0  0
   10.2610    2.9350  -58.2240 C   0  0  2  0  0  0  0  0  0  0  0  0
   11.3580    3.2600  -59.2500 C   0  0  0  0  0  0  0  0  0  0  0  0
    9.0240    2.3880  -58.9560 C   0  0  0  0  0  0  0  0  0  0  0  0
    8.1250    4.7340  -59.1870 C   0  0  0  0  0  0  0  0  0  0  0  0
    5.2410    1.9270  -61.1760 C   0  0  0  0  0  0  0  0  0  0  0  0
    4.1170    1.1610  -60.9200 C   0  0  0  0  0  0  0  0  0  0  0  0
    3.2330    0.8990  -62.3630 S   0  0  0  0  0  0  0  0  0  0  0  0
    4.3980    1.8170  -63.2230 C   0  0  0  0  0  0  0  0  0  0  0  0
    5.3950    2.3020  -62.5170 N   0  0  0  0  0  0  0  0  0  0  0  0
    7.3140    2.9920  -61.7120 H   0  0  0  0  0  0  0  0  0  0  0  0
    9.8793    2.8547  -61.5137 H   0  0  0  0  0  0  0  0  0  0  0  0
    9.2375    4.5384  -61.6620 H   0  0  0  0  0  0  0  0  0  0  0  0
   11.6358    4.5434  -60.9780 H   0  0  0  0  0  0  0  0  0  0  0  0
   11.3500    5.9833  -58.9561 H   0  0  0  0  0  0  0  0  0  0  0  0
   10.0932    6.3437  -60.1930 H   0  0  0  0  0  0  0  0  0  0  0  0
    9.0948    6.1967  -57.9094 H   0  0  0  0  0  0  0  0  0  0  0  0
   10.7605    4.6081  -56.9414 H   0  0  0  0  0  0  0  0  0  0  0  0
    9.0822    3.9849  -56.7442 H   0  0  0  0  0  0  0  0  0  0  0  0
   10.6321    2.1823  -57.5128 H   0  0  0  0  0  0  0  0  0  0  0  0
   12.2431    3.6504  -58.7263 H   0  0  0  0  0  0  0  0  0  0  0  0
   11.6240    2.3441  -59.7981 H   0  0  0  0  0  0  0  0  0  0  0  0
    9.3023    1.4760  -59.5044 H   0  0  0  0  0  0  0  0  0  0  0  0
    8.2436    2.1625  -58.2142 H   0  0  0  0  0  0  0  0  0  0  0  0
    7.3365    4.5169  -58.4514 H   0  0  0  0  0  0  0  0  0  0  0  0
    7.7765    5.4895  -59.9065 H   0  0  0  0  0  0  0  0  0  0  0  0
    3.8320    0.7753  -59.9301 H   0  0  0  0  0  0  0  0  0  0  0  0
    4.3156    1.9906  -64.3061 H   0  0  0  0  0  0  0  0  0  0  0  0
  1  2  2  0
  2  3  1  0
  4  3  1  6
  4  5  1  0
  5  6  1  0
  6  7  1  0
  7  8  1  0
  8  9  1  0
  9 10  1  0
 10 11  1  0
 10 12  1  0
  8 13  1  0
  2 14  1  0
 14 15  2  0
 15 16  1  0
 16 17  1  0
 17 18  2  0
 12  4  1  0
 18 14  1  0
 13  4  1  0
 11  6  1  0
  3 19  1  0
  5 20  1  0
  5 21  1  0
  6 22  1  6
  7 23  1  0
  7 24  1  0
  8 25  1  1
  9 26  1  0
  9 27  1  0
 10 28  1  1
 11 29  1  0
 11 30  1  0
 12 31  1  0
 12 32  1  0
 13 33  1  0
 13 34  1  0
 15 35  1  0
 17 36  1  0
M  END
>  <meeko>  (125) 
{"is_sidechain": false}

$$$$

     RDKit          3D

 35 38  0  0  0  0  0  0  0  0999 V2000
    5.9290    2.3810  -58.9400 O   0  0  0  0  0  0  0  0  0  0  0  0
    6.1510    2.4060  -60.1470 C   0  0  0  0  0  0  0  0  0  0  0  0
    7.3320    2.8690  -60.7020 N   0  0  0  0  0  0  0  0  0  0  0  0
    8.4780    3.3920  -59.9600 C   0  0  2  0  0  0  0  0  0  0  0  0
    9.0420    2.3450  -58.9660 C   0  0  0  0  0  0  0  0  0  0  0  0
   10.2770    2.9030  -58.2370 C   0  0  1  0  0  0  0  0  0  0  0  0
   11.3650    3.2440  -59.2670 C   0  0  0  0  0  0  0  0  0  0  0  0
   10.8400    4.2980  -60.2550 C   0  0  2  0  0  0  0  0  0  0  0  0
   10.4470    5.5670  -59.4850 C   0  0  0  0  0  0  0  0  0  0  0  0
    9.3540    5.2400  -58.4560 C   0  0  2  0  0  0  0  0  0  0  0  0
    9.8810    4.1790  -57.4750 C   0  0  0  0  0  0  0  0  0  0  0  0
    8.1180    4.6840  -59.1870 C   0  0  0  0  0  0  0  0  0  0  0  0
    9.6010    3.7400  -60.9750 C   0  0  0  0  0  0  0  0  0  0  0  0
    5.1860    1.9420  -61.1730 C   0  0  0  0  0  0  0  0  0  0  0  0
    5.3380    2.3500  -62.5200 N   0  0  0  0  0  0  0  0  0  0  0  0
    4.3660    1.8110  -63.2230 C   0  0  0  0  0  0  0  0  0  0  0  0
    3.3170    0.8480  -62.2740 S   0  0  0  0  0  0  0  0  0  0  0  0
    4.1580    1.1370  -60.8670 N   0  0  0  0  0  0  0  0  0  0  0  0
    7.3730    2.8280  -61.7170 H   0  0  0  0  0  0  0  0  0  0  0  0
    8.2675    2.0947  -58.2261 H   0  0  0  0  0  0  0  0  0  0  0  0
    9.3365    1.4455  -59.5265 H   0  0  0  0  0  0  0  0  0  0  0  0
   10.6605    2.1524  -57.5303 H   0  0  0  0  0  0  0  0  0  0  0  0
   12.2486    3.6410  -58.7459 H   0  0  0  0  0  0  0  0  0  0  0  0
   11.6370    2.3332  -59.8206 H   0  0  0  0  0  0  0  0  0  0  0  0
   11.6224    4.5393  -60.9896 H   0  0  0  0  0  0  0  0  0  0  0  0
   11.3302    5.9652  -58.9641 H   0  0  0  0  0  0  0  0  0  0  0  0
   10.0631    6.3152  -60.1941 H   0  0  0  0  0  0  0  0  0  0  0  0
    9.0805    6.1518  -57.9047 H   0  0  0  0  0  0  0  0  0  0  0  0
   10.7614    4.5760  -56.9485 H   0  0  0  0  0  0  0  0  0  0  0  0
    9.0899    3.9344  -56.7509 H   0  0  0  0  0  0  0  0  0  0  0  0
    7.3335    4.4576  -58.4499 H   0  0  0  0  0  0  0  0  0  0  0  0
    7.7605    5.4382  -59.9035 H   0  0  0  0  0  0  0  0  0  0  0  0
    9.2257    4.4942  -61.6823 H   0  0  0  0  0  0  0  0  0  0  0  0
    9.8889    2.8219  -61.5081 H   0  0  0  0  0  0  0  0  0  0  0  0
    4.2407    1.9629  -64.3052 H   0  0  0  0  0  0  0  0  0  0  0  0
  1  2  2  0
  2  3  1  0
  4  3  1  6
  4  5  1  0
  5  6  1  0
  6  7  1  0
  7  8  1  0
  8  9  1  0
  9 10  1  0
 10 11  1  0
 10 12  1  0
  8 13  1  0
  2 14  1  0
 14 15  1  0
 15 16  2  0
 16 17  1  0
 17 18  1  0
 12  4  1  0
 18 14  2  0
 13  4  1  0
 11  6  1  0
  3 19  1  0
  5 20  1  0
  5 21  1  0
  6 22  1  1
  7 23  1  0
  7 24  1  0
  8 25  1  6
  9 26  1  0
  9 27  1  0
 10 28  1  1
 11 29  1  0
 11 30  1  0
 12 31  1  0
 12 32  1  0
 13 33  1  0
 13 34  1  0
 16 35  1  0
M  END
>  <meeko>  (126) 
{"is_sidechain": false}

$$$$

     RDKit          3D

 36 39  0  0  0  0  0  0  0  0999 V2000
    5.8140    2.4550  -59.1070 O   0  0  0  0  0  0  0  0  0  0  0  0
    6.1080    2.4270  -60.3000 C   0  0  0  0  0  0  0  0  0  0  0  0
    7.3280    2.8440  -60.8030 N   0  0  0  0  0  0  0  0  0  0  0  0
    8.4420    3.3730  -60.0200 C   0  0  2  0  0  0  0  0  0  0  0  0
    8.0560    4.6830  -59.2890 C   0  0  0  0  0  0  0  0  0  0  0  0
    9.2610    5.2450  -58.5140 C   0  0  1  0  0  0  0  0  0  0  0  0
    9.7340    4.2010  -57.4880 C   0  0  0  0  0  0  0  0  0  0  0  0
   10.1540    2.9070  -58.2050 C   0  0  2  0  0  0  0  0  0  0  0  0
   11.2920    3.2200  -59.1900 C   0  0  0  0  0  0  0  0  0  0  0  0
   10.8220    4.2560  -60.2220 C   0  0  2  0  0  0  0  0  0  0  0  0
   10.4030    5.5440  -59.4970 C   0  0  0  0  0  0  0  0  0  0  0  0
    9.6140    3.6940  -60.9870 C   0  0  0  0  0  0  0  0  0  0  0  0
    8.9510    2.3430  -58.9800 C   0  0  0  0  0  0  0  0  0  0  0  0
    5.1990    1.9440  -61.3640 C   0  0  0  0  0  0  0  0  0  0  0  0
    4.2100    0.9960  -61.1140 N   0  0  0  0  0  0  0  0  0  0  0  0
    3.6370    0.8410  -62.2840 C   0  0  0  0  0  0  0  0  0  0  0  0
    4.2390    1.6450  -63.1960 N   0  0  0  0  0  0  0  0  0  0  0  0
    5.2320    2.3560  -62.6440 N   0  0  0  0  0  0  0  0  0  0  0  0
    7.4220    2.7600  -61.8120 H   0  0  0  0  0  0  0  0  0  0  0  0
    7.7237    5.4258  -60.0292 H   0  0  0  0  0  0  0  0  0  0  0  0
    7.2456    4.4669  -58.5773 H   0  0  0  0  0  0  0  0  0  0  0  0
    8.9692    6.1699  -57.9950 H   0  0  0  0  0  0  0  0  0  0  0  0
   10.5926    4.6026  -56.9298 H   0  0  0  0  0  0  0  0  0  0  0  0
    8.9088    3.9772  -56.7959 H   0  0  0  0  0  0  0  0  0  0  0  0
   10.4971    2.1680  -57.4660 H   0  0  0  0  0  0  0  0  0  0  0  0
   12.1532    3.6220  -58.6361 H   0  0  0  0  0  0  0  0  0  0  0  0
   11.5829    2.2963  -59.7117 H   0  0  0  0  0  0  0  0  0  0  0  0
   11.6402    4.4754  -60.9238 H   0  0  0  0  0  0  0  0  0  0  0  0
   11.2639    5.9472  -58.9436 H   0  0  0  0  0  0  0  0  0  0  0  0
   10.0584    6.2801  -60.2382 H   0  0  0  0  0  0  0  0  0  0  0  0
    9.2780    4.4375  -61.7248 H   0  0  0  0  0  0  0  0  0  0  0  0
    9.9191    2.7636  -61.4883 H   0  0  0  0  0  0  0  0  0  0  0  0
    9.2554    1.4232  -59.5009 H   0  0  0  0  0  0  0  0  0  0  0  0
    8.1404    2.1264  -58.2687 H   0  0  0  0  0  0  0  0  0  0  0  0
    2.7968    0.1627  -62.4935 H   0  0  0  0  0  0  0  0  0  0  0  0
    4.0370    1.7620  -64.1820 H   0  0  0  0  0  0  0  0  0  0  0  0
  1  2  2  0
  2  3  1  0
  4  3  1  6
  4  5  1  0
  5  6  1  0
  6  7  1  0
  7  8  1  0
  8  9  1  0
  9 10  1  0
 10 11  1  0
 10 12  1  0
  8 13  1  0
  2 14  1  0
 14 15  1  0
 15 16  2  0
 16 17  1  0
 17 18  1  0
 12  4  1  0
 18 14  2  0
 13  4  1  0
 11  6  1  0
  3 19  1  0
  5 20  1  0
  5 21  1  0
  6 22  1  1
  7 23  1  0
  7 24  1  0
  8 25  1  1
  9 26  1  0
  9 27  1  0
 10 28  1  6
 11 29  1  0
 11 30  1  0
 12 31  1  0
 12 32  1  0
 13 33  1  0
 13 34  1  0
 16 35  1  0
 17 36  1  0
M  END
>  <meeko>  (127) 
{"is_sidechain": false}

$$$$

     RDKit          3D

 36 39  0  0  0  0  0  0  0  0999 V2000
    5.7930    2.5000  -59.1120 O   0  0  0  0  0  0  0  0  0  0  0  0
    6.1020    2.4390  -60.2970 C   0  0  0  0  0  0  0  0  0  0  0  0
    7.3160    2.8420  -60.8050 N   0  0  0  0  0  0  0  0  0  0  0  0
    8.4280    3.4000  -60.0350 C   0  0  2  0  0  0  0  0  0  0  0  0
    8.0500    4.7540  -59.3860 C   0  0  0  0  0  0  0  0  0  0  0  0
    9.2500    5.3430  -58.6240 C   0  0  1  0  0  0  0  0  0  0  0  0
    9.6920    4.3520  -57.5330 C   0  0  0  0  0  0  0  0  0  0  0  0
   10.1050    3.0140  -58.1690 C   0  0  2  0  0  0  0  0  0  0  0  0
   11.2620    3.2550  -59.1520 C   0  0  0  0  0  0  0  0  0  0  0  0
   10.8240    4.2370  -60.2490 C   0  0  2  0  0  0  0  0  0  0  0  0
   10.4120    5.5700  -59.6030 C   0  0  0  0  0  0  0  0  0  0  0  0
    9.6180    3.6480  -61.0000 C   0  0  0  0  0  0  0  0  0  0  0  0
    8.9050    2.4240  -58.9310 C   0  0  0  0  0  0  0  0  0  0  0  0
    5.2000    1.9280  -61.3000 C   0  0  0  0  0  0  0  0  0  0  0  0
    5.1590    2.3080  -62.5640 N   0  0  0  0  0  0  0  0  0  0  0  0
    4.1660    1.5860  -63.1870 N   0  0  0  0  0  0  0  0  0  0  0  0
    3.6290    0.7890  -62.2920 C   0  0  0  0  0  0  0  0  0  0  0  0
    4.2460    0.9690  -61.0950 N   0  0  0  0  0  0  0  0  0  0  0  0
    7.4230    2.7290  -61.8100 H   0  0  0  0  0  0  0  0  0  0  0  0
    7.7404    5.4579  -60.1725 H   0  0  0  0  0  0  0  0  0  0  0  0
    7.2256    4.5894  -58.6766 H   0  0  0  0  0  0  0  0  0  0  0  0
    8.9630    6.2997  -58.1632 H   0  0  0  0  0  0  0  0  0  0  0  0
   10.5472    4.7731  -56.9841 H   0  0  0  0  0  0  0  0  0  0  0  0
    8.8528    4.1785  -56.8433 H   0  0  0  0  0  0  0  0  0  0  0  0
   10.4267    2.3136  -57.3841 H   0  0  0  0  0  0  0  0  0  0  0  0
   12.1204    3.6759  -58.6080 H   0  0  0  0  0  0  0  0  0  0  0  0
   11.5464    2.2990  -59.6160 H   0  0  0  0  0  0  0  0  0  0  0  0
   11.6554    4.4053  -60.9493 H   0  0  0  0  0  0  0  0  0  0  0  0
   11.2699    5.9914  -59.0585 H   0  0  0  0  0  0  0  0  0  0  0  0
   10.0899    6.2680  -60.3898 H   0  0  0  0  0  0  0  0  0  0  0  0
    9.3040    4.3522  -61.7845 H   0  0  0  0  0  0  0  0  0  0  0  0
    9.9166    2.6861  -61.4422 H   0  0  0  0  0  0  0  0  0  0  0  0
    9.2034    1.4720  -59.3942 H   0  0  0  0  0  0  0  0  0  0  0  0
    8.0803    2.2597  -58.2219 H   0  0  0  0  0  0  0  0  0  0  0  0
    2.8062    0.0841  -62.4822 H   0  0  0  0  0  0  0  0  0  0  0  0
    4.0600    0.5050  -60.2170 H   0  0  0  0  0  0  0  0  0  0  0  0
  1  2  2  0
  2  3  1  0
  4  3  1  6
  4  5  1  0
  5  6  1  0
  6  7  1  0
  7  8  1  0
  8  9  1  0
  9 10  1  0
 10 11  1  0
 10 12  1  0
  8 13  1  0
  2 14  1  0
 14 15  2  0
 15 16  1  0
 16 17  2  0
 17 18  1  0
 12  4  1  0
 18 14  1  0
 13  4  1  0
 11  6  1  0
  3 19  1  0
  5 20  1  0
  5 21  1  0
  6 22  1  1
  7 23  1  0
  7 24  1  0
  8 25  1  1
  9 26  1  0
  9 27  1  0
 10 28  1  6
 11 29  1  0
 11 30  1  0
 12 31  1  0
 12 32  1  0
 13 33  1  0
 13 34  1  0
 17 35  1  0
 18 36  1  0
M  END
>  <meeko>  (128) 
{"is_sidechain": false}

$$$$

     RDKit          3D

 36 39  0  0  0  0  0  0  0  0999 V2000
    5.8340    2.5380  -59.0750 O   0  0  0  0  0  0  0  0  0  0  0  0
    6.0810    2.4570  -60.2730 C   0  0  0  0  0  0  0  0  0  0  0  0
    7.2870    2.8830  -60.8190 N   0  0  0  0  0  0  0  0  0  0  0  0
    8.4070    3.4080  -60.0210 C   0  0  2  0  0  0  0  0  0  0  0  0
    9.5940    3.6830  -60.9860 C   0  0  0  0  0  0  0  0  0  0  0  0
   10.8120    4.2280  -60.2230 C   0  0  1  0  0  0  0  0  0  0  0  0
   10.4240    5.5410  -59.5270 C   0  0  0  0  0  0  0  0  0  0  0  0
    9.2650    5.2910  -58.5480 C   0  0  2  0  0  0  0  0  0  0  0  0
    9.7020    4.2550  -57.4980 C   0  0  0  0  0  0  0  0  0  0  0  0
   10.0940    2.9360  -58.1860 C   0  0  2  0  0  0  0  0  0  0  0  0
   11.2470    3.1990  -59.1670 C   0  0  0  0  0  0  0  0  0  0  0  0
    8.8820    2.3870  -58.9580 C   0  0  0  0  0  0  0  0  0  0  0  0
    8.0520    4.7460  -59.3240 C   0  0  0  0  0  0  0  0  0  0  0  0
    5.1580    1.9060  -61.2450 C   0  0  0  0  0  0  0  0  0  0  0  0
    4.2500    0.9770  -61.0070 N   0  0  0  0  0  0  0  0  0  0  0  0
    3.6420    0.8090  -62.2170 C   0  0  0  0  0  0  0  0  0  0  0  0
    4.1130    1.5790  -63.2000 N   0  0  0  0  0  0  0  0  0  0  0  0
    5.0510    2.2860  -62.5520 N   0  0  0  0  0  0  0  0  0  0  0  0
    7.5500    2.4450  -61.6910 H   0  0  0  0  0  0  0  0  0  0  0  0
    9.8743    2.7449  -61.4873 H   0  0  0  0  0  0  0  0  0  0  0  0
    9.2780    4.4356  -61.7233 H   0  0  0  0  0  0  0  0  0  0  0  0
   11.6405    4.4118  -60.9228 H   0  0  0  0  0  0  0  0  0  0  0  0
   11.2912    5.9308  -58.9738 H   0  0  0  0  0  0  0  0  0  0  0  0
   10.1070    6.2728  -60.2846 H   0  0  0  0  0  0  0  0  0  0  0  0
    8.9928    6.2328  -58.0490 H   0  0  0  0  0  0  0  0  0  0  0  0
   10.5662    4.6449  -56.9402 H   0  0  0  0  0  0  0  0  0  0  0  0
    8.8653    4.0663  -56.8093 H   0  0  0  0  0  0  0  0  0  0  0  0
   10.4128    2.2034  -57.4300 H   0  0  0  0  0  0  0  0  0  0  0  0
   12.1145    3.5885  -58.6141 H   0  0  0  0  0  0  0  0  0  0  0  0
   11.5172    2.2580  -59.6685 H   0  0  0  0  0  0  0  0  0  0  0  0
    9.1661    1.4495  -59.4583 H   0  0  0  0  0  0  0  0  0  0  0  0
    8.0614    2.2051  -58.2484 H   0  0  0  0  0  0  0  0  0  0  0  0
    7.2201    4.5794  -58.6239 H   0  0  0  0  0  0  0  0  0  0  0  0
    7.7627    5.4796  -60.0909 H   0  0  0  0  0  0  0  0  0  0  0  0
    2.8230    0.0910  -62.3710 H   0  0  0  0  0  0  0  0  0  0  0  0
    5.5600    3.0120  -63.0430 H   0  0  0  0  0  0  0  0  0  0  0  0
  1  2  2  0
  2  3  1  0
  4  3  1  6
  4  5  1  0
  5  6  1  0
  6  7  1  0
  7  8  1  0
  8  9  1  0
  9 10  1  0
 10 11  1  0
 10 12  1  0
  8 13  1  0
  2 14  1  0
 14 15  2  0
 15 16  1  0
 16 17  2  0
 17 18  1  0
 12  4  1  0
 18 14  1  0
 13  4  1  0
 11  6  1  0
  3 19  1  0
  5 20  1  0
  5 21  1  0
  6 22  1  6
  7 23  1  0
  7 24  1  0
  8 25  1  1
  9 26  1  0
  9 27  1  0
 10 28  1  1
 11 29  1  0
 11 30  1  0
 12 31  1  0
 12 32  1  0
 13 33  1  0
 13 34  1  0
 16 35  1  0
 18 36  1  0
M  END
>  <meeko>  (129) 
{"is_sidechain": false}

$$$$

     RDKit          3D

 35 38  0  0  0  0  0  0  0  0999 V2000
    5.9210    2.2490  -59.0640 O   0  0  0  0  0  0  0  0  0  0  0  0
    6.1180    2.3390  -60.2730 C   0  0  0  0  0  0  0  0  0  0  0  0
    7.2820    2.8690  -60.8090 N   0  0  0  0  0  0  0  0  0  0  0  0
    8.4180    3.3880  -60.0470 C   0  0  2  0  0  0  0  0  0  0  0  0
    8.0570    4.6960  -59.2980 C   0  0  0  0  0  0  0  0  0  0  0  0
    9.2820    5.2450  -58.5480 C   0  0  1  0  0  0  0  0  0  0  0  0
    9.7730    4.1920  -57.5390 C   0  0  0  0  0  0  0  0  0  0  0  0
   10.1690    2.9000  -58.2740 C   0  0  2  0  0  0  0  0  0  0  0  0
   11.2860    3.2130  -59.2820 C   0  0  0  0  0  0  0  0  0  0  0  0
   10.7980    4.2580  -60.2970 C   0  0  2  0  0  0  0  0  0  0  0  0
   10.4040    5.5440  -59.5540 C   0  0  0  0  0  0  0  0  0  0  0  0
    9.5690    3.7080  -61.0380 C   0  0  0  0  0  0  0  0  0  0  0  0
    8.9450    2.3480  -59.0260 C   0  0  0  0  0  0  0  0  0  0  0  0
    5.1710    1.9060  -61.2830 C   0  0  0  0  0  0  0  0  0  0  0  0
    5.1050    2.3280  -62.5340 N   0  0  0  0  0  0  0  0  0  0  0  0
    4.0510    1.6000  -63.0100 C   0  0  0  0  0  0  0  0  0  0  0  0
    3.4780    0.7690  -62.1370 N   0  0  0  0  0  0  0  0  0  0  0  0
    4.2270    0.9710  -60.9710 O   0  0  0  0  0  0  0  0  0  0  0  0
    7.3260    2.8880  -61.8250 H   0  0  0  0  0  0  0  0  0  0  0  0
    7.7122    5.4458  -60.0253 H   0  0  0  0  0  0  0  0  0  0  0  0
    7.2620    4.4798  -58.5691 H   0  0  0  0  0  0  0  0  0  0  0  0
    9.0064    6.1682  -58.0172 H   0  0  0  0  0  0  0  0  0  0  0  0
   10.6465    4.5855  -56.9986 H   0  0  0  0  0  0  0  0  0  0  0  0
    8.9631    3.9685  -56.8290 H   0  0  0  0  0  0  0  0  0  0  0  0
   10.5240    2.1540  -57.5477 H   0  0  0  0  0  0  0  0  0  0  0  0
   12.1615    3.6072  -58.7452 H   0  0  0  0  0  0  0  0  0  0  0  0
   11.5605    2.2911  -59.8156 H   0  0  0  0  0  0  0  0  0  0  0  0
   11.6007    4.4766  -61.0166 H   0  0  0  0  0  0  0  0  0  0  0  0
   11.2797    5.9377  -59.0171 H   0  0  0  0  0  0  0  0  0  0  0  0
   10.0483    6.2879  -60.2821 H   0  0  0  0  0  0  0  0  0  0  0  0
    9.2209    4.4582  -61.7632 H   0  0  0  0  0  0  0  0  0  0  0  0
    9.8568    2.7790  -61.5520 H   0  0  0  0  0  0  0  0  0  0  0  0
    9.2324    1.4304  -59.5602 H   0  0  0  0  0  0  0  0  0  0  0  0
    8.1495    2.1309  -58.2980 H   0  0  0  0  0  0  0  0  0  0  0  0
    3.6972    1.6931  -64.0474 H   0  0  0  0  0  0  0  0  0  0  0  0
  1  2  2  0
  2  3  1  0
  4  3  1  6
  4  5  1  0
  5  6  1  0
  6  7  1  0
  7  8  1  0
  8  9  1  0
  9 10  1  0
 10 11  1  0
 10 12  1  0
  8 13  1  0
  2 14  1  0
 14 15  2  0
 15 16  1  0
 16 17  2  0
 17 18  1  0
 12  4  1  0
 18 14  1  0
 13  4  1  0
 11  6  1  0
  3 19  1  0
  5 20  1  0
  5 21  1  0
  6 22  1  1
  7 23  1  0
  7 24  1  0
  8 25  1  1
  9 26  1  0
  9 27  1  0
 10 28  1  6
 11 29  1  0
 11 30  1  0
 12 31  1  0
 12 32  1  0
 13 33  1  0
 13 34  1  0
 16 35  1  0
M  END
>  <meeko>  (130) 
{"is_sidechain": false}

$$$$

     RDKit          3D

 36 39  0  0  0  0  0  0  0  0999 V2000
    5.8440    2.3760  -59.0830 O   0  0  0  0  0  0  0  0  0  0  0  0
    6.1180    2.3840  -60.2810 C   0  0  0  0  0  0  0  0  0  0  0  0
    7.3220    2.8600  -60.7750 N   0  0  0  0  0  0  0  0  0  0  0  0
    8.4190    3.4110  -59.9800 C   0  0  2  0  0  0  0  0  0  0  0  0
    8.8460    2.4460  -58.8460 C   0  0  0  0  0  0  0  0  0  0  0  0
   10.0340    3.0270  -58.0590 C   0  0  1  0  0  0  0  0  0  0  0  0
   11.2240    3.2280  -59.0110 C   0  0  0  0  0  0  0  0  0  0  0  0
   10.8360    4.1990  -60.1370 C   0  0  2  0  0  0  0  0  0  0  0  0
   10.4330    5.5510  -59.5270 C   0  0  0  0  0  0  0  0  0  0  0  0
    9.2390    5.3630  -58.5780 C   0  0  2  0  0  0  0  0  0  0  0  0
    9.6280    4.3830  -57.4590 C   0  0  0  0  0  0  0  0  0  0  0  0
    8.0490    4.7840  -59.3670 C   0  0  0  0  0  0  0  0  0  0  0  0
    9.6430    3.6200  -60.9140 C   0  0  0  0  0  0  0  0  0  0  0  0
    5.2280    1.9000  -61.3300 C   0  0  0  0  0  0  0  0  0  0  0  0
    5.2210    2.3180  -62.5880 N   0  0  0  0  0  0  0  0  0  0  0  0
    4.2230    1.5740  -63.1680 C   0  0  0  0  0  0  0  0  0  0  0  0
    3.6630    0.7340  -62.2390 C   0  0  0  0  0  0  0  0  0  0  0  0
    4.2970    0.9310  -61.0520 O   0  0  0  0  0  0  0  0  0  0  0  0
    7.4210    2.8100  -61.7860 H   0  0  0  0  0  0  0  0  0  0  0  0
    7.9982    2.2949  -58.1616 H   0  0  0  0  0  0  0  0  0  0  0  0
    9.1507    1.4877  -59.2918 H   0  0  0  0  0  0  0  0  0  0  0  0
   10.3192    2.3353  -57.2527 H   0  0  0  0  0  0  0  0  0  0  0  0
   12.0743    3.6422  -58.4493 H   0  0  0  0  0  0  0  0  0  0  0  0
   11.5041    2.2589  -59.4496 H   0  0  0  0  0  0  0  0  0  0  0  0
   11.6904    4.3392  -60.8155 H   0  0  0  0  0  0  0  0  0  0  0  0
   11.2832    5.9654  -58.9654 H   0  0  0  0  0  0  0  0  0  0  0  0
   10.1479    6.2414  -60.3345 H   0  0  0  0  0  0  0  0  0  0  0  0
    8.9586    6.3326  -58.1407 H   0  0  0  0  0  0  0  0  0  0  0  0
   10.4741    4.7971  -56.8911 H   0  0  0  0  0  0  0  0  0  0  0  0
    8.7647    4.2371  -56.7932 H   0  0  0  0  0  0  0  0  0  0  0  0
    7.1922    4.6582  -58.6887 H   0  0  0  0  0  0  0  0  0  0  0  0
    7.7910    5.4780  -60.1805 H   0  0  0  0  0  0  0  0  0  0  0  0
    9.3662    4.3162  -61.7194 H   0  0  0  0  0  0  0  0  0  0  0  0
    9.9361    2.6453  -61.3311 H   0  0  0  0  0  0  0  0  0  0  0  0
    3.9175    1.6416  -64.2226 H   0  0  0  0  0  0  0  0  0  0  0  0
    2.8431    0.0240  -62.4224 H   0  0  0  0  0  0  0  0  0  0  0  0
  1  2  2  0
  2  3  1  0
  4  3  1  6
  4  5  1  0
  5  6  1  0
  6  7  1  0
  7  8  1  0
  8  9  1  0
  9 10  1  0
 10 11  1  0
 10 12  1  0
  8 13  1  0
  2 14  1  0
 14 15  2  0
 15 16  1  0
 16 17  2  0
 17 18  1  0
 12  4  1  0
 18 14  1  0
 13  4  1  0
 11  6  1  0
  3 19  1  0
  5 20  1  0
  5 21  1  0
  6 22  1  1
  7 23  1  0
  7 24  1  0
  8 25  1  6
  9 26  1  0
  9 27  1  0
 10 28  1  1
 11 29  1  0
 11 30  1  0
 12 31  1  0
 12 32  1  0
 13 33  1  0
 13 34  1  0
 16 35  1  0
 17 36  1  0
M  END
>  <meeko>  (131) 
{"is_sidechain": false}

$$$$
