
     RDKit          3D

 52 55  0  0  0  0  0  0  0  0999 V2000
    6.0920    1.4350  -56.0480 O   0  0  0  0  0  0  0  0  0  0  0  0
    7.2890    1.2420  -55.8470 C   0  0  0  0  0  0  0  0  0  0  0  0
    8.2690    2.0330  -56.4300 N   0  0  0  0  0  0  0  0  0  0  0  0
    7.9320    3.0540  -57.4120 C   0  0  0  0  0  0  0  0  0  0  0  0
    8.5240    4.4110  -56.9950 C   0  0  0  0  0  0  0  0  0  0  0  0
    8.7650    5.3620  -58.1700 C   0  0  0  0  0  0  0  0  0  0  0  0
    7.8150    5.0920  -59.3290 C   0  0  0  0  0  0  0  0  0  0  0  0
    7.9710    3.6710  -59.8720 C   0  0  0  0  0  0  0  0  0  0  0  0
    8.4030    2.6540  -58.8120 C   0  0  0  0  0  0  0  0  0  0  0  0
    7.8030    0.1520  -54.9890 C   0  0  0  0  0  0  0  0  0  0  0  0
    7.1020   -0.6140  -54.0160 C   0  0  0  0  0  0  0  0  0  0  0  0
    8.0160   -1.5020  -53.4870 C   0  0  0  0  0  0  0  0  0  0  0  0
    7.8400   -2.5230  -52.4670 C   0  0  0  0  0  0  0  0  0  0  0  0
    8.1480   -2.2420  -51.1300 C   0  0  0  0  0  0  0  0  0  0  0  0
    7.9710   -3.2190  -50.1490 C   0  0  0  0  0  0  0  0  0  0  0  0
    7.4940   -4.4810  -50.4990 C   0  0  0  0  0  0  0  0  0  0  0  0
    7.1940   -4.7700  -51.8300 C   0  0  0  0  0  0  0  0  0  0  0  0
    7.3680   -3.7930  -52.8130 C   0  0  0  0  0  0  0  0  0  0  0  0
    9.1820   -1.2670  -54.1760 N   0  0  0  0  0  0  0  0  0  0  0  0
   10.4610   -1.9560  -54.0290 C   0  0  0  0  0  0  0  0  0  0  0  0
   10.8000   -2.7900  -55.2400 C   0  0  0  0  0  0  0  0  0  0  0  0
   11.5190   -2.2370  -56.3100 C   0  0  0  0  0  0  0  0  0  0  0  0
   11.8300   -3.0120  -57.4300 C   0  0  0  0  0  0  0  0  0  0  0  0
   11.4240   -4.3430  -57.4930 C   0  0  0  0  0  0  0  0  0  0  0  0
   10.7050   -4.9030  -56.4390 C   0  0  0  0  0  0  0  0  0  0  0  0
   10.3930   -4.1310  -55.3180 C   0  0  0  0  0  0  0  0  0  0  0  0
    9.0850   -0.2490  -55.0570 N   0  0  0  0  0  0  0  0  0  0  0  0
    9.2170    1.6850  -56.4210 H   0  0  0  0  0  0  0  0  0  0  0  0
    6.8367    3.1492  -57.4483 H   0  0  0  0  0  0  0  0  0  0  0  0
    7.8270    4.8938  -56.2943 H   0  0  0  0  0  0  0  0  0  0  0  0
    9.5038    4.2085  -56.5379 H   0  0  0  0  0  0  0  0  0  0  0  0
    8.6189    6.3963  -57.8251 H   0  0  0  0  0  0  0  0  0  0  0  0
    9.7923    5.2028  -58.5297 H   0  0  0  0  0  0  0  0  0  0  0  0
    6.7806    5.2285  -58.9807 H   0  0  0  0  0  0  0  0  0  0  0  0
    8.0555    5.7960  -60.1393 H   0  0  0  0  0  0  0  0  0  0  0  0
    7.0050    3.3499  -60.2888 H   0  0  0  0  0  0  0  0  0  0  0  0
    8.7652    3.7015  -60.6325 H   0  0  0  0  0  0  0  0  0  0  0  0
    7.9742    1.6730  -59.0647 H   0  0  0  0  0  0  0  0  0  0  0  0
    9.5023    2.6161  -58.8040 H   0  0  0  0  0  0  0  0  0  0  0  0
    6.0415   -0.5173  -53.7402 H   0  0  0  0  0  0  0  0  0  0  0  0
    8.5304   -1.2487  -50.8523 H   0  0  0  0  0  0  0  0  0  0  0  0
    8.2081   -2.9928  -49.0989 H   0  0  0  0  0  0  0  0  0  0  0  0
    7.3540   -5.2497  -49.7247 H   0  0  0  0  0  0  0  0  0  0  0  0
    6.8204   -5.7672  -52.1056 H   0  0  0  0  0  0  0  0  0  0  0  0
    7.1330   -4.0234  -53.8626 H   0  0  0  0  0  0  0  0  0  0  0  0
   11.2526   -1.2065  -53.8818 H   0  0  0  0  0  0  0  0  0  0  0  0
   10.3841   -2.6311  -53.1640 H   0  0  0  0  0  0  0  0  0  0  0  0
   11.8402   -1.1858  -56.2669 H   0  0  0  0  0  0  0  0  0  0  0  0
   12.3963   -2.5705  -58.2633 H   0  0  0  0  0  0  0  0  0  0  0  0
   11.6711   -4.9521  -58.3750 H   0  0  0  0  0  0  0  0  0  0  0  0
   10.3830   -5.9536  -56.4900 H   0  0  0  0  0  0  0  0  0  0  0  0
    9.8237   -4.5774  -54.4894 H   0  0  0  0  0  0  0  0  0  0  0  0
  1  2  2  0
  2  3  1  0
  3  4  1  0
  4  5  1  0
  5  6  1  0
  6  7  1  0
  7  8  1  0
  8  9  1  0
  2 10  1  0
 10 11  1  0
 11 12  2  0
 12 13  1  0
 13 14  2  0
 14 15  1  0
 15 16  2  0
 16 17  1  0
 17 18  2  0
 12 19  1  0
 19 20  1  0
 20 21  1  0
 21 22  2  0
 22 23  1  0
 23 24  2  0
 24 25  1  0
 25 26  2  0
 19 27  1  0
  9  4  1  0
 27 10  2  0
 18 13  1  0
 26 21  1  0
  3 28  1  0
  4 29  1  0
  5 30  1  0
  5 31  1  0
  6 32  1  0
  6 33  1  0
  7 34  1  0
  7 35  1  0
  8 36  1  0
  8 37  1  0
  9 38  1  0
  9 39  1  0
 11 40  1  0
 14 41  1  0
 15 42  1  0
 16 43  1  0
 17 44  1  0
 18 45  1  0
 20 46  1  0
 20 47  1  0
 22 48  1  0
 23 49  1  0
 24 50  1  0
 25 51  1  0
 26 52  1  0
M  END
>  <meeko>  (1) 
{"is_sidechain": false}

$$$$

     RDKit          3D

 50 54  0  0  0  0  0  0  0  0999 V2000
   10.7490   -2.1210  -53.7040 C   0  0  0  0  0  0  0  0  0  0  0  0
    9.5780   -1.3250  -53.9920 N   0  0  0  0  0  0  0  0  0  0  0  0
    9.6690   -0.3470  -54.9180 N   0  0  0  0  0  0  0  0  0  0  0  0
    8.4170    0.1470  -54.9990 C   0  0  0  0  0  0  0  0  0  0  0  0
    8.0680    1.2410  -55.9220 C   0  0  0  0  0  0  0  0  0  0  0  0
    6.9150    1.6280  -56.0800 O   0  0  0  0  0  0  0  0  0  0  0  0
    9.1670    1.7600  -56.5690 N   0  0  0  0  0  0  0  0  0  0  0  0
    9.1630    2.8480  -57.5420 C   0  0  2  0  0  0  0  0  0  0  0  0
   10.5290    2.8570  -58.2770 C   0  0  0  0  0  0  0  0  0  0  0  0
   10.5870    3.9850  -59.3190 C   0  0  1  0  0  0  0  0  0  0  0  0
    9.4640    3.7790  -60.3470 C   0  0  0  0  0  0  0  0  0  0  0  0
    8.0980    3.7920  -59.6440 C   0  0  2  0  0  0  0  0  0  0  0  0
    7.9080    5.1420  -58.9310 C   0  0  0  0  0  0  0  0  0  0  0  0
    9.0270    5.3570  -57.8970 C   0  0  2  0  0  0  0  0  0  0  0  0
   10.3870    5.3350  -58.6120 C   0  0  0  0  0  0  0  0  0  0  0  0
    8.9800    4.2250  -56.8560 C   0  0  0  0  0  0  0  0  0  0  0  0
    8.0500    2.6590  -58.6030 C   0  0  0  0  0  0  0  0  0  0  0  0
    7.5500   -0.5220  -54.1020 C   0  0  0  0  0  0  0  0  0  0  0  0
    8.3250   -1.4540  -53.4410 C   0  0  0  0  0  0  0  0  0  0  0  0
    7.9510   -2.4120  -52.4070 C   0  0  0  0  0  0  0  0  0  0  0  0
    8.1050   -2.1000  -51.0510 C   0  0  0  0  0  0  0  0  0  0  0  0
    7.7430   -3.0240  -50.0670 C   0  0  0  0  0  0  0  0  0  0  0  0
    7.2190   -4.2630  -50.4330 C   0  0  0  0  0  0  0  0  0  0  0  0
    7.0520   -4.5780  -51.7800 C   0  0  0  0  0  0  0  0  0  0  0  0
    7.4120   -3.6540  -52.7640 C   0  0  0  0  0  0  0  0  0  0  0  0
   10.8752   -2.2068  -52.6146 H   0  0  0  0  0  0  0  0  0  0  0  0
   10.6267   -3.1239  -54.1391 H   0  0  0  0  0  0  0  0  0  0  0  0
   11.6365   -1.6383  -54.1391 H   0  0  0  0  0  0  0  0  0  0  0  0
   10.0430    1.3120  -56.3100 H   0  0  0  0  0  0  0  0  0  0  0  0
   11.3326    3.0059  -57.5407 H   0  0  0  0  0  0  0  0  0  0  0  0
   10.6542    1.8948  -58.7952 H   0  0  0  0  0  0  0  0  0  0  0  0
   11.5622    3.9739  -59.8278 H   0  0  0  0  0  0  0  0  0  0  0  0
    9.4984    4.5886  -61.0909 H   0  0  0  0  0  0  0  0  0  0  0  0
    9.6043    2.8081  -60.8448 H   0  0  0  0  0  0  0  0  0  0  0  0
    7.2990    3.6473  -60.3861 H   0  0  0  0  0  0  0  0  0  0  0  0
    7.9384    5.9529  -59.6736 H   0  0  0  0  0  0  0  0  0  0  0  0
    6.9365    5.1426  -58.4150 H   0  0  0  0  0  0  0  0  0  0  0  0
    8.8884    6.3260  -57.3952 H   0  0  0  0  0  0  0  0  0  0  0  0
   10.4206    6.1445  -59.3561 H   0  0  0  0  0  0  0  0  0  0  0  0
   11.1872    5.4766  -57.8706 H   0  0  0  0  0  0  0  0  0  0  0  0
    9.7863    4.3740  -56.1228 H   0  0  0  0  0  0  0  0  0  0  0  0
    8.0016    4.2446  -56.3536 H   0  0  0  0  0  0  0  0  0  0  0  0
    7.0696    2.6672  -58.1043 H   0  0  0  0  0  0  0  0  0  0  0  0
    8.2073    1.6986  -59.1157 H   0  0  0  0  0  0  0  0  0  0  0  0
    6.4751   -0.3366  -53.9601 H   0  0  0  0  0  0  0  0  0  0  0  0
    8.5135   -1.1215  -50.7582 H   0  0  0  0  0  0  0  0  0  0  0  0
    7.8715   -2.7737  -49.0036 H   0  0  0  0  0  0  0  0  0  0  0  0
    6.9375   -4.9917  -49.6586 H   0  0  0  0  0  0  0  0  0  0  0  0
    6.6365   -5.5547  -52.0687 H   0  0  0  0  0  0  0  0  0  0  0  0
    7.2711   -3.9037  -53.8260 H   0  0  0  0  0  0  0  0  0  0  0  0
  1  2  1  0
  2  3  1  0
  3  4  2  0
  4  5  1  0
  5  6  2  0
  5  7  1  0
  8  7  1  1
  8  9  1  0
  9 10  1  0
 10 11  1  0
 11 12  1  0
 12 13  1  0
 13 14  1  0
 14 15  1  0
 14 16  1  0
 12 17  1  0
  4 18  1  0
 18 19  2  0
 19 20  1  0
 20 21  2  0
 21 22  1  0
 22 23  2  0
 23 24  1  0
 24 25  2  0
 19  2  1  0
 25 20  1  0
 16  8  1  0
 17  8  1  0
 15 10  1  0
  1 26  1  0
  1 27  1  0
  1 28  1  0
  7 29  1  0
  9 30  1  0
  9 31  1  0
 10 32  1  6
 11 33  1  0
 11 34  1  0
 12 35  1  6
 13 36  1  0
 13 37  1  0
 14 38  1  1
 15 39  1  0
 15 40  1  0
 16 41  1  0
 16 42  1  0
 17 43  1  0
 17 44  1  0
 18 45  1  0
 21 46  1  0
 22 47  1  0
 23 48  1  0
 24 49  1  0
 25 50  1  0
M  END
>  <meeko>  (2) 
{"is_sidechain": false}

$$$$

     RDKit          3D

 53 57  0  0  0  0  0  0  0  0999 V2000
   10.7220   -3.4270  -54.5490 C   0  0  0  0  0  0  0  0  0  0  0  0
   10.6980   -2.1530  -53.7240 C   0  0  0  0  0  0  0  0  0  0  0  0
    9.5270   -1.3380  -53.9990 N   0  0  0  0  0  0  0  0  0  0  0  0
    9.6160   -0.3830  -54.9510 N   0  0  0  0  0  0  0  0  0  0  0  0
    8.3760    0.1460  -55.0050 C   0  0  0  0  0  0  0  0  0  0  0  0
    8.0340    1.2360  -55.9330 C   0  0  0  0  0  0  0  0  0  0  0  0
    6.8880    1.6470  -56.0750 O   0  0  0  0  0  0  0  0  0  0  0  0
    9.1330    1.7230  -56.6070 N   0  0  0  0  0  0  0  0  0  0  0  0
    9.1340    2.7990  -57.5920 C   0  0  2  0  0  0  0  0  0  0  0  0
   10.5130    2.8120  -58.3060 C   0  0  0  0  0  0  0  0  0  0  0  0
   10.5760    3.9280  -59.3600 C   0  0  1  0  0  0  0  0  0  0  0  0
    9.4720    3.7000  -60.4040 C   0  0  0  0  0  0  0  0  0  0  0  0
    8.0950    3.7100  -59.7210 C   0  0  2  0  0  0  0  0  0  0  0  0
    7.8820    5.0660  -59.0280 C   0  0  0  0  0  0  0  0  0  0  0  0
    8.9820    5.3030  -57.9800 C   0  0  2  0  0  0  0  0  0  0  0  0
   10.3540    5.2840  -58.6720 C   0  0  0  0  0  0  0  0  0  0  0  0
    8.9280    4.1830  -56.9270 C   0  0  0  0  0  0  0  0  0  0  0  0
    8.0410    2.5880  -58.6690 C   0  0  0  0  0  0  0  0  0  0  0  0
    7.5140   -0.4870  -54.0780 C   0  0  0  0  0  0  0  0  0  0  0  0
    8.2800   -1.4340  -53.4290 C   0  0  0  0  0  0  0  0  0  0  0  0
    7.9010   -2.3740  -52.3830 C   0  0  0  0  0  0  0  0  0  0  0  0
    8.0960   -2.0560  -51.0350 C   0  0  0  0  0  0  0  0  0  0  0  0
    7.7350   -2.9640  -50.0380 C   0  0  0  0  0  0  0  0  0  0  0  0
    7.1720   -4.1920  -50.3840 C   0  0  0  0  0  0  0  0  0  0  0  0
    6.9650   -4.5120  -51.7250 C   0  0  0  0  0  0  0  0  0  0  0  0
    7.3260   -3.6050  -52.7230 C   0  0  0  0  0  0  0  0  0  0  0  0
   10.7384   -4.2983  -53.8777 H   0  0  0  0  0  0  0  0  0  0  0  0
    9.8245   -3.4699  -55.1836 H   0  0  0  0  0  0  0  0  0  0  0  0
   11.6205   -3.4360  -55.1836 H   0  0  0  0  0  0  0  0  0  0  0  0
   10.6985   -2.4225  -52.6575 H   0  0  0  0  0  0  0  0  0  0  0  0
   11.5876   -1.5635  -53.9907 H   0  0  0  0  0  0  0  0  0  0  0  0
   10.0030    1.2570  -56.3590 H   0  0  0  0  0  0  0  0  0  0  0  0
   11.3034    2.9774  -57.5591 H   0  0  0  0  0  0  0  0  0  0  0  0
   10.6560    1.8449  -58.8102 H   0  0  0  0  0  0  0  0  0  0  0  0
   11.5588    3.9197  -59.8539 H   0  0  0  0  0  0  0  0  0  0  0  0
    9.5113    4.5009  -61.1571 H   0  0  0  0  0  0  0  0  0  0  0  0
    9.6283    2.7251  -60.8890 H   0  0  0  0  0  0  0  0  0  0  0  0
    7.3080    3.5506  -60.4728 H   0  0  0  0  0  0  0  0  0  0  0  0
    7.9170    5.8682  -59.7798 H   0  0  0  0  0  0  0  0  0  0  0  0
    6.9025    5.0643  -58.5274 H   0  0  0  0  0  0  0  0  0  0  0  0
    8.8270    6.2771  -57.4930 H   0  0  0  0  0  0  0  0  0  0  0  0
   10.3937    6.0853  -59.4246 H   0  0  0  0  0  0  0  0  0  0  0  0
   11.1407    5.4404  -57.9192 H   0  0  0  0  0  0  0  0  0  0  0  0
    9.7209    4.3481  -56.1827 H   0  0  0  0  0  0  0  0  0  0  0  0
    7.9410    4.1999  -56.4416 H   0  0  0  0  0  0  0  0  0  0  0  0
    7.0524    2.5917  -58.1866 H   0  0  0  0  0  0  0  0  0  0  0  0
    8.2163    1.6239  -59.1688 H   0  0  0  0  0  0  0  0  0  0  0  0
    6.4492   -0.2685  -53.9090 H   0  0  0  0  0  0  0  0  0  0  0  0
    8.5357   -1.0862  -50.7592 H   0  0  0  0  0  0  0  0  0  0  0  0
    7.8946   -2.7108  -48.9795 H   0  0  0  0  0  0  0  0  0  0  0  0
    6.8910   -4.9087  -49.5982 H   0  0  0  0  0  0  0  0  0  0  0  0
    6.5172   -5.4793  -51.9968 H   0  0  0  0  0  0  0  0  0  0  0  0
    7.1582   -3.8581  -53.7803 H   0  0  0  0  0  0  0  0  0  0  0  0
  1  2  1  0
  2  3  1  0
  3  4  1  0
  4  5  2  0
  5  6  1  0
  6  7  2  0
  6  8  1  0
  9  8  1  1
  9 10  1  0
 10 11  1  0
 11 12  1  0
 12 13  1  0
 13 14  1  0
 14 15  1  0
 15 16  1  0
 15 17  1  0
 13 18  1  0
  5 19  1  0
 19 20  2  0
 20 21  1  0
 21 22  2  0
 22 23  1  0
 23 24  2  0
 24 25  1  0
 25 26  2  0
 20  3  1  0
 26 21  1  0
 17  9  1  0
 18  9  1  0
 16 11  1  0
  1 27  1  0
  1 28  1  0
  1 29  1  0
  2 30  1  0
  2 31  1  0
  8 32  1  0
 10 33  1  0
 10 34  1  0
 11 35  1  6
 12 36  1  0
 12 37  1  0
 13 38  1  6
 14 39  1  0
 14 40  1  0
 15 41  1  1
 16 42  1  0
 16 43  1  0
 17 44  1  0
 17 45  1  0
 18 46  1  0
 18 47  1  0
 19 48  1  0
 22 49  1  0
 23 50  1  0
 24 51  1  0
 25 52  1  0
 26 53  1  0
M  END
>  <meeko>  (3) 
{"is_sidechain": false}

$$$$

     RDKit          3D

 56 60  0  0  0  0  0  0  0  0999 V2000
   10.1500   -4.0650  -55.1820 C   0  0  0  0  0  0  0  0  0  0  0  0
   11.1240   -2.9620  -54.7950 C   0  0  0  0  0  0  0  0  0  0  0  0
   10.6230   -2.0980  -53.6370 C   0  0  0  0  0  0  0  0  0  0  0  0
    9.4420   -1.3170  -53.9630 N   0  0  0  0  0  0  0  0  0  0  0  0
    9.5530   -0.3480  -54.9000 N   0  0  0  0  0  0  0  0  0  0  0  0
    8.3050    0.1510  -55.0100 C   0  0  0  0  0  0  0  0  0  0  0  0
    7.9780    1.2330  -55.9540 C   0  0  0  0  0  0  0  0  0  0  0  0
    6.8290    1.6080  -56.1580 O   0  0  0  0  0  0  0  0  0  0  0  0
    9.0960    1.7570  -56.5660 N   0  0  0  0  0  0  0  0  0  0  0  0
    9.1160    2.8340  -57.5500 C   0  0  2  0  0  0  0  0  0  0  0  0
    8.1010    2.5820  -58.6930 C   0  0  0  0  0  0  0  0  0  0  0  0
    8.1760    3.7060  -59.7410 C   0  0  1  0  0  0  0  0  0  0  0  0
    7.8670    5.0520  -59.0620 C   0  0  0  0  0  0  0  0  0  0  0  0
    8.8900    5.3300  -57.9480 C   0  0  2  0  0  0  0  0  0  0  0  0
   10.3020    5.3670  -58.5540 C   0  0  0  0  0  0  0  0  0  0  0  0
   10.6190    4.0220  -59.2270 C   0  0  2  0  0  0  0  0  0  0  0  0
    9.5920    3.7520  -60.3370 C   0  0  0  0  0  0  0  0  0  0  0  0
   10.5340    2.9010  -58.1770 C   0  0  0  0  0  0  0  0  0  0  0  0
    8.8160    4.2060  -56.9000 C   0  0  0  0  0  0  0  0  0  0  0  0
    7.4190   -0.5010  -54.1210 C   0  0  0  0  0  0  0  0  0  0  0  0
    8.1770   -1.4300  -53.4360 C   0  0  0  0  0  0  0  0  0  0  0  0
    7.7720   -2.3720  -52.4030 C   0  0  0  0  0  0  0  0  0  0  0  0
    7.0350   -3.5120  -52.7420 C   0  0  0  0  0  0  0  0  0  0  0  0
    6.6450   -4.4190  -51.7540 C   0  0  0  0  0  0  0  0  0  0  0  0
    6.9810   -4.1850  -50.4220 C   0  0  0  0  0  0  0  0  0  0  0  0
    7.7040   -3.0440  -50.0740 C   0  0  0  0  0  0  0  0  0  0  0  0
    8.0950   -2.1380  -51.0610 C   0  0  0  0  0  0  0  0  0  0  0  0
    9.7407   -4.5285  -54.2723 H   0  0  0  0  0  0  0  0  0  0  0  0
    9.3293   -3.6375  -55.7768 H   0  0  0  0  0  0  0  0  0  0  0  0
   10.6758   -4.8264  -55.7768 H   0  0  0  0  0  0  0  0  0  0  0  0
   12.0773   -3.4246  -54.4996 H   0  0  0  0  0  0  0  0  0  0  0  0
   11.2386   -2.3042  -55.6692 H   0  0  0  0  0  0  0  0  0  0  0  0
   10.3812   -2.7573  -52.7904 H   0  0  0  0  0  0  0  0  0  0  0  0
   11.4251   -1.3849  -53.3959 H   0  0  0  0  0  0  0  0  0  0  0  0
    9.9660    1.3180  -56.2730 H   0  0  0  0  0  0  0  0  0  0  0  0
    8.3318    1.6211  -59.1762 H   0  0  0  0  0  0  0  0  0  0  0  0
    7.0866    2.5601  -58.2682 H   0  0  0  0  0  0  0  0  0  0  0  0
    7.4448    3.5165  -60.5406 H   0  0  0  0  0  0  0  0  0  0  0  0
    7.9166    5.8567  -59.8103 H   0  0  0  0  0  0  0  0  0  0  0  0
    6.8594    5.0103  -58.6228 H   0  0  0  0  0  0  0  0  0  0  0  0
    8.6664    6.2960  -57.4717 H   0  0  0  0  0  0  0  0  0  0  0  0
   10.3564    6.1710  -59.3027 H   0  0  0  0  0  0  0  0  0  0  0  0
   11.0341    5.5527  -57.7543 H   0  0  0  0  0  0  0  0  0  0  0  0
   11.6299    4.0540  -59.6594 H   0  0  0  0  0  0  0  0  0  0  0  0
    9.6460    4.5550  -61.0868 H   0  0  0  0  0  0  0  0  0  0  0  0
    9.8168    2.7849  -60.8104 H   0  0  0  0  0  0  0  0  0  0  0  0
   10.7602    1.9385  -58.6590 H   0  0  0  0  0  0  0  0  0  0  0  0
   11.2609    3.1120  -57.3789 H   0  0  0  0  0  0  0  0  0  0  0  0
    9.5550    4.4004  -56.1087 H   0  0  0  0  0  0  0  0  0  0  0  0
    7.8013    4.1830  -56.4760 H   0  0  0  0  0  0  0  0  0  0  0  0
    6.3430   -0.3071  -53.9997 H   0  0  0  0  0  0  0  0  0  0  0  0
    6.7614   -3.6948  -53.7916 H   0  0  0  0  0  0  0  0  0  0  0  0
    6.0728   -5.3178  -52.0273 H   0  0  0  0  0  0  0  0  0  0  0  0
    6.6758   -4.9006  -49.6444 H   0  0  0  0  0  0  0  0  0  0  0  0
    7.9659   -2.8583  -49.0219 H   0  0  0  0  0  0  0  0  0  0  0  0
    8.6596   -1.2358  -50.7832 H   0  0  0  0  0  0  0  0  0  0  0  0
  1  2  1  0
  2  3  1  0
  3  4  1  0
  4  5  1  0
  5  6  2  0
  6  7  1  0
  7  8  2  0
  7  9  1  0
 10  9  1  1
 10 11  1  0
 11 12  1  0
 12 13  1  0
 13 14  1  0
 14 15  1  0
 15 16  1  0
 16 17  1  0
 16 18  1  0
 14 19  1  0
  6 20  1  0
 20 21  2  0
 21 22  1  0
 22 23  2  0
 23 24  1  0
 24 25  2  0
 25 26  1  0
 26 27  2  0
 21  4  1  0
 27 22  1  0
 18 10  1  0
 19 10  1  0
 17 12  1  0
  1 28  1  0
  1 29  1  0
  1 30  1  0
  2 31  1  0
  2 32  1  0
  3 33  1  0
  3 34  1  0
  9 35  1  0
 11 36  1  0
 11 37  1  0
 12 38  1  6
 13 39  1  0
 13 40  1  0
 14 41  1  1
 15 42  1  0
 15 43  1  0
 16 44  1  6
 17 45  1  0
 17 46  1  0
 18 47  1  0
 18 48  1  0
 19 49  1  0
 19 50  1  0
 20 51  1  0
 23 52  1  0
 24 53  1  0
 25 54  1  0
 26 55  1  0
 27 56  1  0
M  END
>  <meeko>  (4) 
{"is_sidechain": false}

$$$$

     RDKit          3D

 47 51  0  0  0  0  0  0  0  0999 V2000
    6.7030    1.6810  -56.1730 O   0  0  0  0  0  0  0  0  0  0  0  0
    7.8420    1.2660  -55.9880 C   0  0  0  0  0  0  0  0  0  0  0  0
    8.9630    1.7320  -56.6380 N   0  0  0  0  0  0  0  0  0  0  0  0
    9.0010    2.7880  -57.6440 C   0  0  2  0  0  0  0  0  0  0  0  0
   10.4000    2.7810  -58.3150 C   0  0  0  0  0  0  0  0  0  0  0  0
   10.5030    3.8760  -59.3880 C   0  0  1  0  0  0  0  0  0  0  0  0
    9.4310    3.6320  -60.4610 C   0  0  0  0  0  0  0  0  0  0  0  0
    8.0330    3.6610  -59.8230 C   0  0  2  0  0  0  0  0  0  0  0  0
    7.8050    5.0310  -59.1630 C   0  0  0  0  0  0  0  0  0  0  0  0
    8.8730    5.2850  -58.0850 C   0  0  2  0  0  0  0  0  0  0  0  0
   10.2660    5.2470  -58.7340 C   0  0  0  0  0  0  0  0  0  0  0  0
    8.7810    4.1850  -57.0130 C   0  0  0  0  0  0  0  0  0  0  0  0
    7.9410    2.5600  -58.7510 C   0  0  0  0  0  0  0  0  0  0  0  0
    8.1470    0.1930  -55.0270 C   0  0  0  0  0  0  0  0  0  0  0  0
    7.2490   -0.4150  -54.1130 C   0  0  0  0  0  0  0  0  0  0  0  0
    7.9790   -1.3680  -53.4310 C   0  0  0  0  0  0  0  0  0  0  0  0
    7.6060   -2.2980  -52.3660 C   0  0  0  0  0  0  0  0  0  0  0  0
    8.1230   -2.1660  -51.0690 C   0  0  0  0  0  0  0  0  0  0  0  0
    7.7560   -3.0610  -50.0600 C   0  0  0  0  0  0  0  0  0  0  0  0
    6.8690   -4.0990  -50.3360 C   0  0  0  0  0  0  0  0  0  0  0  0
    6.3530   -4.2470  -51.6210 C   0  0  0  0  0  0  0  0  0  0  0  0
    6.7210   -3.3520  -52.6300 C   0  0  0  0  0  0  0  0  0  0  0  0
    9.2450   -1.2640  -53.9460 N   0  0  0  0  0  0  0  0  0  0  0  0
    9.3800   -0.3420  -54.9170 N   0  0  0  0  0  0  0  0  0  0  0  0
    9.8240    1.2690  -56.3550 H   0  0  0  0  0  0  0  0  0  0  0  0
   11.1678    2.9567  -57.5472 H   0  0  0  0  0  0  0  0  0  0  0  0
   10.5522    1.8038  -58.7966 H   0  0  0  0  0  0  0  0  0  0  0  0
   11.5011    3.8539  -59.8499 H   0  0  0  0  0  0  0  0  0  0  0  0
    9.4978    4.4176  -61.2280 H   0  0  0  0  0  0  0  0  0  0  0  0
    9.5978    2.6467  -60.9208 H   0  0  0  0  0  0  0  0  0  0  0  0
    7.2695    3.4903  -60.5962 H   0  0  0  0  0  0  0  0  0  0  0  0
    7.8671    5.8182  -59.9288 H   0  0  0  0  0  0  0  0  0  0  0  0
    6.8105    5.0423  -58.6931 H   0  0  0  0  0  0  0  0  0  0  0  0
    8.7075    6.2688  -57.6216 H   0  0  0  0  0  0  0  0  0  0  0  0
   10.3324    6.0329  -59.5008 H   0  0  0  0  0  0  0  0  0  0  0  0
   11.0299    5.4155  -57.9606 H   0  0  0  0  0  0  0  0  0  0  0  0
    9.5511    4.3611  -56.2475 H   0  0  0  0  0  0  0  0  0  0  0  0
    7.7793    4.2151  -56.5596 H   0  0  0  0  0  0  0  0  0  0  0  0
    6.9378    2.5771  -58.3002 H   0  0  0  0  0  0  0  0  0  0  0  0
    8.1277    1.5856  -59.2260 H   0  0  0  0  0  0  0  0  0  0  0  0
    6.1843   -0.1753  -53.9751 H   0  0  0  0  0  0  0  0  0  0  0  0
    8.8247   -1.3495  -50.8434 H   0  0  0  0  0  0  0  0  0  0  0  0
    8.1682   -2.9455  -49.0467 H   0  0  0  0  0  0  0  0  0  0  0  0
    6.5767   -4.8003  -49.5406 H   0  0  0  0  0  0  0  0  0  0  0  0
    5.6556   -5.0684  -51.8422 H   0  0  0  0  0  0  0  0  0  0  0  0
    6.3110   -3.4766  -53.6431 H   0  0  0  0  0  0  0  0  0  0  0  0
   10.0660   -1.7870  -53.6660 H   0  0  0  0  0  0  0  0  0  0  0  0
  1  2  2  0
  2  3  1  0
  4  3  1  1
  4  5  1  0
  5  6  1  0
  6  7  1  0
  7  8  1  0
  8  9  1  0
  9 10  1  0
 10 11  1  0
 10 12  1  0
  8 13  1  0
  2 14  1  0
 14 15  1  0
 15 16  2  0
 16 17  1  0
 17 18  2  0
 18 19  1  0
 19 20  2  0
 20 21  1  0
 21 22  2  0
 16 23  1  0
 23 24  1  0
 12  4  1  0
 24 14  2  0
 13  4  1  0
 22 17  1  0
 11  6  1  0
  3 25  1  0
  5 26  1  0
  5 27  1  0
  6 28  1  6
  7 29  1  0
  7 30  1  0
  8 31  1  6
  9 32  1  0
  9 33  1  0
 10 34  1  1
 11 35  1  0
 11 36  1  0
 12 37  1  0
 12 38  1  0
 13 39  1  0
 13 40  1  0
 15 41  1  0
 18 42  1  0
 19 43  1  0
 20 44  1  0
 21 45  1  0
 22 46  1  0
 23 47  1  0
M  END
>  <meeko>  (5) 
{"is_sidechain": false}

$$$$

     RDKit          3D

 47 51  0  0  0  0  0  0  0  0999 V2000
    6.8400    2.0680  -56.6540 O   0  0  0  0  0  0  0  0  0  0  0  0
    7.8260    1.5120  -56.1840 C   0  0  0  0  0  0  0  0  0  0  0  0
    9.1170    1.8130  -56.5540 N   0  0  0  0  0  0  0  0  0  0  0  0
    9.4960    2.8240  -57.5450 C   0  0  2  0  0  0  0  0  0  0  0  0
    8.8400    2.5540  -58.9220 C   0  0  0  0  0  0  0  0  0  0  0  0
    9.2970    3.6000  -59.9540 C   0  0  1  0  0  0  0  0  0  0  0  0
    8.9080    5.0040  -59.4610 C   0  0  0  0  0  0  0  0  0  0  0  0
    9.5850    5.2980  -58.1110 C   0  0  2  0  0  0  0  0  0  0  0  0
   11.1090    5.2120  -58.2800 C   0  0  0  0  0  0  0  0  0  0  0  0
   11.5050    3.8080  -58.7660 C   0  0  2  0  0  0  0  0  0  0  0  0
   10.8240    3.5250  -60.1130 C   0  0  0  0  0  0  0  0  0  0  0  0
   11.0370    2.7690  -57.7350 C   0  0  0  0  0  0  0  0  0  0  0  0
    9.1280    4.2540  -57.0770 C   0  0  0  0  0  0  0  0  0  0  0  0
    7.7010    0.4800  -55.1890 C   0  0  0  0  0  0  0  0  0  0  0  0
    8.4720    0.0760  -54.1170 C   0  0  0  0  0  0  0  0  0  0  0  0
    7.7860   -1.0220  -53.5190 C   0  0  0  0  0  0  0  0  0  0  0  0
    8.1780   -1.8160  -52.3460 C   0  0  0  0  0  0  0  0  0  0  0  0
    7.3650   -1.8400  -51.2010 C   0  0  0  0  0  0  0  0  0  0  0  0
    7.7230   -2.5900  -50.0780 C   0  0  0  0  0  0  0  0  0  0  0  0
    8.9030   -3.3290  -50.0820 C   0  0  0  0  0  0  0  0  0  0  0  0
    9.7220   -3.3190  -51.2080 C   0  0  0  0  0  0  0  0  0  0  0  0
    9.3630   -2.5680  -52.3330 C   0  0  0  0  0  0  0  0  0  0  0  0
    6.6520   -1.2750  -54.1930 N   0  0  0  0  0  0  0  0  0  0  0  0
    6.6300   -0.3690  -55.1800 N   0  0  0  0  0  0  0  0  0  0  0  0
    9.8630    1.3000  -56.1100 H   0  0  0  0  0  0  0  0  0  0  0  0
    9.1301    1.5517  -59.2703 H   0  0  0  0  0  0  0  0  0  0  0  0
    7.7473    2.6174  -58.8128 H   0  0  0  0  0  0  0  0  0  0  0  0
    8.8136    3.3991  -60.9215 H   0  0  0  0  0  0  0  0  0  0  0  0
    9.2313    5.7515  -60.2004 H   0  0  0  0  0  0  0  0  0  0  0  0
    7.8164    5.0507  -59.3335 H   0  0  0  0  0  0  0  0  0  0  0  0
    9.3071    6.3054  -57.7676 H   0  0  0  0  0  0  0  0  0  0  0  0
   11.4365    5.9590  -59.0181 H   0  0  0  0  0  0  0  0  0  0  0  0
   11.5917    5.4087  -57.3113 H   0  0  0  0  0  0  0  0  0  0  0  0
   12.5970    3.7508  -58.8853 H   0  0  0  0  0  0  0  0  0  0  0  0
   11.1509    4.2724  -60.8510 H   0  0  0  0  0  0  0  0  0  0  0  0
   11.1031    2.5175  -60.4550 H   0  0  0  0  0  0  0  0  0  0  0  0
   11.3204    1.7647  -58.0830 H   0  0  0  0  0  0  0  0  0  0  0  0
   11.5161    2.9936  -56.7706 H   0  0  0  0  0  0  0  0  0  0  0  0
    9.6218    4.4577  -56.1154 H   0  0  0  0  0  0  0  0  0  0  0  0
    8.0356    4.3201  -56.9660 H   0  0  0  0  0  0  0  0  0  0  0  0
    9.4262    0.5142  -53.7893 H   0  0  0  0  0  0  0  0  0  0  0  0
    6.4312   -1.2588  -51.1882 H   0  0  0  0  0  0  0  0  0  0  0  0
    7.0727   -2.5967  -49.1908 H   0  0  0  0  0  0  0  0  0  0  0  0
    9.1874   -3.9190  -49.1982 H   0  0  0  0  0  0  0  0  0  0  0  0
   10.6540   -3.9032  -51.2133 H   0  0  0  0  0  0  0  0  0  0  0  0
   10.0172   -2.5671  -53.2174 H   0  0  0  0  0  0  0  0  0  0  0  0
    5.8510   -0.3670  -55.8310 H   0  0  0  0  0  0  0  0  0  0  0  0
  1  2  2  0
  2  3  1  0
  4  3  1  1
  4  5  1  0
  5  6  1  0
  6  7  1  0
  7  8  1  0
  8  9  1  0
  9 10  1  0
 10 11  1  0
 10 12  1  0
  8 13  1  0
  2 14  1  0
 14 15  2  0
 15 16  1  0
 16 17  1  0
 17 18  2  0
 18 19  1  0
 19 20  2  0
 20 21  1  0
 21 22  2  0
 16 23  2  0
 23 24  1  0
 12  4  1  0
 24 14  1  0
 13  4  1  0
 22 17  1  0
 11  6  1  0
  3 25  1  0
  5 26  1  0
  5 27  1  0
  6 28  1  6
  7 29  1  0
  7 30  1  0
  8 31  1  1
  9 32  1  0
  9 33  1  0
 10 34  1  6
 11 35  1  0
 11 36  1  0
 12 37  1  0
 12 38  1  0
 13 39  1  0
 13 40  1  0
 15 41  1  0
 18 42  1  0
 19 43  1  0
 20 44  1  0
 21 45  1  0
 22 46  1  0
 24 47  1  0
M  END
>  <meeko>  (6) 
{"is_sidechain": false}

$$$$

     RDKit          3D

 59 63  0  0  0  0  0  0  0  0999 V2000
    7.8070   -2.5930  -50.0920 C   0  0  0  0  0  0  0  0  0  0  0  0
    7.7150   -1.8510  -51.4170 C   0  0  0  0  0  0  0  0  0  0  0  0
    8.8390   -2.2660  -52.3680 C   0  0  0  0  0  0  0  0  0  0  0  0
    8.9750   -1.3660  -53.5570 C   0  0  0  0  0  0  0  0  0  0  0  0
    8.1870   -0.3290  -54.0130 C   0  0  0  0  0  0  0  0  0  0  0  0
    8.8220    0.1690  -55.1750 C   0  0  0  0  0  0  0  0  0  0  0  0
    8.3670    1.2790  -56.0310 C   0  0  0  0  0  0  0  0  0  0  0  0
    7.2140    1.6940  -56.0190 O   0  0  0  0  0  0  0  0  0  0  0  0
    9.3730    1.7800  -56.8280 N   0  0  0  0  0  0  0  0  0  0  0  0
    9.2510    2.8730  -57.7870 C   0  0  2  0  0  0  0  0  0  0  0  0
   10.5730    2.9720  -58.5920 C   0  0  0  0  0  0  0  0  0  0  0  0
   10.5080    4.1100  -59.6230 C   0  0  1  0  0  0  0  0  0  0  0  0
    9.3460    3.8430  -60.5940 C   0  0  0  0  0  0  0  0  0  0  0  0
    8.0210    3.7680  -59.8190 C   0  0  2  0  0  0  0  0  0  0  0  0
    7.7880    5.0970  -59.0820 C   0  0  0  0  0  0  0  0  0  0  0  0
    8.9440    5.3720  -58.1060 C   0  0  2  0  0  0  0  0  0  0  0  0
   10.2640    5.4390  -58.8910 C   0  0  0  0  0  0  0  0  0  0  0  0
    9.0220    4.2310  -57.0780 C   0  0  0  0  0  0  0  0  0  0  0  0
    8.0980    2.6260  -58.7900 C   0  0  0  0  0  0  0  0  0  0  0  0
    9.9530   -0.5170  -55.4370 N   0  0  0  0  0  0  0  0  0  0  0  0
   10.0340   -1.4230  -54.4350 N   0  0  0  0  0  0  0  0  0  0  0  0
   11.1630   -2.3530  -54.4220 C   0  0  0  0  0  0  0  0  0  0  0  0
   11.2510   -3.1800  -55.6810 C   0  0  0  0  0  0  0  0  0  0  0  0
   11.8540   -2.6540  -56.8340 C   0  0  0  0  0  0  0  0  0  0  0  0
   11.9490   -3.4200  -57.9970 C   0  0  0  0  0  0  0  0  0  0  0  0
   11.4510   -4.7210  -58.0200 C   0  0  0  0  0  0  0  0  0  0  0  0
   10.8600   -5.2600  -56.8780 C   0  0  0  0  0  0  0  0  0  0  0  0
   10.7630   -4.4960  -55.7150 C   0  0  0  0  0  0  0  0  0  0  0  0
    7.7180   -1.8755  -49.2630 H   0  0  0  0  0  0  0  0  0  0  0  0
    6.9934   -3.3305  -50.0275 H   0  0  0  0  0  0  0  0  0  0  0  0
    8.7761   -3.1095  -50.0275 H   0  0  0  0  0  0  0  0  0  0  0  0
    6.7466   -2.0769  -51.8873 H   0  0  0  0  0  0  0  0  0  0  0  0
    7.8101   -0.7734  -51.2178 H   0  0  0  0  0  0  0  0  0  0  0  0
    9.7880   -2.2548  -51.8120 H   0  0  0  0  0  0  0  0  0  0  0  0
    8.5904   -3.2685  -52.7465 H   0  0  0  0  0  0  0  0  0  0  0  0
    7.2523    0.0371  -53.5631 H   0  0  0  0  0  0  0  0  0  0  0  0
   10.2640    1.3060  -56.7060 H   0  0  0  0  0  0  0  0  0  0  0  0
   11.4036    3.1638  -57.8968 H   0  0  0  0  0  0  0  0  0  0  0  0
   10.7285    2.0236  -59.1272 H   0  0  0  0  0  0  0  0  0  0  0  0
   11.4538    4.1634  -60.1822 H   0  0  0  0  0  0  0  0  0  0  0  0
    9.2918    4.6584  -61.3304 H   0  0  0  0  0  0  0  0  0  0  0  0
    9.5180    2.8864  -61.1091 H   0  0  0  0  0  0  0  0  0  0  0  0
    7.1934    3.5817  -60.5193 H   0  0  0  0  0  0  0  0  0  0  0  0
    7.7298    5.9143  -59.8159 H   0  0  0  0  0  0  0  0  0  0  0  0
    6.8471    5.0335  -58.5157 H   0  0  0  0  0  0  0  0  0  0  0  0
    8.7725    6.3266  -57.5871 H   0  0  0  0  0  0  0  0  0  0  0  0
   10.2095    6.2553  -59.6263 H   0  0  0  0  0  0  0  0  0  0  0  0
   11.0919    5.6227  -58.1904 H   0  0  0  0  0  0  0  0  0  0  0  0
    9.8561    4.4233  -56.3871 H   0  0  0  0  0  0  0  0  0  0  0  0
    8.0722    4.1865  -56.5249 H   0  0  0  0  0  0  0  0  0  0  0  0
    7.1467    2.5698  -58.2405 H   0  0  0  0  0  0  0  0  0  0  0  0
    8.2868    1.6817  -59.3217 H   0  0  0  0  0  0  0  0  0  0  0  0
   12.0932   -1.7757  -54.3145 H   0  0  0  0  0  0  0  0  0  0  0  0
   11.0138   -3.0448  -53.5799 H   0  0  0  0  0  0  0  0  0  0  0  0
   12.2550   -1.6298  -56.8211 H   0  0  0  0  0  0  0  0  0  0  0  0
   12.4179   -2.9957  -58.8970 H   0  0  0  0  0  0  0  0  0  0  0  0
   11.5240   -5.3223  -58.9382 H   0  0  0  0  0  0  0  0  0  0  0  0
   10.4700   -6.2884  -56.8942 H   0  0  0  0  0  0  0  0  0  0  0  0
   10.2998   -4.9287  -54.8160 H   0  0  0  0  0  0  0  0  0  0  0  0
  1  2  1  0
  2  3  1  0
  3  4  1  0
  4  5  2  0
  5  6  1  0
  6  7  1  0
  7  8  2  0
  7  9  1  0
 10  9  1  1
 10 11  1  0
 11 12  1  0
 12 13  1  0
 13 14  1  0
 14 15  1  0
 15 16  1  0
 16 17  1  0
 16 18  1  0
 14 19  1  0
  6 20  2  0
 20 21  1  0
 21 22  1  0
 22 23  1  0
 23 24  2  0
 24 25  1  0
 25 26  2  0
 26 27  1  0
 27 28  2  0
 21  4  1  0
 28 23  1  0
 18 10  1  0
 19 10  1  0
 17 12  1  0
  1 29  1  0
  1 30  1  0
  1 31  1  0
  2 32  1  0
  2 33  1  0
  3 34  1  0
  3 35  1  0
  5 36  1  0
  9 37  1  0
 11 38  1  0
 11 39  1  0
 12 40  1  6
 13 41  1  0
 13 42  1  0
 14 43  1  6
 15 44  1  0
 15 45  1  0
 16 46  1  1
 17 47  1  0
 17 48  1  0
 18 49  1  0
 18 50  1  0
 19 51  1  0
 19 52  1  0
 22 53  1  0
 22 54  1  0
 24 55  1  0
 25 56  1  0
 26 57  1  0
 27 58  1  0
 28 59  1  0
M  END
>  <meeko>  (7) 
{"is_sidechain": false}

$$$$

     RDKit          3D

 53 57  0  0  0  0  0  0  0  0999 V2000
   11.1610   -3.7280  -54.6070 C   0  0  0  0  0  0  0  0  0  0  0  0
   10.9880   -2.6600  -53.5370 C   0  0  0  0  0  0  0  0  0  0  0  0
    9.9020   -1.6940  -53.8780 C   0  0  0  0  0  0  0  0  0  0  0  0
    9.9810   -0.6660  -54.7990 C   0  0  0  0  0  0  0  0  0  0  0  0
    8.6840   -0.1370  -54.9090 C   0  0  0  0  0  0  0  0  0  0  0  0
    8.2430    0.9620  -55.7850 C   0  0  0  0  0  0  0  0  0  0  0  0
    7.0710    1.3090  -55.8660 O   0  0  0  0  0  0  0  0  0  0  0  0
    9.2830    1.5340  -56.4850 N   0  0  0  0  0  0  0  0  0  0  0  0
    9.1790    2.6360  -57.4360 C   0  0  2  0  0  0  0  0  0  0  0  0
   10.5700    2.8570  -58.0870 C   0  0  0  0  0  0  0  0  0  0  0  0
   10.5260    4.0090  -59.1030 C   0  0  1  0  0  0  0  0  0  0  0  0
    9.5050    3.6740  -60.2010 C   0  0  0  0  0  0  0  0  0  0  0  0
    8.1120    3.4760  -59.5810 C   0  0  2  0  0  0  0  0  0  0  0  0
    7.6920    4.7660  -58.8560 C   0  0  0  0  0  0  0  0  0  0  0  0
    8.7080    5.1090  -57.7530 C   0  0  2  0  0  0  0  0  0  0  0  0
   10.0970    5.2980  -58.3850 C   0  0  0  0  0  0  0  0  0  0  0  0
    8.7630    3.9550  -56.7380 C   0  0  0  0  0  0  0  0  0  0  0  0
    8.1680    2.3210  -58.5660 C   0  0  0  0  0  0  0  0  0  0  0  0
    7.8310   -0.7900  -54.1050 N   0  0  0  0  0  0  0  0  0  0  0  0
    8.5880   -1.6910  -53.4100 N   0  0  0  0  0  0  0  0  0  0  0  0
    7.9510   -2.4440  -52.3730 C   0  0  0  0  0  0  0  0  0  0  0  0
    6.9950   -3.4140  -52.7320 C   0  0  0  0  0  0  0  0  0  0  0  0
    6.3430   -4.1740  -51.7580 C   0  0  0  0  0  0  0  0  0  0  0  0
    6.6240   -3.9700  -50.4120 C   0  0  0  0  0  0  0  0  0  0  0  0
    7.5510   -2.9990  -50.0410 C   0  0  0  0  0  0  0  0  0  0  0  0
    8.2080   -2.2350  -51.0150 C   0  0  0  0  0  0  0  0  0  0  0  0
   11.3193   -4.7052  -54.1274 H   0  0  0  0  0  0  0  0  0  0  0  0
   10.2578   -3.7690  -55.2335 H   0  0  0  0  0  0  0  0  0  0  0  0
   12.0310   -3.4818  -55.2335 H   0  0  0  0  0  0  0  0  0  0  0  0
   10.7405   -3.1499  -52.5837 H   0  0  0  0  0  0  0  0  0  0  0  0
   11.9307   -2.0979  -53.4640 H   0  0  0  0  0  0  0  0  0  0  0  0
   10.8792   -0.3297  -55.3377 H   0  0  0  0  0  0  0  0  0  0  0  0
   10.1890    1.1120  -56.2930 H   0  0  0  0  0  0  0  0  0  0  0  0
   11.3007    3.0983  -57.3010 H   0  0  0  0  0  0  0  0  0  0  0  0
   10.8606    1.9361  -58.6138 H   0  0  0  0  0  0  0  0  0  0  0  0
   11.5202    4.1490  -59.5525 H   0  0  0  0  0  0  0  0  0  0  0  0
    9.4666    4.4996  -60.9269 H   0  0  0  0  0  0  0  0  0  0  0  0
    9.8102    2.7462  -60.7070 H   0  0  0  0  0  0  0  0  0  0  0  0
    7.3846    3.2405  -60.3719 H   0  0  0  0  0  0  0  0  0  0  0  0
    7.6489    5.5926  -59.5804 H   0  0  0  0  0  0  0  0  0  0  0  0
    6.7027    4.6157  -58.3992 H   0  0  0  0  0  0  0  0  0  0  0  0
    8.4045    6.0353  -57.2433 H   0  0  0  0  0  0  0  0  0  0  0  0
   10.0580    6.1238  -59.1107 H   0  0  0  0  0  0  0  0  0  0  0  0
   10.8254    5.5311  -57.5944 H   0  0  0  0  0  0  0  0  0  0  0  0
    9.4966    4.1968  -55.9548 H   0  0  0  0  0  0  0  0  0  0  0  0
    7.7645    3.8232  -56.2957 H   0  0  0  0  0  0  0  0  0  0  0  0
    7.1695    2.1764  -58.1276 H   0  0  0  0  0  0  0  0  0  0  0  0
    8.4915    1.4074  -59.0863 H   0  0  0  0  0  0  0  0  0  0  0  0
    6.7585   -3.5754  -53.7941 H   0  0  0  0  0  0  0  0  0  0  0  0
    5.6065   -4.9346  -52.0564 H   0  0  0  0  0  0  0  0  0  0  0  0
    6.1169   -4.5723  -49.6439 H   0  0  0  0  0  0  0  0  0  0  0  0
    7.7690   -2.8306  -48.9760 H   0  0  0  0  0  0  0  0  0  0  0  0
    8.9314   -1.4651  -50.7085 H   0  0  0  0  0  0  0  0  0  0  0  0
  1  2  1  0
  2  3  1  0
  3  4  2  0
  4  5  1  0
  5  6  1  0
  6  7  2  0
  6  8  1  0
  9  8  1  1
  9 10  1  0
 10 11  1  0
 11 12  1  0
 12 13  1  0
 13 14  1  0
 14 15  1  0
 15 16  1  0
 15 17  1  0
 13 18  1  0
  5 19  2  0
 19 20  1  0
 20 21  1  0
 21 22  2  0
 22 23  1  0
 23 24  2  0
 24 25  1  0
 25 26  2  0
 20  3  1  0
 26 21  1  0
 17  9  1  0
 18  9  1  0
 16 11  1  0
  1 27  1  0
  1 28  1  0
  1 29  1  0
  2 30  1  0
  2 31  1  0
  4 32  1  0
  8 33  1  0
 10 34  1  0
 10 35  1  0
 11 36  1  6
 12 37  1  0
 12 38  1  0
 13 39  1  6
 14 40  1  0
 14 41  1  0
 15 42  1  1
 16 43  1  0
 16 44  1  0
 17 45  1  0
 17 46  1  0
 18 47  1  0
 18 48  1  0
 22 49  1  0
 23 50  1  0
 24 51  1  0
 25 52  1  0
 26 53  1  0
M  END
>  <meeko>  (8) 
{"is_sidechain": false}

$$$$

     RDKit          3D

 49 52  0  0  0  0  0  0  0  0999 V2000
    5.8880    1.5100  -56.1380 O   0  0  0  0  0  0  0  0  0  0  0  0
    7.0960    1.3100  -56.0530 C   0  0  0  0  0  0  0  0  0  0  0  0
    8.0470    2.0360  -56.7310 N   0  0  0  0  0  0  0  0  0  0  0  0
    7.7350    3.2260  -57.4740 C   0  0  0  0  0  0  0  0  0  0  0  0
    8.3730    3.1930  -58.8390 C   0  0  0  0  0  0  0  0  0  0  0  0
    9.3180    4.1600  -59.2120 C   0  0  0  0  0  0  0  0  0  0  0  0
    9.8890    4.1350  -60.4850 C   0  0  0  0  0  0  0  0  0  0  0  0
    9.5180    3.1500  -61.3990 C   0  0  0  0  0  0  0  0  0  0  0  0
    8.5720    2.1910  -61.0440 C   0  0  0  0  0  0  0  0  0  0  0  0
    7.9990    2.2130  -59.7710 C   0  0  0  0  0  0  0  0  0  0  0  0
    7.6740    0.2640  -55.1940 C   0  0  0  0  0  0  0  0  0  0  0  0
    7.0170   -0.4530  -54.1660 C   0  0  0  0  0  0  0  0  0  0  0  0
    7.9580   -1.3140  -53.6400 C   0  0  0  0  0  0  0  0  0  0  0  0
    7.8310   -2.2790  -52.5580 C   0  0  0  0  0  0  0  0  0  0  0  0
    7.9710   -1.8680  -51.2290 C   0  0  0  0  0  0  0  0  0  0  0  0
    7.8600   -2.7970  -50.1920 C   0  0  0  0  0  0  0  0  0  0  0  0
    7.6040   -4.1370  -50.4800 C   0  0  0  0  0  0  0  0  0  0  0  0
    7.4550   -4.5500  -51.8030 C   0  0  0  0  0  0  0  0  0  0  0  0
    7.5650   -3.6230  -52.8400 C   0  0  0  0  0  0  0  0  0  0  0  0
    9.1030   -1.0890  -54.3680 N   0  0  0  0  0  0  0  0  0  0  0  0
   10.4090   -1.7170  -54.1860 C   0  0  0  0  0  0  0  0  0  0  0  0
   10.7750   -2.6280  -55.3320 C   0  0  0  0  0  0  0  0  0  0  0  0
   10.4030   -3.9820  -55.3100 C   0  0  0  0  0  0  0  0  0  0  0  0
   10.7450   -4.8280  -56.3650 C   0  0  0  0  0  0  0  0  0  0  0  0
   11.4670   -4.3370  -57.4500 C   0  0  0  0  0  0  0  0  0  0  0  0
   11.8500   -2.9970  -57.4810 C   0  0  0  0  0  0  0  0  0  0  0  0
   11.5080   -2.1480  -56.4280 C   0  0  0  0  0  0  0  0  0  0  0  0
    8.9630   -0.1200  -55.3060 N   0  0  0  0  0  0  0  0  0  0  0  0
    9.0060    1.8400  -56.4620 H   0  0  0  0  0  0  0  0  0  0  0  0
    6.6437    3.3027  -57.5887 H   0  0  0  0  0  0  0  0  0  0  0  0
    8.1267    4.0949  -56.9249 H   0  0  0  0  0  0  0  0  0  0  0  0
    9.6108    4.9428  -58.4968 H   0  0  0  0  0  0  0  0  0  0  0  0
   10.6333    4.8940  -60.7678 H   0  0  0  0  0  0  0  0  0  0  0  0
    9.9723    3.1300  -62.4006 H   0  0  0  0  0  0  0  0  0  0  0  0
    8.2764    1.4163  -61.7668 H   0  0  0  0  0  0  0  0  0  0  0  0
    7.2489    1.4566  -59.4967 H   0  0  0  0  0  0  0  0  0  0  0  0
    5.9687   -0.3457  -53.8503 H   0  0  0  0  0  0  0  0  0  0  0  0
    8.1690   -0.8106  -50.9996 H   0  0  0  0  0  0  0  0  0  0  0  0
    7.9746   -2.4713  -49.1476 H   0  0  0  0  0  0  0  0  0  0  0  0
    7.5196   -4.8685  -49.6629 H   0  0  0  0  0  0  0  0  0  0  0  0
    7.2507   -5.6069  -52.0295 H   0  0  0  0  0  0  0  0  0  0  0  0
    7.4421   -3.9502  -53.8830 H   0  0  0  0  0  0  0  0  0  0  0  0
   11.1716   -0.9285  -54.1043 H   0  0  0  0  0  0  0  0  0  0  0  0
   10.3621   -2.3291  -53.2733 H   0  0  0  0  0  0  0  0  0  0  0  0
    9.8374   -4.3786  -54.4540 H   0  0  0  0  0  0  0  0  0  0  0  0
   10.4437   -5.8856  -56.3399 H   0  0  0  0  0  0  0  0  0  0  0  0
   11.7347   -5.0057  -58.2814 H   0  0  0  0  0  0  0  0  0  0  0  0
   12.4223   -2.6087  -58.3364 H   0  0  0  0  0  0  0  0  0  0  0  0
   11.8159   -1.0924  -56.4573 H   0  0  0  0  0  0  0  0  0  0  0  0
  1  2  2  0
  2  3  1  0
  3  4  1  0
  4  5  1  0
  5  6  2  0
  6  7  1  0
  7  8  2  0
  8  9  1  0
  9 10  2  0
  2 11  1  0
 11 12  1  0
 12 13  2  0
 13 14  1  0
 14 15  2  0
 15 16  1  0
 16 17  2  0
 17 18  1  0
 18 19  2  0
 13 20  1  0
 20 21  1  0
 21 22  1  0
 22 23  2  0
 23 24  1  0
 24 25  2  0
 25 26  1  0
 26 27  2  0
 20 28  1  0
 10  5  1  0
 28 11  2  0
 19 14  1  0
 27 22  1  0
  3 29  1  0
  4 30  1  0
  4 31  1  0
  6 32  1  0
  7 33  1  0
  8 34  1  0
  9 35  1  0
 10 36  1  0
 12 37  1  0
 15 38  1  0
 16 39  1  0
 17 40  1  0
 18 41  1  0
 19 42  1  0
 21 43  1  0
 21 44  1  0
 23 45  1  0
 24 46  1  0
 25 47  1  0
 26 48  1  0
 27 49  1  0
M  END
>  <meeko>  (9) 
{"is_sidechain": false}

$$$$

     RDKit          3D

 48 50  0  0  0  0  0  0  0  0999 V2000
   11.5970    3.1560  -57.5130 C   0  0  0  0  0  0  0  0  0  0  0  0
   10.1050    2.9490  -57.1880 C   0  0  0  0  0  0  0  0  0  0  0  0
    9.6150    4.1500  -56.3630 C   0  0  0  0  0  0  0  0  0  0  0  0
    9.3360    2.8700  -58.5170 C   0  0  0  0  0  0  0  0  0  0  0  0
    9.9810    1.7010  -56.4210 N   0  0  0  0  0  0  0  0  0  0  0  0
    8.7950    1.2240  -55.8800 C   0  0  0  0  0  0  0  0  0  0  0  0
    7.7150    1.7830  -56.0490 O   0  0  0  0  0  0  0  0  0  0  0  0
    8.9450   -0.0040  -55.0660 C   0  0  0  0  0  0  0  0  0  0  0  0
    8.0840   -0.4990  -54.0470 C   0  0  0  0  0  0  0  0  0  0  0  0
    8.6540   -1.6700  -53.5910 C   0  0  0  0  0  0  0  0  0  0  0  0
    8.2020   -2.5810  -52.5510 C   0  0  0  0  0  0  0  0  0  0  0  0
    8.5250   -2.3370  -51.2130 C   0  0  0  0  0  0  0  0  0  0  0  0
    8.0860   -3.2090  -50.2140 C   0  0  0  0  0  0  0  0  0  0  0  0
    7.3300   -4.3310  -50.5510 C   0  0  0  0  0  0  0  0  0  0  0  0
    7.0140   -4.5840  -51.8850 C   0  0  0  0  0  0  0  0  0  0  0  0
    7.4500   -3.7120  -52.8850 C   0  0  0  0  0  0  0  0  0  0  0  0
    9.7950   -1.8280  -54.3400 N   0  0  0  0  0  0  0  0  0  0  0  0
   10.7940   -2.8880  -54.2330 C   0  0  0  0  0  0  0  0  0  0  0  0
   11.1030   -3.5190  -55.5700 C   0  0  0  0  0  0  0  0  0  0  0  0
   11.6490   -2.7540  -56.6130 C   0  0  0  0  0  0  0  0  0  0  0  0
   11.9400   -3.3410  -57.8460 C   0  0  0  0  0  0  0  0  0  0  0  0
   11.6940   -4.6970  -58.0480 C   0  0  0  0  0  0  0  0  0  0  0  0
   11.1590   -5.4690  -57.0180 C   0  0  0  0  0  0  0  0  0  0  0  0
   10.8680   -4.8850  -55.7840 C   0  0  0  0  0  0  0  0  0  0  0  0
    9.9990   -0.8240  -55.2190 N   0  0  0  0  0  0  0  0  0  0  0  0
   12.1687    3.2353  -56.5766 H   0  0  0  0  0  0  0  0  0  0  0  0
   11.9671    2.3006  -58.0972 H   0  0  0  0  0  0  0  0  0  0  0  0
   11.7203    4.0798  -58.0972 H   0  0  0  0  0  0  0  0  0  0  0  0
    9.7084    3.9211  -55.2911 H   0  0  0  0  0  0  0  0  0  0  0  0
   10.2246    5.0334  -56.6038 H   0  0  0  0  0  0  0  0  0  0  0  0
    8.5614    4.3549  -56.6038 H   0  0  0  0  0  0  0  0  0  0  0  0
    8.2608    2.7595  -58.3125 H   0  0  0  0  0  0  0  0  0  0  0  0
    9.5067    3.7904  -59.0947 H   0  0  0  0  0  0  0  0  0  0  0  0
    9.6903    2.0035  -59.0947 H   0  0  0  0  0  0  0  0  0  0  0  0
   10.8340    1.3070  -56.0510 H   0  0  0  0  0  0  0  0  0  0  0  0
    7.1494   -0.0394  -53.6930 H   0  0  0  0  0  0  0  0  0  0  0  0
    9.1267   -1.4557  -50.9461 H   0  0  0  0  0  0  0  0  0  0  0  0
    8.3367   -3.0105  -49.1615 H   0  0  0  0  0  0  0  0  0  0  0  0
    6.9828   -5.0167  -49.7641 H   0  0  0  0  0  0  0  0  0  0  0  0
    6.4206   -5.4714  -52.1503 H   0  0  0  0  0  0  0  0  0  0  0  0
    7.2015   -3.9150  -53.9372 H   0  0  0  0  0  0  0  0  0  0  0  0
   11.7201   -2.4614  -53.8203 H   0  0  0  0  0  0  0  0  0  0  0  0
   10.3861   -3.6709  -53.5767 H   0  0  0  0  0  0  0  0  0  0  0  0
   11.8491   -1.6836  -56.4575 H   0  0  0  0  0  0  0  0  0  0  0  0
   12.3638   -2.7322  -58.6583 H   0  0  0  0  0  0  0  0  0  0  0  0
   11.9219   -5.1586  -59.0201 H   0  0  0  0  0  0  0  0  0  0  0  0
   10.9658   -6.5400  -57.1779 H   0  0  0  0  0  0  0  0  0  0  0  0
   10.4513   -5.5008  -54.9734 H   0  0  0  0  0  0  0  0  0  0  0  0
  1  2  1  0
  2  3  1  0
  2  4  1  0
  2  5  1  0
  5  6  1  0
  6  7  2  0
  6  8  1  0
  8  9  1  0
  9 10  2  0
 10 11  1  0
 11 12  2  0
 12 13  1  0
 13 14  2  0
 14 15  1  0
 15 16  2  0
 10 17  1  0
 17 18  1  0
 18 19  1  0
 19 20  2  0
 20 21  1  0
 21 22  2  0
 22 23  1  0
 23 24  2  0
 17 25  1  0
 25  8  2  0
 16 11  1  0
 24 19  1  0
  1 26  1  0
  1 27  1  0
  1 28  1  0
  3 29  1  0
  3 30  1  0
  3 31  1  0
  4 32  1  0
  4 33  1  0
  4 34  1  0
  5 35  1  0
  9 36  1  0
 12 37  1  0
 13 38  1  0
 14 39  1  0
 15 40  1  0
 16 41  1  0
 18 42  1  0
 18 43  1  0
 20 44  1  0
 21 45  1  0
 22 46  1  0
 23 47  1  0
 24 48  1  0
M  END
>  <meeko>  (10) 
{"is_sidechain": false}

$$$$

     RDKit          3D

 55 58  0  0  0  0  0  0  0  0999 V2000
    5.8970    1.3510  -56.0120 O   0  0  0  0  0  0  0  0  0  0  0  0
    7.1020    1.1420  -55.8930 C   0  0  0  0  0  0  0  0  0  0  0  0
    8.0450    1.8720  -56.6000 N   0  0  0  0  0  0  0  0  0  0  0  0
    7.6740    2.8940  -57.5600 C   0  0  0  0  0  0  0  0  0  0  0  0
    8.4090    2.7260  -58.9020 C   0  0  0  0  0  0  0  0  0  0  0  0
    9.8330    2.1730  -58.6830 C   0  0  0  0  0  0  0  0  0  0  0  0
   10.8910    3.2710  -58.7040 C   0  0  0  0  0  0  0  0  0  0  0  0
   10.9140    4.0110  -60.0420 C   0  0  0  0  0  0  0  0  0  0  0  0
    9.5480    4.0680  -60.7280 C   0  0  0  0  0  0  0  0  0  0  0  0
    8.4110    4.0370  -59.7140 C   0  0  0  0  0  0  0  0  0  0  0  0
    7.6590    0.0950  -55.0070 C   0  0  0  0  0  0  0  0  0  0  0  0
    6.9970   -0.6660  -54.0030 C   0  0  0  0  0  0  0  0  0  0  0  0
    7.9470   -1.5060  -53.4600 C   0  0  0  0  0  0  0  0  0  0  0  0
    7.8190   -2.4970  -52.4040 C   0  0  0  0  0  0  0  0  0  0  0  0
    8.1580   -2.1730  -51.0870 C   0  0  0  0  0  0  0  0  0  0  0  0
    8.0420   -3.1270  -50.0760 C   0  0  0  0  0  0  0  0  0  0  0  0
    7.5780   -4.4080  -50.3750 C   0  0  0  0  0  0  0  0  0  0  0  0
    7.2290   -4.7340  -51.6850 C   0  0  0  0  0  0  0  0  0  0  0  0
    7.3470   -3.7810  -52.6980 C   0  0  0  0  0  0  0  0  0  0  0  0
    9.1100   -1.2130  -54.1320 N   0  0  0  0  0  0  0  0  0  0  0  0
   10.4200   -1.8340  -53.9640 C   0  0  0  0  0  0  0  0  0  0  0  0
   10.7980   -2.6980  -55.1430 C   0  0  0  0  0  0  0  0  0  0  0  0
   11.5060   -2.1570  -56.2270 C   0  0  0  0  0  0  0  0  0  0  0  0
   11.8490   -2.9560  -57.3200 C   0  0  0  0  0  0  0  0  0  0  0  0
   11.4850   -4.3000  -57.3430 C   0  0  0  0  0  0  0  0  0  0  0  0
   10.7760   -4.8480  -56.2760 C   0  0  0  0  0  0  0  0  0  0  0  0
   10.4300   -4.0510  -55.1820 C   0  0  0  0  0  0  0  0  0  0  0  0
    8.9510   -0.2710  -55.0850 N   0  0  0  0  0  0  0  0  0  0  0  0
    9.0160    1.6060  -56.5460 H   0  0  0  0  0  0  0  0  0  0  0  0
    6.5904    2.8344  -57.7398 H   0  0  0  0  0  0  0  0  0  0  0  0
    7.9573    3.8704  -57.1400 H   0  0  0  0  0  0  0  0  0  0  0  0
    7.8591    1.9860  -59.5020 H   0  0  0  0  0  0  0  0  0  0  0  0
    9.8692    1.6658  -57.7076 H   0  0  0  0  0  0  0  0  0  0  0  0
   10.0538    1.4778  -59.5064 H   0  0  0  0  0  0  0  0  0  0  0  0
   10.6724    3.9916  -57.9021 H   0  0  0  0  0  0  0  0  0  0  0  0
   11.8746    2.8013  -58.5557 H   0  0  0  0  0  0  0  0  0  0  0  0
   11.2587    5.0405  -59.8652 H   0  0  0  0  0  0  0  0  0  0  0  0
   11.5895    3.4553  -60.7090 H   0  0  0  0  0  0  0  0  0  0  0  0
    9.4802    4.9974  -61.3124 H   0  0  0  0  0  0  0  0  0  0  0  0
    9.4526    3.1871  -61.3799 H   0  0  0  0  0  0  0  0  0  0  0  0
    8.5263    4.8848  -59.0226 H   0  0  0  0  0  0  0  0  0  0  0  0
    7.4597    4.1032  -60.2622 H   0  0  0  0  0  0  0  0  0  0  0  0
    5.9371   -0.5978  -53.7166 H   0  0  0  0  0  0  0  0  0  0  0  0
    8.5177   -1.1616  -50.8470 H   0  0  0  0  0  0  0  0  0  0  0  0
    8.3165   -2.8690  -49.0425 H   0  0  0  0  0  0  0  0  0  0  0  0
    7.4875   -5.1605  -49.5778 H   0  0  0  0  0  0  0  0  0  0  0  0
    6.8603   -5.7433  -51.9204 H   0  0  0  0  0  0  0  0  0  0  0  0
    7.0682   -4.0400  -53.7301 H   0  0  0  0  0  0  0  0  0  0  0  0
   11.1750   -1.0423  -53.8487 H   0  0  0  0  0  0  0  0  0  0  0  0
   10.3760   -2.4786  -53.0738 H   0  0  0  0  0  0  0  0  0  0  0  0
   11.7931   -1.0952  -56.2158 H   0  0  0  0  0  0  0  0  0  0  0  0
   12.4071   -2.5233  -58.1634 H   0  0  0  0  0  0  0  0  0  0  0  0
   11.7572   -4.9289  -58.2034 H   0  0  0  0  0  0  0  0  0  0  0  0
   10.4883   -5.9095  -56.2951 H   0  0  0  0  0  0  0  0  0  0  0  0
    9.8650   -4.4876  -54.3453 H   0  0  0  0  0  0  0  0  0  0  0  0
  1  2  2  0
  2  3  1  0
  3  4  1  0
  4  5  1  0
  5  6  1  0
  6  7  1  0
  7  8  1  0
  8  9  1  0
  9 10  1  0
  2 11  1  0
 11 12  1  0
 12 13  2  0
 13 14  1  0
 14 15  2  0
 15 16  1  0
 16 17  2  0
 17 18  1  0
 18 19  2  0
 13 20  1  0
 20 21  1  0
 21 22  1  0
 22 23  2  0
 23 24  1  0
 24 25  2  0
 25 26  1  0
 26 27  2  0
 20 28  1  0
 10  5  1  0
 28 11  2  0
 19 14  1  0
 27 22  1  0
  3 29  1  0
  4 30  1  0
  4 31  1  0
  5 32  1  0
  6 33  1  0
  6 34  1  0
  7 35  1  0
  7 36  1  0
  8 37  1  0
  8 38  1  0
  9 39  1  0
  9 40  1  0
 10 41  1  0
 10 42  1  0
 12 43  1  0
 15 44  1  0
 16 45  1  0
 17 46  1  0
 18 47  1  0
 19 48  1  0
 21 49  1  0
 21 50  1  0
 23 51  1  0
 24 52  1  0
 25 53  1  0
 26 54  1  0
 27 55  1  0
M  END
>  <meeko>  (11) 
{"is_sidechain": false}

$$$$

     RDKit          3D

 51 53  0  0  0  0  0  0  0  0999 V2000
   10.3010    3.2560  -57.1870 C   0  0  0  0  0  0  0  0  0  0  0  0
    9.0160    4.0620  -57.4570 C   0  0  0  0  0  0  0  0  0  0  0  0
    9.0660    4.5950  -58.8990 C   0  0  0  0  0  0  0  0  0  0  0  0
    8.9660    5.2490  -56.4790 C   0  0  0  0  0  0  0  0  0  0  0  0
    7.8020    3.1260  -57.2470 C   0  0  0  0  0  0  0  0  0  0  0  0
    8.0900    1.9730  -56.4270 N   0  0  0  0  0  0  0  0  0  0  0  0
    7.1240    1.1830  -55.8430 C   0  0  0  0  0  0  0  0  0  0  0  0
    5.9180    1.3480  -55.9920 O   0  0  0  0  0  0  0  0  0  0  0  0
    7.6900    0.1120  -55.0060 C   0  0  0  0  0  0  0  0  0  0  0  0
    7.0130   -0.6440  -54.0200 C   0  0  0  0  0  0  0  0  0  0  0  0
    7.9460   -1.5180  -53.5020 C   0  0  0  0  0  0  0  0  0  0  0  0
    7.8000   -2.5260  -52.4640 C   0  0  0  0  0  0  0  0  0  0  0  0
    8.0920   -2.2120  -51.1320 C   0  0  0  0  0  0  0  0  0  0  0  0
    7.9430   -3.1780  -50.1350 C   0  0  0  0  0  0  0  0  0  0  0  0
    7.5070   -4.4610  -50.4650 C   0  0  0  0  0  0  0  0  0  0  0  0
    7.2230   -4.7810  -51.7910 C   0  0  0  0  0  0  0  0  0  0  0  0
    7.3740   -3.8170  -52.7900 C   0  0  0  0  0  0  0  0  0  0  0  0
    9.1150   -1.2400  -54.1720 N   0  0  0  0  0  0  0  0  0  0  0  0
   10.4070   -1.9030  -54.0190 C   0  0  0  0  0  0  0  0  0  0  0  0
   10.7530   -2.7690  -55.2060 C   0  0  0  0  0  0  0  0  0  0  0  0
   10.3630   -4.1160  -55.2510 C   0  0  0  0  0  0  0  0  0  0  0  0
   10.6910   -4.9140  -56.3480 C   0  0  0  0  0  0  0  0  0  0  0  0
   11.4140   -4.3760  -57.4110 C   0  0  0  0  0  0  0  0  0  0  0  0
   11.8130   -3.0410  -57.3760 C   0  0  0  0  0  0  0  0  0  0  0  0
   11.4870   -2.2420  -56.2790 C   0  0  0  0  0  0  0  0  0  0  0  0
    8.9810   -0.2680  -55.1090 N   0  0  0  0  0  0  0  0  0  0  0  0
   10.4528    3.1608  -56.1017 H   0  0  0  0  0  0  0  0  0  0  0  0
   10.2066    2.2550  -57.6333 H   0  0  0  0  0  0  0  0  0  0  0  0
   11.1610    3.7768  -57.6333 H   0  0  0  0  0  0  0  0  0  0  0  0
    9.1687    5.6901  -58.8818 H   0  0  0  0  0  0  0  0  0  0  0  0
    9.9267    4.1542  -59.4232 H   0  0  0  0  0  0  0  0  0  0  0  0
    8.1383    4.3219  -59.4232 H   0  0  0  0  0  0  0  0  0  0  0  0
    8.9818    4.8733  -55.4453 H   0  0  0  0  0  0  0  0  0  0  0  0
    9.8376    5.8989  -56.6463 H   0  0  0  0  0  0  0  0  0  0  0  0
    8.0429    5.8233  -56.6463 H   0  0  0  0  0  0  0  0  0  0  0  0
    6.9989    3.7026  -56.7648 H   0  0  0  0  0  0  0  0  0  0  0  0
    7.5126    2.7493  -58.2391 H   0  0  0  0  0  0  0  0  0  0  0  0
    9.0480    1.7240  -56.1950 H   0  0  0  0  0  0  0  0  0  0  0  0
    5.9569   -0.5532  -53.7262 H   0  0  0  0  0  0  0  0  0  0  0  0
    8.4397   -1.2019  -50.8698 H   0  0  0  0  0  0  0  0  0  0  0  0
    8.1697   -2.9269  -49.0883 H   0  0  0  0  0  0  0  0  0  0  0  0
    7.3873   -5.2204  -49.6783 H   0  0  0  0  0  0  0  0  0  0  0  0
    6.8798   -5.7932  -52.0510 H   0  0  0  0  0  0  0  0  0  0  0  0
    7.1570   -4.0744  -53.8372 H   0  0  0  0  0  0  0  0  0  0  0  0
   11.1864   -1.1355  -53.9024 H   0  0  0  0  0  0  0  0  0  0  0  0
   10.3474   -2.5542  -53.1345 H   0  0  0  0  0  0  0  0  0  0  0  0
    9.7937   -4.5469  -54.4142 H   0  0  0  0  0  0  0  0  0  0  0  0
   10.3786   -5.9684  -56.3736 H   0  0  0  0  0  0  0  0  0  0  0  0
   11.6696   -5.0044  -58.2769 H   0  0  0  0  0  0  0  0  0  0  0  0
   12.3855   -2.6166  -58.2139 H   0  0  0  0  0  0  0  0  0  0  0  0
   11.8083   -1.1902  -56.2556 H   0  0  0  0  0  0  0  0  0  0  0  0
  1  2  1  0
  2  3  1  0
  2  4  1  0
  2  5  1  0
  5  6  1  0
  6  7  1  0
  7  8  2  0
  7  9  1  0
  9 10  1  0
 10 11  2  0
 11 12  1  0
 12 13  2  0
 13 14  1  0
 14 15  2  0
 15 16  1  0
 16 17  2  0
 11 18  1  0
 18 19  1  0
 19 20  1  0
 20 21  2  0
 21 22  1  0
 22 23  2  0
 23 24  1  0
 24 25  2  0
 18 26  1  0
 26  9  2  0
 17 12  1  0
 25 20  1  0
  1 27  1  0
  1 28  1  0
  1 29  1  0
  3 30  1  0
  3 31  1  0
  3 32  1  0
  4 33  1  0
  4 34  1  0
  4 35  1  0
  5 36  1  0
  5 37  1  0
  6 38  1  0
 10 39  1  0
 13 40  1  0
 14 41  1  0
 15 42  1  0
 16 43  1  0
 17 44  1  0
 19 45  1  0
 19 46  1  0
 21 47  1  0
 22 48  1  0
 23 49  1  0
 24 50  1  0
 25 51  1  0
M  END
>  <meeko>  (12) 
{"is_sidechain": false}

$$$$

     RDKit          3D

 48 50  0  0  0  0  0  0  0  0999 V2000
    8.0490    5.7210  -59.0370 C   0  0  0  0  0  0  0  0  0  0  0  0
    9.0980    5.3460  -58.0020 C   0  0  0  0  0  0  0  0  0  0  0  0
    8.5560    4.4590  -56.8790 C   0  0  0  0  0  0  0  0  0  0  0  0
    8.1250    3.0760  -57.3570 C   0  0  0  0  0  0  0  0  0  0  0  0
    8.4510    2.0610  -56.3760 N   0  0  0  0  0  0  0  0  0  0  0  0
    7.4480    1.2720  -55.8280 C   0  0  0  0  0  0  0  0  0  0  0  0
    6.2590    1.4850  -56.0560 O   0  0  0  0  0  0  0  0  0  0  0  0
    7.9290    0.1620  -54.9780 C   0  0  0  0  0  0  0  0  0  0  0  0
    7.2040   -0.5860  -54.0090 C   0  0  0  0  0  0  0  0  0  0  0  0
    8.0880   -1.5060  -53.4850 C   0  0  0  0  0  0  0  0  0  0  0  0
    7.8800   -2.5260  -52.4710 C   0  0  0  0  0  0  0  0  0  0  0  0
    8.1500   -2.2470  -51.1270 C   0  0  0  0  0  0  0  0  0  0  0  0
    7.9410   -3.2230  -50.1500 C   0  0  0  0  0  0  0  0  0  0  0  0
    7.4680   -4.4830  -50.5140 C   0  0  0  0  0  0  0  0  0  0  0  0
    7.2040   -4.7700  -51.8520 C   0  0  0  0  0  0  0  0  0  0  0  0
    7.4110   -3.7950  -52.8300 C   0  0  0  0  0  0  0  0  0  0  0  0
    9.2600   -1.3050  -54.1730 N   0  0  0  0  0  0  0  0  0  0  0  0
   10.5170   -2.0370  -54.0330 C   0  0  0  0  0  0  0  0  0  0  0  0
   10.8580   -2.8230  -55.2750 C   0  0  0  0  0  0  0  0  0  0  0  0
   10.4630   -4.1630  -55.4040 C   0  0  0  0  0  0  0  0  0  0  0  0
   10.7800   -4.8880  -56.5540 C   0  0  0  0  0  0  0  0  0  0  0  0
   11.5000   -4.2850  -57.5840 C   0  0  0  0  0  0  0  0  0  0  0  0
   11.9030   -2.9570  -57.4660 C   0  0  0  0  0  0  0  0  0  0  0  0
   11.5860   -2.2290  -56.3180 C   0  0  0  0  0  0  0  0  0  0  0  0
    9.1970   -0.2790  -55.0480 N   0  0  0  0  0  0  0  0  0  0  0  0
    7.1314    6.0490  -58.5268 H   0  0  0  0  0  0  0  0  0  0  0  0
    8.4307    6.5383  -59.6665 H   0  0  0  0  0  0  0  0  0  0  0  0
    7.8261    4.8469  -59.6665 H   0  0  0  0  0  0  0  0  0  0  0  0
    9.9114    4.8071  -58.5098 H   0  0  0  0  0  0  0  0  0  0  0  0
    9.4441    6.2813  -57.5378 H   0  0  0  0  0  0  0  0  0  0  0  0
    9.3429    4.3366  -56.1202 H   0  0  0  0  0  0  0  0  0  0  0  0
    7.6627    4.9565  -56.4733 H   0  0  0  0  0  0  0  0  0  0  0  0
    7.0380    3.0767  -57.5259 H   0  0  0  0  0  0  0  0  0  0  0  0
    8.6606    2.8457  -58.2898 H   0  0  0  0  0  0  0  0  0  0  0  0
    9.3820    1.6710  -56.3940 H   0  0  0  0  0  0  0  0  0  0  0  0
    6.1473   -0.4563  -53.7324 H   0  0  0  0  0  0  0  0  0  0  0  0
    8.5283   -1.2552  -50.8386 H   0  0  0  0  0  0  0  0  0  0  0  0
    8.1495   -2.9976  -49.0937 H   0  0  0  0  0  0  0  0  0  0  0  0
    7.3030   -5.2514  -49.7443 H   0  0  0  0  0  0  0  0  0  0  0  0
    6.8324   -5.7651  -52.1378 H   0  0  0  0  0  0  0  0  0  0  0  0
    7.2049   -4.0249  -53.8858 H   0  0  0  0  0  0  0  0  0  0  0  0
   11.3258   -1.3182  -53.8350 H   0  0  0  0  0  0  0  0  0  0  0  0
   10.4034   -2.7491  -53.2023 H   0  0  0  0  0  0  0  0  0  0  0  0
    9.8990   -4.6462  -54.5925 H   0  0  0  0  0  0  0  0  0  0  0  0
   10.4612   -5.9366  -56.6475 H   0  0  0  0  0  0  0  0  0  0  0  0
   11.7498   -4.8576  -58.4894 H   0  0  0  0  0  0  0  0  0  0  0  0
   12.4718   -2.4813  -58.2785 H   0  0  0  0  0  0  0  0  0  0  0  0
   11.9093   -1.1813  -56.2299 H   0  0  0  0  0  0  0  0  0  0  0  0
  1  2  1  0
  2  3  1  0
  3  4  1  0
  4  5  1  0
  5  6  1  0
  6  7  2  0
  6  8  1  0
  8  9  1  0
  9 10  2  0
 10 11  1  0
 11 12  2  0
 12 13  1  0
 13 14  2  0
 14 15  1  0
 15 16  2  0
 10 17  1  0
 17 18  1  0
 18 19  1  0
 19 20  2  0
 20 21  1  0
 21 22  2  0
 22 23  1  0
 23 24  2  0
 17 25  1  0
 25  8  2  0
 16 11  1  0
 24 19  1  0
  1 26  1  0
  1 27  1  0
  1 28  1  0
  2 29  1  0
  2 30  1  0
  3 31  1  0
  3 32  1  0
  4 33  1  0
  4 34  1  0
  5 35  1  0
  9 36  1  0
 12 37  1  0
 13 38  1  0
 14 39  1  0
 15 40  1  0
 16 41  1  0
 18 42  1  0
 18 43  1  0
 20 44  1  0
 21 45  1  0
 22 46  1  0
 23 47  1  0
 24 48  1  0
M  END
>  <meeko>  (13) 
{"is_sidechain": false}

$$$$

     RDKit          3D

 48 50  0  0  0  0  0  0  0  0999 V2000
    9.9830    4.0040  -56.2870 C   0  0  0  0  0  0  0  0  0  0  0  0
    8.6190    4.4250  -56.8410 C   0  0  0  0  0  0  0  0  0  0  0  0
    8.8060    5.3520  -58.0420 C   0  0  0  0  0  0  0  0  0  0  0  0
    7.7760    3.2070  -57.2400 C   0  0  0  0  0  0  0  0  0  0  0  0
    8.1560    2.0170  -56.5060 N   0  0  0  0  0  0  0  0  0  0  0  0
    7.1920    1.2530  -55.8620 C   0  0  0  0  0  0  0  0  0  0  0  0
    5.9920    1.4860  -55.9830 O   0  0  0  0  0  0  0  0  0  0  0  0
    7.7300    0.1660  -55.0150 C   0  0  0  0  0  0  0  0  0  0  0  0
    7.0600   -0.5840  -54.0100 C   0  0  0  0  0  0  0  0  0  0  0  0
    7.9830   -1.4780  -53.5100 C   0  0  0  0  0  0  0  0  0  0  0  0
    7.8420   -2.4760  -52.4610 C   0  0  0  0  0  0  0  0  0  0  0  0
    7.3630   -3.7540  -52.7670 C   0  0  0  0  0  0  0  0  0  0  0  0
    7.2180   -4.7090  -51.7590 C   0  0  0  0  0  0  0  0  0  0  0  0
    7.5580   -4.3940  -50.4440 C   0  0  0  0  0  0  0  0  0  0  0  0
    8.0440   -3.1240  -50.1350 C   0  0  0  0  0  0  0  0  0  0  0  0
    8.1880   -2.1670  -51.1400 C   0  0  0  0  0  0  0  0  0  0  0  0
    9.1480   -1.2040  -54.1860 N   0  0  0  0  0  0  0  0  0  0  0  0
   10.4510   -1.8420  -54.0180 C   0  0  0  0  0  0  0  0  0  0  0  0
   10.8110   -2.7190  -55.1930 C   0  0  0  0  0  0  0  0  0  0  0  0
   11.5250   -2.1960  -56.2810 C   0  0  0  0  0  0  0  0  0  0  0  0
   11.8560   -3.0100  -57.3670 C   0  0  0  0  0  0  0  0  0  0  0  0
   11.4830   -4.3520  -57.3730 C   0  0  0  0  0  0  0  0  0  0  0  0
   10.7770   -4.8840  -56.2960 C   0  0  0  0  0  0  0  0  0  0  0  0
   10.4430   -4.0730  -55.2110 C   0  0  0  0  0  0  0  0  0  0  0  0
    9.0060   -0.2450  -55.1250 N   0  0  0  0  0  0  0  0  0  0  0  0
    9.9511    4.0139  -55.1875 H   0  0  0  0  0  0  0  0  0  0  0  0
   10.2240    2.9897  -56.6378 H   0  0  0  0  0  0  0  0  0  0  0  0
   10.7538    4.7061  -56.6378 H   0  0  0  0  0  0  0  0  0  0  0  0
    8.0804    4.9623  -56.0465 H   0  0  0  0  0  0  0  0  0  0  0  0
    9.0120    6.3731  -57.6885 H   0  0  0  0  0  0  0  0  0  0  0  0
    9.6507    4.9974  -58.6509 H   0  0  0  0  0  0  0  0  0  0  0  0
    7.8899    5.3526  -58.6509 H   0  0  0  0  0  0  0  0  0  0  0  0
    6.7174    3.4263  -57.0366 H   0  0  0  0  0  0  0  0  0  0  0  0
    7.9452    3.0137  -58.3096 H   0  0  0  0  0  0  0  0  0  0  0  0
    9.0990    1.9670  -56.1470 H   0  0  0  0  0  0  0  0  0  0  0  0
    6.0123   -0.4730  -53.6938 H   0  0  0  0  0  0  0  0  0  0  0  0
    7.0998   -4.0073  -53.8046 H   0  0  0  0  0  0  0  0  0  0  0  0
    6.8351   -5.7110  -52.0025 H   0  0  0  0  0  0  0  0  0  0  0  0
    7.4429   -5.1471  -49.6505 H   0  0  0  0  0  0  0  0  0  0  0  0
    8.3141   -2.8764  -49.0978 H   0  0  0  0  0  0  0  0  0  0  0  0
    8.5744   -1.1670  -50.8938 H   0  0  0  0  0  0  0  0  0  0  0  0
   11.2174   -1.0602  -53.9113 H   0  0  0  0  0  0  0  0  0  0  0  0
   10.4027   -2.4792  -53.1227 H   0  0  0  0  0  0  0  0  0  0  0  0
   11.8263   -1.1381  -56.2792 H   0  0  0  0  0  0  0  0  0  0  0  0
   12.4119   -2.5906  -58.2185 H   0  0  0  0  0  0  0  0  0  0  0  0
   11.7459   -4.9920  -58.2282 H   0  0  0  0  0  0  0  0  0  0  0  0
   10.4828   -5.9439  -56.3012 H   0  0  0  0  0  0  0  0  0  0  0  0
    9.8867   -4.4984  -54.3628 H   0  0  0  0  0  0  0  0  0  0  0  0
  1  2  1  0
  2  3  1  0
  2  4  1  0
  4  5  1  0
  5  6  1  0
  6  7  2  0
  6  8  1  0
  8  9  1  0
  9 10  2  0
 10 11  1  0
 11 12  2  0
 12 13  1  0
 13 14  2  0
 14 15  1  0
 15 16  2  0
 10 17  1  0
 17 18  1  0
 18 19  1  0
 19 20  2  0
 20 21  1  0
 21 22  2  0
 22 23  1  0
 23 24  2  0
 17 25  1  0
 25  8  2  0
 16 11  1  0
 24 19  1  0
  1 26  1  0
  1 27  1  0
  1 28  1  0
  2 29  1  0
  3 30  1  0
  3 31  1  0
  3 32  1  0
  4 33  1  0
  4 34  1  0
  5 35  1  0
  9 36  1  0
 12 37  1  0
 13 38  1  0
 14 39  1  0
 15 40  1  0
 16 41  1  0
 18 42  1  0
 18 43  1  0
 20 44  1  0
 21 45  1  0
 22 46  1  0
 23 47  1  0
 24 48  1  0
M  END
>  <meeko>  (14) 
{"is_sidechain": false}

$$$$

     RDKit          3D

 55 58  0  0  0  0  0  0  0  0999 V2000
    5.9970    1.4350  -56.1660 O   0  0  0  0  0  0  0  0  0  0  0  0
    7.1970    1.2770  -55.9580 C   0  0  0  0  0  0  0  0  0  0  0  0
    8.1600    2.0610  -56.5790 N   0  0  0  0  0  0  0  0  0  0  0  0
    7.8070    3.0340  -57.6100 C   0  0  0  0  0  0  0  0  0  0  0  0
    7.9860    2.4010  -58.9990 C   0  0  0  0  0  0  0  0  0  0  0  0
    9.3660    2.5810  -59.6260 C   0  0  0  0  0  0  0  0  0  0  0  0
    9.5000    3.8960  -60.3920 C   0  0  0  0  0  0  0  0  0  0  0  0
    9.6370    5.1360  -59.5320 C   0  0  0  0  0  0  0  0  0  0  0  0
    8.5200    5.3510  -58.5120 C   0  0  0  0  0  0  0  0  0  0  0  0
    8.5680    4.3440  -57.3640 C   0  0  0  0  0  0  0  0  0  0  0  0
    7.7340    0.2400  -55.0500 C   0  0  0  0  0  0  0  0  0  0  0  0
    7.0410   -0.5130  -54.0600 C   0  0  0  0  0  0  0  0  0  0  0  0
    7.9760   -1.3470  -53.4800 C   0  0  0  0  0  0  0  0  0  0  0  0
    7.8160   -2.3330  -52.4230 C   0  0  0  0  0  0  0  0  0  0  0  0
    8.2040   -2.0290  -51.1140 C   0  0  0  0  0  0  0  0  0  0  0  0
    8.0420   -2.9720  -50.0970 C   0  0  0  0  0  0  0  0  0  0  0  0
    7.4990   -4.2230  -50.3860 C   0  0  0  0  0  0  0  0  0  0  0  0
    7.1170   -4.5340  -51.6900 C   0  0  0  0  0  0  0  0  0  0  0  0
    7.2770   -3.5930  -52.7090 C   0  0  0  0  0  0  0  0  0  0  0  0
    9.1450   -1.0970  -54.1570 N   0  0  0  0  0  0  0  0  0  0  0  0
   10.4450   -1.7330  -53.9610 C   0  0  0  0  0  0  0  0  0  0  0  0
   10.8190   -2.6320  -55.1130 C   0  0  0  0  0  0  0  0  0  0  0  0
   10.4410   -3.9830  -55.1190 C   0  0  0  0  0  0  0  0  0  0  0  0
   10.7880   -4.8110  -56.1860 C   0  0  0  0  0  0  0  0  0  0  0  0
   11.5210   -4.3030  -57.2560 C   0  0  0  0  0  0  0  0  0  0  0  0
   11.9070   -2.9630  -57.2620 C   0  0  0  0  0  0  0  0  0  0  0  0
   11.5600   -2.1320  -56.1960 C   0  0  0  0  0  0  0  0  0  0  0  0
    9.0300   -0.1180  -55.0780 N   0  0  0  0  0  0  0  0  0  0  0  0
    9.1160    1.7400  -56.5460 H   0  0  0  0  0  0  0  0  0  0  0  0
    6.7441    3.3133  -57.5630 H   0  0  0  0  0  0  0  0  0  0  0  0
    7.7924    1.3220  -58.9080 H   0  0  0  0  0  0  0  0  0  0  0  0
    7.2804    2.9215  -59.6632 H   0  0  0  0  0  0  0  0  0  0  0  0
   10.1209    2.5614  -58.8262 H   0  0  0  0  0  0  0  0  0  0  0  0
    9.5130    1.7617  -60.3452 H   0  0  0  0  0  0  0  0  0  0  0  0
   10.3915    3.8267  -61.0326 H   0  0  0  0  0  0  0  0  0  0  0  0
    8.5619    4.0176  -60.9534 H   0  0  0  0  0  0  0  0  0  0  0  0
   10.5883    5.0660  -58.9842 H   0  0  0  0  0  0  0  0  0  0  0  0
    9.5870    5.9912  -60.2220 H   0  0  0  0  0  0  0  0  0  0  0  0
    8.6144    6.3646  -58.0952 H   0  0  0  0  0  0  0  0  0  0  0  0
    7.5619    5.2136  -59.0346 H   0  0  0  0  0  0  0  0  0  0  0  0
    9.6224    4.0943  -57.1745 H   0  0  0  0  0  0  0  0  0  0  0  0
    8.0707    4.8298  -56.5115 H   0  0  0  0  0  0  0  0  0  0  0  0
    5.9726   -0.4440  -53.8074 H   0  0  0  0  0  0  0  0  0  0  0  0
    8.6379   -1.0444  -50.8851 H   0  0  0  0  0  0  0  0  0  0  0  0
    8.3429   -2.7277  -49.0676 H   0  0  0  0  0  0  0  0  0  0  0  0
    7.3719   -4.9654  -49.5843 H   0  0  0  0  0  0  0  0  0  0  0  0
    6.6891   -5.5217  -51.9164 H   0  0  0  0  0  0  0  0  0  0  0  0
    6.9791   -3.8421  -53.7382 H   0  0  0  0  0  0  0  0  0  0  0  0
   11.2108   -0.9499  -53.8597 H   0  0  0  0  0  0  0  0  0  0  0  0
   10.3843   -2.3532  -53.0546 H   0  0  0  0  0  0  0  0  0  0  0  0
    9.8662   -4.3925  -54.2752 H   0  0  0  0  0  0  0  0  0  0  0  0
   10.4822   -5.8676  -56.1827 H   0  0  0  0  0  0  0  0  0  0  0  0
   11.7952   -4.9585  -58.0958 H   0  0  0  0  0  0  0  0  0  0  0  0
   12.4851   -2.5610  -58.1071 H   0  0  0  0  0  0  0  0  0  0  0  0
   11.8695   -1.0765  -56.2041 H   0  0  0  0  0  0  0  0  0  0  0  0
  1  2  2  0
  2  3  1  0
  3  4  1  0
  4  5  1  0
  5  6  1  0
  6  7  1  0
  7  8  1  0
  8  9  1  0
  9 10  1  0
  2 11  1  0
 11 12  1  0
 12 13  2  0
 13 14  1  0
 14 15  2  0
 15 16  1  0
 16 17  2  0
 17 18  1  0
 18 19  2  0
 13 20  1  0
 20 21  1  0
 21 22  1  0
 22 23  2  0
 23 24  1  0
 24 25  2  0
 25 26  1  0
 26 27  2  0
 20 28  1  0
 10  4  1  0
 28 11  2  0
 19 14  1  0
 27 22  1  0
  3 29  1  0
  4 30  1  0
  5 31  1  0
  5 32  1  0
  6 33  1  0
  6 34  1  0
  7 35  1  0
  7 36  1  0
  8 37  1  0
  8 38  1  0
  9 39  1  0
  9 40  1  0
 10 41  1  0
 10 42  1  0
 12 43  1  0
 15 44  1  0
 16 45  1  0
 17 46  1  0
 18 47  1  0
 19 48  1  0
 21 49  1  0
 21 50  1  0
 23 51  1  0
 24 52  1  0
 25 53  1  0
 26 54  1  0
 27 55  1  0
M  END
>  <meeko>  (15) 
{"is_sidechain": false}

$$$$

     RDKit          3D

 59 63  0  0  0  0  0  0  0  0999 V2000
   11.4860   -2.3000  -56.1620 C   0  0  0  0  0  0  0  0  0  0  0  0
   11.1060   -3.0340  -54.8740 C   0  0  0  0  0  0  0  0  0  0  0  0
    9.9610   -4.0090  -55.1510 C   0  0  0  0  0  0  0  0  0  0  0  0
   10.7000   -2.0600  -53.7540 C   0  0  0  0  0  0  0  0  0  0  0  0
    9.5070   -1.2850  -54.0560 N   0  0  0  0  0  0  0  0  0  0  0  0
    9.5920   -0.3190  -54.9890 N   0  0  0  0  0  0  0  0  0  0  0  0
    8.3570    0.2040  -55.0710 C   0  0  0  0  0  0  0  0  0  0  0  0
    8.0430    1.3060  -56.0070 C   0  0  0  0  0  0  0  0  0  0  0  0
    6.9290    1.8200  -56.0810 O   0  0  0  0  0  0  0  0  0  0  0  0
    9.1130    1.7240  -56.7850 N   0  0  0  0  0  0  0  0  0  0  0  0
    9.0730    2.8490  -57.7240 C   0  0  2  0  0  0  0  0  0  0  0  0
    7.9460    2.6880  -58.7760 C   0  0  0  0  0  0  0  0  0  0  0  0
    7.9670    3.8570  -59.7770 C   0  0  1  0  0  0  0  0  0  0  0  0
    7.7810    5.1790  -59.0140 C   0  0  0  0  0  0  0  0  0  0  0  0
    8.9160    5.3680  -57.9940 C   0  0  2  0  0  0  0  0  0  0  0  0
   10.2640    5.3800  -58.7320 C   0  0  0  0  0  0  0  0  0  0  0  0
   10.4590    4.0570  -59.4890 C   0  0  2  0  0  0  0  0  0  0  0  0
    9.3200    3.8790  -60.5060 C   0  0  0  0  0  0  0  0  0  0  0  0
   10.4260    2.8920  -58.4860 C   0  0  0  0  0  0  0  0  0  0  0  0
    8.8960    4.2010  -56.9900 C   0  0  0  0  0  0  0  0  0  0  0  0
    7.4900   -0.4510  -54.1510 C   0  0  0  0  0  0  0  0  0  0  0  0
    8.2570   -1.3960  -53.4980 C   0  0  0  0  0  0  0  0  0  0  0  0
    7.8770   -2.3320  -52.4500 C   0  0  0  0  0  0  0  0  0  0  0  0
    8.1730   -2.0530  -51.1110 C   0  0  0  0  0  0  0  0  0  0  0  0
    7.8070   -2.9530  -50.1080 C   0  0  0  0  0  0  0  0  0  0  0  0
    7.1400   -4.1330  -50.4380 C   0  0  0  0  0  0  0  0  0  0  0  0
    6.8350   -4.4110  -51.7690 C   0  0  0  0  0  0  0  0  0  0  0  0
    7.1990   -3.5120  -52.7730 C   0  0  0  0  0  0  0  0  0  0  0  0
   11.9783   -1.3490  -55.9105 H   0  0  0  0  0  0  0  0  0  0  0  0
   12.1740   -2.9246  -56.7506 H   0  0  0  0  0  0  0  0  0  0  0  0
   10.5788   -2.0988  -56.7506 H   0  0  0  0  0  0  0  0  0  0  0  0
   11.9938   -3.5857  -54.5314 H   0  0  0  0  0  0  0  0  0  0  0  0
    9.5434   -4.3646  -54.1975 H   0  0  0  0  0  0  0  0  0  0  0  0
    9.1757   -3.4981  -55.7274 H   0  0  0  0  0  0  0  0  0  0  0  0
   10.3403   -4.8657  -55.7274 H   0  0  0  0  0  0  0  0  0  0  0  0
   10.5138   -2.6414  -52.8390 H   0  0  0  0  0  0  0  0  0  0  0  0
   11.5266   -1.3440  -53.6359 H   0  0  0  0  0  0  0  0  0  0  0  0
   10.0260    1.3880  -56.5150 H   0  0  0  0  0  0  0  0  0  0  0  0
    8.0922    1.7434  -59.3204 H   0  0  0  0  0  0  0  0  0  0  0  0
    6.9758    2.6828  -58.2577 H   0  0  0  0  0  0  0  0  0  0  0  0
    7.1553    3.7323  -60.5088 H   0  0  0  0  0  0  0  0  0  0  0  0
    7.7916    6.0154  -59.7284 H   0  0  0  0  0  0  0  0  0  0  0  0
    6.8195    5.1530  -58.4802 H   0  0  0  0  0  0  0  0  0  0  0  0
    8.7788    6.3191  -57.4587 H   0  0  0  0  0  0  0  0  0  0  0  0
   10.2804    6.2153  -59.4476 H   0  0  0  0  0  0  0  0  0  0  0  0
   11.0760    5.5008  -57.9999 H   0  0  0  0  0  0  0  0  0  0  0  0
   11.4254    4.0706  -60.0143 H   0  0  0  0  0  0  0  0  0  0  0  0
    9.3355    4.7147  -61.2211 H   0  0  0  0  0  0  0  0  0  0  0  0
    9.4582    2.9285  -61.0421 H   0  0  0  0  0  0  0  0  0  0  0  0
   10.5624    1.9456  -59.0298 H   0  0  0  0  0  0  0  0  0  0  0  0
   11.2347    3.0373  -57.7546 H   0  0  0  0  0  0  0  0  0  0  0  0
    9.7158    4.3308  -56.2682 H   0  0  0  0  0  0  0  0  0  0  0  0
    7.9275    4.1978  -56.4685 H   0  0  0  0  0  0  0  0  0  0  0  0
    6.4212   -0.2452  -53.9918 H   0  0  0  0  0  0  0  0  0  0  0  0
    8.6957   -1.1216  -50.8477 H   0  0  0  0  0  0  0  0  0  0  0  0
    8.0448   -2.7314  -49.0571 H   0  0  0  0  0  0  0  0  0  0  0  0
    6.8550   -4.8435  -49.6481 H   0  0  0  0  0  0  0  0  0  0  0  0
    6.3067   -5.3402  -52.0289 H   0  0  0  0  0  0  0  0  0  0  0  0
    6.9517   -3.7324  -53.8219 H   0  0  0  0  0  0  0  0  0  0  0  0
  1  2  1  0
  2  3  1  0
  2  4  1  0
  4  5  1  0
  5  6  1  0
  6  7  2  0
  7  8  1  0
  8  9  2  0
  8 10  1  0
 11 10  1  1
 11 12  1  0
 12 13  1  0
 13 14  1  0
 14 15  1  0
 15 16  1  0
 16 17  1  0
 17 18  1  0
 17 19  1  0
 15 20  1  0
  7 21  1  0
 21 22  2  0
 22 23  1  0
 23 24  2  0
 24 25  1  0
 25 26  2  0
 26 27  1  0
 27 28  2  0
 22  5  1  0
 28 23  1  0
 19 11  1  0
 20 11  1  0
 18 13  1  0
  1 29  1  0
  1 30  1  0
  1 31  1  0
  2 32  1  0
  3 33  1  0
  3 34  1  0
  3 35  1  0
  4 36  1  0
  4 37  1  0
 10 38  1  0
 12 39  1  0
 12 40  1  0
 13 41  1  6
 14 42  1  0
 14 43  1  0
 15 44  1  1
 16 45  1  0
 16 46  1  0
 17 47  1  6
 18 48  1  0
 18 49  1  0
 19 50  1  0
 19 51  1  0
 20 52  1  0
 20 53  1  0
 21 54  1  0
 24 55  1  0
 25 56  1  0
 26 57  1  0
 27 58  1  0
 28 59  1  0
M  END
>  <meeko>  (16) 
{"is_sidechain": false}

$$$$

     RDKit          3D

 60 65  0  0  0  0  0  0  0  0999 V2000
    6.6530    1.8810  -56.1060 O   0  0  0  0  0  0  0  0  0  0  0  0
    7.7700    1.3840  -56.0170 C   0  0  0  0  0  0  0  0  0  0  0  0
    8.8740    1.7970  -56.7310 N   0  0  0  0  0  0  0  0  0  0  0  0
    8.9180    2.8830  -57.7020 C   0  0  2  0  0  0  0  0  0  0  0  0
    7.8000    2.7450  -58.7640 C   0  0  0  0  0  0  0  0  0  0  0  0
    7.8990    3.8750  -59.8040 C   0  0  1  0  0  0  0  0  0  0  0  0
    7.7680    5.2330  -59.0910 C   0  0  0  0  0  0  0  0  0  0  0  0
    8.8960    5.3960  -58.0570 C   0  0  2  0  0  0  0  0  0  0  0  0
   10.2540    5.3130  -58.7710 C   0  0  0  0  0  0  0  0  0  0  0  0
   10.3930    3.9560  -59.4790 C   0  0  2  0  0  0  0  0  0  0  0  0
    9.2620    3.8000  -60.5080 C   0  0  0  0  0  0  0  0  0  0  0  0
   10.2850    2.8310  -58.4360 C   0  0  0  0  0  0  0  0  0  0  0  0
    8.7980    4.2660  -57.0170 C   0  0  0  0  0  0  0  0  0  0  0  0
    8.0690    0.2590  -55.1150 C   0  0  0  0  0  0  0  0  0  0  0  0
    7.2060   -0.3240  -54.1600 C   0  0  0  0  0  0  0  0  0  0  0  0
    7.9320   -1.3280  -53.5520 C   0  0  0  0  0  0  0  0  0  0  0  0
    7.5320   -2.2420  -52.4900 C   0  0  0  0  0  0  0  0  0  0  0  0
    7.9430   -2.0250  -51.1700 C   0  0  0  0  0  0  0  0  0  0  0  0
    7.5600   -2.9070  -50.1580 C   0  0  0  0  0  0  0  0  0  0  0  0
    6.7570   -4.0060  -50.4590 C   0  0  0  0  0  0  0  0  0  0  0  0
    6.3340   -4.2230  -51.7700 C   0  0  0  0  0  0  0  0  0  0  0  0
    6.7170   -3.3420  -52.7820 C   0  0  0  0  0  0  0  0  0  0  0  0
    9.1580   -1.3210  -54.1800 N   0  0  0  0  0  0  0  0  0  0  0  0
   10.2730   -2.2320  -53.9420 C   0  0  0  0  0  0  0  0  0  0  0  0
   11.4980   -1.9020  -54.7940 C   0  0  0  0  0  0  0  0  0  0  0  0
   11.2760   -2.6520  -56.1010 C   0  0  0  0  0  0  0  0  0  0  0  0
   10.4440   -3.8820  -55.7420 C   0  0  0  0  0  0  0  0  0  0  0  0
    9.9840   -3.6950  -54.2950 C   0  0  0  0  0  0  0  0  0  0  0  0
    9.2700   -0.3520  -55.1170 N   0  0  0  0  0  0  0  0  0  0  0  0
    9.7160    1.2640  -56.5220 H   0  0  0  0  0  0  0  0  0  0  0  0
    7.9024    1.7752  -59.2729 H   0  0  0  0  0  0  0  0  0  0  0  0
    6.8235    2.8096  -58.2617 H   0  0  0  0  0  0  0  0  0  0  0  0
    7.0943    3.7670  -60.5461 H   0  0  0  0  0  0  0  0  0  0  0  0
    7.8347    6.0420  -59.8333 H   0  0  0  0  0  0  0  0  0  0  0  0
    6.7970    5.2781  -58.5760 H   0  0  0  0  0  0  0  0  0  0  0  0
    8.8011    6.3702  -57.5550 H   0  0  0  0  0  0  0  0  0  0  0  0
   10.3248    6.1207  -59.5143 H   0  0  0  0  0  0  0  0  0  0  0  0
   11.0593    5.4175  -58.0290 H   0  0  0  0  0  0  0  0  0  0  0  0
   11.3663    3.9018  -59.9886 H   0  0  0  0  0  0  0  0  0  0  0  0
    9.3326    4.6068  -61.2524 H   0  0  0  0  0  0  0  0  0  0  0  0
    9.3585    2.8240  -61.0062 H   0  0  0  0  0  0  0  0  0  0  0  0
   10.3846    1.8598  -58.9427 H   0  0  0  0  0  0  0  0  0  0  0  0
   11.0866    2.9623  -57.6942 H   0  0  0  0  0  0  0  0  0  0  0  0
    9.6104    4.3780  -56.2839 H   0  0  0  0  0  0  0  0  0  0  0  0
    7.8212    4.3296  -56.5153 H   0  0  0  0  0  0  0  0  0  0  0  0
    6.1664   -0.0360  -53.9448 H   0  0  0  0  0  0  0  0  0  0  0  0
    8.5712   -1.1549  -50.9286 H   0  0  0  0  0  0  0  0  0  0  0  0
    7.8917   -2.7348  -49.1234 H   0  0  0  0  0  0  0  0  0  0  0  0
    6.4569   -4.7023  -49.6621 H   0  0  0  0  0  0  0  0  0  0  0  0
    5.6982   -5.0890  -52.0064 H   0  0  0  0  0  0  0  0  0  0  0  0
    6.3769   -3.5127  -53.8141 H   0  0  0  0  0  0  0  0  0  0  0  0
   10.4443   -2.1021  -52.8632 H   0  0  0  0  0  0  0  0  0  0  0  0
   11.5638   -0.8190  -54.9750 H   0  0  0  0  0  0  0  0  0  0  0  0
   12.4373   -2.1943  -54.3017 H   0  0  0  0  0  0  0  0  0  0  0  0
   10.7330   -2.0187  -56.8180 H   0  0  0  0  0  0  0  0  0  0  0  0
   12.2294   -2.9329  -56.5723 H   0  0  0  0  0  0  0  0  0  0  0  0
    9.5732   -3.9586  -56.4097 H   0  0  0  0  0  0  0  0  0  0  0  0
   11.0330   -4.8043  -55.8537 H   0  0  0  0  0  0  0  0  0  0  0  0
    8.9075   -3.9034  -54.2068 H   0  0  0  0  0  0  0  0  0  0  0  0
   10.5077   -4.3831  -53.6151 H   0  0  0  0  0  0  0  0  0  0  0  0
  1  2  2  0
  2  3  1  0
  4  3  1  1
  4  5  1  0
  5  6  1  0
  6  7  1  0
  7  8  1  0
  8  9  1  0
  9 10  1  0
 10 11  1  0
 10 12  1  0
  8 13  1  0
  2 14  1  0
 14 15  1  0
 15 16  2  0
 16 17  1  0
 17 18  2  0
 18 19  1  0
 19 20  2  0
 20 21  1  0
 21 22  2  0
 16 23  1  0
 23 24  1  0
 24 25  1  0
 25 26  1  0
 26 27  1  0
 27 28  1  0
 23 29  1  0
 12  4  1  0
 29 14  2  0
 13  4  1  0
 22 17  1  0
 28 24  1  0
 11  6  1  0
  3 30  1  0
  5 31  1  0
  5 32  1  0
  6 33  1  6
  7 34  1  0
  7 35  1  0
  8 36  1  1
  9 37  1  0
  9 38  1  0
 10 39  1  6
 11 40  1  0
 11 41  1  0
 12 42  1  0
 12 43  1  0
 13 44  1  0
 13 45  1  0
 15 46  1  0
 18 47  1  0
 19 48  1  0
 20 49  1  0
 21 50  1  0
 22 51  1  0
 24 52  1  0
 25 53  1  0
 25 54  1  0
 26 55  1  0
 26 56  1  0
 27 57  1  0
 27 58  1  0
 28 59  1  0
 28 60  1  0
M  END
>  <meeko>  (17) 
{"is_sidechain": false}

$$$$

     RDKit          3D

 57 62  0  0  0  0  0  0  0  0999 V2000
    6.9560    1.7180  -56.1190 O   0  0  0  0  0  0  0  0  0  0  0  0
    8.0760    1.2220  -56.0440 C   0  0  0  0  0  0  0  0  0  0  0  0
    9.1430    1.6580  -56.8160 N   0  0  0  0  0  0  0  0  0  0  0  0
    9.0890    2.7860  -57.7510 C   0  0  2  0  0  0  0  0  0  0  0  0
   10.4540    2.8720  -58.4860 C   0  0  0  0  0  0  0  0  0  0  0  0
   10.4740    4.0420  -59.4830 C   0  0  1  0  0  0  0  0  0  0  0  0
    9.3610    3.8360  -60.5220 C   0  0  0  0  0  0  0  0  0  0  0  0
    7.9960    3.7720  -59.8210 C   0  0  2  0  0  0  0  0  0  0  0  0
    7.7560    5.0850  -59.0560 C   0  0  0  0  0  0  0  0  0  0  0  0
    8.8650    5.3010  -58.0130 C   0  0  2  0  0  0  0  0  0  0  0  0
   10.2260    5.3550  -58.7250 C   0  0  0  0  0  0  0  0  0  0  0  0
    8.8580    4.1290  -57.0150 C   0  0  0  0  0  0  0  0  0  0  0  0
    7.9880    2.5980  -58.8260 C   0  0  0  0  0  0  0  0  0  0  0  0
    8.4040    0.1200  -55.1100 C   0  0  0  0  0  0  0  0  0  0  0  0
    7.5550   -0.5260  -54.1690 C   0  0  0  0  0  0  0  0  0  0  0  0
    8.3270   -1.4750  -53.5300 C   0  0  0  0  0  0  0  0  0  0  0  0
    7.9590   -2.4170  -52.4840 C   0  0  0  0  0  0  0  0  0  0  0  0
    8.1010   -2.0720  -51.1340 C   0  0  0  0  0  0  0  0  0  0  0  0
    7.7430   -2.9790  -50.1360 C   0  0  0  0  0  0  0  0  0  0  0  0
    7.2350   -4.2310  -50.4780 C   0  0  0  0  0  0  0  0  0  0  0  0
    7.0800   -4.5760  -51.8200 C   0  0  0  0  0  0  0  0  0  0  0  0
    7.4370   -3.6700  -52.8210 C   0  0  0  0  0  0  0  0  0  0  0  0
    9.5680   -1.3710  -54.1120 N   0  0  0  0  0  0  0  0  0  0  0  0
   10.7610   -2.1690  -53.8400 C   0  0  0  0  0  0  0  0  0  0  0  0
   11.2130   -2.9350  -55.0480 C   0  0  0  0  0  0  0  0  0  0  0  0
   11.6140   -4.3830  -54.9120 C   0  0  0  0  0  0  0  0  0  0  0  0
   10.3570   -4.0220  -55.6520 C   0  0  0  0  0  0  0  0  0  0  0  0
    9.6370   -0.4120  -55.0560 N   0  0  0  0  0  0  0  0  0  0  0  0
   10.0600    1.3370  -56.5420 H   0  0  0  0  0  0  0  0  0  0  0  0
   11.2527    3.0188  -57.7441 H   0  0  0  0  0  0  0  0  0  0  0  0
   10.6101    1.9363  -59.0428 H   0  0  0  0  0  0  0  0  0  0  0  0
   11.4499    4.0859  -59.9887 H   0  0  0  0  0  0  0  0  0  0  0  0
    9.3665    4.6749  -61.2335 H   0  0  0  0  0  0  0  0  0  0  0  0
    9.5369    2.8919  -61.0585 H   0  0  0  0  0  0  0  0  0  0  0  0
    7.2033    3.6279  -60.5699 H   0  0  0  0  0  0  0  0  0  0  0  0
    7.7564    5.9249  -59.7663 H   0  0  0  0  0  0  0  0  0  0  0  0
    6.7851    5.0291  -58.5419 H   0  0  0  0  0  0  0  0  0  0  0  0
    8.6910    6.2450  -57.4758 H   0  0  0  0  0  0  0  0  0  0  0  0
   10.2318    6.1935  -59.4370 H   0  0  0  0  0  0  0  0  0  0  0  0
   11.0200    5.4959  -57.9768 H   0  0  0  0  0  0  0  0  0  0  0  0
    9.6587    4.2787  -56.2758 H   0  0  0  0  0  0  0  0  0  0  0  0
    7.8794    4.0954  -56.5138 H   0  0  0  0  0  0  0  0  0  0  0  0
    7.0060    2.5488  -58.3329 H   0  0  0  0  0  0  0  0  0  0  0  0
    8.1849    1.6659  -59.3759 H   0  0  0  0  0  0  0  0  0  0  0  0
    6.4917   -0.3113  -53.9864 H   0  0  0  0  0  0  0  0  0  0  0  0
    8.4961   -1.0827  -50.8596 H   0  0  0  0  0  0  0  0  0  0  0  0
    7.8619   -2.7054  -49.0772 H   0  0  0  0  0  0  0  0  0  0  0  0
    6.9566   -4.9462  -49.6900 H   0  0  0  0  0  0  0  0  0  0  0  0
    6.6761   -5.5628  -52.0906 H   0  0  0  0  0  0  0  0  0  0  0  0
    7.3071   -3.9429  -53.8787 H   0  0  0  0  0  0  0  0  0  0  0  0
   11.5721   -1.4977  -53.5213 H   0  0  0  0  0  0  0  0  0  0  0  0
   10.5116   -2.8945  -53.0517 H   0  0  0  0  0  0  0  0  0  0  0  0
   11.6846   -2.0199  -55.4357 H   0  0  0  0  0  0  0  0  0  0  0  0
   12.4855   -4.7660  -55.4633 H   0  0  0  0  0  0  0  0  0  0  0  0
   11.8554   -5.0462  -54.0683 H   0  0  0  0  0  0  0  0  0  0  0  0
   10.3090   -4.1406  -56.7445 H   0  0  0  0  0  0  0  0  0  0  0  0
    9.2987   -4.3115  -55.5737 H   0  0  0  0  0  0  0  0  0  0  0  0
  1  2  2  0
  2  3  1  0
  4  3  1  1
  4  5  1  0
  5  6  1  0
  6  7  1  0
  7  8  1  0
  8  9  1  0
  9 10  1  0
 10 11  1  0
 10 12  1  0
  8 13  1  0
  2 14  1  0
 14 15  1  0
 15 16  2  0
 16 17  1  0
 17 18  2  0
 18 19  1  0
 19 20  2  0
 20 21  1  0
 21 22  2  0
 16 23  1  0
 23 24  1  0
 24 25  1  0
 25 26  1  0
 26 27  1  0
 23 28  1  0
 12  4  1  0
 28 14  2  0
 13  4  1  0
 22 17  1  0
 27 25  1  0
 11  6  1  0
  3 29  1  0
  5 30  1  0
  5 31  1  0
  6 32  1  6
  7 33  1  0
  7 34  1  0
  8 35  1  6
  9 36  1  0
  9 37  1  0
 10 38  1  1
 11 39  1  0
 11 40  1  0
 12 41  1  0
 12 42  1  0
 13 43  1  0
 13 44  1  0
 15 45  1  0
 18 46  1  0
 19 47  1  0
 20 48  1  0
 21 49  1  0
 22 50  1  0
 24 51  1  0
 24 52  1  0
 25 53  1  0
 26 54  1  0
 26 55  1  0
 27 56  1  0
 27 57  1  0
M  END
>  <meeko>  (18) 
{"is_sidechain": false}

$$$$

     RDKit          3D

 54 59  0  0  0  0  0  0  0  0999 V2000
    6.6480    1.7760  -56.0670 O   0  0  0  0  0  0  0  0  0  0  0  0
    7.7620    1.2790  -55.9460 C   0  0  0  0  0  0  0  0  0  0  0  0
    8.8920    1.7100  -56.6030 N   0  0  0  0  0  0  0  0  0  0  0  0
    8.9710    2.8220  -57.5440 C   0  0  2  0  0  0  0  0  0  0  0  0
   10.3860    2.8310  -58.1800 C   0  0  0  0  0  0  0  0  0  0  0  0
   10.5330    3.9850  -59.1840 C   0  0  1  0  0  0  0  0  0  0  0  0
    9.4840    3.8220  -60.2950 C   0  0  0  0  0  0  0  0  0  0  0  0
    8.0720    3.8370  -59.6910 C   0  0  2  0  0  0  0  0  0  0  0  0
    7.8480    5.1710  -58.9570 C   0  0  0  0  0  0  0  0  0  0  0  0
    8.8930    5.3430  -57.8400 C   0  0  2  0  0  0  0  0  0  0  0  0
   10.3000    5.3190  -58.4560 C   0  0  0  0  0  0  0  0  0  0  0  0
    8.7570    4.1840  -56.8360 C   0  0  0  0  0  0  0  0  0  0  0  0
    7.9360    2.6780  -58.6870 C   0  0  0  0  0  0  0  0  0  0  0  0
    8.0240    0.1350  -55.0560 C   0  0  0  0  0  0  0  0  0  0  0  0
    7.1870   -0.3510  -54.0210 C   0  0  0  0  0  0  0  0  0  0  0  0
    7.8450   -1.4350  -53.4740 C   0  0  0  0  0  0  0  0  0  0  0  0
    7.4560   -2.2970  -52.3650 C   0  0  0  0  0  0  0  0  0  0  0  0
    7.8790   -2.0270  -51.0590 C   0  0  0  0  0  0  0  0  0  0  0  0
    7.5030   -2.8630  -50.0050 C   0  0  0  0  0  0  0  0  0  0  0  0
    6.7060   -3.9790  -50.2510 C   0  0  0  0  0  0  0  0  0  0  0  0
    6.2900   -4.2640  -51.5500 C   0  0  0  0  0  0  0  0  0  0  0  0
    6.6650   -3.4280  -52.6040 C   0  0  0  0  0  0  0  0  0  0  0  0
    9.0180   -1.5240  -54.1850 N   0  0  0  0  0  0  0  0  0  0  0  0
   10.1060   -2.4950  -53.8990 C   0  0  0  0  0  0  0  0  0  0  0  0
   11.5310   -2.2450  -54.3330 C   0  0  0  0  0  0  0  0  0  0  0  0
   11.1870   -2.2350  -52.8740 C   0  0  0  0  0  0  0  0  0  0  0  0
    9.1550   -0.5920  -55.1470 N   0  0  0  0  0  0  0  0  0  0  0  0
    9.7310    1.1820  -56.3720 H   0  0  0  0  0  0  0  0  0  0  0  0
   11.1368    2.9487  -57.3847 H   0  0  0  0  0  0  0  0  0  0  0  0
   10.5352    1.8812  -58.7145 H   0  0  0  0  0  0  0  0  0  0  0  0
   11.5419    3.9735  -59.6222 H   0  0  0  0  0  0  0  0  0  0  0  0
    9.5819    4.6498  -61.0127 H   0  0  0  0  0  0  0  0  0  0  0  0
    9.6472    2.8625  -60.8075 H   0  0  0  0  0  0  0  0  0  0  0  0
    7.3262    3.7237  -60.4916 H   0  0  0  0  0  0  0  0  0  0  0  0
    7.9416    6.0005  -59.6734 H   0  0  0  0  0  0  0  0  0  0  0  0
    6.8421    5.1721  -58.5118 H   0  0  0  0  0  0  0  0  0  0  0  0
    8.7312    6.3008  -57.3237 H   0  0  0  0  0  0  0  0  0  0  0  0
   10.3977    6.1473  -59.1732 H   0  0  0  0  0  0  0  0  0  0  0  0
   11.0464    5.4285  -57.6554 H   0  0  0  0  0  0  0  0  0  0  0  0
    9.5105    4.3019  -56.0434 H   0  0  0  0  0  0  0  0  0  0  0  0
    7.7452    4.2048  -56.4048 H   0  0  0  0  0  0  0  0  0  0  0  0
    6.9223    2.6869  -58.2599 H   0  0  0  0  0  0  0  0  0  0  0  0
    8.1191    1.7297  -59.2135 H   0  0  0  0  0  0  0  0  0  0  0  0
    6.2108    0.0533  -53.7152 H   0  0  0  0  0  0  0  0  0  0  0  0
    8.5124   -1.1498  -50.8607 H   0  0  0  0  0  0  0  0  0  0  0  0
    7.8362   -2.6402  -48.9806 H   0  0  0  0  0  0  0  0  0  0  0  0
    6.4054   -4.6346  -49.4204 H   0  0  0  0  0  0  0  0  0  0  0  0
    5.6656   -5.1483  -51.7455 H   0  0  0  0  0  0  0  0  0  0  0  0
    6.3371   -3.6592  -53.6282 H   0  0  0  0  0  0  0  0  0  0  0  0
    9.3627   -3.2902  -54.0579 H   0  0  0  0  0  0  0  0  0  0  0  0
   12.1303   -3.0677  -54.7502 H   0  0  0  0  0  0  0  0  0  0  0  0
   12.0204   -1.5386  -55.0196 H   0  0  0  0  0  0  0  0  0  0  0  0
   11.5337   -3.0505  -52.2222 H   0  0  0  0  0  0  0  0  0  0  0  0
   11.3195   -1.5187  -52.0498 H   0  0  0  0  0  0  0  0  0  0  0  0
  1  2  2  0
  2  3  1  0
  4  3  1  1
  4  5  1  0
  5  6  1  0
  6  7  1  0
  7  8  1  0
  8  9  1  0
  9 10  1  0
 10 11  1  0
 10 12  1  0
  8 13  1  0
  2 14  1  0
 14 15  1  0
 15 16  2  0
 16 17  1  0
 17 18  2  0
 18 19  1  0
 19 20  2  0
 20 21  1  0
 21 22  2  0
 16 23  1  0
 23 24  1  0
 24 25  1  0
 25 26  1  0
 23 27  1  0
 12  4  1  0
 27 14  2  0
 13  4  1  0
 22 17  1  0
 26 24  1  0
 11  6  1  0
  3 28  1  0
  5 29  1  0
  5 30  1  0
  6 31  1  6
  7 32  1  0
  7 33  1  0
  8 34  1  6
  9 35  1  0
  9 36  1  0
 10 37  1  1
 11 38  1  0
 11 39  1  0
 12 40  1  0
 12 41  1  0
 13 42  1  0
 13 43  1  0
 15 44  1  0
 18 45  1  0
 19 46  1  0
 20 47  1  0
 21 48  1  0
 22 49  1  0
 24 50  1  0
 25 51  1  0
 25 52  1  0
 26 53  1  0
 26 54  1  0
M  END
>  <meeko>  (19) 
{"is_sidechain": false}

$$$$

     RDKit          3D

 59 63  0  0  0  0  0  0  0  0999 V2000
   10.7160   -4.7510  -56.6380 C   0  0  0  0  0  0  0  0  0  0  0  0
   10.2710   -4.0880  -55.3440 C   0  0  0  0  0  0  0  0  0  0  0  0
   11.3000   -3.0650  -54.8590 C   0  0  0  0  0  0  0  0  0  0  0  0
   10.7990   -2.2210  -53.6850 C   0  0  0  0  0  0  0  0  0  0  0  0
    9.6270   -1.4200  -53.9920 N   0  0  0  0  0  0  0  0  0  0  0  0
    9.7280   -0.4730  -54.9420 N   0  0  0  0  0  0  0  0  0  0  0  0
    8.5190    0.1140  -54.9860 C   0  0  0  0  0  0  0  0  0  0  0  0
    8.2310    1.2250  -55.9210 C   0  0  0  0  0  0  0  0  0  0  0  0
    7.0970    1.6450  -56.1280 O   0  0  0  0  0  0  0  0  0  0  0  0
    9.3510    1.7410  -56.5600 N   0  0  0  0  0  0  0  0  0  0  0  0
    9.3140    2.7870  -57.5880 C   0  0  2  0  0  0  0  0  0  0  0  0
    8.9910    4.1800  -56.9890 C   0  0  0  0  0  0  0  0  0  0  0  0
    9.0150    5.2600  -58.0860 C   0  0  1  0  0  0  0  0  0  0  0  0
   10.4140    5.3100  -58.7200 C   0  0  0  0  0  0  0  0  0  0  0  0
   10.7570    3.9470  -59.3390 C   0  0  2  0  0  0  0  0  0  0  0  0
    9.7190    3.6010  -60.4170 C   0  0  0  0  0  0  0  0  0  0  0  0
    8.3150    3.5420  -59.7960 C   0  0  2  0  0  0  0  0  0  0  0  0
    7.9800    4.9050  -59.1680 C   0  0  0  0  0  0  0  0  0  0  0  0
    8.2890    2.4600  -58.7010 C   0  0  0  0  0  0  0  0  0  0  0  0
   10.7220    2.8720  -58.2420 C   0  0  0  0  0  0  0  0  0  0  0  0
    7.6470   -0.5020  -54.0450 C   0  0  0  0  0  0  0  0  0  0  0  0
    8.3780   -1.4960  -53.4260 C   0  0  0  0  0  0  0  0  0  0  0  0
    7.9750   -2.4360  -52.3900 C   0  0  0  0  0  0  0  0  0  0  0  0
    8.1450   -2.1060  -51.0400 C   0  0  0  0  0  0  0  0  0  0  0  0
    7.7590   -3.0030  -50.0420 C   0  0  0  0  0  0  0  0  0  0  0  0
    7.1950   -4.2300  -50.3880 C   0  0  0  0  0  0  0  0  0  0  0  0
    7.0120   -4.5610  -51.7310 C   0  0  0  0  0  0  0  0  0  0  0  0
    7.3990   -3.6660  -52.7290 C   0  0  0  0  0  0  0  0  0  0  0  0
   11.3152   -5.6437  -56.4054 H   0  0  0  0  0  0  0  0  0  0  0  0
    9.8316   -5.0450  -57.2224 H   0  0  0  0  0  0  0  0  0  0  0  0
   11.3231   -4.0439  -57.2224 H   0  0  0  0  0  0  0  0  0  0  0  0
    9.3117   -3.5775  -55.5148 H   0  0  0  0  0  0  0  0  0  0  0  0
   10.1669   -4.8665  -54.5739 H   0  0  0  0  0  0  0  0  0  0  0  0
   12.2059   -3.6026  -54.5424 H   0  0  0  0  0  0  0  0  0  0  0  0
   11.4998   -2.3787  -55.6951 H   0  0  0  0  0  0  0  0  0  0  0  0
   10.5480   -2.8975  -52.8547 H   0  0  0  0  0  0  0  0  0  0  0  0
   11.6066   -1.5192  -53.4296 H   0  0  0  0  0  0  0  0  0  0  0  0
   10.2030    1.2070  -56.4840 H   0  0  0  0  0  0  0  0  0  0  0  0
    7.9918    4.1532  -56.5297 H   0  0  0  0  0  0  0  0  0  0  0  0
    9.7508    4.4257  -56.2325 H   0  0  0  0  0  0  0  0  0  0  0  0
    8.7732    6.2392  -57.6472 H   0  0  0  0  0  0  0  0  0  0  0  0
   10.4317    6.0814  -59.5040 H   0  0  0  0  0  0  0  0  0  0  0  0
   11.1548    5.5516  -57.9436 H   0  0  0  0  0  0  0  0  0  0  0  0
   11.7593    3.9878  -59.7905 H   0  0  0  0  0  0  0  0  0  0  0  0
    9.7380    4.3718  -61.2016 H   0  0  0  0  0  0  0  0  0  0  0  0
    9.9630    2.6202  -60.8511 H   0  0  0  0  0  0  0  0  0  0  0  0
    7.5762    3.3004  -60.5743 H   0  0  0  0  0  0  0  0  0  0  0  0
    7.9921    5.6783  -59.9502 H   0  0  0  0  0  0  0  0  0  0  0  0
    6.9825    4.8526  -58.7073 H   0  0  0  0  0  0  0  0  0  0  0  0
    7.2813    2.4137  -58.2623 H   0  0  0  0  0  0  0  0  0  0  0  0
    8.5521    1.4920  -59.1524 H   0  0  0  0  0  0  0  0  0  0  0  0
   10.9716    1.8970  -58.6860 H   0  0  0  0  0  0  0  0  0  0  0  0
   11.4529    3.1409  -57.4652 H   0  0  0  0  0  0  0  0  0  0  0  0
    6.5972   -0.2380  -53.8494 H   0  0  0  0  0  0  0  0  0  0  0  0
    8.5845   -1.1360  -50.7644 H   0  0  0  0  0  0  0  0  0  0  0  0
    7.8999   -2.7415  -48.9829 H   0  0  0  0  0  0  0  0  0  0  0  0
    6.8940   -4.9378  -49.6016 H   0  0  0  0  0  0  0  0  0  0  0  0
    6.5627   -5.5275  -52.0030 H   0  0  0  0  0  0  0  0  0  0  0  0
    7.2508   -3.9281  -53.7870 H   0  0  0  0  0  0  0  0  0  0  0  0
  1  2  1  0
  2  3  1  0
  3  4  1  0
  4  5  1  0
  5  6  1  0
  6  7  2  0
  7  8  1  0
  8  9  2  0
  8 10  1  0
 11 10  1  1
 11 12  1  0
 12 13  1  0
 13 14  1  0
 14 15  1  0
 15 16  1  0
 16 17  1  0
 17 18  1  0
 17 19  1  0
 15 20  1  0
  7 21  1  0
 21 22  2  0
 22 23  1  0
 23 24  2  0
 24 25  1  0
 25 26  2  0
 26 27  1  0
 27 28  2  0
 22  5  1  0
 28 23  1  0
 19 11  1  0
 20 11  1  0
 18 13  1  0
  1 29  1  0
  1 30  1  0
  1 31  1  0
  2 32  1  0
  2 33  1  0
  3 34  1  0
  3 35  1  0
  4 36  1  0
  4 37  1  0
 10 38  1  0
 12 39  1  0
 12 40  1  0
 13 41  1  1
 14 42  1  0
 14 43  1  0
 15 44  1  6
 16 45  1  0
 16 46  1  0
 17 47  1  6
 18 48  1  0
 18 49  1  0
 19 50  1  0
 19 51  1  0
 20 52  1  0
 20 53  1  0
 21 54  1  0
 24 55  1  0
 25 56  1  0
 26 57  1  0
 27 58  1  0
 28 59  1  0
M  END
>  <meeko>  (20) 
{"is_sidechain": false}

$$$$

     RDKit          3D

 50 54  0  0  0  0  0  0  0  0999 V2000
    6.3850    2.2340  -56.6540 O   0  0  0  0  0  0  0  0  0  0  0  0
    7.4290    1.6550  -56.3860 C   0  0  0  0  0  0  0  0  0  0  0  0
    8.6530    1.9330  -56.9630 N   0  0  0  0  0  0  0  0  0  0  0  0
    8.8820    2.9980  -57.9460 C   0  0  2  0  0  0  0  0  0  0  0  0
   10.3210    2.8410  -58.5080 C   0  0  0  0  0  0  0  0  0  0  0  0
   10.6320    3.9340  -59.5440 C   0  0  1  0  0  0  0  0  0  0  0  0
    9.6310    3.8280  -60.7030 C   0  0  0  0  0  0  0  0  0  0  0  0
    8.1980    4.0040  -60.1760 C   0  0  2  0  0  0  0  0  0  0  0  0
    8.0700    5.3820  -59.5040 C   0  0  0  0  0  0  0  0  0  0  0  0
    9.0690    5.4980  -58.3400 C   0  0  2  0  0  0  0  0  0  0  0  0
   10.4970    5.3120  -58.8780 C   0  0  0  0  0  0  0  0  0  0  0  0
    8.7690    4.4020  -57.3030 C   0  0  0  0  0  0  0  0  0  0  0  0
    7.8980    2.9060  -59.1410 C   0  0  0  0  0  0  0  0  0  0  0  0
    7.4330    0.5940  -55.3400 C   0  0  0  0  0  0  0  0  0  0  0  0
    6.2750   -0.1160  -55.0010 C   0  0  0  0  0  0  0  0  0  0  0  0
    6.3260   -1.1040  -54.0100 C   0  0  0  0  0  0  0  0  0  0  0  0
    7.5220   -1.3960  -53.3340 C   0  0  0  0  0  0  0  0  0  0  0  0
    7.5680   -2.4340  -52.2900 C   0  0  0  0  0  0  0  0  0  0  0  0
    7.0660   -3.7240  -52.5290 C   0  0  0  0  0  0  0  0  0  0  0  0
    7.1100   -4.7100  -51.5400 C   0  0  0  0  0  0  0  0  0  0  0  0
    7.6560   -4.4210  -50.2920 C   0  0  0  0  0  0  0  0  0  0  0  0
    8.1580   -3.1490  -50.0330 C   0  0  0  0  0  0  0  0  0  0  0  0
    8.1150   -2.1640  -51.0240 C   0  0  0  0  0  0  0  0  0  0  0  0
    8.6700   -0.6620  -53.6750 C   0  0  0  0  0  0  0  0  0  0  0  0
    8.6260    0.3260  -54.6640 C   0  0  0  0  0  0  0  0  0  0  0  0
    9.4710    1.5730  -56.4920 H   0  0  0  0  0  0  0  0  0  0  0  0
   11.0406    2.9159  -57.6794 H   0  0  0  0  0  0  0  0  0  0  0  0
   10.3993    1.8603  -59.0000 H   0  0  0  0  0  0  0  0  0  0  0  0
   11.6555    3.8069  -59.9266 H   0  0  0  0  0  0  0  0  0  0  0  0
    9.8461    4.6127  -61.4433 H   0  0  0  0  0  0  0  0  0  0  0  0
    9.7246    2.8375  -61.1722 H   0  0  0  0  0  0  0  0  0  0  0  0
    7.4856    3.9305  -61.0109 H   0  0  0  0  0  0  0  0  0  0  0  0
    8.2806    6.1684  -60.2438 H   0  0  0  0  0  0  0  0  0  0  0  0
    7.0481    5.4986  -59.1140 H   0  0  0  0  0  0  0  0  0  0  0  0
    8.9770    6.4878  -57.8689 H   0  0  0  0  0  0  0  0  0  0  0  0
   10.7127    6.0969  -59.6178 H   0  0  0  0  0  0  0  0  0  0  0  0
   11.2095    5.3808  -58.0428 H   0  0  0  0  0  0  0  0  0  0  0  0
    9.4899    4.4799  -56.4758 H   0  0  0  0  0  0  0  0  0  0  0  0
    7.7439    4.5391  -56.9284 H   0  0  0  0  0  0  0  0  0  0  0  0
    6.8690    3.0285  -58.7721 H   0  0  0  0  0  0  0  0  0  0  0  0
    8.0156    1.9238  -59.6221 H   0  0  0  0  0  0  0  0  0  0  0  0
    5.3260    0.1021  -55.5126 H   0  0  0  0  0  0  0  0  0  0  0  0
    5.4125   -1.6617  -53.7563 H   0  0  0  0  0  0  0  0  0  0  0  0
    6.6311   -3.9618  -53.5110 H   0  0  0  0  0  0  0  0  0  0  0  0
    6.7132   -5.7148  -51.7473 H   0  0  0  0  0  0  0  0  0  0  0  0
    7.6905   -5.1964  -49.5125 H   0  0  0  0  0  0  0  0  0  0  0  0
    8.5890   -2.9185  -49.0475 H   0  0  0  0  0  0  0  0  0  0  0  0
    8.5155   -1.1622  -50.8095 H   0  0  0  0  0  0  0  0  0  0  0  0
    9.6181   -0.8673  -53.1563 H   0  0  0  0  0  0  0  0  0  0  0  0
    9.5348    0.8946  -54.9107 H   0  0  0  0  0  0  0  0  0  0  0  0
  1  2  2  0
  2  3  1  0
  4  3  1  1
  4  5  1  0
  5  6  1  0
  6  7  1  0
  7  8  1  0
  8  9  1  0
  9 10  1  0
 10 11  1  0
 10 12  1  0
  8 13  1  0
  2 14  1  0
 14 15  1  0
 15 16  2  0
 16 17  1  0
 17 18  1  0
 18 19  2  0
 19 20  1  0
 20 21  2  0
 21 22  1  0
 22 23  2  0
 17 24  2  0
 24 25  1  0
 12  4  1  0
 25 14  2  0
 13  4  1  0
 23 18  1  0
 11  6  1  0
  3 26  1  0
  5 27  1  0
  5 28  1  0
  6 29  1  6
  7 30  1  0
  7 31  1  0
  8 32  1  6
  9 33  1  0
  9 34  1  0
 10 35  1  1
 11 36  1  0
 11 37  1  0
 12 38  1  0
 12 39  1  0
 13 40  1  0
 13 41  1  0
 15 42  1  0
 16 43  1  0
 19 44  1  0
 20 45  1  0
 21 46  1  0
 22 47  1  0
 23 48  1  0
 24 49  1  0
 25 50  1  0
M  END
>  <meeko>  (21) 
{"is_sidechain": false}

$$$$

     RDKit          3D

 42 44  0  0  0  0  0  0  0  0999 V2000
    5.5300   -0.3690  -53.9520 O   0  0  0  0  0  0  0  0  0  0  0  0
    6.7480   -0.3370  -54.0810 C   0  0  0  0  0  0  0  0  0  0  0  0
    7.6230   -1.0580  -53.2940 N   0  0  0  0  0  0  0  0  0  0  0  0
    7.1380   -2.0020  -52.2950 C   0  0  0  0  0  0  0  0  0  0  0  0
    8.0850   -2.0270  -51.0910 C   0  0  0  0  0  0  0  0  0  0  0  0
    7.6430   -3.0470  -50.0450 C   0  0  0  0  0  0  0  0  0  0  0  0
    7.4830   -4.4380  -50.6500 C   0  0  0  0  0  0  0  0  0  0  0  0
    6.5430   -4.4240  -51.8520 C   0  0  0  0  0  0  0  0  0  0  0  0
    6.9810   -3.4030  -52.8990 C   0  0  0  0  0  0  0  0  0  0  0  0
    7.3590    0.4860  -55.1600 C   0  0  0  0  0  0  0  0  0  0  0  0
    8.7360    0.7160  -55.2250 C   0  0  0  0  0  0  0  0  0  0  0  0
    9.2640    1.5000  -56.2550 C   0  0  0  0  0  0  0  0  0  0  0  0
    8.4320    2.0750  -57.2340 C   0  0  0  0  0  0  0  0  0  0  0  0
    9.0430    2.8870  -58.2960 C   0  0  0  0  0  0  0  0  0  0  0  0
    9.5140    2.2870  -59.4750 C   0  0  0  0  0  0  0  0  0  0  0  0
   10.0840    3.0580  -60.4910 C   0  0  0  0  0  0  0  0  0  0  0  0
   10.1870    4.4390  -60.3430 C   0  0  0  0  0  0  0  0  0  0  0  0
    9.7220    5.0510  -59.1820 C   0  0  0  0  0  0  0  0  0  0  0  0
    9.1520    4.2810  -58.1660 C   0  0  0  0  0  0  0  0  0  0  0  0
    7.0460    1.8490  -57.1420 C   0  0  0  0  0  0  0  0  0  0  0  0
    5.9320    2.5300  -58.2800 Cl  0  0  0  0  0  0  0  0  0  0  0  0
    6.5140    1.0660  -56.1120 C   0  0  0  0  0  0  0  0  0  0  0  0
    8.5710   -1.1840  -53.6260 H   0  0  0  0  0  0  0  0  0  0  0  0
    6.1462   -1.6722  -51.9521 H   0  0  0  0  0  0  0  0  0  0  0  0
    9.0958   -2.2877  -51.4380 H   0  0  0  0  0  0  0  0  0  0  0  0
    8.0725   -1.0308  -50.6247 H   0  0  0  0  0  0  0  0  0  0  0  0
    8.3983   -3.0897  -49.2465 H   0  0  0  0  0  0  0  0  0  0  0  0
    6.6677   -2.7308  -49.6465 H   0  0  0  0  0  0  0  0  0  0  0  0
    8.4695   -4.8024  -50.9727 H   0  0  0  0  0  0  0  0  0  0  0  0
    7.0512   -5.0985  -49.8837 H   0  0  0  0  0  0  0  0  0  0  0  0
    6.5354   -5.4239  -52.3104 H   0  0  0  0  0  0  0  0  0  0  0  0
    5.5392   -4.1446  -51.4993 H   0  0  0  0  0  0  0  0  0  0  0  0
    7.9458   -3.7186  -53.3227 H   0  0  0  0  0  0  0  0  0  0  0  0
    6.2050   -3.3557  -53.6771 H   0  0  0  0  0  0  0  0  0  0  0  0
    9.4035    0.2807  -54.4667 H   0  0  0  0  0  0  0  0  0  0  0  0
   10.3497    1.6707  -56.3012 H   0  0  0  0  0  0  0  0  0  0  0  0
    9.4332    1.1971  -59.6000 H   0  0  0  0  0  0  0  0  0  0  0  0
   10.4515    2.5743  -61.4080 H   0  0  0  0  0  0  0  0  0  0  0  0
   10.6356    5.0461  -61.1431 H   0  0  0  0  0  0  0  0  0  0  0  0
    9.8037    6.1417  -59.0650 H   0  0  0  0  0  0  0  0  0  0  0  0
    8.7841    4.7722  -57.2531 H   0  0  0  0  0  0  0  0  0  0  0  0
    5.4275    0.9059  -56.0505 H   0  0  0  0  0  0  0  0  0  0  0  0
  1  2  2  0
  2  3  1  0
  3  4  1  0
  4  5  1  0
  5  6  1  0
  6  7  1  0
  7  8  1  0
  8  9  1  0
  2 10  1  0
 10 11  1  0
 11 12  2  0
 12 13  1  0
 13 14  1  0
 14 15  2  0
 15 16  1  0
 16 17  2  0
 17 18  1  0
 18 19  2  0
 13 20  2  0
 20 21  1  0
 20 22  1  0
  9  4  1  0
 22 10  2  0
 19 14  1  0
  3 23  1  0
  4 24  1  0
  5 25  1  0
  5 26  1  0
  6 27  1  0
  6 28  1  0
  7 29  1  0
  7 30  1  0
  8 31  1  0
  8 32  1  0
  9 33  1  0
  9 34  1  0
 11 35  1  0
 12 36  1  0
 15 37  1  0
 16 38  1  0
 17 39  1  0
 18 40  1  0
 19 41  1  0
 22 42  1  0
M  END
>  <meeko>  (22) 
{"is_sidechain": false}

$$$$

     RDKit          3D

 43 46  0  0  0  0  0  0  0  0999 V2000
    7.5180   -2.3810  -52.0910 C   0  0  0  0  0  0  0  0  0  0  0  0
    7.4840   -1.3860  -53.2130 C   0  0  0  0  0  0  0  0  0  0  0  0
    8.6120   -0.6080  -53.5020 C   0  0  0  0  0  0  0  0  0  0  0  0
    8.5720    0.3450  -54.5230 C   0  0  0  0  0  0  0  0  0  0  0  0
    7.4020    0.5300  -55.2680 C   0  0  0  0  0  0  0  0  0  0  0  0
    7.4020    1.5560  -56.3480 C   0  0  0  0  0  0  0  0  0  0  0  0
    6.3430    2.0400  -56.7230 O   0  0  0  0  0  0  0  0  0  0  0  0
    8.6440    1.9170  -56.8320 N   0  0  0  0  0  0  0  0  0  0  0  0
    8.8720    2.9690  -57.8300 C   0  0  2  0  0  0  0  0  0  0  0  0
    7.9270    2.8240  -59.0500 C   0  0  0  0  0  0  0  0  0  0  0  0
    8.2270    3.9100  -60.0990 C   0  0  1  0  0  0  0  0  0  0  0  0
    8.0380    5.2960  -59.4590 C   0  0  0  0  0  0  0  0  0  0  0  0
    8.9980    5.4660  -58.2690 C   0  0  2  0  0  0  0  0  0  0  0  0
   10.4470    5.3120  -58.7590 C   0  0  0  0  0  0  0  0  0  0  0  0
   10.6410    3.9250  -59.3930 C   0  0  2  0  0  0  0  0  0  0  0  0
    9.6800    3.7670  -60.5790 C   0  0  0  0  0  0  0  0  0  0  0  0
   10.3320    2.8440  -58.3450 C   0  0  0  0  0  0  0  0  0  0  0  0
    8.6990    4.3820  -57.2180 C   0  0  0  0  0  0  0  0  0  0  0  0
    6.2620   -0.2230  -54.9630 C   0  0  0  0  0  0  0  0  0  0  0  0
    6.3060   -1.1750  -53.9390 C   0  0  0  0  0  0  0  0  0  0  0  0
    7.4998   -1.8489  -51.1284 H   0  0  0  0  0  0  0  0  0  0  0  0
    6.6419   -3.0425  -52.1609 H   0  0  0  0  0  0  0  0  0  0  0  0
    8.4372   -2.9812  -52.1609 H   0  0  0  0  0  0  0  0  0  0  0  0
    9.5357   -0.7481  -52.9213 H   0  0  0  0  0  0  0  0  0  0  0  0
    9.4630    0.9518  -54.7419 H   0  0  0  0  0  0  0  0  0  0  0  0
    9.4450    1.6390  -56.2790 H   0  0  0  0  0  0  0  0  0  0  0  0
    8.0722    1.8327  -59.5041 H   0  0  0  0  0  0  0  0  0  0  0  0
    6.8873    2.9374  -58.7091 H   0  0  0  0  0  0  0  0  0  0  0  0
    7.5437    3.7984  -60.9538 H   0  0  0  0  0  0  0  0  0  0  0  0
    8.2465    6.0739  -60.2083 H   0  0  0  0  0  0  0  0  0  0  0  0
    7.0020    5.3882  -59.1009 H   0  0  0  0  0  0  0  0  0  0  0  0
    8.8627    6.4624  -57.8231 H   0  0  0  0  0  0  0  0  0  0  0  0
   10.6633    6.0885  -59.5075 H   0  0  0  0  0  0  0  0  0  0  0  0
   11.1313    5.4181  -57.9043 H   0  0  0  0  0  0  0  0  0  0  0  0
   11.6787    3.8206  -59.7428 H   0  0  0  0  0  0  0  0  0  0  0  0
    9.8946    4.5435  -61.3280 H   0  0  0  0  0  0  0  0  0  0  0  0
    9.8171    2.7710  -61.0254 H   0  0  0  0  0  0  0  0  0  0  0  0
   10.4692    1.8521  -58.8002 H   0  0  0  0  0  0  0  0  0  0  0  0
   11.0163    2.9754  -57.4938 H   0  0  0  0  0  0  0  0  0  0  0  0
    9.3925    4.4972  -56.3720 H   0  0  0  0  0  0  0  0  0  0  0  0
    7.6599    4.4961  -56.8755 H   0  0  0  0  0  0  0  0  0  0  0  0
    5.3316   -0.0661  -55.5285 H   0  0  0  0  0  0  0  0  0  0  0  0
    5.4070   -1.7629  -53.7022 H   0  0  0  0  0  0  0  0  0  0  0  0
  1  2  1  0
  2  3  1  0
  3  4  2  0
  4  5  1  0
  5  6  1  0
  6  7  2  0
  6  8  1  0
  9  8  1  1
  9 10  1  0
 10 11  1  0
 11 12  1  0
 12 13  1  0
 13 14  1  0
 14 15  1  0
 15 16  1  0
 15 17  1  0
 13 18  1  0
  5 19  2  0
 19 20  1  0
 20  2  2  0
 17  9  1  0
 18  9  1  0
 16 11  1  0
  1 21  1  0
  1 22  1  0
  1 23  1  0
  3 24  1  0
  4 25  1  0
  8 26  1  0
 10 27  1  0
 10 28  1  0
 11 29  1  6
 12 30  1  0
 12 31  1  0
 13 32  1  1
 14 33  1  0
 14 34  1  0
 15 35  1  6
 16 36  1  0
 16 37  1  0
 17 38  1  0
 17 39  1  0
 18 40  1  0
 18 41  1  0
 19 42  1  0
 20 43  1  0
M  END
>  <meeko>  (23) 
{"is_sidechain": false}

$$$$

     RDKit          3D

 50 54  0  0  0  0  0  0  0  0999 V2000
    7.8780    1.9580  -56.0440 O   0  0  0  0  0  0  0  0  0  0  0  0
    8.9880    1.4470  -56.1180 C   0  0  0  0  0  0  0  0  0  0  0  0
   10.0080    1.8950  -56.9330 N   0  0  0  0  0  0  0  0  0  0  0  0
    9.8870    3.0210  -57.8680 C   0  0  2  0  0  0  0  0  0  0  0  0
   11.2290    3.1630  -58.6350 C   0  0  0  0  0  0  0  0  0  0  0  0
   11.1720    4.3240  -59.6410 C   0  0  1  0  0  0  0  0  0  0  0  0
   10.0390    4.0620  -60.6470 C   0  0  0  0  0  0  0  0  0  0  0  0
    8.6970    3.9470  -59.9090 C   0  0  2  0  0  0  0  0  0  0  0  0
    8.4230    5.2550  -59.1470 C   0  0  0  0  0  0  0  0  0  0  0  0
    9.5510    5.5240  -58.1360 C   0  0  2  0  0  0  0  0  0  0  0  0
   10.8890    5.6310  -58.8860 C   0  0  0  0  0  0  0  0  0  0  0  0
    9.6210    4.3600  -57.1330 C   0  0  0  0  0  0  0  0  0  0  0  0
    8.7650    2.7810  -58.9070 C   0  0  0  0  0  0  0  0  0  0  0  0
    9.2910    0.2290  -55.3170 C   0  0  0  0  0  0  0  0  0  0  0  0
    8.7950    0.0590  -54.0210 C   0  0  0  0  0  0  0  0  0  0  0  0
    9.1010   -1.1000  -53.3100 C   0  0  0  0  0  0  0  0  0  0  0  0
    9.8950   -2.0920  -53.8930 C   0  0  0  0  0  0  0  0  0  0  0  0
   10.3920   -1.9510  -55.2010 C   0  0  0  0  0  0  0  0  0  0  0  0
   11.2170   -3.0040  -55.8180 C   0  0  0  0  0  0  0  0  0  0  0  0
   11.7470   -2.8490  -57.1110 C   0  0  0  0  0  0  0  0  0  0  0  0
   12.5290   -3.8480  -57.6960 C   0  0  0  0  0  0  0  0  0  0  0  0
   12.7960   -5.0220  -56.9980 C   0  0  0  0  0  0  0  0  0  0  0  0
   12.2820   -5.1990  -55.7160 C   0  0  0  0  0  0  0  0  0  0  0  0
   11.4990   -4.1990  -55.1320 C   0  0  0  0  0  0  0  0  0  0  0  0
   10.0730   -0.7770  -55.9030 C   0  0  0  0  0  0  0  0  0  0  0  0
   10.7770    1.2580  -57.0920 H   0  0  0  0  0  0  0  0  0  0  0  0
   12.0370    3.3527  -57.9130 H   0  0  0  0  0  0  0  0  0  0  0  0
   11.4154    2.2306  -59.1881 H   0  0  0  0  0  0  0  0  0  0  0  0
   12.1307    4.4048  -60.1743 H   0  0  0  0  0  0  0  0  0  0  0  0
    9.9897    4.8940  -61.3649 H   0  0  0  0  0  0  0  0  0  0  0  0
   10.2398    3.1208  -61.1797 H   0  0  0  0  0  0  0  0  0  0  0  0
    7.8907    3.7645  -60.6347 H   0  0  0  0  0  0  0  0  0  0  0  0
    8.3694    6.0886  -59.8627 H   0  0  0  0  0  0  0  0  0  0  0  0
    7.4693    5.1638  -58.6066 H   0  0  0  0  0  0  0  0  0  0  0  0
    9.3522    6.4632  -57.5990 H   0  0  0  0  0  0  0  0  0  0  0  0
   10.8391    6.4631  -59.6037 H   0  0  0  0  0  0  0  0  0  0  0  0
   11.6964    5.8123  -58.1613 H   0  0  0  0  0  0  0  0  0  0  0  0
   10.4354    4.5477  -56.4178 H   0  0  0  0  0  0  0  0  0  0  0  0
    8.6589    4.2892  -56.6045 H   0  0  0  0  0  0  0  0  0  0  0  0
    7.8006    2.6963  -58.3847 H   0  0  0  0  0  0  0  0  0  0  0  0
    8.9827    1.8532  -59.4564 H   0  0  0  0  0  0  0  0  0  0  0  0
    8.1657    0.8370  -53.5642 H   0  0  0  0  0  0  0  0  0  0  0  0
    8.7170   -1.2345  -52.2880 H   0  0  0  0  0  0  0  0  0  0  0  0
   10.1352   -2.9988  -53.3185 H   0  0  0  0  0  0  0  0  0  0  0  0
   11.5424   -1.9251  -57.6718 H   0  0  0  0  0  0  0  0  0  0  0  0
   12.9339   -3.7066  -58.7089 H   0  0  0  0  0  0  0  0  0  0  0  0
   13.4119   -5.8087  -57.4582 H   0  0  0  0  0  0  0  0  0  0  0  0
   12.4922   -6.1261  -55.1626 H   0  0  0  0  0  0  0  0  0  0  0  0
   11.0968   -4.3492  -54.1192 H   0  0  0  0  0  0  0  0  0  0  0  0
   10.4430   -0.6443  -56.9304 H   0  0  0  0  0  0  0  0  0  0  0  0
  1  2  2  0
  2  3  1  0
  4  3  1  1
  4  5  1  0
  5  6  1  0
  6  7  1  0
  7  8  1  0
  8  9  1  0
  9 10  1  0
 10 11  1  0
 10 12  1  0
  8 13  1  0
  2 14  1  0
 14 15  1  0
 15 16  2  0
 16 17  1  0
 17 18  2  0
 18 19  1  0
 19 20  2  0
 20 21  1  0
 21 22  2  0
 22 23  1  0
 23 24  2  0
 18 25  1  0
 12  4  1  0
 25 14  2  0
 13  4  1  0
 24 19  1  0
 11  6  1  0
  3 26  1  0
  5 27  1  0
  5 28  1  0
  6 29  1  6
  7 30  1  0
  7 31  1  0
  8 32  1  6
  9 33  1  0
  9 34  1  0
 10 35  1  1
 11 36  1  0
 11 37  1  0
 12 38  1  0
 12 39  1  0
 13 40  1  0
 13 41  1  0
 15 42  1  0
 16 43  1  0
 17 44  1  0
 20 45  1  0
 21 46  1  0
 22 47  1  0
 23 48  1  0
 24 49  1  0
 25 50  1  0
M  END
>  <meeko>  (24) 
{"is_sidechain": false}

$$$$

     RDKit          3D

 40 43  0  0  0  0  0  0  0  0999 V2000
   11.5640   -2.2000  -53.7190 O   0  0  0  0  0  0  0  0  0  0  0  0
   10.4840   -2.7720  -53.8030 C   0  0  0  0  0  0  0  0  0  0  0  0
   10.1540   -3.6830  -54.7880 N   0  0  0  0  0  0  0  0  0  0  0  0
   11.0690   -4.1270  -55.8460 C   0  0  2  0  0  0  0  0  0  0  0  0
   11.5930   -2.9420  -56.6950 C   0  0  0  0  0  0  0  0  0  0  0  0
   12.5070   -3.4480  -57.8260 C   0  0  1  0  0  0  0  0  0  0  0  0
   13.6940   -4.2120  -57.2130 C   0  0  0  0  0  0  0  0  0  0  0  0
   13.1860   -5.4140  -56.3980 C   0  0  2  0  0  0  0  0  0  0  0  0
   12.3850   -6.3480  -57.3190 C   0  0  0  0  0  0  0  0  0  0  0  0
   11.1940   -5.5900  -57.9270 C   0  0  2  0  0  0  0  0  0  0  0  0
   11.7120   -4.3940  -58.7390 C   0  0  0  0  0  0  0  0  0  0  0  0
   10.2900   -5.0790  -56.7940 C   0  0  0  0  0  0  0  0  0  0  0  0
   12.2740   -4.9100  -55.2670 C   0  0  0  0  0  0  0  0  0  0  0  0
    9.4400   -2.5310  -52.7670 C   0  0  0  0  0  0  0  0  0  0  0  0
    8.3930   -1.6230  -52.9700 C   0  0  0  0  0  0  0  0  0  0  0  0
    7.4360   -1.4270  -51.9720 C   0  0  0  0  0  0  0  0  0  0  0  0
    7.5270   -2.1290  -50.7690 C   0  0  0  0  0  0  0  0  0  0  0  0
    8.5770   -3.0210  -50.5570 C   0  0  0  0  0  0  0  0  0  0  0  0
    9.5350   -3.2200  -51.5520 C   0  0  0  0  0  0  0  0  0  0  0  0
    9.3480   -4.2680  -54.6140 H   0  0  0  0  0  0  0  0  0  0  0  0
   10.7385   -2.4057  -57.1334 H   0  0  0  0  0  0  0  0  0  0  0  0
   12.1720   -2.2691  -56.0454 H   0  0  0  0  0  0  0  0  0  0  0  0
   12.8772   -2.5944  -58.4128 H   0  0  0  0  0  0  0  0  0  0  0  0
   14.3509   -4.5707  -58.0191 H   0  0  0  0  0  0  0  0  0  0  0  0
   14.2517   -3.5363  -56.5479 H   0  0  0  0  0  0  0  0  0  0  0  0
   14.0396   -5.9598  -55.9696 H   0  0  0  0  0  0  0  0  0  0  0  0
   13.0374   -6.7104  -58.1272 H   0  0  0  0  0  0  0  0  0  0  0  0
   12.0102   -7.1999  -56.7326 H   0  0  0  0  0  0  0  0  0  0  0  0
   10.6237   -6.2628  -58.5843 H   0  0  0  0  0  0  0  0  0  0  0  0
   12.3654   -4.7566  -59.5462 H   0  0  0  0  0  0  0  0  0  0  0  0
   10.8577   -3.8502  -59.1685 H   0  0  0  0  0  0  0  0  0  0  0  0
    9.4393   -4.5350  -57.2303 H   0  0  0  0  0  0  0  0  0  0  0  0
    9.9375   -5.9425  -56.2108 H   0  0  0  0  0  0  0  0  0  0  0  0
   11.9029   -5.7707  -54.6912 H   0  0  0  0  0  0  0  0  0  0  0  0
   12.8537   -4.2385  -54.6166 H   0  0  0  0  0  0  0  0  0  0  0  0
    8.3246   -1.0645  -53.9152 H   0  0  0  0  0  0  0  0  0  0  0  0
    6.6099   -0.7189  -52.1341 H   0  0  0  0  0  0  0  0  0  0  0  0
    6.7686   -1.9780  -49.9867 H   0  0  0  0  0  0  0  0  0  0  0  0
    8.6504   -3.5680  -49.6055 H   0  0  0  0  0  0  0  0  0  0  0  0
   10.3665   -3.9196  -51.3813 H   0  0  0  0  0  0  0  0  0  0  0  0
  1  2  2  0
  2  3  1  0
  4  3  1  1
  4  5  1  0
  5  6  1  0
  6  7  1  0
  7  8  1  0
  8  9  1  0
  9 10  1  0
 10 11  1  0
 10 12  1  0
  8 13  1  0
  2 14  1  0
 14 15  2  0
 15 16  1  0
 16 17  2  0
 17 18  1  0
 18 19  2  0
 12  4  1  0
 19 14  1  0
 13  4  1  0
 11  6  1  0
  3 20  1  0
  5 21  1  0
  5 22  1  0
  6 23  1  6
  7 24  1  0
  7 25  1  0
  8 26  1  1
  9 27  1  0
  9 28  1  0
 10 29  1  6
 11 30  1  0
 11 31  1  0
 12 32  1  0
 12 33  1  0
 13 34  1  0
 13 35  1  0
 15 36  1  0
 16 37  1  0
 17 38  1  0
 18 39  1  0
 19 40  1  0
M  END
>  <meeko>  (25) 
{"is_sidechain": false}

$$$$

     RDKit          3D

 38 39  0  0  0  0  0  0  0  0999 V2000
    3.6610    0.4600  -63.0140 C   0  0  0  0  0  0  0  0  0  0  0  0
    3.4830    1.7220  -62.1560 C   0  0  0  0  0  0  0  0  0  0  0  0
    2.7950    2.8030  -63.0100 C   0  0  0  0  0  0  0  0  0  0  0  0
    2.5790    1.4200  -60.9500 C   0  0  0  0  0  0  0  0  0  0  0  0
    4.7890    2.2490  -61.7260 N   0  0  0  0  0  0  0  0  0  0  0  0
    5.5880    1.6620  -60.7650 C   0  0  0  0  0  0  0  0  0  0  0  0
    5.2880    0.6600  -60.1270 O   0  0  0  0  0  0  0  0  0  0  0  0
    6.9130    2.3000  -60.5420 C   0  0  0  0  0  0  0  0  0  0  0  0
    7.8790    2.3680  -61.5510 C   0  0  0  0  0  0  0  0  0  0  0  0
    9.1090    2.9830  -61.2990 C   0  0  0  0  0  0  0  0  0  0  0  0
    9.3970    3.5490  -60.0430 C   0  0  0  0  0  0  0  0  0  0  0  0
   10.7050    4.1860  -59.8360 C   0  0  0  0  0  0  0  0  0  0  0  0
   10.8770    5.5610  -60.0610 C   0  0  0  0  0  0  0  0  0  0  0  0
   12.1170    6.1690  -59.8520 C   0  0  0  0  0  0  0  0  0  0  0  0
   13.2010    5.4110  -59.4160 C   0  0  0  0  0  0  0  0  0  0  0  0
   13.0480    4.0450  -59.1870 C   0  0  0  0  0  0  0  0  0  0  0  0
   11.8080    3.4370  -59.3950 C   0  0  0  0  0  0  0  0  0  0  0  0
    8.4070    3.4840  -59.0440 C   0  0  0  0  0  0  0  0  0  0  0  0
    8.6650    4.1380  -57.4620 Cl  0  0  0  0  0  0  0  0  0  0  0  0
    7.1750    2.8710  -59.2920 C   0  0  0  0  0  0  0  0  0  0  0  0
    3.7844   -0.4147  -62.3585 H   0  0  0  0  0  0  0  0  0  0  0  0
    2.7737    0.3201  -63.6489 H   0  0  0  0  0  0  0  0  0  0  0  0
    4.5524    0.5710  -63.6489 H   0  0  0  0  0  0  0  0  0  0  0  0
    2.3224    3.5456  -62.3504 H   0  0  0  0  0  0  0  0  0  0  0  0
    3.5433    3.3000  -63.6448 H   0  0  0  0  0  0  0  0  0  0  0  0
    2.0279    2.3356  -63.6448 H   0  0  0  0  0  0  0  0  0  0  0  0
    3.1351    1.6058  -60.0193 H   0  0  0  0  0  0  0  0  0  0  0  0
    1.6929    2.0709  -60.9838 H   0  0  0  0  0  0  0  0  0  0  0  0
    2.2621    0.3672  -60.9838 H   0  0  0  0  0  0  0  0  0  0  0  0
    5.2330    2.9090  -62.3500 H   0  0  0  0  0  0  0  0  0  0  0  0
    7.6712    1.9380  -62.5419 H   0  0  0  0  0  0  0  0  0  0  0  0
    9.8652    3.0253  -62.0967 H   0  0  0  0  0  0  0  0  0  0  0  0
   10.0257    6.1663  -60.4058 H   0  0  0  0  0  0  0  0  0  0  0  0
   12.2375    7.2475  -60.0319 H   0  0  0  0  0  0  0  0  0  0  0  0
   14.1774    5.8904  -59.2525 H   0  0  0  0  0  0  0  0  0  0  0  0
   13.9037    3.4457  -58.8425 H   0  0  0  0  0  0  0  0  0  0  0  0
   11.6940    2.3585  -59.2112 H   0  0  0  0  0  0  0  0  0  0  0  0
    6.4099    2.8376  -58.5023 H   0  0  0  0  0  0  0  0  0  0  0  0
  1  2  1  0
  2  3  1  0
  2  4  1  0
  2  5  1  0
  5  6  1  0
  6  7  2  0
  6  8  1  0
  8  9  1  0
  9 10  2  0
 10 11  1  0
 11 12  1  0
 12 13  2  0
 13 14  1  0
 14 15  2  0
 15 16  1  0
 16 17  2  0
 11 18  2  0
 18 19  1  0
 18 20  1  0
 20  8  2  0
 17 12  1  0
  1 21  1  0
  1 22  1  0
  1 23  1  0
  3 24  1  0
  3 25  1  0
  3 26  1  0
  4 27  1  0
  4 28  1  0
  4 29  1  0
  5 30  1  0
  9 31  1  0
 10 32  1  0
 13 33  1  0
 14 34  1  0
 15 35  1  0
 16 36  1  0
 17 37  1  0
 20 38  1  0
M  END
>  <meeko>  (26) 
{"is_sidechain": false}

$$$$

     RDKit          3D

 44 47  0  0  0  0  0  0  0  0999 V2000
    7.8100   -2.2660  -51.1160 C   0  0  0  0  0  0  0  0  0  0  0  0
    7.4450   -2.5700  -52.4560 O   0  0  0  0  0  0  0  0  0  0  0  0
    7.5350   -1.5550  -53.3680 C   0  0  0  0  0  0  0  0  0  0  0  0
    8.6960   -0.8600  -53.7100 C   0  0  0  0  0  0  0  0  0  0  0  0
    8.6450    0.1630  -54.6640 C   0  0  0  0  0  0  0  0  0  0  0  0
    7.4380    0.4900  -55.2920 C   0  0  0  0  0  0  0  0  0  0  0  0
    7.4360    1.5850  -56.3020 C   0  0  0  0  0  0  0  0  0  0  0  0
    6.3910    2.1740  -56.5510 O   0  0  0  0  0  0  0  0  0  0  0  0
    8.6590    1.8850  -56.8690 N   0  0  0  0  0  0  0  0  0  0  0  0
    8.8860    2.9810  -57.8180 C   0  0  2  0  0  0  0  0  0  0  0  0
    7.9460    2.8890  -59.0470 C   0  0  0  0  0  0  0  0  0  0  0  0
    8.2470    4.0210  -60.0450 C   0  0  1  0  0  0  0  0  0  0  0  0
    8.0540    5.3770  -59.3440 C   0  0  0  0  0  0  0  0  0  0  0  0
    9.0090    5.4940  -58.1440 C   0  0  2  0  0  0  0  0  0  0  0  0
   10.4590    5.3660  -58.6370 C   0  0  0  0  0  0  0  0  0  0  0  0
   10.6590    4.0090  -59.3310 C   0  0  2  0  0  0  0  0  0  0  0  0
    9.7000    3.9020  -60.5260 C   0  0  0  0  0  0  0  0  0  0  0  0
   10.3470    2.8820  -58.3330 C   0  0  0  0  0  0  0  0  0  0  0  0
    8.7090    4.3640  -57.1440 C   0  0  0  0  0  0  0  0  0  0  0  0
    6.2710   -0.1950  -54.9370 C   0  0  0  0  0  0  0  0  0  0  0  0
    6.3270   -1.2150  -53.9830 C   0  0  0  0  0  0  0  0  0  0  0  0
    7.1530   -2.8132  -50.4239 H   0  0  0  0  0  0  0  0  0  0  0  0
    8.8545   -2.5649  -50.9437 H   0  0  0  0  0  0  0  0  0  0  0  0
    7.7049   -1.1847  -50.9437 H   0  0  0  0  0  0  0  0  0  0  0  0
    9.6517   -1.1163  -53.2295 H   0  0  0  0  0  0  0  0  0  0  0  0
    9.5612    0.7144  -54.9222 H   0  0  0  0  0  0  0  0  0  0  0  0
    9.4780    1.5070  -56.4120 H   0  0  0  0  0  0  0  0  0  0  0  0
    8.0952    1.9193  -59.5445 H   0  0  0  0  0  0  0  0  0  0  0  0
    6.9049    2.9851  -58.7052 H   0  0  0  0  0  0  0  0  0  0  0  0
    7.5662    3.9468  -60.9058 H   0  0  0  0  0  0  0  0  0  0  0  0
    8.2647    6.1880  -60.0567 H   0  0  0  0  0  0  0  0  0  0  0  0
    7.0165    5.4522  -58.9863 H   0  0  0  0  0  0  0  0  0  0  0  0
    8.8699    6.4682  -57.6525 H   0  0  0  0  0  0  0  0  0  0  0  0
   10.6744    6.1754  -59.3501 H   0  0  0  0  0  0  0  0  0  0  0  0
   11.1410    5.4363  -57.7768 H   0  0  0  0  0  0  0  0  0  0  0  0
   11.6982    3.9222  -59.6812 H   0  0  0  0  0  0  0  0  0  0  0  0
    9.9151    4.7112  -61.2393 H   0  0  0  0  0  0  0  0  0  0  0  0
    9.8398    2.9267  -61.0152 H   0  0  0  0  0  0  0  0  0  0  0  0
   10.4873    1.9115  -58.8315 H   0  0  0  0  0  0  0  0  0  0  0  0
   11.0277    2.9772  -57.4741 H   0  0  0  0  0  0  0  0  0  0  0  0
    9.3999    4.4422  -56.2916 H   0  0  0  0  0  0  0  0  0  0  0  0
    7.6688    4.4610  -56.7996 H   0  0  0  0  0  0  0  0  0  0  0  0
    5.3121    0.0684  -55.4073 H   0  0  0  0  0  0  0  0  0  0  0  0
    5.4087   -1.7569  -53.7129 H   0  0  0  0  0  0  0  0  0  0  0  0
  1  2  1  0
  2  3  1  0
  3  4  1  0
  4  5  2  0
  5  6  1  0
  6  7  1  0
  7  8  2  0
  7  9  1  0
 10  9  1  1
 10 11  1  0
 11 12  1  0
 12 13  1  0
 13 14  1  0
 14 15  1  0
 15 16  1  0
 16 17  1  0
 16 18  1  0
 14 19  1  0
  6 20  2  0
 20 21  1  0
 21  3  2  0
 18 10  1  0
 19 10  1  0
 17 12  1  0
  1 22  1  0
  1 23  1  0
  1 24  1  0
  4 25  1  0
  5 26  1  0
  9 27  1  0
 11 28  1  0
 11 29  1  0
 12 30  1  6
 13 31  1  0
 13 32  1  0
 14 33  1  1
 15 34  1  0
 15 35  1  0
 16 36  1  6
 17 37  1  0
 17 38  1  0
 18 39  1  0
 18 40  1  0
 19 41  1  0
 19 42  1  0
 20 43  1  0
 21 44  1  0
M  END
>  <meeko>  (27) 
{"is_sidechain": false}

$$$$

     RDKit          3D

 40 43  0  0  0  0  0  0  0  0999 V2000
   11.5580   -2.0640  -53.8130 O   0  0  0  0  0  0  0  0  0  0  0  0
   10.5120   -2.6920  -53.8570 C   0  0  0  0  0  0  0  0  0  0  0  0
   10.2250   -3.7250  -54.7250 N   0  0  0  0  0  0  0  0  0  0  0  0
   11.1100   -4.1630  -55.8100 C   0  0  2  0  0  0  0  0  0  0  0  0
   11.5600   -2.9720  -56.6920 C   0  0  0  0  0  0  0  0  0  0  0  0
   12.4420   -3.4630  -57.8530 C   0  0  1  0  0  0  0  0  0  0  0  0
   13.6780   -4.1800  -57.2840 C   0  0  0  0  0  0  0  0  0  0  0  0
   13.2450   -5.3880  -56.4350 C   0  0  2  0  0  0  0  0  0  0  0  0
   12.4390   -6.3600  -57.3100 C   0  0  0  0  0  0  0  0  0  0  0  0
   11.1970   -5.6510  -57.8750 C   0  0  2  0  0  0  0  0  0  0  0  0
   11.6400   -4.4470  -58.7190 C   0  0  0  0  0  0  0  0  0  0  0  0
   10.3260   -5.1570  -56.7090 C   0  0  0  0  0  0  0  0  0  0  0  0
   12.3630   -4.8990  -55.2720 C   0  0  0  0  0  0  0  0  0  0  0  0
    9.4250   -2.3770  -52.9090 C   0  0  0  0  0  0  0  0  0  0  0  0
    9.3610   -3.1080  -51.7130 C   0  0  0  0  0  0  0  0  0  0  0  0
    8.3590   -2.8320  -50.7820 C   0  0  0  0  0  0  0  0  0  0  0  0
    7.4250   -1.8300  -51.0430 C   0  0  0  0  0  0  0  0  0  0  0  0
    7.4890   -1.1030  -52.2350 C   0  0  0  0  0  0  0  0  0  0  0  0
    8.4910   -1.3730  -53.1730 C   0  0  0  0  0  0  0  0  0  0  0  0
    8.4770   -0.4760  -54.6480 Cl  0  0  0  0  0  0  0  0  0  0  0  0
    9.2740   -4.0700  -54.7350 H   0  0  0  0  0  0  0  0  0  0  0  0
   10.6715   -2.4683  -57.1005 H   0  0  0  0  0  0  0  0  0  0  0  0
   12.1426   -2.2726  -56.0744 H   0  0  0  0  0  0  0  0  0  0  0  0
   12.7596   -2.6053  -58.4641 H   0  0  0  0  0  0  0  0  0  0  0  0
   14.3114   -4.5269  -58.1138 H   0  0  0  0  0  0  0  0  0  0  0  0
   14.2412   -3.4786  -56.6509 H   0  0  0  0  0  0  0  0  0  0  0  0
   14.1336   -5.8997  -56.0367 H   0  0  0  0  0  0  0  0  0  0  0  0
   13.0687   -6.7098  -58.1413 H   0  0  0  0  0  0  0  0  0  0  0  0
   12.1194   -7.2168  -56.6986 H   0  0  0  0  0  0  0  0  0  0  0  0
   10.6225   -6.3501  -58.5005 H   0  0  0  0  0  0  0  0  0  0  0  0
   12.2696   -4.7971  -59.5503 H   0  0  0  0  0  0  0  0  0  0  0  0
   10.7494   -3.9364  -59.1141 H   0  0  0  0  0  0  0  0  0  0  0  0
    9.4367   -4.6515  -57.1135 H   0  0  0  0  0  0  0  0  0  0  0  0
   10.0328   -6.0242  -56.0991 H   0  0  0  0  0  0  0  0  0  0  0  0
   12.0443   -5.7638  -54.6715 H   0  0  0  0  0  0  0  0  0  0  0  0
   12.9463   -4.2008  -54.6538 H   0  0  0  0  0  0  0  0  0  0  0  0
   10.0996   -3.8974  -51.5097 H   0  0  0  0  0  0  0  0  0  0  0  0
    8.3060   -3.4038  -49.8438 H   0  0  0  0  0  0  0  0  0  0  0  0
    6.6357   -1.6111  -50.3088 H   0  0  0  0  0  0  0  0  0  0  0  0
    6.7482   -0.3151  -52.4364 H   0  0  0  0  0  0  0  0  0  0  0  0
  1  2  2  0
  2  3  1  0
  4  3  1  1
  4  5  1  0
  5  6  1  0
  6  7  1  0
  7  8  1  0
  8  9  1  0
  9 10  1  0
 10 11  1  0
 10 12  1  0
  8 13  1  0
  2 14  1  0
 14 15  2  0
 15 16  1  0
 16 17  2  0
 17 18  1  0
 18 19  2  0
 19 20  1  0
 12  4  1  0
 19 14  1  0
 13  4  1  0
 11  6  1  0
  3 21  1  0
  5 22  1  0
  5 23  1  0
  6 24  1  6
  7 25  1  0
  7 26  1  0
  8 27  1  1
  9 28  1  0
  9 29  1  0
 10 30  1  6
 11 31  1  0
 11 32  1  0
 12 33  1  0
 12 34  1  0
 13 35  1  0
 13 36  1  0
 15 37  1  0
 16 38  1  0
 17 39  1  0
 18 40  1  0
M  END
>  <meeko>  (28) 
{"is_sidechain": false}

$$$$

     RDKit          3D

 40 43  0  0  0  0  0  0  0  0999 V2000
    6.6150    2.3540  -58.4860 O   0  0  0  0  0  0  0  0  0  0  0  0
    6.7280    2.5680  -59.6860 C   0  0  0  0  0  0  0  0  0  0  0  0
    7.8370    3.1350  -60.2820 N   0  0  0  0  0  0  0  0  0  0  0  0
    9.0220    3.6030  -59.5510 C   0  0  2  0  0  0  0  0  0  0  0  0
    9.6570    2.4780  -58.6950 C   0  0  0  0  0  0  0  0  0  0  0  0
   10.9230    2.9870  -57.9840 C   0  0  1  0  0  0  0  0  0  0  0  0
   11.9470    3.4440  -59.0350 C   0  0  0  0  0  0  0  0  0  0  0  0
   11.3530    4.5730  -59.8890 C   0  0  2  0  0  0  0  0  0  0  0  0
   10.9870    5.7590  -58.9820 C   0  0  0  0  0  0  0  0  0  0  0  0
    9.9570    5.3170  -57.9290 C   0  0  2  0  0  0  0  0  0  0  0  0
   10.5550    4.1780  -57.0840 C   0  0  0  0  0  0  0  0  0  0  0  0
    8.6890    4.8100  -58.6390 C   0  0  0  0  0  0  0  0  0  0  0  0
   10.0830    4.0630  -60.5880 C   0  0  0  0  0  0  0  0  0  0  0  0
    5.5950    2.2450  -60.5970 C   0  0  0  0  0  0  0  0  0  0  0  0
    5.8100    2.3220  -61.9810 C   0  0  0  0  0  0  0  0  0  0  0  0
    4.7740    2.0310  -62.8700 C   0  0  0  0  0  0  0  0  0  0  0  0
    3.5260    1.6710  -62.3710 C   0  0  0  0  0  0  0  0  0  0  0  0
    2.5310    1.3920  -63.2230 F   0  0  0  0  0  0  0  0  0  0  0  0
    3.2930    1.6060  -61.0010 C   0  0  0  0  0  0  0  0  0  0  0  0
    4.3270    1.8960  -60.1080 C   0  0  0  0  0  0  0  0  0  0  0  0
    7.7200    3.4900  -61.2220 H   0  0  0  0  0  0  0  0  0  0  0  0
    8.9292    2.1428  -57.9413 H   0  0  0  0  0  0  0  0  0  0  0  0
    9.9330    1.6429  -59.3556 H   0  0  0  0  0  0  0  0  0  0  0  0
   11.3541    2.1799  -57.3735 H   0  0  0  0  0  0  0  0  0  0  0  0
   12.8522    3.8086  -58.5274 H   0  0  0  0  0  0  0  0  0  0  0  0
   12.2013    2.5942  -59.6855 H   0  0  0  0  0  0  0  0  0  0  0  0
   12.0893    4.8944  -60.6404 H   0  0  0  0  0  0  0  0  0  0  0  0
   11.8928    6.1232  -58.4752 H   0  0  0  0  0  0  0  0  0  0  0  0
   10.5542    6.5629  -59.5955 H   0  0  0  0  0  0  0  0  0  0  0  0
    9.7020    6.1675  -57.2797 H   0  0  0  0  0  0  0  0  0  0  0  0
   11.4592    4.5406  -56.5731 H   0  0  0  0  0  0  0  0  0  0  0  0
    9.8106    3.8516  -56.3428 H   0  0  0  0  0  0  0  0  0  0  0  0
    7.9511    4.5004  -57.8843 H   0  0  0  0  0  0  0  0  0  0  0  0
    8.2806    5.6216  -59.2591 H   0  0  0  0  0  0  0  0  0  0  0  0
    9.6597    4.8729  -61.2003 H   0  0  0  0  0  0  0  0  0  0  0  0
   10.3520    3.2027  -61.2185 H   0  0  0  0  0  0  0  0  0  0  0  0
    6.7982    2.6126  -62.3670 H   0  0  0  0  0  0  0  0  0  0  0  0
    4.9427    2.0858  -63.9556 H   0  0  0  0  0  0  0  0  0  0  0  0
    2.2984    1.3273  -60.6226 H   0  0  0  0  0  0  0  0  0  0  0  0
    4.1477    1.8509  -59.0237 H   0  0  0  0  0  0  0  0  0  0  0  0
  1  2  2  0
  2  3  1  0
  4  3  1  6
  4  5  1  0
  5  6  1  0
  6  7  1  0
  7  8  1  0
  8  9  1  0
  9 10  1  0
 10 11  1  0
 10 12  1  0
  8 13  1  0
  2 14  1  0
 14 15  1  0
 15 16  2  0
 16 17  1  0
 17 18  1  0
 17 19  2  0
 19 20  1  0
 12  4  1  0
 20 14  2  0
 13  4  1  0
 11  6  1  0
  3 21  1  0
  5 22  1  0
  5 23  1  0
  6 24  1  1
  7 25  1  0
  7 26  1  0
  8 27  1  6
  9 28  1  0
  9 29  1  0
 10 30  1  1
 11 31  1  0
 11 32  1  0
 12 33  1  0
 12 34  1  0
 13 35  1  0
 13 36  1  0
 15 37  1  0
 16 38  1  0
 19 39  1  0
 20 40  1  0
M  END
>  <meeko>  (29) 
{"is_sidechain": false}

$$$$

     RDKit          3D

 40 43  0  0  0  0  0  0  0  0999 V2000
    6.3810    2.1540  -56.6080 O   0  0  0  0  0  0  0  0  0  0  0  0
    7.4310    1.5990  -56.3140 C   0  0  0  0  0  0  0  0  0  0  0  0
    8.6630    1.9110  -56.8540 N   0  0  0  0  0  0  0  0  0  0  0  0
    8.8910    2.9880  -57.8270 C   0  0  2  0  0  0  0  0  0  0  0  0
    7.9140    2.9020  -59.0270 C   0  0  0  0  0  0  0  0  0  0  0  0
    8.2150    4.0110  -60.0510 C   0  0  1  0  0  0  0  0  0  0  0  0
    8.0770    5.3820  -59.3660 C   0  0  0  0  0  0  0  0  0  0  0  0
    9.0700    5.4910  -58.1960 C   0  0  2  0  0  0  0  0  0  0  0  0
   10.5010    5.3170  -58.7280 C   0  0  0  0  0  0  0  0  0  0  0  0
   10.6460    3.9460  -59.4060 C   0  0  2  0  0  0  0  0  0  0  0  0
    9.6510    3.8470  -60.5730 C   0  0  0  0  0  0  0  0  0  0  0  0
   10.3350    2.8420  -58.3830 C   0  0  0  0  0  0  0  0  0  0  0  0
    8.7700    4.3840  -57.1710 C   0  0  0  0  0  0  0  0  0  0  0  0
    7.4300    0.5310  -55.2760 C   0  0  0  0  0  0  0  0  0  0  0  0
    8.6090    0.3000  -54.5550 C   0  0  0  0  0  0  0  0  0  0  0  0
    8.6490   -0.6890  -53.5690 C   0  0  0  0  0  0  0  0  0  0  0  0
    7.5060   -1.4410  -53.2970 C   0  0  0  0  0  0  0  0  0  0  0  0
    7.5530   -2.6590  -52.0830 Cl  0  0  0  0  0  0  0  0  0  0  0  0
    6.3230   -1.2070  -53.9970 C   0  0  0  0  0  0  0  0  0  0  0  0
    6.2800   -0.2170  -54.9850 C   0  0  0  0  0  0  0  0  0  0  0  0
    9.4780    1.5690  -56.3650 H   0  0  0  0  0  0  0  0  0  0  0  0
    8.0240    1.9214  -59.5132 H   0  0  0  0  0  0  0  0  0  0  0  0
    6.8860    3.0301  -58.6573 H   0  0  0  0  0  0  0  0  0  0  0  0
    7.5078    3.9416  -60.8906 H   0  0  0  0  0  0  0  0  0  0  0  0
    8.2874    6.1767  -60.0969 H   0  0  0  0  0  0  0  0  0  0  0  0
    7.0526    5.4900  -58.9800 H   0  0  0  0  0  0  0  0  0  0  0  0
    8.9710    6.4758  -57.7161 H   0  0  0  0  0  0  0  0  0  0  0  0
   10.7167    6.1098  -59.4594 H   0  0  0  0  0  0  0  0  0  0  0  0
   11.2089    5.3815  -57.8885 H   0  0  0  0  0  0  0  0  0  0  0  0
   11.6722    3.8268  -59.7837 H   0  0  0  0  0  0  0  0  0  0  0  0
    9.8662    4.6402  -61.3041 H   0  0  0  0  0  0  0  0  0  0  0  0
    9.7519    2.8622  -61.0525 H   0  0  0  0  0  0  0  0  0  0  0  0
   10.4351    1.8612  -58.8708 H   0  0  0  0  0  0  0  0  0  0  0  0
   11.0432    2.9305  -57.5460 H   0  0  0  0  0  0  0  0  0  0  0  0
    9.4872    4.4565  -56.3401 H   0  0  0  0  0  0  0  0  0  0  0  0
    7.7429    4.5135  -56.7991 H   0  0  0  0  0  0  0  0  0  0  0  0
    9.5067    0.8997  -54.7661 H   0  0  0  0  0  0  0  0  0  0  0  0
    9.5779   -0.8739  -53.0095 H   0  0  0  0  0  0  0  0  0  0  0  0
    5.4242   -1.8002  -53.7727 H   0  0  0  0  0  0  0  0  0  0  0  0
    5.3454   -0.0257  -55.5327 H   0  0  0  0  0  0  0  0  0  0  0  0
  1  2  2  0
  2  3  1  0
  4  3  1  1
  4  5  1  0
  5  6  1  0
  6  7  1  0
  7  8  1  0
  8  9  1  0
  9 10  1  0
 10 11  1  0
 10 12  1  0
  8 13  1  0
  2 14  1  0
 14 15  1  0
 15 16  2  0
 16 17  1  0
 17 18  1  0
 17 19  2  0
 19 20  1  0
 12  4  1  0
 20 14  2  0
 13  4  1  0
 11  6  1  0
  3 21  1  0
  5 22  1  0
  5 23  1  0
  6 24  1  6
  7 25  1  0
  7 26  1  0
  8 27  1  1
  9 28  1  0
  9 29  1  0
 10 30  1  6
 11 31  1  0
 11 32  1  0
 12 33  1  0
 12 34  1  0
 13 35  1  0
 13 36  1  0
 15 37  1  0
 16 38  1  0
 19 39  1  0
 20 40  1  0
M  END
>  <meeko>  (30) 
{"is_sidechain": false}

$$$$

     RDKit          3D

 40 43  0  0  0  0  0  0  0  0999 V2000
    6.3570    2.0470  -56.6680 O   0  0  0  0  0  0  0  0  0  0  0  0
    7.4240    1.5540  -56.3250 C   0  0  0  0  0  0  0  0  0  0  0  0
    8.6570    1.9170  -56.8300 N   0  0  0  0  0  0  0  0  0  0  0  0
    8.8650    2.9830  -57.8180 C   0  0  2  0  0  0  0  0  0  0  0  0
   10.3290    2.8930  -58.3300 C   0  0  0  0  0  0  0  0  0  0  0  0
   10.6210    3.9880  -59.3670 C   0  0  1  0  0  0  0  0  0  0  0  0
    9.6640    3.8200  -60.5580 C   0  0  0  0  0  0  0  0  0  0  0  0
    8.2080    3.9300  -60.0810 C   0  0  2  0  0  0  0  0  0  0  0  0
    7.9890    5.3070  -59.4300 C   0  0  0  0  0  0  0  0  0  0  0  0
    8.9420    5.4860  -58.2350 C   0  0  2  0  0  0  0  0  0  0  0  0
   10.3940    5.3650  -58.7230 C   0  0  0  0  0  0  0  0  0  0  0  0
    8.6620    4.3860  -57.1950 C   0  0  0  0  0  0  0  0  0  0  0  0
    7.9280    2.8290  -59.0430 C   0  0  0  0  0  0  0  0  0  0  0  0
    7.4400    0.5100  -55.2620 C   0  0  0  0  0  0  0  0  0  0  0  0
    8.6130    0.3370  -54.5140 C   0  0  0  0  0  0  0  0  0  0  0  0
    8.6690   -0.6280  -53.5060 C   0  0  0  0  0  0  0  0  0  0  0  0
    7.5490   -1.4140  -53.2390 C   0  0  0  0  0  0  0  0  0  0  0  0
    7.6230   -2.7200  -51.8750 Br  0  0  0  0  0  0  0  0  0  0  0  0
    6.3710   -1.2380  -53.9650 C   0  0  0  0  0  0  0  0  0  0  0  0
    6.3130   -0.2730  -54.9750 C   0  0  0  0  0  0  0  0  0  0  0  0
    9.4700    1.6280  -56.3030 H   0  0  0  0  0  0  0  0  0  0  0  0
   11.0152    3.0124  -57.4786 H   0  0  0  0  0  0  0  0  0  0  0  0
   10.4722    1.9126  -58.8077 H   0  0  0  0  0  0  0  0  0  0  0  0
   11.6621    3.9080  -59.7130 H   0  0  0  0  0  0  0  0  0  0  0  0
    9.8646    4.6065  -61.3004 H   0  0  0  0  0  0  0  0  0  0  0  0
    9.8218    2.8303  -61.0114 H   0  0  0  0  0  0  0  0  0  0  0  0
    7.5288    3.8126  -60.9383 H   0  0  0  0  0  0  0  0  0  0  0  0
    8.1843    6.0952  -60.1720 H   0  0  0  0  0  0  0  0  0  0  0  0
    6.9502    5.3756  -59.0748 H   0  0  0  0  0  0  0  0  0  0  0  0
    8.7856    6.4751  -57.7798 H   0  0  0  0  0  0  0  0  0  0  0  0
   10.5953    6.1515  -59.4652 H   0  0  0  0  0  0  0  0  0  0  0  0
   11.0731    5.4779  -57.8650 H   0  0  0  0  0  0  0  0  0  0  0  0
    9.3505    4.5076  -56.3458 H   0  0  0  0  0  0  0  0  0  0  0  0
    7.6196    4.4759  -56.8554 H   0  0  0  0  0  0  0  0  0  0  0  0
    6.8823    2.9037  -58.7099 H   0  0  0  0  0  0  0  0  0  0  0  0
    8.1102    1.8488  -59.5078 H   0  0  0  0  0  0  0  0  0  0  0  0
    9.4927    0.9638  -54.7218 H   0  0  0  0  0  0  0  0  0  0  0  0
    9.5928   -0.7673  -52.9253 H   0  0  0  0  0  0  0  0  0  0  0  0
    5.4893   -1.8573  -53.7433 H   0  0  0  0  0  0  0  0  0  0  0  0
    5.3831   -0.1281  -55.5445 H   0  0  0  0  0  0  0  0  0  0  0  0
  1  2  2  0
  2  3  1  0
  4  3  1  1
  4  5  1  0
  5  6  1  0
  6  7  1  0
  7  8  1  0
  8  9  1  0
  9 10  1  0
 10 11  1  0
 10 12  1  0
  8 13  1  0
  2 14  1  0
 14 15  1  0
 15 16  2  0
 16 17  1  0
 17 18  1  0
 17 19  2  0
 19 20  1  0
 12  4  1  0
 20 14  2  0
 13  4  1  0
 11  6  1  0
  3 21  1  0
  5 22  1  0
  5 23  1  0
  6 24  1  6
  7 25  1  0
  7 26  1  0
  8 27  1  6
  9 28  1  0
  9 29  1  0
 10 30  1  1
 11 31  1  0
 11 32  1  0
 12 33  1  0
 12 34  1  0
 13 35  1  0
 13 36  1  0
 15 37  1  0
 16 38  1  0
 19 39  1  0
 20 40  1  0
M  END
>  <meeko>  (31) 
{"is_sidechain": false}

$$$$

     RDKit          3D

 40 43  0  0  0  0  0  0  0  0999 V2000
   11.5850   -2.2390  -53.6520 O   0  0  0  0  0  0  0  0  0  0  0  0
   10.5050   -2.8150  -53.7270 C   0  0  0  0  0  0  0  0  0  0  0  0
   10.1950   -3.7250  -54.7140 N   0  0  0  0  0  0  0  0  0  0  0  0
   11.0930   -4.1350  -55.7980 C   0  0  2  0  0  0  0  0  0  0  0  0
   10.3180   -5.0970  -56.7390 C   0  0  0  0  0  0  0  0  0  0  0  0
   11.2050   -5.5670  -57.9030 C   0  0  1  0  0  0  0  0  0  0  0  0
   11.6700   -4.3430  -58.7070 C   0  0  0  0  0  0  0  0  0  0  0  0
   12.4640   -3.3890  -57.8010 C   0  0  2  0  0  0  0  0  0  0  0  0
   13.6850   -4.1310  -57.2300 C   0  0  0  0  0  0  0  0  0  0  0  0
   13.2300   -5.3580  -56.4220 C   0  0  2  0  0  0  0  0  0  0  0  0
   12.4310   -6.3000  -57.3370 C   0  0  0  0  0  0  0  0  0  0  0  0
   12.3320   -4.8950  -55.2610 C   0  0  0  0  0  0  0  0  0  0  0  0
   11.5650   -2.9240  -56.6410 C   0  0  0  0  0  0  0  0  0  0  0  0
    9.4550   -2.5260  -52.7070 C   0  0  0  0  0  0  0  0  0  0  0  0
    9.5410   -3.1720  -51.4630 C   0  0  0  0  0  0  0  0  0  0  0  0
    8.5840   -2.9390  -50.4710 C   0  0  0  0  0  0  0  0  0  0  0  0
    7.5310   -2.0590  -50.7100 C   0  0  0  0  0  0  0  0  0  0  0  0
    7.4350   -1.4110  -51.9400 C   0  0  0  0  0  0  0  0  0  0  0  0
    8.3920   -1.6470  -52.9270 C   0  0  0  0  0  0  0  0  0  0  0  0
    8.2560   -1.0010  -54.0960 F   0  0  0  0  0  0  0  0  0  0  0  0
    9.2740   -4.1500  -54.6930 H   0  0  0  0  0  0  0  0  0  0  0  0
    9.9871   -5.9737  -56.1629 H   0  0  0  0  0  0  0  0  0  0  0  0
    9.4536   -4.5581  -57.1542 H   0  0  0  0  0  0  0  0  0  0  0  0
   10.6370   -6.2454  -58.5566 H   0  0  0  0  0  0  0  0  0  0  0  0
   12.3110   -4.6747  -59.5372 H   0  0  0  0  0  0  0  0  0  0  0  0
   10.7896   -3.8156  -59.1028 H   0  0  0  0  0  0  0  0  0  0  0  0
   12.7981   -2.5175  -58.3831 H   0  0  0  0  0  0  0  0  0  0  0  0
   14.3303   -4.4599  -58.0579 H   0  0  0  0  0  0  0  0  0  0  0  0
   14.2412   -3.4511  -56.5680 H   0  0  0  0  0  0  0  0  0  0  0  0
   14.1085   -5.8866  -56.0235 H   0  0  0  0  0  0  0  0  0  0  0  0
   13.0721   -6.6323  -58.1668 H   0  0  0  0  0  0  0  0  0  0  0  0
   12.0945   -7.1702  -56.7543 H   0  0  0  0  0  0  0  0  0  0  0  0
   11.9974   -5.7739  -54.6903 H   0  0  0  0  0  0  0  0  0  0  0  0
   12.9099   -4.2182  -54.6144 H   0  0  0  0  0  0  0  0  0  0  0  0
   12.1321   -2.2349  -55.9979 H   0  0  0  0  0  0  0  0  0  0  0  0
   10.6826   -2.4163  -57.0576 H   0  0  0  0  0  0  0  0  0  0  0  0
   10.3697   -3.8683  -51.2672 H   0  0  0  0  0  0  0  0  0  0  0  0
    8.6626   -3.4511  -49.5007 H   0  0  0  0  0  0  0  0  0  0  0  0
    6.7773   -1.8761  -49.9300 H   0  0  0  0  0  0  0  0  0  0  0  0
    6.6057   -0.7144  -52.1323 H   0  0  0  0  0  0  0  0  0  0  0  0
  1  2  2  0
  2  3  1  0
  4  3  1  1
  4  5  1  0
  5  6  1  0
  6  7  1  0
  7  8  1  0
  8  9  1  0
  9 10  1  0
 10 11  1  0
 10 12  1  0
  8 13  1  0
  2 14  1  0
 14 15  2  0
 15 16  1  0
 16 17  2  0
 17 18  1  0
 18 19  2  0
 19 20  1  0
 12  4  1  0
 19 14  1  0
 13  4  1  0
 11  6  1  0
  3 21  1  0
  5 22  1  0
  5 23  1  0
  6 24  1  6
  7 25  1  0
  7 26  1  0
  8 27  1  6
  9 28  1  0
  9 29  1  0
 10 30  1  1
 11 31  1  0
 11 32  1  0
 12 33  1  0
 12 34  1  0
 13 35  1  0
 13 36  1  0
 15 37  1  0
 16 38  1  0
 17 39  1  0
 18 40  1  0
M  END
>  <meeko>  (32) 
{"is_sidechain": false}

$$$$

     RDKit          3D

 40 43  0  0  0  0  0  0  0  0999 V2000
    6.7160    1.7270  -56.5120 O   0  0  0  0  0  0  0  0  0  0  0  0
    7.8410    1.3830  -56.1740 C   0  0  0  0  0  0  0  0  0  0  0  0
    9.0110    1.8340  -56.7520 N   0  0  0  0  0  0  0  0  0  0  0  0
    9.0700    2.8220  -57.8360 C   0  0  2  0  0  0  0  0  0  0  0  0
    8.1520    2.4360  -59.0240 C   0  0  0  0  0  0  0  0  0  0  0  0
    8.2760    3.4640  -60.1630 C   0  0  1  0  0  0  0  0  0  0  0  0
    7.8830    4.8530  -59.6340 C   0  0  0  0  0  0  0  0  0  0  0  0
    8.8130    5.2640  -58.4790 C   0  0  2  0  0  0  0  0  0  0  0  0
   10.2650    5.2900  -58.9830 C   0  0  0  0  0  0  0  0  0  0  0  0
   10.6650    3.9010  -59.5040 C   0  0  2  0  0  0  0  0  0  0  0  0
    9.7310    3.5010  -60.6560 C   0  0  0  0  0  0  0  0  0  0  0  0
   10.5280    2.8780  -58.3660 C   0  0  0  0  0  0  0  0  0  0  0  0
    8.6880    4.2390  -57.3380 C   0  0  0  0  0  0  0  0  0  0  0  0
    7.9990    0.4390  -55.0330 C   0  0  0  0  0  0  0  0  0  0  0  0
    6.8800    0.1660  -54.2340 C   0  0  0  0  0  0  0  0  0  0  0  0
    6.9840   -0.7190  -53.1580 C   0  0  0  0  0  0  0  0  0  0  0  0
    8.2010   -1.3450  -52.8800 C   0  0  0  0  0  0  0  0  0  0  0  0
    8.2610   -2.4250  -51.5340 Cl  0  0  0  0  0  0  0  0  0  0  0  0
    9.3160   -1.0880  -53.6880 C   0  0  0  0  0  0  0  0  0  0  0  0
   10.8500   -1.8360  -53.4120 Cl  0  0  0  0  0  0  0  0  0  0  0  0
    9.2150   -0.2010  -54.7650 C   0  0  0  0  0  0  0  0  0  0  0  0
    9.8710    1.6780  -56.2440 H   0  0  0  0  0  0  0  0  0  0  0  0
    8.4446    1.4442  -59.3991 H   0  0  0  0  0  0  0  0  0  0  0  0
    7.1091    2.4191  -58.6745 H   0  0  0  0  0  0  0  0  0  0  0  0
    7.6118    3.1815  -60.9931 H   0  0  0  0  0  0  0  0  0  0  0  0
    7.9668    5.5887  -60.4474 H   0  0  0  0  0  0  0  0  0  0  0  0
    6.8472    4.8171  -59.2656 H   0  0  0  0  0  0  0  0  0  0  0  0
    8.5310    6.2619  -58.1120 H   0  0  0  0  0  0  0  0  0  0  0  0
   10.3550    6.0243  -59.7971 H   0  0  0  0  0  0  0  0  0  0  0  0
   10.9305    5.5699  -58.1531 H   0  0  0  0  0  0  0  0  0  0  0  0
   11.7048    3.9252  -59.8622 H   0  0  0  0  0  0  0  0  0  0  0  0
    9.8214    4.2352  -61.4701 H   0  0  0  0  0  0  0  0  0  0  0  0
   10.0144    2.5028  -61.0212 H   0  0  0  0  0  0  0  0  0  0  0  0
   10.8122    1.8837  -58.7409 H   0  0  0  0  0  0  0  0  0  0  0  0
   11.1878    3.1837  -57.5407 H   0  0  0  0  0  0  0  0  0  0  0  0
    9.3608    4.5276  -56.5170 H   0  0  0  0  0  0  0  0  0  0  0  0
    7.6457    4.2233  -56.9869 H   0  0  0  0  0  0  0  0  0  0  0  0
    5.9172    0.6500  -54.4549 H   0  0  0  0  0  0  0  0  0  0  0  0
    6.1054   -0.9232  -52.5284 H   0  0  0  0  0  0  0  0  0  0  0  0
   10.0909   -0.0064  -55.4013 H   0  0  0  0  0  0  0  0  0  0  0  0
  1  2  2  0
  2  3  1  0
  4  3  1  1
  4  5  1  0
  5  6  1  0
  6  7  1  0
  7  8  1  0
  8  9  1  0
  9 10  1  0
 10 11  1  0
 10 12  1  0
  8 13  1  0
  2 14  1  0
 14 15  1  0
 15 16  2  0
 16 17  1  0
 17 18  1  0
 17 19  2  0
 19 20  1  0
 19 21  1  0
 12  4  1  0
 21 14  2  0
 13  4  1  0
 11  6  1  0
  3 22  1  0
  5 23  1  0
  5 24  1  0
  6 25  1  6
  7 26  1  0
  7 27  1  0
  8 28  1  1
  9 29  1  0
  9 30  1  0
 10 31  1  6
 11 32  1  0
 11 33  1  0
 12 34  1  0
 12 35  1  0
 13 36  1  0
 13 37  1  0
 15 38  1  0
 16 39  1  0
 21 40  1  0
M  END
>  <meeko>  (33) 
{"is_sidechain": false}

$$$$

     RDKit          3D

 40 43  0  0  0  0  0  0  0  0999 V2000
    6.4340    2.1470  -56.5330 O   0  0  0  0  0  0  0  0  0  0  0  0
    7.4910    1.5780  -56.2900 C   0  0  0  0  0  0  0  0  0  0  0  0
    8.7030    1.8880  -56.8710 N   0  0  0  0  0  0  0  0  0  0  0  0
    8.9020    2.9770  -57.8390 C   0  0  2  0  0  0  0  0  0  0  0  0
   10.3360    2.8500  -58.4250 C   0  0  0  0  0  0  0  0  0  0  0  0
   10.6160    3.9660  -59.4440 C   0  0  1  0  0  0  0  0  0  0  0  0
    9.5990    3.8680  -60.5900 C   0  0  0  0  0  0  0  0  0  0  0  0
    8.1720    4.0140  -60.0390 C   0  0  2  0  0  0  0  0  0  0  0  0
    8.0360    5.3770  -59.3380 C   0  0  0  0  0  0  0  0  0  0  0  0
    9.0510    5.4860  -58.1880 C   0  0  2  0  0  0  0  0  0  0  0  0
   10.4730    5.3290  -58.7500 C   0  0  0  0  0  0  0  0  0  0  0  0
    8.7820    4.3660  -57.1670 C   0  0  0  0  0  0  0  0  0  0  0  0
    7.9020    2.8920  -59.0200 C   0  0  0  0  0  0  0  0  0  0  0  0
    7.5120    0.4900  -55.2740 C   0  0  0  0  0  0  0  0  0  0  0  0
    6.3120   -0.1870  -54.9960 C   0  0  0  0  0  0  0  0  0  0  0  0
    6.2870   -1.2190  -54.0540 C   0  0  0  0  0  0  0  0  0  0  0  0
    7.4620   -1.5760  -53.4010 C   0  0  0  0  0  0  0  0  0  0  0  0
    7.4370   -2.5650  -52.4980 F   0  0  0  0  0  0  0  0  0  0  0  0
    8.6530   -0.9180  -53.6870 C   0  0  0  0  0  0  0  0  0  0  0  0
    9.7840   -1.2750  -53.0640 F   0  0  0  0  0  0  0  0  0  0  0  0
    8.6910    0.1110  -54.6220 C   0  0  0  0  0  0  0  0  0  0  0  0
    9.5360    1.5270  -56.4290 H   0  0  0  0  0  0  0  0  0  0  0  0
   11.0667    2.9195  -57.6057 H   0  0  0  0  0  0  0  0  0  0  0  0
   10.4208    1.8797  -58.9361 H   0  0  0  0  0  0  0  0  0  0  0  0
   11.6351    3.8602  -59.8443 H   0  0  0  0  0  0  0  0  0  0  0  0
    9.7922    4.6694  -61.3183 H   0  0  0  0  0  0  0  0  0  0  0  0
    9.6990    2.8879  -61.0792 H   0  0  0  0  0  0  0  0  0  0  0  0
    7.4485    3.9465  -60.8648 H   0  0  0  0  0  0  0  0  0  0  0  0
    8.2237    6.1802  -60.0657 H   0  0  0  0  0  0  0  0  0  0  0  0
    7.0190    5.4707  -58.9294 H   0  0  0  0  0  0  0  0  0  0  0  0
    8.9527    6.4660  -57.6982 H   0  0  0  0  0  0  0  0  0  0  0  0
   10.6677    6.1306  -59.4777 H   0  0  0  0  0  0  0  0  0  0  0  0
   11.1967    5.3913  -57.9240 H   0  0  0  0  0  0  0  0  0  0  0  0
    9.5155    4.4372  -56.3504 H   0  0  0  0  0  0  0  0  0  0  0  0
    7.7617    4.4826  -56.7728 H   0  0  0  0  0  0  0  0  0  0  0  0
    6.8769    2.9930  -58.6340 H   0  0  0  0  0  0  0  0  0  0  0  0
    8.0255    1.9204  -59.5206 H   0  0  0  0  0  0  0  0  0  0  0  0
    5.3886    0.0967  -55.5222 H   0  0  0  0  0  0  0  0  0  0  0  0
    5.3466   -1.7442  -53.8310 H   0  0  0  0  0  0  0  0  0  0  0  0
    9.6387    0.6221  -54.8469 H   0  0  0  0  0  0  0  0  0  0  0  0
  1  2  2  0
  2  3  1  0
  4  3  1  1
  4  5  1  0
  5  6  1  0
  6  7  1  0
  7  8  1  0
  8  9  1  0
  9 10  1  0
 10 11  1  0
 10 12  1  0
  8 13  1  0
  2 14  1  0
 14 15  1  0
 15 16  2  0
 16 17  1  0
 17 18  1  0
 17 19  2  0
 19 20  1  0
 19 21  1  0
 12  4  1  0
 21 14  2  0
 13  4  1  0
 11  6  1  0
  3 22  1  0
  5 23  1  0
  5 24  1  0
  6 25  1  6
  7 26  1  0
  7 27  1  0
  8 28  1  6
  9 29  1  0
  9 30  1  0
 10 31  1  1
 11 32  1  0
 11 33  1  0
 12 34  1  0
 12 35  1  0
 13 36  1  0
 13 37  1  0
 15 38  1  0
 16 39  1  0
 21 40  1  0
M  END
>  <meeko>  (34) 
{"is_sidechain": false}

$$$$

     RDKit          3D

 50 54  0  0  0  0  0  0  0  0999 V2000
    6.4960    2.2260  -56.5890 O   0  0  0  0  0  0  0  0  0  0  0  0
    7.5480    1.6300  -56.3930 C   0  0  0  0  0  0  0  0  0  0  0  0
    8.7270    1.8770  -57.0660 N   0  0  0  0  0  0  0  0  0  0  0  0
    8.8950    2.9190  -58.0870 C   0  0  2  0  0  0  0  0  0  0  0  0
    7.8800    2.7650  -59.2470 C   0  0  0  0  0  0  0  0  0  0  0  0
    8.1170    3.8390  -60.3220 C   0  0  1  0  0  0  0  0  0  0  0  0
    7.9720    5.2330  -59.6860 C   0  0  0  0  0  0  0  0  0  0  0  0
    9.0020    5.4100  -58.5580 C   0  0  2  0  0  0  0  0  0  0  0  0
   10.4180    5.2470  -59.1350 C   0  0  0  0  0  0  0  0  0  0  0  0
   10.5710    3.8540  -59.7640 C   0  0  2  0  0  0  0  0  0  0  0  0
    9.5370    3.6860  -60.8890 C   0  0  0  0  0  0  0  0  0  0  0  0
   10.3220    2.7840  -58.6880 C   0  0  0  0  0  0  0  0  0  0  0  0
    8.7650    4.3370  -57.4800 C   0  0  0  0  0  0  0  0  0  0  0  0
    7.6060    0.5840  -55.3370 C   0  0  0  0  0  0  0  0  0  0  0  0
    6.4070    0.1320  -54.7770 C   0  0  0  0  0  0  0  0  0  0  0  0
    6.4210   -0.8520  -53.7850 C   0  0  0  0  0  0  0  0  0  0  0  0
    7.6300   -1.4130  -53.3340 C   0  0  0  0  0  0  0  0  0  0  0  0
    7.5900   -2.4420  -52.2870 C   0  0  0  0  0  0  0  0  0  0  0  0
    7.9890   -2.1430  -50.9740 C   0  0  0  0  0  0  0  0  0  0  0  0
    7.9620   -3.1230  -49.9790 C   0  0  0  0  0  0  0  0  0  0  0  0
    7.5400   -4.4150  -50.2830 C   0  0  0  0  0  0  0  0  0  0  0  0
    7.1450   -4.7290  -51.5820 C   0  0  0  0  0  0  0  0  0  0  0  0
    7.1710   -3.7490  -52.5770 C   0  0  0  0  0  0  0  0  0  0  0  0
    8.8270   -0.9600  -53.9230 C   0  0  0  0  0  0  0  0  0  0  0  0
   10.3680   -1.6070  -53.4670 Cl  0  0  0  0  0  0  0  0  0  0  0  0
    8.8180    0.0260  -54.9170 C   0  0  0  0  0  0  0  0  0  0  0  0
    9.5760    1.5030  -56.6630 H   0  0  0  0  0  0  0  0  0  0  0  0
    7.9968    1.7692  -59.6994 H   0  0  0  0  0  0  0  0  0  0  0  0
    6.8629    2.8845  -58.8455 H   0  0  0  0  0  0  0  0  0  0  0  0
    7.3812    3.7216  -61.1312 H   0  0  0  0  0  0  0  0  0  0  0  0
    8.1384    6.0024  -60.4544 H   0  0  0  0  0  0  0  0  0  0  0  0
    6.9597    5.3339  -59.2677 H   0  0  0  0  0  0  0  0  0  0  0  0
    8.8962    6.4104  -58.1129 H   0  0  0  0  0  0  0  0  0  0  0  0
   10.5888    6.0148  -59.9040 H   0  0  0  0  0  0  0  0  0  0  0  0
   11.1536    5.3606  -58.3251 H   0  0  0  0  0  0  0  0  0  0  0  0
   11.5858    3.7435  -60.1739 H   0  0  0  0  0  0  0  0  0  0  0  0
    9.7071    4.4536  -61.6583 H   0  0  0  0  0  0  0  0  0  0  0  0
    9.6438    2.6849  -61.3323 H   0  0  0  0  0  0  0  0  0  0  0  0
   10.4287    1.7872  -59.1407 H   0  0  0  0  0  0  0  0  0  0  0  0
   11.0564    2.9216  -57.8807 H   0  0  0  0  0  0  0  0  0  0  0  0
    9.5099    4.4576  -56.6796 H   0  0  0  0  0  0  0  0  0  0  0  0
    7.7494    4.4584  -57.0751 H   0  0  0  0  0  0  0  0  0  0  0  0
    5.4496    0.5525  -55.1186 H   0  0  0  0  0  0  0  0  0  0  0  0
    5.4706   -1.1939  -53.3492 H   0  0  0  0  0  0  0  0  0  0  0  0
    8.3265   -1.1257  -50.7264 H   0  0  0  0  0  0  0  0  0  0  0  0
    8.2744   -2.8740  -48.9541 H   0  0  0  0  0  0  0  0  0  0  0  0
    7.5185   -5.1863  -49.4990 H   0  0  0  0  0  0  0  0  0  0  0  0
    6.8125   -5.7493  -51.8239 H   0  0  0  0  0  0  0  0  0  0  0  0
    6.8592   -4.0052  -53.6003 H   0  0  0  0  0  0  0  0  0  0  0  0
    9.7637    0.3617  -55.3675 H   0  0  0  0  0  0  0  0  0  0  0  0
  1  2  2  0
  2  3  1  0
  4  3  1  1
  4  5  1  0
  5  6  1  0
  6  7  1  0
  7  8  1  0
  8  9  1  0
  9 10  1  0
 10 11  1  0
 10 12  1  0
  8 13  1  0
  2 14  1  0
 14 15  1  0
 15 16  2  0
 16 17  1  0
 17 18  1  0
 18 19  2  0
 19 20  1  0
 20 21  2  0
 21 22  1  0
 22 23  2  0
 17 24  2  0
 24 25  1  0
 24 26  1  0
 12  4  1  0
 26 14  2  0
 13  4  1  0
 23 18  1  0
 11  6  1  0
  3 27  1  0
  5 28  1  0
  5 29  1  0
  6 30  1  6
  7 31  1  0
  7 32  1  0
  8 33  1  1
  9 34  1  0
  9 35  1  0
 10 36  1  6
 11 37  1  0
 11 38  1  0
 12 39  1  0
 12 40  1  0
 13 41  1  0
 13 42  1  0
 15 43  1  0
 16 44  1  0
 19 45  1  0
 20 46  1  0
 21 47  1  0
 22 48  1  0
 23 49  1  0
 26 50  1  0
M  END
>  <meeko>  (35) 
{"is_sidechain": false}

$$$$

     RDKit          3D

 50 54  0  0  0  0  0  0  0  0999 V2000
    6.4570    2.2830  -56.7020 O   0  0  0  0  0  0  0  0  0  0  0  0
    7.5010    1.7280  -56.3830 C   0  0  0  0  0  0  0  0  0  0  0  0
    8.7330    1.9870  -56.9480 N   0  0  0  0  0  0  0  0  0  0  0  0
    8.9590    2.9360  -58.0460 C   0  0  2  0  0  0  0  0  0  0  0  0
    7.9180    2.7650  -59.1830 C   0  0  0  0  0  0  0  0  0  0  0  0
    8.1510    3.8070  -60.2910 C   0  0  1  0  0  0  0  0  0  0  0  0
    8.0090    5.2180  -59.7010 C   0  0  0  0  0  0  0  0  0  0  0  0
    9.0410    5.4240  -58.5820 C   0  0  2  0  0  0  0  0  0  0  0  0
   10.4560    5.2500  -59.1570 C   0  0  0  0  0  0  0  0  0  0  0  0
   10.6140    3.8380  -59.7440 C   0  0  2  0  0  0  0  0  0  0  0  0
    9.5710    3.6330  -60.8570 C   0  0  0  0  0  0  0  0  0  0  0  0
   10.3840    2.7970  -58.6350 C   0  0  0  0  0  0  0  0  0  0  0  0
    8.8100    4.3760  -57.4830 C   0  0  0  0  0  0  0  0  0  0  0  0
    7.4730    0.6660  -55.3430 C   0  0  0  0  0  0  0  0  0  0  0  0
    6.2890    0.0180  -54.9740 C   0  0  0  0  0  0  0  0  0  0  0  0
    6.3100   -0.9810  -53.9940 C   0  0  0  0  0  0  0  0  0  0  0  0
    7.5100   -1.3590  -53.3640 C   0  0  0  0  0  0  0  0  0  0  0  0
    7.5190   -2.4140  -52.3340 C   0  0  0  0  0  0  0  0  0  0  0  0
    7.1630   -3.7370  -52.6460 C   0  0  0  0  0  0  0  0  0  0  0  0
    7.1810   -4.7400  -51.6730 C   0  0  0  0  0  0  0  0  0  0  0  0
    7.5560   -4.4380  -50.3670 C   0  0  0  0  0  0  0  0  0  0  0  0
    7.9100   -3.1350  -50.0330 C   0  0  0  0  0  0  0  0  0  0  0  0
    7.8920   -2.1320  -51.0070 C   0  0  0  0  0  0  0  0  0  0  0  0
    8.6860   -0.7040  -53.7680 C   0  0  0  0  0  0  0  0  0  0  0  0
    9.8620   -1.0200  -53.2050 F   0  0  0  0  0  0  0  0  0  0  0  0
    8.6770    0.2910  -54.7440 C   0  0  0  0  0  0  0  0  0  0  0  0
    9.4650    1.3080  -56.7850 H   0  0  0  0  0  0  0  0  0  0  0  0
    8.0117    1.7557  -59.6103 H   0  0  0  0  0  0  0  0  0  0  0  0
    6.9103    2.9094  -58.7662 H   0  0  0  0  0  0  0  0  0  0  0  0
    7.4113    3.6672  -61.0930 H   0  0  0  0  0  0  0  0  0  0  0  0
    8.1764    5.9629  -60.4929 H   0  0  0  0  0  0  0  0  0  0  0  0
    6.9971    5.3366  -59.2863 H   0  0  0  0  0  0  0  0  0  0  0  0
    8.9342    6.4347  -58.1612 H   0  0  0  0  0  0  0  0  0  0  0  0
   10.6215    5.9947  -59.9495 H   0  0  0  0  0  0  0  0  0  0  0  0
   11.1929    5.3917  -58.3527 H   0  0  0  0  0  0  0  0  0  0  0  0
   11.6265    3.7198  -60.1573 H   0  0  0  0  0  0  0  0  0  0  0  0
    9.7384    4.3735  -61.6531 H   0  0  0  0  0  0  0  0  0  0  0  0
    9.6740    2.6160  -61.2634 H   0  0  0  0  0  0  0  0  0  0  0  0
   10.5047    1.7878  -59.0555 H   0  0  0  0  0  0  0  0  0  0  0  0
   11.1178    2.9646  -57.8328 H   0  0  0  0  0  0  0  0  0  0  0  0
    9.5480    4.5269  -56.6814 H   0  0  0  0  0  0  0  0  0  0  0  0
    7.7881    4.4959  -57.0940 H   0  0  0  0  0  0  0  0  0  0  0  0
    5.3393    0.2944  -55.4554 H   0  0  0  0  0  0  0  0  0  0  0  0
    5.3713   -1.4797  -53.7111 H   0  0  0  0  0  0  0  0  0  0  0  0
    6.8648   -3.9878  -53.6747 H   0  0  0  0  0  0  0  0  0  0  0  0
    6.8985   -5.7692  -51.9395 H   0  0  0  0  0  0  0  0  0  0  0  0
    7.5723   -5.2275  -49.6012 H   0  0  0  0  0  0  0  0  0  0  0  0
    8.2045   -2.8933  -49.0011 H   0  0  0  0  0  0  0  0  0  0  0  0
    8.1742   -1.1052  -50.7312 H   0  0  0  0  0  0  0  0  0  0  0  0
    9.6165    0.7797  -55.0416 H   0  0  0  0  0  0  0  0  0  0  0  0
  1  2  2  0
  2  3  1  0
  4  3  1  1
  4  5  1  0
  5  6  1  0
  6  7  1  0
  7  8  1  0
  8  9  1  0
  9 10  1  0
 10 11  1  0
 10 12  1  0
  8 13  1  0
  2 14  1  0
 14 15  1  0
 15 16  2  0
 16 17  1  0
 17 18  1  0
 18 19  2  0
 19 20  1  0
 20 21  2  0
 21 22  1  0
 22 23  2  0
 17 24  2  0
 24 25  1  0
 24 26  1  0
 12  4  1  0
 26 14  2  0
 13  4  1  0
 23 18  1  0
 11  6  1  0
  3 27  1  0
  5 28  1  0
  5 29  1  0
  6 30  1  6
  7 31  1  0
  7 32  1  0
  8 33  1  1
  9 34  1  0
  9 35  1  0
 10 36  1  6
 11 37  1  0
 11 38  1  0
 12 39  1  0
 12 40  1  0
 13 41  1  0
 13 42  1  0
 15 43  1  0
 16 44  1  0
 19 45  1  0
 20 46  1  0
 21 47  1  0
 22 48  1  0
 23 49  1  0
 26 50  1  0
M  END
>  <meeko>  (36) 
{"is_sidechain": false}

$$$$

     RDKit          3D

 53 57  0  0  0  0  0  0  0  0999 V2000
   10.0360   -1.5720  -53.6080 C   0  0  0  0  0  0  0  0  0  0  0  0
    8.6940   -0.9870  -53.9620 C   0  0  0  0  0  0  0  0  0  0  0  0
    8.6260    0.0190  -54.9420 C   0  0  0  0  0  0  0  0  0  0  0  0
    7.4000    0.5870  -55.3080 C   0  0  0  0  0  0  0  0  0  0  0  0
    7.3910    1.6490  -56.3520 C   0  0  0  0  0  0  0  0  0  0  0  0
    6.3640    2.2800  -56.5650 O   0  0  0  0  0  0  0  0  0  0  0  0
    8.5940    1.8690  -56.9950 N   0  0  0  0  0  0  0  0  0  0  0  0
    8.8210    2.9240  -57.9900 C   0  0  2  0  0  0  0  0  0  0  0  0
    8.7910    4.3320  -57.3450 C   0  0  0  0  0  0  0  0  0  0  0  0
    9.0880    5.4150  -58.3970 C   0  0  1  0  0  0  0  0  0  0  0  0
   10.4840    5.1730  -58.9950 C   0  0  0  0  0  0  0  0  0  0  0  0
   10.5370    3.7900  -59.6620 C   0  0  2  0  0  0  0  0  0  0  0  0
    9.4840    3.7220  -60.7780 C   0  0  0  0  0  0  0  0  0  0  0  0
    8.0830    3.9540  -60.1920 C   0  0  2  0  0  0  0  0  0  0  0  0
    8.0370    5.3350  -59.5180 C   0  0  0  0  0  0  0  0  0  0  0  0
    7.7850    2.8690  -59.1420 C   0  0  0  0  0  0  0  0  0  0  0  0
   10.2280    2.7110  -58.6120 C   0  0  0  0  0  0  0  0  0  0  0  0
    6.2290    0.1690  -54.6710 C   0  0  0  0  0  0  0  0  0  0  0  0
    6.2870   -0.8290  -53.6960 C   0  0  0  0  0  0  0  0  0  0  0  0
    7.5090   -1.4230  -53.3320 C   0  0  0  0  0  0  0  0  0  0  0  0
    7.5090   -2.4690  -52.3010 C   0  0  0  0  0  0  0  0  0  0  0  0
    7.1490   -3.7880  -52.6170 C   0  0  0  0  0  0  0  0  0  0  0  0
    7.1460   -4.7820  -51.6350 C   0  0  0  0  0  0  0  0  0  0  0  0
    7.5000   -4.4680  -50.3250 C   0  0  0  0  0  0  0  0  0  0  0  0
    7.8570   -3.1620  -49.9950 C   0  0  0  0  0  0  0  0  0  0  0  0
    7.8610   -2.1690  -50.9760 C   0  0  0  0  0  0  0  0  0  0  0  0
   10.1393   -1.6170  -52.5138 H   0  0  0  0  0  0  0  0  0  0  0  0
   10.1155   -2.5864  -54.0258 H   0  0  0  0  0  0  0  0  0  0  0  0
   10.8333   -0.9398  -54.0258 H   0  0  0  0  0  0  0  0  0  0  0  0
    9.5500    0.3649  -55.4284 H   0  0  0  0  0  0  0  0  0  0  0  0
    9.4180    1.4670  -56.5690 H   0  0  0  0  0  0  0  0  0  0  0  0
    7.7953    4.5108  -56.9130 H   0  0  0  0  0  0  0  0  0  0  0  0
    9.5600    4.3793  -56.5599 H   0  0  0  0  0  0  0  0  0  0  0  0
    9.0535    6.4081  -57.9253 H   0  0  0  0  0  0  0  0  0  0  0  0
   10.6981    5.9480  -59.7457 H   0  0  0  0  0  0  0  0  0  0  0  0
   11.2336    5.2153  -58.1911 H   0  0  0  0  0  0  0  0  0  0  0  0
   11.5379    3.6228  -60.0865 H   0  0  0  0  0  0  0  0  0  0  0  0
    9.6980    4.4970  -61.5287 H   0  0  0  0  0  0  0  0  0  0  0  0
    9.5192    2.7281  -61.2481 H   0  0  0  0  0  0  0  0  0  0  0  0
    7.3340    3.9080  -60.9963 H   0  0  0  0  0  0  0  0  0  0  0  0
    8.2458    6.1123  -60.2678 H   0  0  0  0  0  0  0  0  0  0  0  0
    7.0378    5.4896  -59.0847 H   0  0  0  0  0  0  0  0  0  0  0  0
    6.7779    3.0314  -58.7304 H   0  0  0  0  0  0  0  0  0  0  0  0
    7.8446    1.8826  -59.6252 H   0  0  0  0  0  0  0  0  0  0  0  0
   10.2627    1.7219  -59.0921 H   0  0  0  0  0  0  0  0  0  0  0  0
   10.9785    2.7779  -57.8105 H   0  0  0  0  0  0  0  0  0  0  0  0
    5.2638    0.6248  -54.9368 H   0  0  0  0  0  0  0  0  0  0  0  0
    5.3597   -1.1568  -53.2034 H   0  0  0  0  0  0  0  0  0  0  0  0
    6.8661   -4.0422  -53.6491 H   0  0  0  0  0  0  0  0  0  0  0  0
    6.8640   -5.8126  -51.8965 H   0  0  0  0  0  0  0  0  0  0  0  0
    7.4978   -5.2502  -49.5516 H   0  0  0  0  0  0  0  0  0  0  0  0
    8.1359   -2.9134  -48.9604 H   0  0  0  0  0  0  0  0  0  0  0  0
    8.1431   -1.1402  -50.7076 H   0  0  0  0  0  0  0  0  0  0  0  0
  1  2  1  0
  2  3  1  0
  3  4  2  0
  4  5  1  0
  5  6  2  0
  5  7  1  0
  8  7  1  1
  8  9  1  0
  9 10  1  0
 10 11  1  0
 11 12  1  0
 12 13  1  0
 13 14  1  0
 14 15  1  0
 14 16  1  0
 12 17  1  0
  4 18  1  0
 18 19  2  0
 19 20  1  0
 20 21  1  0
 21 22  2  0
 22 23  1  0
 23 24  2  0
 24 25  1  0
 25 26  2  0
 20  2  2  0
 26 21  1  0
 16  8  1  0
 17  8  1  0
 15 10  1  0
  1 27  1  0
  1 28  1  0
  1 29  1  0
  3 30  1  0
  7 31  1  0
  9 32  1  0
  9 33  1  0
 10 34  1  1
 11 35  1  0
 11 36  1  0
 12 37  1  6
 13 38  1  0
 13 39  1  0
 14 40  1  6
 15 41  1  0
 15 42  1  0
 16 43  1  0
 16 44  1  0
 17 45  1  0
 17 46  1  0
 18 47  1  0
 19 48  1  0
 22 49  1  0
 23 50  1  0
 24 51  1  0
 25 52  1  0
 26 53  1  0
M  END
>  <meeko>  (37) 
{"is_sidechain": false}

$$$$

     RDKit          3D

 44 47  0  0  0  0  0  0  0  0999 V2000
    7.3290    1.8460  -56.2590 O   0  0  0  0  0  0  0  0  0  0  0  0
    8.5020    1.5210  -56.1330 C   0  0  0  0  0  0  0  0  0  0  0  0
    8.8740    0.5140  -55.1090 C   0  0  0  0  0  0  0  0  0  0  0  0
    8.0130    0.0240  -54.2040 C   0  0  0  0  0  0  0  0  0  0  0  0
    8.3690   -0.9970  -53.2090 C   0  0  0  0  0  0  0  0  0  0  0  0
    9.5430   -1.7550  -53.3000 C   0  0  0  0  0  0  0  0  0  0  0  0
    9.8320   -2.7370  -52.3480 C   0  0  0  0  0  0  0  0  0  0  0  0
    8.9460   -2.9770  -51.3010 C   0  0  0  0  0  0  0  0  0  0  0  0
    7.7670   -2.2410  -51.2080 C   0  0  0  0  0  0  0  0  0  0  0  0
    7.4770   -1.2600  -52.1600 C   0  0  0  0  0  0  0  0  0  0  0  0
    9.5400    1.9590  -56.9150 N   0  0  0  0  0  0  0  0  0  0  0  0
    9.3990    2.8760  -58.0500 C   0  0  2  0  0  0  0  0  0  0  0  0
    8.4150    2.3220  -59.1100 C   0  0  0  0  0  0  0  0  0  0  0  0
    8.3260    3.2760  -60.3160 C   0  0  1  0  0  0  0  0  0  0  0  0
    7.8450    4.6560  -59.8350 C   0  0  0  0  0  0  0  0  0  0  0  0
    8.8340    5.2330  -58.8080 C   0  0  2  0  0  0  0  0  0  0  0  0
   10.2210    5.3650  -59.4570 C   0  0  0  0  0  0  0  0  0  0  0  0
   10.7100    3.9880  -59.9300 C   0  0  2  0  0  0  0  0  0  0  0  0
    9.7160    3.4190  -60.9550 C   0  0  0  0  0  0  0  0  0  0  0  0
   10.7880    3.0390  -58.7240 C   0  0  0  0  0  0  0  0  0  0  0  0
    8.9240    4.2820  -57.6020 C   0  0  0  0  0  0  0  0  0  0  0  0
    9.9116    0.1494  -55.0907 H   0  0  0  0  0  0  0  0  0  0  0  0
    6.9823    0.4084  -54.2071 H   0  0  0  0  0  0  0  0  0  0  0  0
   10.2443   -1.5760  -54.1283 H   0  0  0  0  0  0  0  0  0  0  0  0
   10.7608   -3.3211  -52.4261 H   0  0  0  0  0  0  0  0  0  0  0  0
    9.1766   -3.7460  -50.5490 H   0  0  0  0  0  0  0  0  0  0  0  0
    7.0635   -2.4322  -50.3843 H   0  0  0  0  0  0  0  0  0  0  0  0
    6.5399   -0.6887  -52.0856 H   0  0  0  0  0  0  0  0  0  0  0  0
   10.4160    1.4590  -56.8370 H   0  0  0  0  0  0  0  0  0  0  0  0
    8.7683    1.3381  -59.4523 H   0  0  0  0  0  0  0  0  0  0  0  0
    7.4176    2.2303  -58.6552 H   0  0  0  0  0  0  0  0  0  0  0  0
    7.6188    2.8726  -61.0557 H   0  0  0  0  0  0  0  0  0  0  0  0
    7.7758    5.3374  -60.6958 H   0  0  0  0  0  0  0  0  0  0  0  0
    6.8577    4.5481  -59.3622 H   0  0  0  0  0  0  0  0  0  0  0  0
    8.4874    6.2222  -58.4743 H   0  0  0  0  0  0  0  0  0  0  0  0
   10.1571    6.0452  -60.3191 H   0  0  0  0  0  0  0  0  0  0  0  0
   10.9298    5.7668  -58.7180 H   0  0  0  0  0  0  0  0  0  0  0  0
   11.7031    4.0871  -60.3926 H   0  0  0  0  0  0  0  0  0  0  0  0
    9.6523    4.0993  -61.8171 H   0  0  0  0  0  0  0  0  0  0  0  0
   10.0649    2.4295  -61.2854 H   0  0  0  0  0  0  0  0  0  0  0  0
   11.1400    2.0539  -59.0642 H   0  0  0  0  0  0  0  0  0  0  0  0
   11.4853    3.4659  -57.9882 H   0  0  0  0  0  0  0  0  0  0  0  0
    9.6393    4.6898  -56.8726 H   0  0  0  0  0  0  0  0  0  0  0  0
    7.9267    4.1910  -57.1470 H   0  0  0  0  0  0  0  0  0  0  0  0
  1  2  2  0
  2  3  1  0
  3  4  2  0
  4  5  1  0
  5  6  2  0
  6  7  1  0
  7  8  2  0
  8  9  1  0
  9 10  2  0
  2 11  1  0
 12 11  1  1
 12 13  1  0
 13 14  1  0
 14 15  1  0
 15 16  1  0
 16 17  1  0
 17 18  1  0
 18 19  1  0
 18 20  1  0
 16 21  1  0
 10  5  1  0
 20 12  1  0
 21 12  1  0
 19 14  1  0
  3 22  1  0
  4 23  1  0
  6 24  1  0
  7 25  1  0
  8 26  1  0
  9 27  1  0
 10 28  1  0
 11 29  1  0
 13 30  1  0
 13 31  1  0
 14 32  1  6
 15 33  1  0
 15 34  1  0
 16 35  1  1
 17 36  1  0
 17 37  1  0
 18 38  1  6
 19 39  1  0
 19 40  1  0
 20 41  1  0
 20 42  1  0
 21 43  1  0
 21 44  1  0
M  END
>  <meeko>  (38) 
{"is_sidechain": false}

$$$$

     RDKit          3D

 40 43  0  0  0  0  0  0  0  0999 V2000
   11.5300   -1.9120  -54.1260 O   0  0  0  0  0  0  0  0  0  0  0  0
   10.4310   -2.4430  -54.2170 C   0  0  0  0  0  0  0  0  0  0  0  0
   10.1180   -3.4530  -55.1050 N   0  0  0  0  0  0  0  0  0  0  0  0
   11.0750   -4.0600  -56.0380 C   0  0  2  0  0  0  0  0  0  0  0  0
   11.7150   -3.0070  -56.9800 C   0  0  0  0  0  0  0  0  0  0  0  0
   12.6720   -3.6820  -57.9780 C   0  0  1  0  0  0  0  0  0  0  0  0
   13.7740   -4.4230  -57.2010 C   0  0  0  0  0  0  0  0  0  0  0  0
   13.1520   -5.4970  -56.2920 C   0  0  2  0  0  0  0  0  0  0  0  0
   12.3630   -6.4950  -57.1550 C   0  0  0  0  0  0  0  0  0  0  0  0
   11.2560   -5.7610  -57.9270 C   0  0  2  0  0  0  0  0  0  0  0  0
   11.8870   -4.6910  -58.8300 C   0  0  0  0  0  0  0  0  0  0  0  0
   10.3090   -5.0800  -56.9250 C   0  0  0  0  0  0  0  0  0  0  0  0
   12.1960   -4.8230  -55.2920 C   0  0  0  0  0  0  0  0  0  0  0  0
    9.3380   -2.0250  -53.2960 C   0  0  0  0  0  0  0  0  0  0  0  0
    8.4920   -0.9810  -53.6960 C   0  0  0  0  0  0  0  0  0  0  0  0
    7.4530   -0.5590  -52.8640 C   0  0  0  0  0  0  0  0  0  0  0  0
    7.2490   -1.1860  -51.6360 C   0  0  0  0  0  0  0  0  0  0  0  0
    8.0800   -2.2380  -51.2480 C   0  0  0  0  0  0  0  0  0  0  0  0
    7.8130   -3.0210  -49.7380 Cl  0  0  0  0  0  0  0  0  0  0  0  0
    9.1210   -2.6660  -52.0710 C   0  0  0  0  0  0  0  0  0  0  0  0
    9.2710   -3.9770  -54.9280 H   0  0  0  0  0  0  0  0  0  0  0  0
   10.9198   -2.4889  -57.5360 H   0  0  0  0  0  0  0  0  0  0  0  0
   12.2855   -2.2888  -56.3727 H   0  0  0  0  0  0  0  0  0  0  0  0
   13.1254   -2.9207  -58.6298 H   0  0  0  0  0  0  0  0  0  0  0  0
   14.4609   -4.9032  -57.9135 H   0  0  0  0  0  0  0  0  0  0  0  0
   14.3230   -3.7004  -56.5793 H   0  0  0  0  0  0  0  0  0  0  0  0
   13.9462   -6.0266  -55.7455 H   0  0  0  0  0  0  0  0  0  0  0  0
   13.0458   -6.9787  -57.8690 H   0  0  0  0  0  0  0  0  0  0  0  0
   11.9063   -7.2542  -56.5030 H   0  0  0  0  0  0  0  0  0  0  0  0
   10.6956   -6.4803  -58.5423 H   0  0  0  0  0  0  0  0  0  0  0  0
   12.5699   -5.1737  -59.5446 H   0  0  0  0  0  0  0  0  0  0  0  0
   11.0908   -4.1622  -59.3744 H   0  0  0  0  0  0  0  0  0  0  0  0
    9.5186   -4.5523  -57.4789 H   0  0  0  0  0  0  0  0  0  0  0  0
    9.8741   -5.8526  -56.2739 H   0  0  0  0  0  0  0  0  0  0  0  0
   11.7434   -5.5929  -54.6497 H   0  0  0  0  0  0  0  0  0  0  0  0
   12.7675   -4.1068  -54.6834 H   0  0  0  0  0  0  0  0  0  0  0  0
    8.6474   -0.4924  -54.6692 H   0  0  0  0  0  0  0  0  0  0  0  0
    6.7969    0.2665  -53.1771 H   0  0  0  0  0  0  0  0  0  0  0  0
    6.4356   -0.8527  -50.9747 H   0  0  0  0  0  0  0  0  0  0  0  0
    9.7664   -3.5007  -51.7600 H   0  0  0  0  0  0  0  0  0  0  0  0
  1  2  2  0
  2  3  1  0
  4  3  1  1
  4  5  1  0
  5  6  1  0
  6  7  1  0
  7  8  1  0
  8  9  1  0
  9 10  1  0
 10 11  1  0
 10 12  1  0
  8 13  1  0
  2 14  1  0
 14 15  2  0
 15 16  1  0
 16 17  2  0
 17 18  1  0
 18 19  1  0
 18 20  2  0
 12  4  1  0
 20 14  1  0
 13  4  1  0
 11  6  1  0
  3 21  1  0
  5 22  1  0
  5 23  1  0
  6 24  1  6
  7 25  1  0
  7 26  1  0
  8 27  1  1
  9 28  1  0
  9 29  1  0
 10 30  1  6
 11 31  1  0
 11 32  1  0
 12 33  1  0
 12 34  1  0
 13 35  1  0
 13 36  1  0
 15 37  1  0
 16 38  1  0
 17 39  1  0
 20 40  1  0
M  END
>  <meeko>  (39) 
{"is_sidechain": false}

$$$$

     RDKit          3D

 40 43  0  0  0  0  0  0  0  0999 V2000
   11.5050   -3.3430  -53.7680 O   0  0  0  0  0  0  0  0  0  0  0  0
   10.8770   -3.2710  -54.8170 C   0  0  0  0  0  0  0  0  0  0  0  0
    9.7400   -2.5050  -54.9770 N   0  0  0  0  0  0  0  0  0  0  0  0
    9.1750   -1.7330  -53.8790 C   0  0  2  0  0  0  0  0  0  0  0  0
    7.9430   -2.4280  -53.2460 C   0  0  1  0  0  0  0  0  0  0  0  0
    7.5100   -1.6210  -52.0060 C   0  0  0  0  0  0  0  0  0  0  0  0
    7.1330   -0.1850  -52.4120 C   0  0  2  0  0  0  0  0  0  0  0  0
    5.9680   -0.2380  -53.4150 C   0  0  0  0  0  0  0  0  0  0  0  0
    6.3850   -1.0330  -54.6650 C   0  0  2  0  0  0  0  0  0  0  0  0
    6.7720   -2.4620  -54.2490 C   0  0  0  0  0  0  0  0  0  0  0  0
    7.5970   -0.3480  -55.3160 C   0  0  0  0  0  0  0  0  0  0  0  0
    8.7790   -0.3040  -54.3250 C   0  0  1  0  0  0  0  0  0  0  0  0
    8.3440    0.4930  -53.0790 C   0  0  0  0  0  0  0  0  0  0  0  0
   11.3490   -4.0040  -56.0230 C   0  0  0  0  0  0  0  0  0  0  0  0
   11.5190   -3.2870  -57.2140 C   0  0  0  0  0  0  0  0  0  0  0  0
   11.9620   -3.9380  -58.3670 C   0  0  0  0  0  0  0  0  0  0  0  0
   12.2460   -5.3020  -58.3320 C   0  0  0  0  0  0  0  0  0  0  0  0
   12.0970   -6.0180  -57.1440 C   0  0  0  0  0  0  0  0  0  0  0  0
   11.6530   -5.3720  -55.9870 C   0  0  0  0  0  0  0  0  0  0  0  0
    9.3700   -2.3660  -55.9080 H   0  0  0  0  0  0  0  0  0  0  0  0
    9.9687   -1.6662  -53.1203 H   0  0  0  0  0  0  0  0  0  0  0  0
    8.2091   -3.4590  -52.9698 H   0  0  0  0  0  0  0  0  0  0  0  0
    6.6398   -2.1076  -51.5414 H   0  0  0  0  0  0  0  0  0  0  0  0
    8.3456   -1.5846  -51.2915 H   0  0  0  0  0  0  0  0  0  0  0  0
    6.8357    0.3870  -51.5207 H   0  0  0  0  0  0  0  0  0  0  0  0
    5.1034   -0.7279  -52.9434 H   0  0  0  0  0  0  0  0  0  0  0  0
    5.7003    0.7868  -53.7117 H   0  0  0  0  0  0  0  0  0  0  0  0
    5.5501   -1.0689  -55.3803 H   0  0  0  0  0  0  0  0  0  0  0  0
    5.9056   -2.9505  -53.7791 H   0  0  0  0  0  0  0  0  0  0  0  0
    7.0820   -3.0236  -55.1426 H   0  0  0  0  0  0  0  0  0  0  0  0
    7.8950   -0.9116  -56.2124 H   0  0  0  0  0  0  0  0  0  0  0  0
    7.3223    0.6804  -55.5935 H   0  0  0  0  0  0  0  0  0  0  0  0
    9.6409    0.1685  -54.8188 H   0  0  0  0  0  0  0  0  0  0  0  0
    9.1783    0.5328  -52.3632 H   0  0  0  0  0  0  0  0  0  0  0  0
    8.0629    1.5118  -53.3839 H   0  0  0  0  0  0  0  0  0  0  0  0
   11.3031   -2.2087  -57.2411 H   0  0  0  0  0  0  0  0  0  0  0  0
   12.0869   -3.3742  -59.3032 H   0  0  0  0  0  0  0  0  0  0  0  0
   12.5883   -5.8150  -59.2429 H   0  0  0  0  0  0  0  0  0  0  0  0
   12.3294   -7.0929  -57.1179 H   0  0  0  0  0  0  0  0  0  0  0  0
   11.5422   -5.9363  -55.0493 H   0  0  0  0  0  0  0  0  0  0  0  0
  1  2  2  0
  2  3  1  0
  3  4  1  0
  4  5  1  0
  5  6  1  0
  6  7  1  0
  7  8  1  0
  8  9  1  0
  9 10  1  0
  9 11  1  0
 11 12  1  0
 12 13  1  0
  2 14  1  0
 14 15  2  0
 15 16  1  0
 16 17  2  0
 17 18  1  0
 18 19  2  0
 12  4  1  0
 19 14  1  0
 10  5  1  0
 13  7  1  0
  3 20  1  0
  4 21  1  6
  5 22  1  6
  6 23  1  0
  6 24  1  0
  7 25  1  6
  8 26  1  0
  8 27  1  0
  9 28  1  1
 10 29  1  0
 10 30  1  0
 11 31  1  0
 11 32  1  0
 12 33  1  1
 13 34  1  0
 13 35  1  0
 15 36  1  0
 16 37  1  0
 17 38  1  0
 18 39  1  0
 19 40  1  0
M  END
>  <meeko>  (40) 
{"is_sidechain": false}

$$$$

     RDKit          3D

 43 46  0  0  0  0  0  0  0  0999 V2000
    7.6130   -1.8740  -51.7150 C   0  0  0  0  0  0  0  0  0  0  0  0
    7.5080   -1.0440  -52.9620 C   0  0  0  0  0  0  0  0  0  0  0  0
    6.2730   -0.8770  -53.6000 C   0  0  0  0  0  0  0  0  0  0  0  0
    6.1660   -0.0810  -54.7440 C   0  0  0  0  0  0  0  0  0  0  0  0
    7.2960    0.5720  -55.2500 C   0  0  0  0  0  0  0  0  0  0  0  0
    7.2340    1.4290  -56.4660 C   0  0  0  0  0  0  0  0  0  0  0  0
    6.1760    1.5670  -57.0680 O   0  0  0  0  0  0  0  0  0  0  0  0
    8.4230    2.0050  -56.8660 N   0  0  0  0  0  0  0  0  0  0  0  0
    8.5030    2.8600  -58.0430 C   0  0  2  0  0  0  0  0  0  0  0  0
    9.8020    2.6100  -58.8470 C   0  0  1  0  0  0  0  0  0  0  0  0
    9.7330    3.4300  -60.1510 C   0  0  0  0  0  0  0  0  0  0  0  0
    9.6150    4.9310  -59.8270 C   0  0  2  0  0  0  0  0  0  0  0  0
   10.8450    5.3700  -59.0140 C   0  0  0  0  0  0  0  0  0  0  0  0
   10.9260    4.5630  -57.7070 C   0  0  2  0  0  0  0  0  0  0  0  0
   11.0380    3.0680  -58.0460 C   0  0  0  0  0  0  0  0  0  0  0  0
    9.6510    4.8020  -56.8830 C   0  0  0  0  0  0  0  0  0  0  0  0
    8.4080    4.3630  -57.6820 C   0  0  1  0  0  0  0  0  0  0  0  0
    8.3470    5.1770  -58.9900 C   0  0  0  0  0  0  0  0  0  0  0  0
    8.5320    0.4050  -54.6170 C   0  0  0  0  0  0  0  0  0  0  0  0
    8.6350   -0.3910  -53.4730 C   0  0  0  0  0  0  0  0  0  0  0  0
    7.5305   -1.2222  -50.8327 H   0  0  0  0  0  0  0  0  0  0  0  0
    6.8016   -2.6166  -51.6994 H   0  0  0  0  0  0  0  0  0  0  0  0
    8.5837   -2.3912  -51.6994 H   0  0  0  0  0  0  0  0  0  0  0  0
    5.3793   -1.3764  -53.1976 H   0  0  0  0  0  0  0  0  0  0  0  0
    5.1941    0.0322  -55.2465 H   0  0  0  0  0  0  0  0  0  0  0  0
    9.2810    1.7170  -56.4190 H   0  0  0  0  0  0  0  0  0  0  0  0
    7.6374    2.5940  -58.6675 H   0  0  0  0  0  0  0  0  0  0  0  0
    9.8917    1.5339  -59.0567 H   0  0  0  0  0  0  0  0  0  0  0  0
   10.6460    3.2555  -60.7392 H   0  0  0  0  0  0  0  0  0  0  0  0
    8.8504    3.1158  -60.7275 H   0  0  0  0  0  0  0  0  0  0  0  0
    9.5582    5.5060  -60.7631 H   0  0  0  0  0  0  0  0  0  0  0  0
   11.7550    5.1956  -59.6069 H   0  0  0  0  0  0  0  0  0  0  0  0
   10.7563    6.4397  -58.7734 H   0  0  0  0  0  0  0  0  0  0  0  0
   11.8050    4.8806  -57.1270 H   0  0  0  0  0  0  0  0  0  0  0  0
   11.9437    2.8984  -58.6467 H   0  0  0  0  0  0  0  0  0  0  0  0
   11.0942    2.4910  -57.1112 H   0  0  0  0  0  0  0  0  0  0  0  0
    9.7071    4.2208  -55.9507 H   0  0  0  0  0  0  0  0  0  0  0  0
    9.5687    5.8747  -56.6538 H   0  0  0  0  0  0  0  0  0  0  0  0
    7.5095    4.5342  -57.0710 H   0  0  0  0  0  0  0  0  0  0  0  0
    7.4638    4.8692  -59.5690 H   0  0  0  0  0  0  0  0  0  0  0  0
    8.2801    6.2472  -58.7447 H   0  0  0  0  0  0  0  0  0  0  0  0
    9.4262    0.9020  -55.0211 H   0  0  0  0  0  0  0  0  0  0  0  0
    9.6074   -0.5048  -52.9715 H   0  0  0  0  0  0  0  0  0  0  0  0
  1  2  1  0
  2  3  1  0
  3  4  2  0
  4  5  1  0
  5  6  1  0
  6  7  2  0
  6  8  1  0
  8  9  1  0
  9 10  1  0
 10 11  1  0
 11 12  1  0
 12 13  1  0
 13 14  1  0
 14 15  1  0
 14 16  1  0
 16 17  1  0
 17 18  1  0
  5 19  2  0
 19 20  1  0
 20  2  2  0
 17  9  1  0
 15 10  1  0
 18 12  1  0
  1 21  1  0
  1 22  1  0
  1 23  1  0
  3 24  1  0
  4 25  1  0
  8 26  1  0
  9 27  1  1
 10 28  1  1
 11 29  1  0
 11 30  1  0
 12 31  1  1
 13 32  1  0
 13 33  1  0
 14 34  1  6
 15 35  1  0
 15 36  1  0
 16 37  1  0
 16 38  1  0
 17 39  1  6
 18 40  1  0
 18 41  1  0
 19 42  1  0
 20 43  1  0
M  END
>  <meeko>  (41) 
{"is_sidechain": false}

$$$$

     RDKit          3D

 44 47  0  0  0  0  0  0  0  0999 V2000
    8.5550   -2.6370  -51.8760 C   0  0  0  0  0  0  0  0  0  0  0  0
    7.3880   -1.8300  -51.9790 O   0  0  0  0  0  0  0  0  0  0  0  0
    7.2820   -1.0350  -53.0860 C   0  0  0  0  0  0  0  0  0  0  0  0
    8.4780   -0.4320  -53.4860 C   0  0  0  0  0  0  0  0  0  0  0  0
    8.5200    0.4070  -54.6040 C   0  0  0  0  0  0  0  0  0  0  0  0
    7.3530    0.6410  -55.3400 C   0  0  0  0  0  0  0  0  0  0  0  0
    7.3360    1.5270  -56.5360 C   0  0  0  0  0  0  0  0  0  0  0  0
    6.2790    1.7650  -57.1090 O   0  0  0  0  0  0  0  0  0  0  0  0
    8.5580    2.0130  -56.9540 N   0  0  0  0  0  0  0  0  0  0  0  0
    8.6800    2.8940  -58.1070 C   0  0  2  0  0  0  0  0  0  0  0  0
   10.0030    2.6570  -58.8760 C   0  0  1  0  0  0  0  0  0  0  0  0
    9.9770    3.5070  -60.1620 C   0  0  0  0  0  0  0  0  0  0  0  0
    9.8550    5.0000  -59.8070 C   0  0  2  0  0  0  0  0  0  0  0  0
   11.0600    5.4150  -58.9470 C   0  0  0  0  0  0  0  0  0  0  0  0
   11.0990    4.5770  -57.6570 C   0  0  2  0  0  0  0  0  0  0  0  0
   11.2150    3.0900  -58.0280 C   0  0  0  0  0  0  0  0  0  0  0  0
    9.7990    4.8030  -56.8670 C   0  0  0  0  0  0  0  0  0  0  0  0
    8.5790    4.3890  -57.7150 C   0  0  1  0  0  0  0  0  0  0  0  0
    8.5620    5.2330  -59.0040 C   0  0  0  0  0  0  0  0  0  0  0  0
    6.1510    0.0520  -54.9310 C   0  0  0  0  0  0  0  0  0  0  0  0
    6.1160   -0.7870  -53.8110 C   0  0  0  0  0  0  0  0  0  0  0  0
    8.7940   -2.8023  -50.8151 H   0  0  0  0  0  0  0  0  0  0  0  0
    8.3758   -3.6051  -52.3666 H   0  0  0  0  0  0  0  0  0  0  0  0
    9.3975   -2.1276  -52.3666 H   0  0  0  0  0  0  0  0  0  0  0  0
    9.3984   -0.6200  -52.9137 H   0  0  0  0  0  0  0  0  0  0  0  0
    9.4663    0.8810  -54.9036 H   0  0  0  0  0  0  0  0  0  0  0  0
    9.4020    1.6590  -56.5250 H   0  0  0  0  0  0  0  0  0  0  0  0
    7.8340    2.6455  -58.7646 H   0  0  0  0  0  0  0  0  0  0  0  0
   10.0953    1.5856  -59.1073 H   0  0  0  0  0  0  0  0  0  0  0  0
   10.9068    3.3420  -60.7260 H   0  0  0  0  0  0  0  0  0  0  0  0
    9.1113    3.2102  -60.7723 H   0  0  0  0  0  0  0  0  0  0  0  0
    9.8297    5.5962  -60.7311 H   0  0  0  0  0  0  0  0  0  0  0  0
   11.9872    5.2515  -59.5159 H   0  0  0  0  0  0  0  0  0  0  0  0
   10.9667    6.4790  -58.6839 H   0  0  0  0  0  0  0  0  0  0  0  0
   11.9613    4.8763  -57.0432 H   0  0  0  0  0  0  0  0  0  0  0  0
   12.1378    2.9304  -58.6050 H   0  0  0  0  0  0  0  0  0  0  0  0
   11.2403    2.4909  -57.1058 H   0  0  0  0  0  0  0  0  0  0  0  0
    9.8235    4.1997  -55.9475 H   0  0  0  0  0  0  0  0  0  0  0  0
    9.7142    5.8704  -56.6149 H   0  0  0  0  0  0  0  0  0  0  0  0
    7.6621    4.5507  -57.1293 H   0  0  0  0  0  0  0  0  0  0  0  0
    7.6959    4.9432  -59.6171 H   0  0  0  0  0  0  0  0  0  0  0  0
    8.4919    6.2976  -58.7360 H   0  0  0  0  0  0  0  0  0  0  0  0
    5.2269    0.2499  -55.4939 H   0  0  0  0  0  0  0  0  0  0  0  0
    5.1679   -1.2514  -53.5021 H   0  0  0  0  0  0  0  0  0  0  0  0
  1  2  1  0
  2  3  1  0
  3  4  1  0
  4  5  2  0
  5  6  1  0
  6  7  1  0
  7  8  2  0
  7  9  1  0
  9 10  1  0
 10 11  1  0
 11 12  1  0
 12 13  1  0
 13 14  1  0
 14 15  1  0
 15 16  1  0
 15 17  1  0
 17 18  1  0
 18 19  1  0
  6 20  2  0
 20 21  1  0
 21  3  2  0
 18 10  1  0
 16 11  1  0
 19 13  1  0
  1 22  1  0
  1 23  1  0
  1 24  1  0
  4 25  1  0
  5 26  1  0
  9 27  1  0
 10 28  1  1
 11 29  1  1
 12 30  1  0
 12 31  1  0
 13 32  1  1
 14 33  1  0
 14 34  1  0
 15 35  1  6
 16 36  1  0
 16 37  1  0
 17 38  1  0
 17 39  1  0
 18 40  1  6
 19 41  1  0
 19 42  1  0
 20 43  1  0
 21 44  1  0
M  END
>  <meeko>  (42) 
{"is_sidechain": false}

$$$$

     RDKit          3D

 46 50  0  0  0  0  0  0  0  0999 V2000
    7.3690    0.7340  -55.3780 O   0  0  0  0  0  0  0  0  0  0  0  0
    8.5930    0.7280  -55.3480 C   0  0  0  0  0  0  0  0  0  0  0  0
    9.3930    1.7320  -55.8520 N   0  0  0  0  0  0  0  0  0  0  0  0
    8.8300    2.8690  -56.5650 C   0  0  2  0  0  0  0  0  0  0  0  0
    8.5440    2.5420  -58.0500 C   0  0  1  0  0  0  0  0  0  0  0  0
    7.8030    3.7410  -58.6780 C   0  0  0  0  0  0  0  0  0  0  0  0
    8.6740    5.0080  -58.5880 C   0  0  2  0  0  0  0  0  0  0  0  0
    9.9870    4.7680  -59.3520 C   0  0  0  0  0  0  0  0  0  0  0  0
   10.7440    3.5790  -58.7350 C   0  0  2  0  0  0  0  0  0  0  0  0
    9.8640    2.3210  -58.8160 C   0  0  0  0  0  0  0  0  0  0  0  0
   11.0530    3.8920  -57.2620 C   0  0  0  0  0  0  0  0  0  0  0  0
    9.7440    4.1150  -56.4790 C   0  0  1  0  0  0  0  0  0  0  0  0
    8.9950    5.3060  -57.1110 C   0  0  0  0  0  0  0  0  0  0  0  0
    9.3230   -0.4520  -54.8190 C   0  0  0  0  0  0  0  0  0  0  0  0
   10.4290   -0.8710  -55.5730 C   0  0  0  0  0  0  0  0  0  0  0  0
   11.2130   -1.9270  -55.1260 C   0  0  0  0  0  0  0  0  0  0  0  0
   10.8920   -2.5680  -53.9300 C   0  0  0  0  0  0  0  0  0  0  0  0
    9.7740   -2.1790  -53.1720 C   0  0  0  0  0  0  0  0  0  0  0  0
    9.4630   -2.8530  -51.9800 C   0  0  0  0  0  0  0  0  0  0  0  0
    8.3430   -2.5030  -51.2270 C   0  0  0  0  0  0  0  0  0  0  0  0
    7.5140   -1.4780  -51.6600 C   0  0  0  0  0  0  0  0  0  0  0  0
    7.8110   -0.7950  -52.8400 C   0  0  0  0  0  0  0  0  0  0  0  0
    8.9540   -1.1120  -53.6160 C   0  0  0  0  0  0  0  0  0  0  0  0
   10.3800    1.5320  -55.9540 H   0  0  0  0  0  0  0  0  0  0  0  0
    7.8759    3.0947  -56.0663 H   0  0  0  0  0  0  0  0  0  0  0  0
    7.9368    1.6268  -58.1107 H   0  0  0  0  0  0  0  0  0  0  0  0
    7.5869    3.5224  -59.7342 H   0  0  0  0  0  0  0  0  0  0  0  0
    6.8638    3.9103  -58.1309 H   0  0  0  0  0  0  0  0  0  0  0  0
    8.1348    5.8608  -59.0262 H   0  0  0  0  0  0  0  0  0  0  0  0
    9.7606    4.5486  -60.4058 H   0  0  0  0  0  0  0  0  0  0  0  0
   10.6139    5.6694  -59.2854 H   0  0  0  0  0  0  0  0  0  0  0  0
   11.6821    3.4072  -59.2832 H   0  0  0  0  0  0  0  0  0  0  0  0
    9.6396    2.1022  -59.8704 H   0  0  0  0  0  0  0  0  0  0  0  0
   10.4039    1.4765  -58.3630 H   0  0  0  0  0  0  0  0  0  0  0  0
   11.6022    3.0483  -56.8188 H   0  0  0  0  0  0  0  0  0  0  0  0
   11.6626    4.8061  -57.2096 H   0  0  0  0  0  0  0  0  0  0  0  0
    9.9900    4.3074  -55.4243 H   0  0  0  0  0  0  0  0  0  0  0  0
    8.0570    5.4779  -56.5626 H   0  0  0  0  0  0  0  0  0  0  0  0
    9.6316    6.2013  -57.0552 H   0  0  0  0  0  0  0  0  0  0  0  0
   10.6753   -0.3638  -56.5175 H   0  0  0  0  0  0  0  0  0  0  0  0
   12.0832   -2.2561  -55.7129 H   0  0  0  0  0  0  0  0  0  0  0  0
   11.5255   -3.3934  -53.5731 H   0  0  0  0  0  0  0  0  0  0  0  0
   10.1134   -3.6702  -51.6348 H   0  0  0  0  0  0  0  0  0  0  0  0
    8.1173   -3.0377  -50.2926 H   0  0  0  0  0  0  0  0  0  0  0  0
    6.6242   -1.2043  -51.0740 H   0  0  0  0  0  0  0  0  0  0  0  0
    7.1410    0.0099  -53.1766 H   0  0  0  0  0  0  0  0  0  0  0  0
  1  2  2  0
  2  3  1  0
  3  4  1  0
  4  5  1  0
  5  6  1  0
  6  7  1  0
  7  8  1  0
  8  9  1  0
  9 10  1  0
  9 11  1  0
 11 12  1  0
 12 13  1  0
  2 14  1  0
 14 15  2  0
 15 16  1  0
 16 17  2  0
 17 18  1  0
 18 19  2  0
 19 20  1  0
 20 21  2  0
 21 22  1  0
 22 23  2  0
 12  4  1  0
 23 14  1  0
 10  5  1  0
 23 18  1  0
 13  7  1  0
  3 24  1  0
  4 25  1  6
  5 26  1  6
  6 27  1  0
  6 28  1  0
  7 29  1  1
  8 30  1  0
  8 31  1  0
  9 32  1  1
 10 33  1  0
 10 34  1  0
 11 35  1  0
 11 36  1  0
 12 37  1  6
 13 38  1  0
 13 39  1  0
 15 40  1  0
 16 41  1  0
 17 42  1  0
 19 43  1  0
 20 44  1  0
 21 45  1  0
 22 46  1  0
M  END
>  <meeko>  (43) 
{"is_sidechain": false}

$$$$

     RDKit          3D

 46 49  0  0  0  0  0  0  0  0999 V2000
    5.8410    2.0540  -56.0980 O   0  0  0  0  0  0  0  0  0  0  0  0
    6.8810    1.4040  -56.0960 C   0  0  0  0  0  0  0  0  0  0  0  0
    8.0790    1.9110  -56.5600 N   0  0  0  0  0  0  0  0  0  0  0  0
    8.1550    3.2070  -57.2200 C   0  0  2  0  0  0  0  0  0  0  0  0
    7.8840    3.1020  -58.7420 C   0  0  1  0  0  0  0  0  0  0  0  0
    7.8200    4.5290  -59.3230 C   0  0  0  0  0  0  0  0  0  0  0  0
    9.1570    5.2560  -59.0880 C   0  0  2  0  0  0  0  0  0  0  0  0
   10.2810    4.4720  -59.7880 C   0  0  0  0  0  0  0  0  0  0  0  0
   10.3640    3.0480  -59.2150 C   0  0  2  0  0  0  0  0  0  0  0  0
    9.0220    2.3330  -59.4380 C   0  0  0  0  0  0  0  0  0  0  0  0
   10.6520    3.1300  -57.7060 C   0  0  0  0  0  0  0  0  0  0  0  0
    9.5210    3.8960  -56.9900 C   0  0  1  0  0  0  0  0  0  0  0  0
    9.4490    5.3190  -57.5780 C   0  0  0  0  0  0  0  0  0  0  0  0
    6.9840   -0.0300  -55.5650 C   0  0  0  0  0  0  0  0  0  0  0  0
    8.3410   -0.3070  -54.8990 C   0  0  0  0  0  0  0  0  0  0  0  0
    8.4750    0.3020  -53.5040 C   0  0  0  0  0  0  0  0  0  0  0  0
    7.3040   -0.0670  -52.6020 C   0  0  0  0  0  0  0  0  0  0  0  0
    5.9690    0.2820  -53.2490 C   0  0  0  0  0  0  0  0  0  0  0  0
    5.8240   -0.3770  -54.6190 C   0  0  0  0  0  0  0  0  0  0  0  0
    8.8730    1.2880  -56.6210 H   0  0  0  0  0  0  0  0  0  0  0  0
    7.3666    3.8229  -56.7627 H   0  0  0  0  0  0  0  0  0  0  0  0
    6.9377    2.5665  -58.9085 H   0  0  0  0  0  0  0  0  0  0  0  0
    7.6210    4.4734  -60.4034 H   0  0  0  0  0  0  0  0  0  0  0  0
    7.0143    5.0860  -58.8224 H   0  0  0  0  0  0  0  0  0  0  0  0
    9.1007    6.2770  -59.4934 H   0  0  0  0  0  0  0  0  0  0  0  0
   10.0712    4.4191  -60.8665 H   0  0  0  0  0  0  0  0  0  0  0  0
   11.2389    4.9857  -59.6192 H   0  0  0  0  0  0  0  0  0  0  0  0
   11.1674    2.4895  -59.7177 H   0  0  0  0  0  0  0  0  0  0  0  0
    8.8154    2.2775  -60.5170 H   0  0  0  0  0  0  0  0  0  0  0  0
    9.0815    1.3202  -59.0128 H   0  0  0  0  0  0  0  0  0  0  0  0
   10.7202    2.1127  -57.2931 H   0  0  0  0  0  0  0  0  0  0  0  0
   11.6017    3.6626  -57.5498 H   0  0  0  0  0  0  0  0  0  0  0  0
    9.7340    3.9164  -55.9110 H   0  0  0  0  0  0  0  0  0  0  0  0
    8.6467    5.8795  -57.0758 H   0  0  0  0  0  0  0  0  0  0  0  0
   10.4144    5.8220  -57.4198 H   0  0  0  0  0  0  0  0  0  0  0  0
    6.9081   -0.6905  -56.4413 H   0  0  0  0  0  0  0  0  0  0  0  0
    8.4718   -1.3961  -54.8167 H   0  0  0  0  0  0  0  0  0  0  0  0
    9.1109    0.1611  -55.5300 H   0  0  0  0  0  0  0  0  0  0  0  0
    9.4052   -0.0642  -53.0451 H   0  0  0  0  0  0  0  0  0  0  0  0
    8.4870    1.3966  -53.6123 H   0  0  0  0  0  0  0  0  0  0  0  0
    7.3329   -1.1485  -52.4031 H   0  0  0  0  0  0  0  0  0  0  0  0
    7.3946    0.5056  -51.6672 H   0  0  0  0  0  0  0  0  0  0  0  0
    5.1538   -0.0650  -52.5970 H   0  0  0  0  0  0  0  0  0  0  0  0
    5.9243    1.3729  -53.3833 H   0  0  0  0  0  0  0  0  0  0  0  0
    5.7934   -1.4683  -54.4840 H   0  0  0  0  0  0  0  0  0  0  0  0
    4.8968    0.0005  -55.0749 H   0  0  0  0  0  0  0  0  0  0  0  0
  1  2  2  0
  2  3  1  0
  3  4  1  0
  4  5  1  0
  5  6  1  0
  6  7  1  0
  7  8  1  0
  8  9  1  0
  9 10  1  0
  9 11  1  0
 11 12  1  0
 12 13  1  0
  2 14  1  0
 14 15  1  0
 15 16  1  0
 16 17  1  0
 17 18  1  0
 18 19  1  0
 12  4  1  0
 19 14  1  0
 10  5  1  0
 13  7  1  0
  3 20  1  0
  4 21  1  6
  5 22  1  6
  6 23  1  0
  6 24  1  0
  7 25  1  1
  8 26  1  0
  8 27  1  0
  9 28  1  1
 10 29  1  0
 10 30  1  0
 11 31  1  0
 11 32  1  0
 12 33  1  6
 13 34  1  0
 13 35  1  0
 14 36  1  0
 15 37  1  0
 15 38  1  0
 16 39  1  0
 16 40  1  0
 17 41  1  0
 17 42  1  0
 18 43  1  0
 18 44  1  0
 19 45  1  0
 19 46  1  0
M  END
>  <meeko>  (44) 
{"is_sidechain": false}

$$$$

     RDKit          3D

 40 43  0  0  0  0  0  0  0  0999 V2000
    6.0830    1.5330  -56.9410 O   0  0  0  0  0  0  0  0  0  0  0  0
    7.1780    1.3330  -56.4290 C   0  0  0  0  0  0  0  0  0  0  0  0
    8.3500    1.9060  -56.8790 N   0  0  0  0  0  0  0  0  0  0  0  0
    8.3760    2.7840  -58.0420 C   0  0  2  0  0  0  0  0  0  0  0  0
    9.6470    2.5780  -58.9040 C   0  0  1  0  0  0  0  0  0  0  0  0
    9.5140    3.4290  -60.1820 C   0  0  0  0  0  0  0  0  0  0  0  0
    9.3820    4.9190  -59.8150 C   0  0  2  0  0  0  0  0  0  0  0  0
   10.6380    5.3560  -59.0400 C   0  0  0  0  0  0  0  0  0  0  0  0
   10.7820    4.5200  -57.7570 C   0  0  2  0  0  0  0  0  0  0  0  0
   10.9000    3.0330  -58.1300 C   0  0  0  0  0  0  0  0  0  0  0  0
    9.5360    4.7260  -56.8800 C   0  0  0  0  0  0  0  0  0  0  0  0
    8.2720    4.2750  -57.6390 C   0  0  1  0  0  0  0  0  0  0  0  0
    8.1440    5.1190  -58.9220 C   0  0  0  0  0  0  0  0  0  0  0  0
    7.2910    0.4570  -55.2310 C   0  0  0  0  0  0  0  0  0  0  0  0
    6.1860   -0.2210  -54.7000 C   0  0  0  0  0  0  0  0  0  0  0  0
    6.3390   -1.0300  -53.5700 C   0  0  0  0  0  0  0  0  0  0  0  0
    7.5920   -1.1520  -52.9680 C   0  0  0  0  0  0  0  0  0  0  0  0
    7.7940   -2.2450  -51.4390 Br  0  0  0  0  0  0  0  0  0  0  0  0
    8.6940   -0.4680  -53.4800 C   0  0  0  0  0  0  0  0  0  0  0  0
    8.5410    0.3400  -54.6080 C   0  0  0  0  0  0  0  0  0  0  0  0
    9.1860    1.8230  -56.3190 H   0  0  0  0  0  0  0  0  0  0  0  0
    7.4959    2.5113  -58.6429 H   0  0  0  0  0  0  0  0  0  0  0  0
    9.7489    1.5115  -59.1533 H   0  0  0  0  0  0  0  0  0  0  0  0
   10.4069    3.2864  -60.8085 H   0  0  0  0  0  0  0  0  0  0  0  0
    8.6157    3.1131  -60.7327 H   0  0  0  0  0  0  0  0  0  0  0  0
    9.2763    5.5189  -60.7310 H   0  0  0  0  0  0  0  0  0  0  0  0
   11.5259    5.2086  -59.6724 H   0  0  0  0  0  0  0  0  0  0  0  0
   10.5443    6.4183  -58.7701 H   0  0  0  0  0  0  0  0  0  0  0  0
   11.6810    4.8347  -57.2067 H   0  0  0  0  0  0  0  0  0  0  0  0
   11.7897    2.8858  -58.7599 H   0  0  0  0  0  0  0  0  0  0  0  0
   10.9894    2.4377  -57.2093 H   0  0  0  0  0  0  0  0  0  0  0  0
    9.6378    4.1335  -55.9588 H   0  0  0  0  0  0  0  0  0  0  0  0
    9.4441    5.7935  -56.6309 H   0  0  0  0  0  0  0  0  0  0  0  0
    7.3973    4.4088  -56.9855 H   0  0  0  0  0  0  0  0  0  0  0  0
    7.2442    4.8082  -59.4732 H   0  0  0  0  0  0  0  0  0  0  0  0
    8.0674    6.1813  -58.6469 H   0  0  0  0  0  0  0  0  0  0  0  0
    5.1979   -0.1169  -55.1721 H   0  0  0  0  0  0  0  0  0  0  0  0
    5.4738   -1.5690  -53.1565 H   0  0  0  0  0  0  0  0  0  0  0  0
    9.6780   -0.5645  -52.9979 H   0  0  0  0  0  0  0  0  0  0  0  0
    9.4061    0.8878  -55.0100 H   0  0  0  0  0  0  0  0  0  0  0  0
  1  2  2  0
  2  3  1  0
  3  4  1  0
  4  5  1  0
  5  6  1  0
  6  7  1  0
  7  8  1  0
  8  9  1  0
  9 10  1  0
  9 11  1  0
 11 12  1  0
 12 13  1  0
  2 14  1  0
 14 15  1  0
 15 16  2  0
 16 17  1  0
 17 18  1  0
 17 19  2  0
 19 20  1  0
 12  4  1  0
 20 14  2  0
 10  5  1  0
 13  7  1  0
  3 21  1  0
  4 22  1  1
  5 23  1  1
  6 24  1  0
  6 25  1  0
  7 26  1  1
  8 27  1  0
  8 28  1  0
  9 29  1  6
 10 30  1  0
 10 31  1  0
 11 32  1  0
 11 33  1  0
 12 34  1  6
 13 35  1  0
 13 36  1  0
 15 37  1  0
 16 38  1  0
 19 39  1  0
 20 40  1  0
M  END
>  <meeko>  (45) 
{"is_sidechain": false}

$$$$

     RDKit          3D

 40 43  0  0  0  0  0  0  0  0999 V2000
    6.1930    1.5950  -57.0790 O   0  0  0  0  0  0  0  0  0  0  0  0
    7.2480    1.4450  -56.4740 C   0  0  0  0  0  0  0  0  0  0  0  0
    8.4440    2.0080  -56.8690 N   0  0  0  0  0  0  0  0  0  0  0  0
    8.5350    2.8680  -58.0410 C   0  0  2  0  0  0  0  0  0  0  0  0
    9.8350    2.6130  -58.8420 C   0  0  1  0  0  0  0  0  0  0  0  0
    9.7770    3.4400  -60.1420 C   0  0  0  0  0  0  0  0  0  0  0  0
    9.6680    4.9400  -59.8120 C   0  0  2  0  0  0  0  0  0  0  0  0
   10.8990    5.3660  -58.9930 C   0  0  0  0  0  0  0  0  0  0  0  0
   10.9700    4.5520  -57.6890 C   0  0  2  0  0  0  0  0  0  0  0  0
   11.0710    3.0580  -58.0340 C   0  0  0  0  0  0  0  0  0  0  0  0
    9.6920    4.7970  -56.8680 C   0  0  0  0  0  0  0  0  0  0  0  0
    8.4500    4.3710  -57.6740 C   0  0  1  0  0  0  0  0  0  0  0  0
    8.4000    5.1910  -58.9780 C   0  0  0  0  0  0  0  0  0  0  0  0
    7.2930    0.5880  -55.2580 C   0  0  0  0  0  0  0  0  0  0  0  0
    6.1520   -0.0500  -54.7550 C   0  0  0  0  0  0  0  0  0  0  0  0
    6.2440   -0.8520  -53.6130 C   0  0  0  0  0  0  0  0  0  0  0  0
    7.4760   -1.0220  -52.9810 C   0  0  0  0  0  0  0  0  0  0  0  0
    7.5850   -2.0090  -51.5760 Cl  0  0  0  0  0  0  0  0  0  0  0  0
    8.6200   -0.4050  -53.4840 C   0  0  0  0  0  0  0  0  0  0  0  0
    8.5310    0.3960  -54.6260 C   0  0  0  0  0  0  0  0  0  0  0  0
    9.3000    1.7190  -56.4160 H   0  0  0  0  0  0  0  0  0  0  0  0
    7.6694    2.6106  -58.6690 H   0  0  0  0  0  0  0  0  0  0  0  0
    9.9175    1.5375  -59.0574 H   0  0  0  0  0  0  0  0  0  0  0  0
   10.6912    3.2620  -60.7273 H   0  0  0  0  0  0  0  0  0  0  0  0
    8.8944    3.1347  -60.7232 H   0  0  0  0  0  0  0  0  0  0  0  0
    9.6175    5.5197  -60.7455 H   0  0  0  0  0  0  0  0  0  0  0  0
   11.8094    5.1876  -59.5840 H   0  0  0  0  0  0  0  0  0  0  0  0
   10.8175    6.4352  -58.7476 H   0  0  0  0  0  0  0  0  0  0  0  0
   11.8498    4.8601  -57.1050 H   0  0  0  0  0  0  0  0  0  0  0  0
   11.9778    2.8836  -58.6317 H   0  0  0  0  0  0  0  0  0  0  0  0
   11.1183    2.4767  -57.1013 H   0  0  0  0  0  0  0  0  0  0  0  0
    9.7399    4.2112  -55.9382 H   0  0  0  0  0  0  0  0  0  0  0  0
    9.6167    5.8691  -56.6338 H   0  0  0  0  0  0  0  0  0  0  0  0
    7.5502    4.5463  -57.0661 H   0  0  0  0  0  0  0  0  0  0  0  0
    7.5164    4.8926  -59.5613 H   0  0  0  0  0  0  0  0  0  0  0  0
    8.3408    6.2605  -58.7276 H   0  0  0  0  0  0  0  0  0  0  0  0
    5.1827    0.0799  -55.2587 H   0  0  0  0  0  0  0  0  0  0  0  0
    5.3468   -1.3477  -53.2139 H   0  0  0  0  0  0  0  0  0  0  0  0
    9.5894   -0.5479  -52.9841 H   0  0  0  0  0  0  0  0  0  0  0  0
    9.4338    0.8771  -55.0303 H   0  0  0  0  0  0  0  0  0  0  0  0
  1  2  2  0
  2  3  1  0
  3  4  1  0
  4  5  1  0
  5  6  1  0
  6  7  1  0
  7  8  1  0
  8  9  1  0
  9 10  1  0
  9 11  1  0
 11 12  1  0
 12 13  1  0
  2 14  1  0
 14 15  1  0
 15 16  2  0
 16 17  1  0
 17 18  1  0
 17 19  2  0
 19 20  1  0
 12  4  1  0
 20 14  2  0
 10  5  1  0
 13  7  1  0
  3 21  1  0
  4 22  1  1
  5 23  1  1
  6 24  1  0
  6 25  1  0
  7 26  1  1
  8 27  1  0
  8 28  1  0
  9 29  1  6
 10 30  1  0
 10 31  1  0
 11 32  1  0
 11 33  1  0
 12 34  1  6
 13 35  1  0
 13 36  1  0
 15 37  1  0
 16 38  1  0
 19 39  1  0
 20 40  1  0
M  END
>  <meeko>  (46) 
{"is_sidechain": false}

$$$$

     RDKit          3D

 46 50  0  0  0  0  0  0  0  0999 V2000
    6.1640    1.4740  -56.5620 O   0  0  0  0  0  0  0  0  0  0  0  0
    7.2740    1.2370  -56.1000 C   0  0  0  0  0  0  0  0  0  0  0  0
    8.4430    1.7740  -56.6000 N   0  0  0  0  0  0  0  0  0  0  0  0
    8.4420    2.7050  -57.7210 C   0  0  2  0  0  0  0  0  0  0  0  0
    9.6940    2.5280  -58.6140 C   0  0  1  0  0  0  0  0  0  0  0  0
    9.5390    3.4290  -59.8550 C   0  0  0  0  0  0  0  0  0  0  0  0
    9.4230    4.9030  -59.4270 C   0  0  2  0  0  0  0  0  0  0  0  0
   10.6940    5.3070  -58.6610 C   0  0  0  0  0  0  0  0  0  0  0  0
   10.8620    4.4190  -57.4160 C   0  0  2  0  0  0  0  0  0  0  0  0
   10.9700    2.9500  -57.8570 C   0  0  0  0  0  0  0  0  0  0  0  0
    9.6360    4.5850  -56.5040 C   0  0  0  0  0  0  0  0  0  0  0  0
    8.3520    4.1800  -57.2570 C   0  0  1  0  0  0  0  0  0  0  0  0
    8.2040    5.0760  -58.5030 C   0  0  0  0  0  0  0  0  0  0  0  0
    7.4220    0.2930  -54.9590 C   0  0  0  0  0  0  0  0  0  0  0  0
    6.2990    0.0180  -54.1760 C   0  0  0  0  0  0  0  0  0  0  0  0
    6.3960   -0.8650  -53.0980 C   0  0  0  0  0  0  0  0  0  0  0  0
    7.6180   -1.4760  -52.7810 C   0  0  0  0  0  0  0  0  0  0  0  0
    7.7310   -2.3660  -51.7010 C   0  0  0  0  0  0  0  0  0  0  0  0
    8.9550   -2.9590  -51.3910 C   0  0  0  0  0  0  0  0  0  0  0  0
   10.0820   -2.6700  -52.1550 C   0  0  0  0  0  0  0  0  0  0  0  0
    9.9880   -1.7890  -53.2320 C   0  0  0  0  0  0  0  0  0  0  0  0
    8.7630   -1.1850  -53.5610 C   0  0  0  0  0  0  0  0  0  0  0  0
    8.6530   -0.2960  -54.6440 C   0  0  0  0  0  0  0  0  0  0  0  0
    9.3270    1.4010  -56.2820 H   0  0  0  0  0  0  0  0  0  0  0  0
    7.5435    2.4670  -58.3093 H   0  0  0  0  0  0  0  0  0  0  0  0
    9.7834    1.4695  -58.8997 H   0  0  0  0  0  0  0  0  0  0  0  0
   10.4178    3.3070  -60.5053 H   0  0  0  0  0  0  0  0  0  0  0  0
    8.6279    3.1392  -60.3990 H   0  0  0  0  0  0  0  0  0  0  0  0
    9.3036    5.5362  -60.3185 H   0  0  0  0  0  0  0  0  0  0  0  0
   11.5688    5.1847  -59.3165 H   0  0  0  0  0  0  0  0  0  0  0  0
   10.6077    6.3575  -58.3465 H   0  0  0  0  0  0  0  0  0  0  0  0
   11.7707    4.7125  -56.8700 H   0  0  0  0  0  0  0  0  0  0  0  0
   11.8411    2.8319  -58.5183 H   0  0  0  0  0  0  0  0  0  0  0  0
   11.0868    2.3147  -56.9666 H   0  0  0  0  0  0  0  0  0  0  0  0
    9.7539    3.9453  -55.6170 H   0  0  0  0  0  0  0  0  0  0  0  0
    9.5557    5.6390  -56.1995 H   0  0  0  0  0  0  0  0  0  0  0  0
    7.4896    4.2979  -56.5844 H   0  0  0  0  0  0  0  0  0  0  0  0
    7.2913    4.7933  -59.0481 H   0  0  0  0  0  0  0  0  0  0  0  0
    8.1397    6.1271  -58.1850 H   0  0  0  0  0  0  0  0  0  0  0  0
    5.3366    0.4974  -54.4084 H   0  0  0  0  0  0  0  0  0  0  0  0
    5.5047   -1.0834  -52.4914 H   0  0  0  0  0  0  0  0  0  0  0  0
    6.8445   -2.5983  -51.0926 H   0  0  0  0  0  0  0  0  0  0  0  0
    9.0295   -3.6552  -50.5426 H   0  0  0  0  0  0  0  0  0  0  0  0
   11.0473   -3.1367  -51.9092 H   0  0  0  0  0  0  0  0  0  0  0  0
   10.8831   -1.5645  -53.8306 H   0  0  0  0  0  0  0  0  0  0  0  0
    9.5410   -0.0609  -55.2492 H   0  0  0  0  0  0  0  0  0  0  0  0
  1  2  2  0
  2  3  1  0
  3  4  1  0
  4  5  1  0
  5  6  1  0
  6  7  1  0
  7  8  1  0
  8  9  1  0
  9 10  1  0
  9 11  1  0
 11 12  1  0
 12 13  1  0
  2 14  1  0
 14 15  1  0
 15 16  2  0
 16 17  1  0
 17 18  2  0
 18 19  1  0
 19 20  2  0
 20 21  1  0
 21 22  2  0
 22 23  1  0
 12  4  1  0
 23 14  2  0
 10  5  1  0
 22 17  1  0
 13  7  1  0
  3 24  1  0
  4 25  1  1
  5 26  1  1
  6 27  1  0
  6 28  1  0
  7 29  1  1
  8 30  1  0
  8 31  1  0
  9 32  1  6
 10 33  1  0
 10 34  1  0
 11 35  1  0
 11 36  1  0
 12 37  1  6
 13 38  1  0
 13 39  1  0
 15 40  1  0
 16 41  1  0
 18 42  1  0
 19 43  1  0
 20 44  1  0
 21 45  1  0
 23 46  1  0
M  END
>  <meeko>  (47) 
{"is_sidechain": false}

$$$$

     RDKit          3D

 44 47  0  0  0  0  0  0  0  0999 V2000
    6.0030    1.5800  -56.4990 O   0  0  0  0  0  0  0  0  0  0  0  0
    7.1160    1.2400  -56.1160 C   0  0  0  0  0  0  0  0  0  0  0  0
    7.2520    0.2620  -55.0110 C   0  0  0  0  0  0  0  0  0  0  0  0
    8.4130    0.0050  -54.3870 C   0  0  0  0  0  0  0  0  0  0  0  0
    8.5570   -0.9890  -53.3140 C   0  0  0  0  0  0  0  0  0  0  0  0
    9.6930   -1.8100  -53.3010 C   0  0  0  0  0  0  0  0  0  0  0  0
    9.8550   -2.7840  -52.3130 C   0  0  0  0  0  0  0  0  0  0  0  0
    8.8780   -2.9580  -51.3360 C   0  0  0  0  0  0  0  0  0  0  0  0
    7.7350   -2.1600  -51.3480 C   0  0  0  0  0  0  0  0  0  0  0  0
    7.5730   -1.1840  -52.3350 C   0  0  0  0  0  0  0  0  0  0  0  0
    8.2960    1.7450  -56.5980 N   0  0  0  0  0  0  0  0  0  0  0  0
    8.3350    2.6820  -57.7110 C   0  0  2  0  0  0  0  0  0  0  0  0
    9.5730    2.4640  -58.6140 C   0  0  1  0  0  0  0  0  0  0  0  0
    9.4470    3.3850  -59.8450 C   0  0  0  0  0  0  0  0  0  0  0  0
    9.3870    4.8570  -59.4020 C   0  0  2  0  0  0  0  0  0  0  0  0
   10.6790    5.2030  -58.6420 C   0  0  0  0  0  0  0  0  0  0  0  0
   10.8200    4.3000  -57.4040 C   0  0  2  0  0  0  0  0  0  0  0  0
   10.8630    2.8290  -57.8540 C   0  0  0  0  0  0  0  0  0  0  0  0
    9.6060    4.5150  -56.4860 C   0  0  0  0  0  0  0  0  0  0  0  0
    8.3050    4.1530  -57.2310 C   0  0  1  0  0  0  0  0  0  0  0  0
    8.1800    5.0640  -58.4680 C   0  0  0  0  0  0  0  0  0  0  0  0
    6.3538   -0.2826  -54.6844 H   0  0  0  0  0  0  0  0  0  0  0  0
    9.3052    0.5694  -54.6959 H   0  0  0  0  0  0  0  0  0  0  0  0
   10.4639   -1.6861  -54.0759 H   0  0  0  0  0  0  0  0  0  0  0  0
   10.7561   -3.4149  -52.3066 H   0  0  0  0  0  0  0  0  0  0  0  0
    9.0079   -3.7233  -50.5566 H   0  0  0  0  0  0  0  0  0  0  0  0
    6.9599   -2.2987  -50.5799 H   0  0  0  0  0  0  0  0  0  0  0  0
    6.6650   -0.5631  -52.3437 H   0  0  0  0  0  0  0  0  0  0  0  0
    9.1650    1.4530  -56.1720 H   0  0  0  0  0  0  0  0  0  0  0  0
    7.4288    2.4826  -58.3019 H   0  0  0  0  0  0  0  0  0  0  0  0
    9.6212    1.4074  -58.9160 H   0  0  0  0  0  0  0  0  0  0  0  0
   10.3184    3.2377  -60.4999 H   0  0  0  0  0  0  0  0  0  0  0  0
    8.5234    3.1351  -60.3877 H   0  0  0  0  0  0  0  0  0  0  0  0
    9.2837    5.5058  -60.2842 H   0  0  0  0  0  0  0  0  0  0  0  0
   11.5435    5.0499  -59.3048 H   0  0  0  0  0  0  0  0  0  0  0  0
   10.6374    6.2538  -58.3193 H   0  0  0  0  0  0  0  0  0  0  0  0
   11.7448    4.5483  -56.8625 H   0  0  0  0  0  0  0  0  0  0  0  0
   11.7289    2.6770  -58.5151 H   0  0  0  0  0  0  0  0  0  0  0  0
   10.9492    2.1856  -56.9659 H   0  0  0  0  0  0  0  0  0  0  0  0
    9.7053    3.8757  -55.5963 H   0  0  0  0  0  0  0  0  0  0  0  0
    9.5656    5.5724  -56.1856 H   0  0  0  0  0  0  0  0  0  0  0  0
    7.4548    4.2886  -56.5463 H   0  0  0  0  0  0  0  0  0  0  0  0
    7.2547    4.8176  -59.0093 H   0  0  0  0  0  0  0  0  0  0  0  0
    8.1539    6.1139  -58.1407 H   0  0  0  0  0  0  0  0  0  0  0  0
  1  2  2  0
  2  3  1  0
  3  4  2  0
  4  5  1  0
  5  6  2  0
  6  7  1  0
  7  8  2  0
  8  9  1  0
  9 10  2  0
  2 11  1  0
 11 12  1  0
 12 13  1  0
 13 14  1  0
 14 15  1  0
 15 16  1  0
 16 17  1  0
 17 18  1  0
 17 19  1  0
 19 20  1  0
 20 21  1  0
 10  5  1  0
 20 12  1  0
 18 13  1  0
 21 15  1  0
  3 22  1  0
  4 23  1  0
  6 24  1  0
  7 25  1  0
  8 26  1  0
  9 27  1  0
 10 28  1  0
 11 29  1  0
 12 30  1  1
 13 31  1  1
 14 32  1  0
 14 33  1  0
 15 34  1  1
 16 35  1  0
 16 36  1  0
 17 37  1  6
 18 38  1  0
 18 39  1  0
 19 40  1  0
 19 41  1  0
 20 42  1  6
 21 43  1  0
 21 44  1  0
M  END
>  <meeko>  (48) 
{"is_sidechain": false}

$$$$

     RDKit          3D

 40 43  0  0  0  0  0  0  0  0999 V2000
    6.2540    1.4960  -57.2330 O   0  0  0  0  0  0  0  0  0  0  0  0
    7.2670    1.4320  -56.5470 C   0  0  0  0  0  0  0  0  0  0  0  0
    8.4520    2.0610  -56.8700 N   0  0  0  0  0  0  0  0  0  0  0  0
    8.5790    2.8900  -58.0610 C   0  0  2  0  0  0  0  0  0  0  0  0
    9.8980    2.6060  -58.8220 C   0  0  1  0  0  0  0  0  0  0  0  0
    9.8780    3.4000  -60.1430 C   0  0  0  0  0  0  0  0  0  0  0  0
    9.7740    4.9090  -59.8540 C   0  0  2  0  0  0  0  0  0  0  0  0
   10.9860    5.3460  -59.0140 C   0  0  0  0  0  0  0  0  0  0  0  0
   11.0180    4.5640  -57.6890 C   0  0  2  0  0  0  0  0  0  0  0  0
   11.1170    3.0610  -57.9950 C   0  0  0  0  0  0  0  0  0  0  0  0
    9.7230    4.8400  -56.9070 C   0  0  0  0  0  0  0  0  0  0  0  0
    8.4980    4.4020  -57.7330 C   0  0  1  0  0  0  0  0  0  0  0  0
    8.4860    5.1890  -59.0580 C   0  0  0  0  0  0  0  0  0  0  0  0
    7.2730    0.6150  -55.3020 C   0  0  0  0  0  0  0  0  0  0  0  0
    6.1030    0.0340  -54.7910 C   0  0  0  0  0  0  0  0  0  0  0  0
    6.1600   -0.7290  -53.6220 C   0  0  0  0  0  0  0  0  0  0  0  0
    7.3800   -0.9150  -52.9790 C   0  0  0  0  0  0  0  0  0  0  0  0
    7.4280   -1.6490  -51.8590 F   0  0  0  0  0  0  0  0  0  0  0  0
    8.5490   -0.3590  -53.4840 C   0  0  0  0  0  0  0  0  0  0  0  0
    8.4970    0.4050  -54.6530 C   0  0  0  0  0  0  0  0  0  0  0  0
    9.2860    1.8400  -56.3450 H   0  0  0  0  0  0  0  0  0  0  0  0
    7.7277    2.6228  -58.7043 H   0  0  0  0  0  0  0  0  0  0  0  0
    9.9783    1.5248  -59.0077 H   0  0  0  0  0  0  0  0  0  0  0  0
   10.8043    3.1998  -60.7015 H   0  0  0  0  0  0  0  0  0  0  0  0
    9.0067    3.0871  -60.7371 H   0  0  0  0  0  0  0  0  0  0  0  0
    9.7533    5.4658  -60.8024 H   0  0  0  0  0  0  0  0  0  0  0  0
   11.9100    5.1470  -59.5768 H   0  0  0  0  0  0  0  0  0  0  0  0
   10.9056    6.4213  -58.7966 H   0  0  0  0  0  0  0  0  0  0  0  0
   11.8851    4.8792  -57.0900 H   0  0  0  0  0  0  0  0  0  0  0  0
   12.0369    2.8660  -58.5658 H   0  0  0  0  0  0  0  0  0  0  0  0
   11.1378    2.5019  -57.0479 H   0  0  0  0  0  0  0  0  0  0  0  0
    9.7431    4.2784  -55.9614 H   0  0  0  0  0  0  0  0  0  0  0  0
    9.6506    5.9184  -56.7024 H   0  0  0  0  0  0  0  0  0  0  0  0
    7.5856    4.5988  -57.1510 H   0  0  0  0  0  0  0  0  0  0  0  0
    7.6153    4.8812  -59.6556 H   0  0  0  0  0  0  0  0  0  0  0  0
    8.4277    6.2648  -58.8362 H   0  0  0  0  0  0  0  0  0  0  0  0
    5.1435    0.1787  -55.3091 H   0  0  0  0  0  0  0  0  0  0  0  0
    5.2447   -1.1806  -53.2118 H   0  0  0  0  0  0  0  0  0  0  0  0
    9.5072   -0.5189  -52.9680 H   0  0  0  0  0  0  0  0  0  0  0  0
    9.4187    0.8423  -55.0644 H   0  0  0  0  0  0  0  0  0  0  0  0
  1  2  2  0
  2  3  1  0
  3  4  1  0
  4  5  1  0
  5  6  1  0
  6  7  1  0
  7  8  1  0
  8  9  1  0
  9 10  1  0
  9 11  1  0
 11 12  1  0
 12 13  1  0
  2 14  1  0
 14 15  1  0
 15 16  2  0
 16 17  1  0
 17 18  1  0
 17 19  2  0
 19 20  1  0
 12  4  1  0
 20 14  2  0
 10  5  1  0
 13  7  1  0
  3 21  1  0
  4 22  1  1
  5 23  1  1
  6 24  1  0
  6 25  1  0
  7 26  1  1
  8 27  1  0
  8 28  1  0
  9 29  1  6
 10 30  1  0
 10 31  1  0
 11 32  1  0
 11 33  1  0
 12 34  1  6
 13 35  1  0
 13 36  1  0
 15 37  1  0
 16 38  1  0
 19 39  1  0
 20 40  1  0
M  END
>  <meeko>  (49) 
{"is_sidechain": false}

$$$$

     RDKit          3D

 43 46  0  0  0  0  0  0  0  0999 V2000
    6.5860    1.5300  -58.7010 O   0  0  0  0  0  0  0  0  0  0  0  0
    6.8000    2.0850  -57.6270 C   0  0  0  0  0  0  0  0  0  0  0  0
    6.0460    1.7100  -56.3610 C   0  0  0  0  0  0  0  0  0  0  0  0
    6.7670    0.6950  -55.5040 C   0  0  0  0  0  0  0  0  0  0  0  0
    6.0480   -0.3120  -54.8450 C   0  0  0  0  0  0  0  0  0  0  0  0
    6.7130   -1.2650  -54.0730 C   0  0  0  0  0  0  0  0  0  0  0  0
    8.1010   -1.2190  -53.9500 C   0  0  0  0  0  0  0  0  0  0  0  0
    8.8230   -0.2180  -54.5950 C   0  0  0  0  0  0  0  0  0  0  0  0
    8.1610    0.7370  -55.3680 C   0  0  0  0  0  0  0  0  0  0  0  0
    7.6920    3.1310  -57.4770 N   0  0  0  0  0  0  0  0  0  0  0  0
    8.5930    3.5170  -58.5530 C   0  0  2  0  0  0  0  0  0  0  0  0
    9.6090    2.4010  -58.8960 C   0  0  1  0  0  0  0  0  0  0  0  0
   10.4040    2.8330  -60.1440 C   0  0  0  0  0  0  0  0  0  0  0  0
   11.1590    4.1450  -59.8630 C   0  0  2  0  0  0  0  0  0  0  0  0
   12.1340    3.9210  -58.6940 C   0  0  0  0  0  0  0  0  0  0  0  0
   11.3570    3.4960  -57.4360 C   0  0  2  0  0  0  0  0  0  0  0  0
   10.5950    2.1920  -57.7290 C   0  0  0  0  0  0  0  0  0  0  0  0
   10.3530    4.6010  -57.0680 C   0  0  0  0  0  0  0  0  0  0  0  0
    9.3580    4.8220  -58.2250 C   0  0  1  0  0  0  0  0  0  0  0  0
   10.1520    5.2440  -59.4770 C   0  0  0  0  0  0  0  0  0  0  0  0
    5.8925    2.6217  -55.7650 H   0  0  0  0  0  0  0  0  0  0  0  0
    5.0974    1.2503  -56.6754 H   0  0  0  0  0  0  0  0  0  0  0  0
    4.9526   -0.3510  -54.9372 H   0  0  0  0  0  0  0  0  0  0  0  0
    6.1417   -2.0533  -53.5609 H   0  0  0  0  0  0  0  0  0  0  0  0
    8.6253   -1.9726  -53.3441 H   0  0  0  0  0  0  0  0  0  0  0  0
    9.9178   -0.1799  -54.4950 H   0  0  0  0  0  0  0  0  0  0  0  0
    8.7365    1.5267  -55.8731 H   0  0  0  0  0  0  0  0  0  0  0  0
    7.9700    3.3520  -56.5280 H   0  0  0  0  0  0  0  0  0  0  0  0
    7.9531    3.6893  -59.4310 H   0  0  0  0  0  0  0  0  0  0  0  0
    9.0676    1.4611  -59.0793 H   0  0  0  0  0  0  0  0  0  0  0  0
   11.1269    2.0461  -60.4051 H   0  0  0  0  0  0  0  0  0  0  0  0
    9.7053    2.9916  -60.9786 H   0  0  0  0  0  0  0  0  0  0  0  0
   11.7134    4.4533  -60.7617 H   0  0  0  0  0  0  0  0  0  0  0  0
   12.8509    3.1315  -58.9636 H   0  0  0  0  0  0  0  0  0  0  0  0
   12.6718    4.8580  -58.4873 H   0  0  0  0  0  0  0  0  0  0  0  0
   12.0553    3.3361  -56.6013 H   0  0  0  0  0  0  0  0  0  0  0  0
   11.3138    1.4038  -57.9976 H   0  0  0  0  0  0  0  0  0  0  0  0
   10.0312    1.8969  -56.8318 H   0  0  0  0  0  0  0  0  0  0  0  0
    9.8000    4.3036  -56.1648 H   0  0  0  0  0  0  0  0  0  0  0  0
   10.9007    5.5365  -56.8815 H   0  0  0  0  0  0  0  0  0  0  0  0
    8.6348    5.5957  -57.9278 H   0  0  0  0  0  0  0  0  0  0  0  0
    9.4545    5.4072  -60.3118 H   0  0  0  0  0  0  0  0  0  0  0  0
   10.6999    6.1725  -59.2587 H   0  0  0  0  0  0  0  0  0  0  0  0
  1  2  2  0
  2  3  1  0
  3  4  1  0
  4  5  2  0
  5  6  1  0
  6  7  2  0
  7  8  1  0
  8  9  2  0
  2 10  1  0
 10 11  1  0
 11 12  1  0
 12 13  1  0
 13 14  1  0
 14 15  1  0
 15 16  1  0
 16 17  1  0
 16 18  1  0
 18 19  1  0
 19 20  1  0
  9  4  1  0
 19 11  1  0
 17 12  1  0
 20 14  1  0
  3 21  1  0
  3 22  1  0
  5 23  1  0
  6 24  1  0
  7 25  1  0
  8 26  1  0
  9 27  1  0
 10 28  1  0
 11 29  1  1
 12 30  1  1
 13 31  1  0
 13 32  1  0
 14 33  1  1
 15 34  1  0
 15 35  1  0
 16 36  1  6
 17 37  1  0
 17 38  1  0
 18 39  1  0
 18 40  1  0
 19 41  1  6
 20 42  1  0
 20 43  1  0
M  END
>  <meeko>  (50) 
{"is_sidechain": false}

$$$$

     RDKit          3D

 40 43  0  0  0  0  0  0  0  0999 V2000
    6.3620    1.1830  -58.6410 O   0  0  0  0  0  0  0  0  0  0  0  0
    6.2740    2.1290  -59.4180 C   0  0  0  0  0  0  0  0  0  0  0  0
    7.1060    3.2230  -59.3550 N   0  0  0  0  0  0  0  0  0  0  0  0
    8.1960    3.3160  -58.3940 C   0  0  2  0  0  0  0  0  0  0  0  0
    8.3570    4.7510  -57.8370 C   0  0  1  0  0  0  0  0  0  0  0  0
    9.4140    4.7170  -56.7140 C   0  0  0  0  0  0  0  0  0  0  0  0
   10.7650    4.2300  -57.2720 C   0  0  2  0  0  0  0  0  0  0  0  0
   11.2290    5.1920  -58.3800 C   0  0  0  0  0  0  0  0  0  0  0  0
   10.1860    5.2350  -59.5090 C   0  0  2  0  0  0  0  0  0  0  0  0
    8.8450    5.7180  -58.9350 C   0  0  0  0  0  0  0  0  0  0  0  0
   10.0110    3.8220  -60.0920 C   0  0  0  0  0  0  0  0  0  0  0  0
    9.5430    2.8460  -58.9950 C   0  0  1  0  0  0  0  0  0  0  0  0
   10.5960    2.8220  -57.8690 C   0  0  0  0  0  0  0  0  0  0  0  0
    5.2650    2.0880  -60.5190 C   0  0  0  0  0  0  0  0  0  0  0  0
    3.9270    1.9120  -60.1150 C   0  0  0  0  0  0  0  0  0  0  0  0
    2.8930    1.8480  -61.0510 C   0  0  0  0  0  0  0  0  0  0  0  0
    3.1780    1.9640  -62.4070 C   0  0  0  0  0  0  0  0  0  0  0  0
    4.4970    2.1500  -62.8230 C   0  0  0  0  0  0  0  0  0  0  0  0
    5.5410    2.2160  -61.8880 C   0  0  0  0  0  0  0  0  0  0  0  0
    7.1210    2.4930  -62.5360 Cl  0  0  0  0  0  0  0  0  0  0  0  0
    7.0240    3.9370  -60.0680 H   0  0  0  0  0  0  0  0  0  0  0  0
    7.9249    2.6434  -57.5669 H   0  0  0  0  0  0  0  0  0  0  0  0
    7.3830    5.1007  -57.4640 H   0  0  0  0  0  0  0  0  0  0  0  0
    9.5355    5.7281  -56.2982 H   0  0  0  0  0  0  0  0  0  0  0  0
    9.0799    4.0256  -55.9264 H   0  0  0  0  0  0  0  0  0  0  0  0
   11.5090    4.2017  -56.4622 H   0  0  0  0  0  0  0  0  0  0  0  0
   11.3519    6.2007  -57.9588 H   0  0  0  0  0  0  0  0  0  0  0  0
   12.1879    4.8387  -58.7871 H   0  0  0  0  0  0  0  0  0  0  0  0
   10.5207    5.9215  -60.3007 H   0  0  0  0  0  0  0  0  0  0  0  0
    8.9746    6.7217  -58.5040 H   0  0  0  0  0  0  0  0  0  0  0  0
    8.0992    5.7499  -59.7429 H   0  0  0  0  0  0  0  0  0  0  0  0
    9.2608    3.8513  -60.8960 H   0  0  0  0  0  0  0  0  0  0  0  0
   10.9764    3.4768  -60.4905 H   0  0  0  0  0  0  0  0  0  0  0  0
    9.4166    1.8463  -59.4363 H   0  0  0  0  0  0  0  0  0  0  0  0
   10.2688    2.1292  -57.0797 H   0  0  0  0  0  0  0  0  0  0  0  0
   11.5589    2.4893  -58.2840 H   0  0  0  0  0  0  0  0  0  0  0  0
    3.6929    1.8235  -59.0439 H   0  0  0  0  0  0  0  0  0  0  0  0
    1.8548    1.7061  -60.7163 H   0  0  0  0  0  0  0  0  0  0  0  0
    2.3674    1.9094  -63.1485 H   0  0  0  0  0  0  0  0  0  0  0  0
    4.7206    2.2459  -63.8957 H   0  0  0  0  0  0  0  0  0  0  0  0
  1  2  2  0
  2  3  1  0
  3  4  1  0
  4  5  1  0
  5  6  1  0
  6  7  1  0
  7  8  1  0
  8  9  1  0
  9 10  1  0
  9 11  1  0
 11 12  1  0
 12 13  1  0
  2 14  1  0
 14 15  2  0
 15 16  1  0
 16 17  2  0
 17 18  1  0
 18 19  2  0
 19 20  1  0
 12  4  1  0
 19 14  1  0
 10  5  1  0
 13  7  1  0
  3 21  1  0
  4 22  1  6
  5 23  1  6
  6 24  1  0
  6 25  1  0
  7 26  1  6
  8 27  1  0
  8 28  1  0
  9 29  1  1
 10 30  1  0
 10 31  1  0
 11 32  1  0
 11 33  1  0
 12 34  1  1
 13 35  1  0
 13 36  1  0
 15 37  1  0
 16 38  1  0
 17 39  1  0
 18 40  1  0
M  END
>  <meeko>  (51) 
{"is_sidechain": false}

$$$$

     RDKit          3D

 43 46  0  0  0  0  0  0  0  0999 V2000
    7.0010    2.5390  -62.2910 C   0  0  0  0  0  0  0  0  0  0  0  0
    5.5840    2.2650  -61.8710 C   0  0  0  0  0  0  0  0  0  0  0  0
    4.5900    2.1610  -62.8570 C   0  0  0  0  0  0  0  0  0  0  0  0
    3.2540    1.9470  -62.5080 C   0  0  0  0  0  0  0  0  0  0  0  0
    2.8900    1.8350  -61.1690 C   0  0  0  0  0  0  0  0  0  0  0  0
    3.8630    1.9190  -60.1760 C   0  0  0  0  0  0  0  0  0  0  0  0
    5.2080    2.1110  -60.5240 C   0  0  0  0  0  0  0  0  0  0  0  0
    6.1830    2.1480  -59.4050 C   0  0  0  0  0  0  0  0  0  0  0  0
    6.2840    1.1940  -58.6450 O   0  0  0  0  0  0  0  0  0  0  0  0
    6.9740    3.2750  -59.3550 N   0  0  0  0  0  0  0  0  0  0  0  0
    8.0340    3.4270  -58.3690 C   0  0  2  0  0  0  0  0  0  0  0  0
    8.2740    4.9080  -57.9810 C   0  0  1  0  0  0  0  0  0  0  0  0
    9.2860    4.9450  -56.8180 C   0  0  0  0  0  0  0  0  0  0  0  0
   10.6180    4.3060  -57.2520 C   0  0  2  0  0  0  0  0  0  0  0  0
   11.1870    5.0930  -58.4440 C   0  0  0  0  0  0  0  0  0  0  0  0
   10.1930    5.0610  -59.6170 C   0  0  2  0  0  0  0  0  0  0  0  0
    8.8630    5.6900  -59.1710 C   0  0  0  0  0  0  0  0  0  0  0  0
    9.9490    3.6010  -60.0320 C   0  0  0  0  0  0  0  0  0  0  0  0
    9.3640    2.8030  -58.8500 C   0  0  1  0  0  0  0  0  0  0  0  0
   10.3710    2.8470  -57.6830 C   0  0  0  0  0  0  0  0  0  0  0  0
    7.6312    2.6609  -61.3977 H   0  0  0  0  0  0  0  0  0  0  0  0
    7.3749    1.6965  -62.8913 H   0  0  0  0  0  0  0  0  0  0  0  0
    7.0339    3.4601  -62.8913 H   0  0  0  0  0  0  0  0  0  0  0  0
    4.8665    2.2491  -63.9180 H   0  0  0  0  0  0  0  0  0  0  0  0
    2.4879    1.8668  -63.2933 H   0  0  0  0  0  0  0  0  0  0  0  0
    1.8358    1.6804  -60.8957 H   0  0  0  0  0  0  0  0  0  0  0  0
    3.5762    1.8346  -59.1174 H   0  0  0  0  0  0  0  0  0  0  0  0
    6.8860    3.9580  -60.0960 H   0  0  0  0  0  0  0  0  0  0  0  0
    7.6869    2.8858  -57.4765 H   0  0  0  0  0  0  0  0  0  0  0  0
    7.3176    5.3672  -57.6904 H   0  0  0  0  0  0  0  0  0  0  0  0
    9.4632    5.9899  -56.5235 H   0  0  0  0  0  0  0  0  0  0  0  0
    8.8767    4.3796  -55.9678 H   0  0  0  0  0  0  0  0  0  0  0  0
   11.3291    4.3275  -56.4130 H   0  0  0  0  0  0  0  0  0  0  0  0
   11.3610    6.1364  -58.1421 H   0  0  0  0  0  0  0  0  0  0  0  0
   12.1349    4.6337  -58.7609 H   0  0  0  0  0  0  0  0  0  0  0  0
   10.6030    5.6255  -60.4674 H   0  0  0  0  0  0  0  0  0  0  0  0
    9.0382    6.7330  -58.8687 H   0  0  0  0  0  0  0  0  0  0  0  0
    8.1517    5.6550  -60.0094 H   0  0  0  0  0  0  0  0  0  0  0  0
    9.2410    3.5758  -60.8735 H   0  0  0  0  0  0  0  0  0  0  0  0
   10.9054    3.1484  -60.3327 H   0  0  0  0  0  0  0  0  0  0  0  0
    9.1767    1.7697  -59.1776 H   0  0  0  0  0  0  0  0  0  0  0  0
    9.9666    2.2796  -56.8318 H   0  0  0  0  0  0  0  0  0  0  0  0
   11.3222    2.4023  -58.0110 H   0  0  0  0  0  0  0  0  0  0  0  0
  1  2  1  0
  2  3  2  0
  3  4  1  0
  4  5  2  0
  5  6  1  0
  6  7  2  0
  7  8  1  0
  8  9  2  0
  8 10  1  0
 10 11  1  0
 11 12  1  0
 12 13  1  0
 13 14  1  0
 14 15  1  0
 15 16  1  0
 16 17  1  0
 16 18  1  0
 18 19  1  0
 19 20  1  0
  7  2  1  0
 19 11  1  0
 17 12  1  0
 20 14  1  0
  1 21  1  0
  1 22  1  0
  1 23  1  0
  3 24  1  0
  4 25  1  0
  5 26  1  0
  6 27  1  0
 10 28  1  0
 11 29  1  6
 12 30  1  6
 13 31  1  0
 13 32  1  0
 14 33  1  6
 15 34  1  0
 15 35  1  0
 16 36  1  1
 17 37  1  0
 17 38  1  0
 18 39  1  0
 18 40  1  0
 19 41  1  1
 20 42  1  0
 20 43  1  0
M  END
>  <meeko>  (52) 
{"is_sidechain": false}

$$$$

     RDKit          3D

 48 52  0  0  0  0  0  0  0  0999 V2000
    6.3170    2.3840  -59.3480 C   0  0  0  0  0  0  0  0  0  0  0  0
    7.0850    3.4880  -58.6070 C   0  0  2  0  0  0  0  0  0  0  0  0
    7.7680    4.4720  -59.5950 C   0  0  2  0  0  0  0  0  0  0  0  0
    8.9210    3.7850  -60.3480 C   0  0  0  0  0  0  0  0  0  0  0  0
    9.9720    3.2740  -59.3520 C   0  0  1  0  0  0  0  0  0  0  0  0
   10.5330    4.4630  -58.5580 C   0  0  0  0  0  0  0  0  0  0  0  0
    9.3980    5.1610  -57.7930 C   0  0  1  0  0  0  0  0  0  0  0  0
    8.3420    5.6570  -58.7950 C   0  0  0  0  0  0  0  0  0  0  0  0
    8.7490    4.1590  -56.8240 C   0  0  0  0  0  0  0  0  0  0  0  0
    8.1500    2.9500  -57.5950 C   0  0  1  0  0  0  0  0  0  0  0  0
    7.5960    1.9610  -56.6620 N   0  0  0  0  0  0  0  0  0  0  0  0
    8.3340    1.1660  -55.7940 C   0  0  0  0  0  0  0  0  0  0  0  0
    9.5590    1.2260  -55.7350 O   0  0  0  0  0  0  0  0  0  0  0  0
    7.5250    0.2780  -54.9750 C   0  0  0  0  0  0  0  0  0  0  0  0
    6.2150    0.1440  -55.0020 N   0  0  0  0  0  0  0  0  0  0  0  0
    5.9020   -0.8100  -54.0540 N   0  0  0  0  0  0  0  0  0  0  0  0
    7.0400   -1.1950  -53.5130 C   0  0  0  0  0  0  0  0  0  0  0  0
    7.2930   -2.1770  -52.4660 C   0  0  0  0  0  0  0  0  0  0  0  0
    7.7910   -1.8090  -51.2060 C   0  0  0  0  0  0  0  0  0  0  0  0
    8.0240   -2.7740  -50.2210 C   0  0  0  0  0  0  0  0  0  0  0  0
    7.7640   -4.1170  -50.4840 C   0  0  0  0  0  0  0  0  0  0  0  0
    7.2700   -4.4980  -51.7290 C   0  0  0  0  0  0  0  0  0  0  0  0
    7.0370   -3.5340  -52.7140 C   0  0  0  0  0  0  0  0  0  0  0  0
    8.1240   -0.5450  -54.0480 O   0  0  0  0  0  0  0  0  0  0  0  0
    9.3180    2.2830  -58.3760 C   0  0  0  0  0  0  0  0  0  0  0  0
    5.8478    1.7095  -58.6166 H   0  0  0  0  0  0  0  0  0  0  0  0
    5.5392    2.8387  -59.9791 H   0  0  0  0  0  0  0  0  0  0  0  0
    7.0138    1.8129  -59.9791 H   0  0  0  0  0  0  0  0  0  0  0  0
    6.3181    4.0184  -58.0235 H   0  0  0  0  0  0  0  0  0  0  0  0
    7.0200    4.8131  -60.3258 H   0  0  0  0  0  0  0  0  0  0  0  0
    8.5242    2.9368  -60.9252 H   0  0  0  0  0  0  0  0  0  0  0  0
    9.3915    4.5121  -61.0262 H   0  0  0  0  0  0  0  0  0  0  0  0
   10.7825    2.7710  -59.8998 H   0  0  0  0  0  0  0  0  0  0  0  0
   11.2867    4.1014  -57.8430 H   0  0  0  0  0  0  0  0  0  0  0  0
   10.9951    5.1785  -59.2541 H   0  0  0  0  0  0  0  0  0  0  0  0
    9.8009    6.0142  -57.2276 H   0  0  0  0  0  0  0  0  0  0  0  0
    7.5275    6.1543  -58.2479 H   0  0  0  0  0  0  0  0  0  0  0  0
    8.8140    6.3650  -59.4921 H   0  0  0  0  0  0  0  0  0  0  0  0
    9.5108    3.7948  -56.1190 H   0  0  0  0  0  0  0  0  0  0  0  0
    7.9373    4.6681  -56.2837 H   0  0  0  0  0  0  0  0  0  0  0  0
    6.5890    1.8490  -56.6300 H   0  0  0  0  0  0  0  0  0  0  0  0
    8.0001   -0.7506  -50.9913 H   0  0  0  0  0  0  0  0  0  0  0  0
    8.4131   -2.4722  -49.2374 H   0  0  0  0  0  0  0  0  0  0  0  0
    7.9487   -4.8756  -49.7092 H   0  0  0  0  0  0  0  0  0  0  0  0
    7.0630   -5.5581  -51.9374 H   0  0  0  0  0  0  0  0  0  0  0  0
    6.6482   -3.8430  -53.6955 H   0  0  0  0  0  0  0  0  0  0  0  0
   10.0753    1.9330  -57.6590 H   0  0  0  0  0  0  0  0  0  0  0  0
    8.9130    1.4400  -58.9551 H   0  0  0  0  0  0  0  0  0  0  0  0
  1  2  1  0
  2  3  1  0
  3  4  1  0
  4  5  1  0
  5  6  1  0
  6  7  1  0
  7  8  1  0
  7  9  1  0
  9 10  1  0
 10 11  1  1
 11 12  1  0
 12 13  2  0
 12 14  1  0
 14 15  2  0
 15 16  1  0
 16 17  2  0
 17 18  1  0
 18 19  2  0
 19 20  1  0
 20 21  2  0
 21 22  1  0
 22 23  2  0
 17 24  1  0
 10 25  1  0
 10  2  1  0
 24 14  1  0
  8  3  1  0
 23 18  1  0
 25  5  1  0
  1 26  1  0
  1 27  1  0
  1 28  1  0
  2 29  1  1
  3 30  1  6
  4 31  1  0
  4 32  1  0
  5 33  1  6
  6 34  1  0
  6 35  1  0
  7 36  1  1
  8 37  1  0
  8 38  1  0
  9 39  1  0
  9 40  1  0
 11 41  1  0
 19 42  1  0
 20 43  1  0
 21 44  1  0
 22 45  1  0
 23 46  1  0
 25 47  1  0
 25 48  1  0
M  END
>  <meeko>  (53) 
{"is_sidechain": false}

$$$$

     RDKit          3D

 53 57  0  0  0  0  0  0  0  0999 V2000
    5.9240   -0.2860  -53.9210 C   0  0  0  0  0  0  0  0  0  0  0  0
    7.3750   -0.5460  -54.1160 C   0  0  0  0  0  0  0  0  0  0  0  0
    8.2470    0.1320  -55.0240 C   0  0  0  0  0  0  0  0  0  0  0  0
    7.9150    1.2390  -55.9470 C   0  0  0  0  0  0  0  0  0  0  0  0
    6.7650    1.6050  -56.1640 O   0  0  0  0  0  0  0  0  0  0  0  0
    9.0360    1.7890  -56.5320 N   0  0  0  0  0  0  0  0  0  0  0  0
    9.0590    2.7970  -57.5910 C   0  0  1  0  0  0  0  0  0  0  0  0
    8.7860    4.2260  -57.0470 C   0  0  0  0  0  0  0  0  0  0  0  0
    8.8170    5.2590  -58.1870 C   0  0  2  0  0  0  0  0  0  0  0  0
    7.7350    4.9000  -59.2210 C   0  0  0  0  0  0  0  0  0  0  0  0
    8.0070    3.5030  -59.8010 C   0  0  1  0  0  0  0  0  0  0  0  0
    9.3900    3.4880  -60.4670 C   0  0  0  0  0  0  0  0  0  0  0  0
   10.4790    3.8370  -59.4370 C   0  0  1  0  0  0  0  0  0  0  0  0
   10.1900    5.2400  -58.8730 C   0  0  0  0  0  0  0  0  0  0  0  0
   10.4550    2.7750  -58.3060 C   0  0  1  0  0  0  0  0  0  0  0  0
   11.6520    2.9480  -57.3580 C   0  0  0  0  0  0  0  0  0  0  0  0
    7.9800    2.4710  -58.6610 C   0  0  0  0  0  0  0  0  0  0  0  0
    9.4990   -0.3710  -54.9660 N   0  0  0  0  0  0  0  0  0  0  0  0
    9.4180   -1.3290  -54.0300 N   0  0  0  0  0  0  0  0  0  0  0  0
    8.1740   -1.4860  -53.4820 C   0  0  0  0  0  0  0  0  0  0  0  0
    7.9030   -2.4630  -52.4350 C   0  0  0  0  0  0  0  0  0  0  0  0
    8.2070   -2.1750  -51.0980 C   0  0  0  0  0  0  0  0  0  0  0  0
    7.9360   -3.1080  -50.0940 C   0  0  0  0  0  0  0  0  0  0  0  0
    7.3580   -4.3340  -50.4190 C   0  0  0  0  0  0  0  0  0  0  0  0
    7.0520   -4.6290  -51.7460 C   0  0  0  0  0  0  0  0  0  0  0  0
    7.3240   -3.6980  -52.7500 C   0  0  0  0  0  0  0  0  0  0  0  0
    5.7001   -0.2459  -52.8448 H   0  0  0  0  0  0  0  0  0  0  0  0
    5.6577    0.6742  -54.3870 H   0  0  0  0  0  0  0  0  0  0  0  0
    5.3408   -1.0940  -54.3870 H   0  0  0  0  0  0  0  0  0  0  0  0
    9.8870    1.2770  -56.3090 H   0  0  0  0  0  0  0  0  0  0  0  0
    7.7959    4.2467  -56.5682 H   0  0  0  0  0  0  0  0  0  0  0  0
    9.5689    4.4816  -56.3178 H   0  0  0  0  0  0  0  0  0  0  0  0
    8.6298    6.2612  -57.7740 H   0  0  0  0  0  0  0  0  0  0  0  0
    6.7488    4.9067  -58.7339 H   0  0  0  0  0  0  0  0  0  0  0  0
    7.7533    5.6394  -60.0352 H   0  0  0  0  0  0  0  0  0  0  0  0
    7.2376    3.2544  -60.5468 H   0  0  0  0  0  0  0  0  0  0  0  0
    9.5852    2.4861  -60.8769 H   0  0  0  0  0  0  0  0  0  0  0  0
    9.4076    4.2341  -61.2751 H   0  0  0  0  0  0  0  0  0  0  0  0
   11.4754    3.8368  -59.9031 H   0  0  0  0  0  0  0  0  0  0  0  0
   10.9666    5.5049  -58.1404 H   0  0  0  0  0  0  0  0  0  0  0  0
   10.1908    5.9674  -59.6981 H   0  0  0  0  0  0  0  0  0  0  0  0
   10.5736    1.7681  -58.7328 H   0  0  0  0  0  0  0  0  0  0  0  0
   11.3044    2.8978  -56.3156 H   0  0  0  0  0  0  0  0  0  0  0  0
   12.3827    2.1461  -57.5399 H   0  0  0  0  0  0  0  0  0  0  0  0
   12.1257    3.9239  -57.5399 H   0  0  0  0  0  0  0  0  0  0  0  0
    6.9875    2.4841  -58.1870 H   0  0  0  0  0  0  0  0  0  0  0  0
    8.1921    1.4771  -59.0820 H   0  0  0  0  0  0  0  0  0  0  0  0
   10.2600   -1.8410  -53.7900 H   0  0  0  0  0  0  0  0  0  0  0  0
    8.6620   -1.2081  -50.8371 H   0  0  0  0  0  0  0  0  0  0  0  0
    8.1788   -2.8750  -49.0468 H   0  0  0  0  0  0  0  0  0  0  0  0
    7.1436   -5.0682  -49.6284 H   0  0  0  0  0  0  0  0  0  0  0  0
    6.5957   -5.5964  -52.0027 H   0  0  0  0  0  0  0  0  0  0  0  0
    7.0816   -3.9365  -53.7961 H   0  0  0  0  0  0  0  0  0  0  0  0
  1  2  1  0
  2  3  1  0
  3  4  1  0
  4  5  2  0
  4  6  1  0
  7  6  1  1
  7  8  1  0
  8  9  1  0
  9 10  1  0
 10 11  1  0
 11 12  1  0
 12 13  1  0
 13 14  1  0
 13 15  1  0
 15 16  1  0
 11 17  1  0
  3 18  2  0
 18 19  1  0
 19 20  1  0
 20 21  1  0
 21 22  2  0
 22 23  1  0
 23 24  2  0
 24 25  1  0
 25 26  2  0
 20  2  2  0
 26 21  1  0
 15  7  1  0
 17  7  1  0
 14  9  1  0
  1 27  1  0
  1 28  1  0
  1 29  1  0
  6 30  1  0
  8 31  1  0
  8 32  1  0
  9 33  1  1
 10 34  1  0
 10 35  1  0
 11 36  1  6
 12 37  1  0
 12 38  1  0
 13 39  1  6
 14 40  1  0
 14 41  1  0
 15 42  1  6
 16 43  1  0
 16 44  1  0
 16 45  1  0
 17 46  1  0
 17 47  1  0
 19 48  1  0
 22 49  1  0
 23 50  1  0
 24 51  1  0
 25 52  1  0
 26 53  1  0
M  END
>  <meeko>  (54) 
{"is_sidechain": false}

$$$$

     RDKit          3D

 53 57  0  0  0  0  0  0  0  0999 V2000
    5.7730   -0.3480  -53.9780 C   0  0  0  0  0  0  0  0  0  0  0  0
    7.2430   -0.4990  -54.1390 C   0  0  0  0  0  0  0  0  0  0  0  0
    8.1030   -1.3800  -53.3980 C   0  0  0  0  0  0  0  0  0  0  0  0
    7.7420   -2.3800  -52.3920 C   0  0  0  0  0  0  0  0  0  0  0  0
    8.1150   -2.2210  -51.0500 C   0  0  0  0  0  0  0  0  0  0  0  0
    7.7670   -3.1840  -50.1000 C   0  0  0  0  0  0  0  0  0  0  0  0
    7.0380   -4.3100  -50.4800 C   0  0  0  0  0  0  0  0  0  0  0  0
    6.6490   -4.4700  -51.8100 C   0  0  0  0  0  0  0  0  0  0  0  0
    6.9960   -3.5080  -52.7600 C   0  0  0  0  0  0  0  0  0  0  0  0
    9.3880   -1.1760  -53.7190 N   0  0  0  0  0  0  0  0  0  0  0  0
    9.3530   -0.2140  -54.6460 N   0  0  0  0  0  0  0  0  0  0  0  0
    8.0950    0.2000  -54.9870 C   0  0  0  0  0  0  0  0  0  0  0  0
    7.9190    1.2010  -56.0100 C   0  0  0  0  0  0  0  0  0  0  0  0
    6.8140    1.6660  -56.2630 O   0  0  0  0  0  0  0  0  0  0  0  0
    9.0760    1.6180  -56.6270 N   0  0  0  0  0  0  0  0  0  0  0  0
    9.1590    2.6770  -57.6390 C   0  0  1  0  0  0  0  0  0  0  0  0
    8.8280    4.0340  -56.9540 C   0  0  0  0  0  0  0  0  0  0  0  0
    8.8560    5.1900  -57.9650 C   0  0  2  0  0  0  0  0  0  0  0  0
    7.8100    4.9260  -59.0580 C   0  0  0  0  0  0  0  0  0  0  0  0
    8.1270    3.6050  -59.7750 C   0  0  1  0  0  0  0  0  0  0  0  0
    9.5270    3.6920  -60.4040 C   0  0  0  0  0  0  0  0  0  0  0  0
   10.5860    3.9530  -59.3140 C   0  0  1  0  0  0  0  0  0  0  0  0
   10.2470    5.2780  -58.6090 C   0  0  0  0  0  0  0  0  0  0  0  0
   10.5700    2.7690  -58.3100 C   0  0  1  0  0  0  0  0  0  0  0  0
   11.7320    2.8590  -57.3100 C   0  0  0  0  0  0  0  0  0  0  0  0
    8.0990    2.4550  -58.7530 C   0  0  0  0  0  0  0  0  0  0  0  0
    5.5221   -0.3222  -52.9073 H   0  0  0  0  0  0  0  0  0  0  0  0
    5.4463    0.5884  -54.4538 H   0  0  0  0  0  0  0  0  0  0  0  0
    5.2628   -1.1985  -54.4538 H   0  0  0  0  0  0  0  0  0  0  0  0
    8.6855   -1.3320  -50.7431 H   0  0  0  0  0  0  0  0  0  0  0  0
    8.0686   -3.0538  -49.0502 H   0  0  0  0  0  0  0  0  0  0  0  0
    6.7700   -5.0710  -49.7323 H   0  0  0  0  0  0  0  0  0  0  0  0
    6.0685   -5.3548  -52.1103 H   0  0  0  0  0  0  0  0  0  0  0  0
    6.6813   -3.6363  -53.8062 H   0  0  0  0  0  0  0  0  0  0  0  0
   10.2270    0.1250  -55.0360 H   0  0  0  0  0  0  0  0  0  0  0  0
    9.9390    1.3560  -56.1730 H   0  0  0  0  0  0  0  0  0  0  0  0
    7.8253    3.9741  -56.5057 H   0  0  0  0  0  0  0  0  0  0  0  0
    9.5877    4.2284  -56.1826 H   0  0  0  0  0  0  0  0  0  0  0  0
    8.6308    6.1353  -57.4495 H   0  0  0  0  0  0  0  0  0  0  0  0
    6.8118    4.8624  -58.6002 H   0  0  0  0  0  0  0  0  0  0  0  0
    7.8320    5.7490  -59.7875 H   0  0  0  0  0  0  0  0  0  0  0  0
    7.3798    3.4207  -60.5610 H   0  0  0  0  0  0  0  0  0  0  0  0
    9.7559    2.7443  -60.9133 H   0  0  0  0  0  0  0  0  0  0  0  0
    9.5445    4.5210  -61.1268 H   0  0  0  0  0  0  0  0  0  0  0  0
   11.5926    4.0307  -59.7507 H   0  0  0  0  0  0  0  0  0  0  0  0
   10.9971    5.4782  -57.8297 H   0  0  0  0  0  0  0  0  0  0  0  0
   10.2511    6.0918  -59.3491 H   0  0  0  0  0  0  0  0  0  0  0  0
   10.7368    1.8236  -58.8471 H   0  0  0  0  0  0  0  0  0  0  0  0
   11.3361    2.8283  -56.2842 H   0  0  0  0  0  0  0  0  0  0  0  0
   12.4155    2.0111  -57.4648 H   0  0  0  0  0  0  0  0  0  0  0  0
   12.2767    3.8020  -57.4648 H   0  0  0  0  0  0  0  0  0  0  0  0
    7.1002    2.4047  -58.2948 H   0  0  0  0  0  0  0  0  0  0  0  0
    8.3300    1.5150  -59.2755 H   0  0  0  0  0  0  0  0  0  0  0  0
  1  2  1  0
  2  3  1  0
  3  4  1  0
  4  5  2  0
  5  6  1  0
  6  7  2  0
  7  8  1  0
  8  9  2  0
  3 10  2  0
 10 11  1  0
 11 12  1  0
 12 13  1  0
 13 14  2  0
 13 15  1  0
 16 15  1  1
 16 17  1  0
 17 18  1  0
 18 19  1  0
 19 20  1  0
 20 21  1  0
 21 22  1  0
 22 23  1  0
 22 24  1  0
 24 25  1  0
 20 26  1  0
 12  2  2  0
 24 16  1  0
  9  4  1  0
 26 16  1  0
 23 18  1  0
  1 27  1  0
  1 28  1  0
  1 29  1  0
  5 30  1  0
  6 31  1  0
  7 32  1  0
  8 33  1  0
  9 34  1  0
 11 35  1  0
 15 36  1  0
 17 37  1  0
 17 38  1  0
 18 39  1  1
 19 40  1  0
 19 41  1  0
 20 42  1  6
 21 43  1  0
 21 44  1  0
 22 45  1  6
 23 46  1  0
 23 47  1  0
 24 48  1  6
 25 49  1  0
 25 50  1  0
 25 51  1  0
 26 52  1  0
 26 53  1  0
M  END
>  <meeko>  (55) 
{"is_sidechain": false}

$$$$

     RDKit          3D

 49 52  0  0  0  0  0  0  0  0999 V2000
    6.2770    0.2580  -53.7700 C   0  0  0  0  0  0  0  0  0  0  0  0
    7.6800   -0.1430  -54.0540 C   0  0  0  0  0  0  0  0  0  0  0  0
    8.5320    0.3370  -55.1040 C   0  0  0  0  0  0  0  0  0  0  0  0
    8.2450    1.3770  -56.1140 C   0  0  0  0  0  0  0  0  0  0  0  0
    7.1080    1.7410  -56.3940 O   0  0  0  0  0  0  0  0  0  0  0  0
    9.3810    1.8710  -56.7350 N   0  0  0  0  0  0  0  0  0  0  0  0
    9.3770    2.8200  -57.8530 C   0  0  1  0  0  0  0  0  0  0  0  0
    8.9660    4.2150  -57.3010 C   0  0  0  0  0  0  0  0  0  0  0  0
    8.9090    5.2630  -58.4220 C   0  0  2  0  0  0  0  0  0  0  0  0
    7.8670    4.8290  -59.4630 C   0  0  0  0  0  0  0  0  0  0  0  0
    8.2550    3.4640  -60.0490 C   0  0  1  0  0  0  0  0  0  0  0  0
    9.6380    3.5690  -60.7130 C   0  0  0  0  0  0  0  0  0  0  0  0
   10.6950    4.0000  -59.6760 C   0  0  1  0  0  0  0  0  0  0  0  0
   10.2850    5.3680  -59.1000 C   0  0  0  0  0  0  0  0  0  0  0  0
   10.7680    2.9250  -58.5590 C   0  0  1  0  0  0  0  0  0  0  0  0
   11.9370    3.1860  -57.5990 C   0  0  0  0  0  0  0  0  0  0  0  0
    8.3140    2.4240  -58.9160 C   0  0  0  0  0  0  0  0  0  0  0  0
    9.7200   -0.2880  -55.0720 N   0  0  0  0  0  0  0  0  0  0  0  0
    9.6330   -1.1450  -54.0480 N   0  0  0  0  0  0  0  0  0  0  0  0
   10.7600   -2.0020  -53.7570 C   0  0  0  0  0  0  0  0  0  0  0  0
    8.4410   -1.0800  -53.3760 C   0  0  0  0  0  0  0  0  0  0  0  0
    8.1360   -1.9200  -52.1900 C   0  0  0  0  0  0  0  0  0  0  0  0
    6.1215    0.3025  -52.6820 H   0  0  0  0  0  0  0  0  0  0  0  0
    6.0825    1.2477  -54.2089 H   0  0  0  0  0  0  0  0  0  0  0  0
    5.5889   -0.4794  -54.2089 H   0  0  0  0  0  0  0  0  0  0  0  0
   10.2130    1.3100  -56.6110 H   0  0  0  0  0  0  0  0  0  0  0  0
    7.9739    4.1370  -56.8324 H   0  0  0  0  0  0  0  0  0  0  0  0
    9.7194    4.5335  -56.5655 H   0  0  0  0  0  0  0  0  0  0  0  0
    8.6329    6.2399  -57.9984 H   0  0  0  0  0  0  0  0  0  0  0  0
    6.8804    4.7531  -58.9825 H   0  0  0  0  0  0  0  0  0  0  0  0
    7.8291    5.5739  -60.2715 H   0  0  0  0  0  0  0  0  0  0  0  0
    7.5086    3.1571  -60.7965 H   0  0  0  0  0  0  0  0  0  0  0  0
    9.9162    2.5899  -61.1300 H   0  0  0  0  0  0  0  0  0  0  0  0
    9.5950    4.3203  -61.5153 H   0  0  0  0  0  0  0  0  0  0  0  0
   11.6886    4.0920  -60.1388 H   0  0  0  0  0  0  0  0  0  0  0  0
   11.0321    5.6901  -58.3596 H   0  0  0  0  0  0  0  0  0  0  0  0
   10.2292    6.1016  -59.9177 H   0  0  0  0  0  0  0  0  0  0  0  0
   10.9846    1.9412  -59.0008 H   0  0  0  0  0  0  0  0  0  0  0  0
   11.5832    3.1070  -56.5604 H   0  0  0  0  0  0  0  0  0  0  0  0
   12.7285    2.4424  -57.7743 H   0  0  0  0  0  0  0  0  0  0  0  0
   12.3370    4.1956  -57.7743 H   0  0  0  0  0  0  0  0  0  0  0  0
    7.3277    2.3616  -58.4329 H   0  0  0  0  0  0  0  0  0  0  0  0
    8.5936    1.4512  -59.3466 H   0  0  0  0  0  0  0  0  0  0  0  0
   10.8797   -2.0930  -52.6673 H   0  0  0  0  0  0  0  0  0  0  0  0
   10.5853   -2.9975  -54.1911 H   0  0  0  0  0  0  0  0  0  0  0  0
   11.6726   -1.5677  -54.1911 H   0  0  0  0  0  0  0  0  0  0  0  0
    8.3434   -1.3489  -51.2731 H   0  0  0  0  0  0  0  0  0  0  0  0
    7.0751   -2.2101  -52.2092 H   0  0  0  0  0  0  0  0  0  0  0  0
    8.7636   -2.8232  -52.2092 H   0  0  0  0  0  0  0  0  0  0  0  0
  1  2  1  0
  2  3  1  0
  3  4  1  0
  4  5  2  0
  4  6  1  0
  7  6  1  1
  7  8  1  0
  8  9  1  0
  9 10  1  0
 10 11  1  0
 11 12  1  0
 12 13  1  0
 13 14  1  0
 13 15  1  0
 15 16  1  0
 11 17  1  0
  3 18  2  0
 18 19  1  0
 19 20  1  0
 19 21  1  0
 21 22  1  0
 21  2  2  0
 15  7  1  0
 17  7  1  0
 14  9  1  0
  1 23  1  0
  1 24  1  0
  1 25  1  0
  6 26  1  0
  8 27  1  0
  8 28  1  0
  9 29  1  1
 10 30  1  0
 10 31  1  0
 11 32  1  6
 12 33  1  0
 12 34  1  0
 13 35  1  6
 14 36  1  0
 14 37  1  0
 15 38  1  6
 16 39  1  0
 16 40  1  0
 16 41  1  0
 17 42  1  0
 17 43  1  0
 20 44  1  0
 20 45  1  0
 20 46  1  0
 22 47  1  0
 22 48  1  0
 22 49  1  0
M  END
>  <meeko>  (56) 
{"is_sidechain": false}

$$$$

     RDKit          3D

 50 54  0  0  0  0  0  0  0  0999 V2000
   11.7070    2.8980  -57.3600 C   0  0  0  0  0  0  0  0  0  0  0  0
   10.5140    2.8190  -58.3200 C   0  0  2  0  0  0  0  0  0  0  0  0
   10.5440    3.9960  -59.3350 C   0  0  2  0  0  0  0  0  0  0  0  0
   10.2230    5.3310  -58.6350 C   0  0  0  0  0  0  0  0  0  0  0  0
    8.8270    5.2730  -57.9950 C   0  0  1  0  0  0  0  0  0  0  0  0
    7.7810    5.0120  -59.0890 C   0  0  0  0  0  0  0  0  0  0  0  0
    8.0870    3.6830  -59.7930 C   0  0  1  0  0  0  0  0  0  0  0  0
    9.4850    3.7470  -60.4240 C   0  0  0  0  0  0  0  0  0  0  0  0
    8.0530    2.5490  -58.7600 C   0  0  0  0  0  0  0  0  0  0  0  0
    9.1080    2.7680  -57.6330 C   0  0  1  0  0  0  0  0  0  0  0  0
    8.9800    1.6320  -56.7150 N   0  0  0  0  0  0  0  0  0  0  0  0
    7.8620    1.2330  -56.0160 C   0  0  0  0  0  0  0  0  0  0  0  0
    6.7360    1.6950  -56.1570 O   0  0  0  0  0  0  0  0  0  0  0  0
    8.1580    0.1680  -55.0410 C   0  0  0  0  0  0  0  0  0  0  0  0
    7.2430   -0.4620  -54.1600 C   0  0  0  0  0  0  0  0  0  0  0  0
    7.9720   -1.3910  -53.4460 C   0  0  0  0  0  0  0  0  0  0  0  0
    7.5840   -2.3290  -52.3940 C   0  0  0  0  0  0  0  0  0  0  0  0
    8.0700   -2.2000  -51.0850 C   0  0  0  0  0  0  0  0  0  0  0  0
    7.6880   -3.1030  -50.0900 C   0  0  0  0  0  0  0  0  0  0  0  0
    6.8170   -4.1480  -50.3910 C   0  0  0  0  0  0  0  0  0  0  0  0
    6.3310   -4.2930  -51.6870 C   0  0  0  0  0  0  0  0  0  0  0  0
    6.7150   -3.3910  -52.6840 C   0  0  0  0  0  0  0  0  0  0  0  0
    9.2540   -1.2540  -53.9130 N   0  0  0  0  0  0  0  0  0  0  0  0
    9.4020   -0.3280  -54.8790 N   0  0  0  0  0  0  0  0  0  0  0  0
    8.7820    4.1300  -56.9650 C   0  0  0  0  0  0  0  0  0  0  0  0
   11.3444    2.8740  -56.3218 H   0  0  0  0  0  0  0  0  0  0  0  0
   12.3756    2.0422  -57.5348 H   0  0  0  0  0  0  0  0  0  0  0  0
   12.2569    3.8345  -57.5348 H   0  0  0  0  0  0  0  0  0  0  0  0
   10.6392    1.8537  -58.8323 H   0  0  0  0  0  0  0  0  0  0  0  0
   11.5507    4.0540  -59.7745 H   0  0  0  0  0  0  0  0  0  0  0  0
   10.9733    5.5210  -57.8534 H   0  0  0  0  0  0  0  0  0  0  0  0
   10.2429    6.1404  -59.3797 H   0  0  0  0  0  0  0  0  0  0  0  0
    8.6108    6.2278  -57.4934 H   0  0  0  0  0  0  0  0  0  0  0  0
    6.7808    4.9625  -58.6338 H   0  0  0  0  0  0  0  0  0  0  0  0
    7.8128    5.8290  -59.8248 H   0  0  0  0  0  0  0  0  0  0  0  0
    7.3375    3.4997  -60.5770 H   0  0  0  0  0  0  0  0  0  0  0  0
    9.7001    2.7943  -60.9300 H   0  0  0  0  0  0  0  0  0  0  0  0
    9.5150    4.5714  -61.1516 H   0  0  0  0  0  0  0  0  0  0  0  0
    7.0510    2.5077  -58.3080 H   0  0  0  0  0  0  0  0  0  0  0  0
    8.2904    1.6066  -59.2754 H   0  0  0  0  0  0  0  0  0  0  0  0
    9.8300    1.1890  -56.3720 H   0  0  0  0  0  0  0  0  0  0  0  0
    6.1674   -0.2522  -54.0647 H   0  0  0  0  0  0  0  0  0  0  0  0
    8.7594   -1.3789  -50.8390 H   0  0  0  0  0  0  0  0  0  0  0  0
    8.0756   -2.9888  -49.0669 H   0  0  0  0  0  0  0  0  0  0  0  0
    6.5142   -4.8567  -49.6061 H   0  0  0  0  0  0  0  0  0  0  0  0
    5.6442   -5.1180  -51.9272 H   0  0  0  0  0  0  0  0  0  0  0  0
    6.3312   -3.5157  -53.7073 H   0  0  0  0  0  0  0  0  0  0  0  0
   10.0790   -1.7540  -53.6000 H   0  0  0  0  0  0  0  0  0  0  0  0
    7.7756    4.0827  -56.5236 H   0  0  0  0  0  0  0  0  0  0  0  0
    9.5343    4.3285  -56.1874 H   0  0  0  0  0  0  0  0  0  0  0  0
  1  2  1  0
  2  3  1  0
  3  4  1  0
  4  5  1  0
  5  6  1  0
  6  7  1  0
  7  8  1  0
  7  9  1  0
  9 10  1  0
 10 11  1  1
 11 12  1  0
 12 13  2  0
 12 14  1  0
 14 15  1  0
 15 16  2  0
 16 17  1  0
 17 18  2  0
 18 19  1  0
 19 20  2  0
 20 21  1  0
 21 22  2  0
 16 23  1  0
 23 24  1  0
 10 25  1  0
 10  2  1  0
 24 14  2  0
  8  3  1  0
 22 17  1  0
 25  5  1  0
  1 26  1  0
  1 27  1  0
  1 28  1  0
  2 29  1  6
  3 30  1  6
  4 31  1  0
  4 32  1  0
  5 33  1  1
  6 34  1  0
  6 35  1  0
  7 36  1  6
  8 37  1  0
  8 38  1  0
  9 39  1  0
  9 40  1  0
 11 41  1  0
 15 42  1  0
 18 43  1  0
 19 44  1  0
 20 45  1  0
 21 46  1  0
 22 47  1  0
 23 48  1  0
 25 49  1  0
 25 50  1  0
M  END
>  <meeko>  (57) 
{"is_sidechain": false}

$$$$

     RDKit          3D

 50 54  0  0  0  0  0  0  0  0999 V2000
   11.5270    2.6240  -57.2400 C   0  0  0  0  0  0  0  0  0  0  0  0
   10.3670    2.7100  -58.2380 C   0  0  2  0  0  0  0  0  0  0  0  0
   10.6130    3.8450  -59.2720 C   0  0  2  0  0  0  0  0  0  0  0  0
   10.4830    5.2300  -58.6100 C   0  0  0  0  0  0  0  0  0  0  0  0
    9.0740    5.4060  -58.0190 C   0  0  1  0  0  0  0  0  0  0  0  0
    8.0370    5.2860  -59.1460 C   0  0  0  0  0  0  0  0  0  0  0  0
    8.1540    3.9090  -59.8130 C   0  0  1  0  0  0  0  0  0  0  0  0
    9.5640    3.7390  -60.3940 C   0  0  0  0  0  0  0  0  0  0  0  0
    7.9090    2.8200  -58.7600 C   0  0  0  0  0  0  0  0  0  0  0  0
    8.9490    2.8960  -57.5980 C   0  0  1  0  0  0  0  0  0  0  0  0
    8.6080    1.8070  -56.6670 N   0  0  0  0  0  0  0  0  0  0  0  0
    7.3660    1.5250  -56.1480 C   0  0  0  0  0  0  0  0  0  0  0  0
    6.3370    2.1050  -56.4730 O   0  0  0  0  0  0  0  0  0  0  0  0
    7.3470    0.4770  -55.1600 C   0  0  0  0  0  0  0  0  0  0  0  0
    8.1840    0.1130  -54.1230 C   0  0  0  0  0  0  0  0  0  0  0  0
    7.5930   -1.0310  -53.5110 C   0  0  0  0  0  0  0  0  0  0  0  0
    8.0810   -1.8070  -52.3630 C   0  0  0  0  0  0  0  0  0  0  0  0
    9.2750   -2.5410  -52.4310 C   0  0  0  0  0  0  0  0  0  0  0  0
    9.7280   -3.2740  -51.3300 C   0  0  0  0  0  0  0  0  0  0  0  0
    8.9950   -3.2830  -50.1460 C   0  0  0  0  0  0  0  0  0  0  0  0
    7.8070   -2.5620  -50.0610 C   0  0  0  0  0  0  0  0  0  0  0  0
    7.3540   -1.8310  -51.1620 C   0  0  0  0  0  0  0  0  0  0  0  0
    6.4500   -1.3480  -54.1410 N   0  0  0  0  0  0  0  0  0  0  0  0
    6.3380   -0.4430  -55.1230 N   0  0  0  0  0  0  0  0  0  0  0  0
    8.8180    4.3100  -56.9700 C   0  0  0  0  0  0  0  0  0  0  0  0
   11.1310    2.6534  -56.2142 H   0  0  0  0  0  0  0  0  0  0  0  0
   12.0748    1.6828  -57.3948 H   0  0  0  0  0  0  0  0  0  0  0  0
   12.2077    3.4741  -57.3948 H   0  0  0  0  0  0  0  0  0  0  0  0
   10.3545    1.7254  -58.7283 H   0  0  0  0  0  0  0  0  0  0  0  0
   11.6305    3.7346  -59.6750 H   0  0  0  0  0  0  0  0  0  0  0  0
   11.2282    5.3197  -57.8058 H   0  0  0  0  0  0  0  0  0  0  0  0
   10.6538    6.0079  -59.3687 H   0  0  0  0  0  0  0  0  0  0  0  0
    8.9925    6.3942  -57.5428 H   0  0  0  0  0  0  0  0  0  0  0  0
    7.0268    5.4047  -58.7273 H   0  0  0  0  0  0  0  0  0  0  0  0
    8.2212    6.0701  -59.8951 H   0  0  0  0  0  0  0  0  0  0  0  0
    7.4113    3.8254  -60.6201 H   0  0  0  0  0  0  0  0  0  0  0  0
    9.6433    2.7528  -60.8747 H   0  0  0  0  0  0  0  0  0  0  0  0
    9.7469    4.5313  -61.1349 H   0  0  0  0  0  0  0  0  0  0  0  0
    6.8990    2.9477  -58.3434 H   0  0  0  0  0  0  0  0  0  0  0  0
    8.0125    1.8403  -59.2494 H   0  0  0  0  0  0  0  0  0  0  0  0
    9.3900    1.3640  -56.2090 H   0  0  0  0  0  0  0  0  0  0  0  0
    9.1210    0.6079  -53.8279 H   0  0  0  0  0  0  0  0  0  0  0  0
    9.8615   -2.5397  -53.3616 H   0  0  0  0  0  0  0  0  0  0  0  0
   10.6657   -3.8450  -51.3992 H   0  0  0  0  0  0  0  0  0  0  0  0
    9.3538   -3.8584  -49.2799 H   0  0  0  0  0  0  0  0  0  0  0  0
    7.2253   -2.5679  -49.1274 H   0  0  0  0  0  0  0  0  0  0  0  0
    6.4134   -1.2656  -51.0869 H   0  0  0  0  0  0  0  0  0  0  0  0
    5.5400   -0.4920  -55.7500 H   0  0  0  0  0  0  0  0  0  0  0  0
    7.8027    4.4306  -56.5644 H   0  0  0  0  0  0  0  0  0  0  0  0
    9.5671    4.4088  -56.1705 H   0  0  0  0  0  0  0  0  0  0  0  0
  1  2  1  0
  2  3  1  0
  3  4  1  0
  4  5  1  0
  5  6  1  0
  6  7  1  0
  7  8  1  0
  7  9  1  0
  9 10  1  0
 10 11  1  1
 11 12  1  0
 12 13  2  0
 12 14  1  0
 14 15  2  0
 15 16  1  0
 16 17  1  0
 17 18  2  0
 18 19  1  0
 19 20  2  0
 20 21  1  0
 21 22  2  0
 16 23  2  0
 23 24  1  0
 10 25  1  0
 10  2  1  0
 24 14  1  0
  8  3  1  0
 22 17  1  0
 25  5  1  0
  1 26  1  0
  1 27  1  0
  1 28  1  0
  2 29  1  6
  3 30  1  6
  4 31  1  0
  4 32  1  0
  5 33  1  1
  6 34  1  0
  6 35  1  0
  7 36  1  6
  8 37  1  0
  8 38  1  0
  9 39  1  0
  9 40  1  0
 11 41  1  0
 15 42  1  0
 18 43  1  0
 19 44  1  0
 20 45  1  0
 21 46  1  0
 22 47  1  0
 24 48  1  0
 25 49  1  0
 25 50  1  0
M  END
>  <meeko>  (58) 
{"is_sidechain": false}

$$$$

     RDKit          3D

 53 57  0  0  0  0  0  0  0  0999 V2000
   11.1440   -0.7300  -55.9070 C   0  0  0  0  0  0  0  0  0  0  0  0
    9.9600   -0.9340  -55.0370 C   0  0  0  0  0  0  0  0  0  0  0  0
    9.8000   -1.9110  -54.0760 C   0  0  0  0  0  0  0  0  0  0  0  0
    8.5820   -1.7050  -53.4720 N   0  0  0  0  0  0  0  0  0  0  0  0
    7.9880   -2.4500  -52.4150 C   0  0  0  0  0  0  0  0  0  0  0  0
    8.3410   -2.2270  -51.0760 C   0  0  0  0  0  0  0  0  0  0  0  0
    7.7420   -2.9760  -50.0590 C   0  0  0  0  0  0  0  0  0  0  0  0
    6.7900   -3.9460  -50.3680 C   0  0  0  0  0  0  0  0  0  0  0  0
    6.4330   -4.1740  -51.6950 C   0  0  0  0  0  0  0  0  0  0  0  0
    7.0280   -3.4300  -52.7160 C   0  0  0  0  0  0  0  0  0  0  0  0
    7.9380   -0.6500  -54.0220 N   0  0  0  0  0  0  0  0  0  0  0  0
    8.7580   -0.1680  -54.9710 C   0  0  0  0  0  0  0  0  0  0  0  0
    8.3650    1.0030  -55.7820 C   0  0  0  0  0  0  0  0  0  0  0  0
    7.2110    1.4120  -55.8390 O   0  0  0  0  0  0  0  0  0  0  0  0
    9.4140    1.5650  -56.4940 N   0  0  0  0  0  0  0  0  0  0  0  0
    9.2700    2.6420  -57.4830 C   0  0  1  0  0  0  0  0  0  0  0  0
    8.8960    4.0010  -56.8320 C   0  0  0  0  0  0  0  0  0  0  0  0
    8.7630    5.1020  -57.9000 C   0  0  2  0  0  0  0  0  0  0  0  0
    7.6640    4.7020  -58.8990 C   0  0  0  0  0  0  0  0  0  0  0  0
    8.0350    3.3770  -59.5860 C   0  0  1  0  0  0  0  0  0  0  0  0
    9.3730    3.5430  -60.3210 C   0  0  0  0  0  0  0  0  0  0  0  0
   10.4800    3.9320  -59.3240 C   0  0  1  0  0  0  0  0  0  0  0  0
   10.0910    5.2610  -58.6530 C   0  0  0  0  0  0  0  0  0  0  0  0
   10.6210    2.8060  -58.2690 C   0  0  1  0  0  0  0  0  0  0  0  0
   11.8470    3.0350  -57.3730 C   0  0  0  0  0  0  0  0  0  0  0  0
    8.1720    2.2770  -58.5210 C   0  0  0  0  0  0  0  0  0  0  0  0
   12.0361   -0.5763  -55.2821 H   0  0  0  0  0  0  0  0  0  0  0  0
   11.2895   -1.6163  -56.5420 H   0  0  0  0  0  0  0  0  0  0  0  0
   10.9845    0.1539  -56.5420 H   0  0  0  0  0  0  0  0  0  0  0  0
   10.5170   -2.7101  -53.8364 H   0  0  0  0  0  0  0  0  0  0  0  0
    9.0903   -1.4616  -50.8258 H   0  0  0  0  0  0  0  0  0  0  0  0
    8.0232   -2.7991  -49.0104 H   0  0  0  0  0  0  0  0  0  0  0  0
    6.3205   -4.5316  -49.5638 H   0  0  0  0  0  0  0  0  0  0  0  0
    5.6823   -4.9402  -51.9387 H   0  0  0  0  0  0  0  0  0  0  0  0
    6.7430   -3.6126  -53.7626 H   0  0  0  0  0  0  0  0  0  0  0  0
   10.2250    0.9690  -56.5900 H   0  0  0  0  0  0  0  0  0  0  0  0
    7.9379    3.8952  -56.3021 H   0  0  0  0  0  0  0  0  0  0  0  0
    9.6932    4.2862  -56.1297 H   0  0  0  0  0  0  0  0  0  0  0  0
    8.5042    6.0536  -57.4126 H   0  0  0  0  0  0  0  0  0  0  0  0
    6.7112    4.5802  -58.3630 H   0  0  0  0  0  0  0  0  0  0  0  0
    7.5651    5.4888  -59.6613 H   0  0  0  0  0  0  0  0  0  0  0  0
    7.2511    3.1001  -60.3063 H   0  0  0  0  0  0  0  0  0  0  0  0
    9.6401    2.5941  -60.8091 H   0  0  0  0  0  0  0  0  0  0  0  0
    9.2730    4.3371  -61.0756 H   0  0  0  0  0  0  0  0  0  0  0  0
   11.4443    4.0586  -59.8380 H   0  0  0  0  0  0  0  0  0  0  0  0
   10.8787    5.5548  -57.9436 H   0  0  0  0  0  0  0  0  0  0  0  0
    9.9764    6.0350  -59.4262 H   0  0  0  0  0  0  0  0  0  0  0  0
   10.8106    1.8455  -58.7704 H   0  0  0  0  0  0  0  0  0  0  0  0
   11.5449    2.9786  -56.3168 H   0  0  0  0  0  0  0  0  0  0  0  0
   12.6020    2.2624  -57.5802 H   0  0  0  0  0  0  0  0  0  0  0  0
   12.2722    4.0281  -57.5802 H   0  0  0  0  0  0  0  0  0  0  0  0
    7.2102    2.1579  -58.0007 H   0  0  0  0  0  0  0  0  0  0  0  0
    8.4583    1.3393  -59.0197 H   0  0  0  0  0  0  0  0  0  0  0  0
  1  2  1  0
  2  3  2  0
  3  4  1  0
  4  5  1  0
  5  6  2  0
  6  7  1  0
  7  8  2  0
  8  9  1  0
  9 10  2  0
  4 11  1  0
 11 12  2  0
 12 13  1  0
 13 14  2  0
 13 15  1  0
 16 15  1  1
 16 17  1  0
 17 18  1  0
 18 19  1  0
 19 20  1  0
 20 21  1  0
 21 22  1  0
 22 23  1  0
 22 24  1  0
 24 25  1  0
 20 26  1  0
 12  2  1  0
 24 16  1  0
 10  5  1  0
 26 16  1  0
 23 18  1  0
  1 27  1  0
  1 28  1  0
  1 29  1  0
  3 30  1  0
  6 31  1  0
  7 32  1  0
  8 33  1  0
  9 34  1  0
 10 35  1  0
 15 36  1  0
 17 37  1  0
 17 38  1  0
 18 39  1  1
 19 40  1  0
 19 41  1  0
 20 42  1  6
 21 43  1  0
 21 44  1  0
 22 45  1  6
 23 46  1  0
 23 47  1  0
 24 48  1  6
 25 49  1  0
 25 50  1  0
 25 51  1  0
 26 52  1  0
 26 53  1  0
M  END
>  <meeko>  (59) 
{"is_sidechain": false}

$$$$

     RDKit          3D

 48 52  0  0  0  0  0  0  0  0999 V2000
   11.6790    3.0100  -57.4950 C   0  0  0  0  0  0  0  0  0  0  0  0
   10.5420    2.8510  -58.5120 C   0  0  2  0  0  0  0  0  0  0  0  0
   10.5750    3.9700  -59.5880 C   0  0  2  0  0  0  0  0  0  0  0  0
   10.2160    5.3350  -58.9740 C   0  0  0  0  0  0  0  0  0  0  0  0
    8.8100    5.2810  -58.3580 C   0  0  1  0  0  0  0  0  0  0  0  0
    7.7900    4.9440  -59.4570 C   0  0  0  0  0  0  0  0  0  0  0  0
    8.1290    3.5830  -60.0800 C   0  0  1  0  0  0  0  0  0  0  0  0
    9.5430    3.6370  -60.6830 C   0  0  0  0  0  0  0  0  0  0  0  0
    8.0830    2.4990  -58.9890 C   0  0  0  0  0  0  0  0  0  0  0  0
    9.1170    2.7970  -57.8680 C   0  0  1  0  0  0  0  0  0  0  0  0
    9.0190    1.8030  -56.7960 N   0  0  0  0  0  0  0  0  0  0  0  0
    7.8570    1.4160  -56.1480 C   0  0  0  0  0  0  0  0  0  0  0  0
    6.7570    1.8910  -56.4210 O   0  0  0  0  0  0  0  0  0  0  0  0
    8.0780    0.4000  -55.1300 C   0  0  0  0  0  0  0  0  0  0  0  0
    9.2760   -0.0440  -54.8040 N   0  0  0  0  0  0  0  0  0  0  0  0
    9.2090   -1.0030  -53.8150 N   0  0  0  0  0  0  0  0  0  0  0  0
    7.9710   -1.2590  -53.4230 C   0  0  0  0  0  0  0  0  0  0  0  0
    7.6140   -2.2410  -52.3800 C   0  0  0  0  0  0  0  0  0  0  0  0
    8.1200   -2.2010  -51.0700 C   0  0  0  0  0  0  0  0  0  0  0  0
    7.7470   -3.1610  -50.1220 C   0  0  0  0  0  0  0  0  0  0  0  0
    6.8600   -4.1770  -50.4660 C   0  0  0  0  0  0  0  0  0  0  0  0
    6.3460   -4.2370  -51.7580 C   0  0  0  0  0  0  0  0  0  0  0  0
    6.7200   -3.2770  -52.7030 C   0  0  0  0  0  0  0  0  0  0  0  0
    6.7940   -0.3160  -54.2630 S   0  0  0  0  0  0  0  0  0  0  0  0
    8.7610    4.1910  -57.2770 C   0  0  0  0  0  0  0  0  0  0  0  0
   11.2698    2.9528  -56.4756 H   0  0  0  0  0  0  0  0  0  0  0  0
   12.4157    2.2061  -57.6400 H   0  0  0  0  0  0  0  0  0  0  0  0
   12.1670    3.9851  -57.6400 H   0  0  0  0  0  0  0  0  0  0  0  0
   10.7252    1.8744  -58.9840 H   0  0  0  0  0  0  0  0  0  0  0  0
   11.5906    4.0248  -60.0071 H   0  0  0  0  0  0  0  0  0  0  0  0
   10.9471    5.5859  -58.1914 H   0  0  0  0  0  0  0  0  0  0  0  0
   10.2353    6.1017  -59.7625 H   0  0  0  0  0  0  0  0  0  0  0  0
    8.5703    6.2558  -57.9083 H   0  0  0  0  0  0  0  0  0  0  0  0
    6.7814    4.9046  -59.0197 H   0  0  0  0  0  0  0  0  0  0  0  0
    7.8256    5.7196  -60.2363 H   0  0  0  0  0  0  0  0  0  0  0  0
    7.3998    3.3458  -60.8687 H   0  0  0  0  0  0  0  0  0  0  0  0
    9.7864    2.6605  -61.1271 H   0  0  0  0  0  0  0  0  0  0  0  0
    9.5744    4.4189  -61.4561 H   0  0  0  0  0  0  0  0  0  0  0  0
    7.0744    2.4715  -58.5508 H   0  0  0  0  0  0  0  0  0  0  0  0
    8.3296    1.5293  -59.4461 H   0  0  0  0  0  0  0  0  0  0  0  0
    9.8670    1.3330  -56.4910 H   0  0  0  0  0  0  0  0  0  0  0  0
    8.8206   -1.4024  -50.7847 H   0  0  0  0  0  0  0  0  0  0  0  0
    8.1561   -3.1123  -49.1021 H   0  0  0  0  0  0  0  0  0  0  0  0
    6.5664   -4.9297  -49.7195 H   0  0  0  0  0  0  0  0  0  0  0  0
    5.6461   -5.0390  -52.0353 H   0  0  0  0  0  0  0  0  0  0  0  0
    6.3061   -3.3334  -53.7206 H   0  0  0  0  0  0  0  0  0  0  0  0
    7.7472    4.1523  -56.8520 H   0  0  0  0  0  0  0  0  0  0  0  0
    9.4983    4.4383  -56.4990 H   0  0  0  0  0  0  0  0  0  0  0  0
  1  2  1  0
  2  3  1  0
  3  4  1  0
  4  5  1  0
  5  6  1  0
  6  7  1  0
  7  8  1  0
  7  9  1  0
  9 10  1  0
 10 11  1  1
 11 12  1  0
 12 13  2  0
 12 14  1  0
 14 15  2  0
 15 16  1  0
 16 17  2  0
 17 18  1  0
 18 19  2  0
 19 20  1  0
 20 21  2  0
 21 22  1  0
 22 23  2  0
 17 24  1  0
 10 25  1  0
 10  2  1  0
 24 14  1  0
  8  3  1  0
 23 18  1  0
 25  5  1  0
  1 26  1  0
  1 27  1  0
  1 28  1  0
  2 29  1  6
  3 30  1  6
  4 31  1  0
  4 32  1  0
  5 33  1  1
  6 34  1  0
  6 35  1  0
  7 36  1  6
  8 37  1  0
  8 38  1  0
  9 39  1  0
  9 40  1  0
 11 41  1  0
 19 42  1  0
 20 43  1  0
 21 44  1  0
 22 45  1  0
 23 46  1  0
 25 47  1  0
 25 48  1  0
M  END
>  <meeko>  (60) 
{"is_sidechain": false}

$$$$

     RDKit          3D

 43 46  0  0  0  0  0  0  0  0999 V2000
    9.7590    3.1790  -61.4980 C   0  0  0  0  0  0  0  0  0  0  0  0
    9.5150    4.1090  -60.2990 C   0  0  2  0  0  0  0  0  0  0  0  0
   10.8510    4.5840  -59.6730 C   0  0  2  0  0  0  0  0  0  0  0  0
   11.5730    3.4160  -58.9780 C   0  0  0  0  0  0  0  0  0  0  0  0
   10.6790    2.8260  -57.8790 C   0  0  1  0  0  0  0  0  0  0  0  0
   10.3730    3.9200  -56.8400 C   0  0  0  0  0  0  0  0  0  0  0  0
    9.6560    5.1000  -57.5160 C   0  0  1  0  0  0  0  0  0  0  0  0
   10.5520    5.6710  -58.6250 C   0  0  0  0  0  0  0  0  0  0  0  0
    8.3360    4.6060  -58.1300 C   0  0  0  0  0  0  0  0  0  0  0  0
    8.5960    3.4930  -59.1830 C   0  0  1  0  0  0  0  0  0  0  0  0
    7.3300    3.0570  -59.7890 N   0  0  0  0  0  0  0  0  0  0  0  0
    6.2570    2.5250  -59.0900 C   0  0  0  0  0  0  0  0  0  0  0  0
    6.2910    2.2990  -57.8850 O   0  0  0  0  0  0  0  0  0  0  0  0
    5.0580    2.2730  -59.9220 C   0  0  0  0  0  0  0  0  0  0  0  0
    3.6870    2.3020  -59.5310 C   0  0  0  0  0  0  0  0  0  0  0  0
    2.9690    2.0060  -60.6650 C   0  0  0  0  0  0  0  0  0  0  0  0
    3.8900    1.8260  -61.6490 N   0  0  0  0  0  0  0  0  0  0  0  0
    3.6360    1.5080  -63.0340 C   0  0  0  0  0  0  0  0  0  0  0  0
    5.1560    1.9750  -61.2320 N   0  0  0  0  0  0  0  0  0  0  0  0
    9.3550    2.3300  -58.4900 C   0  0  0  0  0  0  0  0  0  0  0  0
   10.0225    2.1745  -61.1353 H   0  0  0  0  0  0  0  0  0  0  0  0
    8.8458    3.1205  -62.1085 H   0  0  0  0  0  0  0  0  0  0  0  0
   10.5833    3.5763  -62.1085 H   0  0  0  0  0  0  0  0  0  0  0  0
    8.9716    4.9700  -60.7153 H   0  0  0  0  0  0  0  0  0  0  0  0
   11.4953    4.9782  -60.4726 H   0  0  0  0  0  0  0  0  0  0  0  0
   11.8017    2.6362  -59.7194 H   0  0  0  0  0  0  0  0  0  0  0  0
   12.5052    3.7855  -58.5257 H   0  0  0  0  0  0  0  0  0  0  0  0
   11.1983    1.9823  -57.4011 H   0  0  0  0  0  0  0  0  0  0  0  0
    9.7275    3.5042  -56.0523 H   0  0  0  0  0  0  0  0  0  0  0  0
   11.3167    4.2746  -56.3998 H   0  0  0  0  0  0  0  0  0  0  0  0
    9.4473    5.8827  -56.7718 H   0  0  0  0  0  0  0  0  0  0  0  0
   10.0381    6.5136  -59.1107 H   0  0  0  0  0  0  0  0  0  0  0  0
   11.4983    6.0158  -58.1826 H   0  0  0  0  0  0  0  0  0  0  0  0
    7.6957    4.2035  -57.3312 H   0  0  0  0  0  0  0  0  0  0  0  0
    7.8419    5.4529  -58.6287 H   0  0  0  0  0  0  0  0  0  0  0  0
    7.1090    3.4500  -60.6930 H   0  0  0  0  0  0  0  0  0  0  0  0
    3.2868    2.5168  -58.5291 H   0  0  0  0  0  0  0  0  0  0  0  0
    1.8755    1.9304  -60.7574 H   0  0  0  0  0  0  0  0  0  0  0  0
    2.9505    0.6498  -63.0934 H   0  0  0  0  0  0  0  0  0  0  0  0
    3.1802    2.3765  -63.5320 H   0  0  0  0  0  0  0  0  0  0  0  0
    4.5837    1.2554  -63.5320 H   0  0  0  0  0  0  0  0  0  0  0  0
    8.7237    1.9128  -57.6916 H   0  0  0  0  0  0  0  0  0  0  0  0
    9.5813    1.5599  -59.2422 H   0  0  0  0  0  0  0  0  0  0  0  0
  1  2  1  0
  2  3  1  0
  3  4  1  0
  4  5  1  0
  5  6  1  0
  6  7  1  0
  7  8  1  0
  7  9  1  0
  9 10  1  0
 10 11  1  6
 11 12  1  0
 12 13  2  0
 12 14  1  0
 14 15  1  0
 15 16  2  0
 16 17  1  0
 17 18  1  0
 17 19  1  0
 10 20  1  0
 10  2  1  0
 19 14  2  0
  8  3  1  0
 20  5  1  0
  1 21  1  0
  1 22  1  0
  1 23  1  0
  2 24  1  6
  3 25  1  6
  4 26  1  0
  4 27  1  0
  5 28  1  1
  6 29  1  0
  6 30  1  0
  7 31  1  1
  8 32  1  0
  8 33  1  0
  9 34  1  0
  9 35  1  0
 11 36  1  0
 15 37  1  0
 16 38  1  0
 18 39  1  0
 18 40  1  0
 18 41  1  0
 20 42  1  0
 20 43  1  0
M  END
>  <meeko>  (61) 
{"is_sidechain": false}

$$$$

     RDKit          3D

 46 49  0  0  0  0  0  0  0  0999 V2000
    4.0210    2.4340  -58.2340 C   0  0  0  0  0  0  0  0  0  0  0  0
    4.0660    2.2600  -59.7060 C   0  0  0  0  0  0  0  0  0  0  0  0
    2.9870    2.1730  -60.5630 C   0  0  0  0  0  0  0  0  0  0  0  0
    3.5010    1.9650  -61.8050 N   0  0  0  0  0  0  0  0  0  0  0  0
    2.7640    1.7820  -63.0310 C   0  0  0  0  0  0  0  0  0  0  0  0
    4.8400    1.9330  -61.8340 N   0  0  0  0  0  0  0  0  0  0  0  0
    5.2140    2.1080  -60.5530 C   0  0  0  0  0  0  0  0  0  0  0  0
    6.6440    2.1330  -60.1720 C   0  0  0  0  0  0  0  0  0  0  0  0
    7.3980    1.1890  -60.3730 O   0  0  0  0  0  0  0  0  0  0  0  0
    7.0350    3.3270  -59.5910 N   0  0  0  0  0  0  0  0  0  0  0  0
    8.4050    3.7180  -59.2280 C   0  0  1  0  0  0  0  0  0  0  0  0
    8.4970    5.1340  -58.5980 C   0  0  0  0  0  0  0  0  0  0  0  0
    9.9630    5.5330  -58.3530 C   0  0  2  0  0  0  0  0  0  0  0  0
   10.7170    5.5570  -59.6890 C   0  0  0  0  0  0  0  0  0  0  0  0
   10.6730    4.1650  -60.3330 C   0  0  1  0  0  0  0  0  0  0  0  0
   11.3290    3.1440  -59.3920 C   0  0  0  0  0  0  0  0  0  0  0  0
   10.5750    3.1020  -58.0510 C   0  0  1  0  0  0  0  0  0  0  0  0
   10.6240    4.5060  -57.4180 C   0  0  0  0  0  0  0  0  0  0  0  0
    9.1060    2.6620  -58.3090 C   0  0  1  0  0  0  0  0  0  0  0  0
    8.3880    2.3680  -56.9870 C   0  0  0  0  0  0  0  0  0  0  0  0
    9.2090    3.7660  -60.5660 C   0  0  0  0  0  0  0  0  0  0  0  0
    4.2676    1.4804  -57.7444 H   0  0  0  0  0  0  0  0  0  0  0  0
    4.7505    3.2002  -57.9329 H   0  0  0  0  0  0  0  0  0  0  0  0
    3.0115    2.7505  -57.9329 H   0  0  0  0  0  0  0  0  0  0  0  0
    1.9234    2.2555  -60.2947 H   0  0  0  0  0  0  0  0  0  0  0  0
    1.7209    1.5230  -62.7966 H   0  0  0  0  0  0  0  0  0  0  0  0
    2.7880    2.7134  -63.6158 H   0  0  0  0  0  0  0  0  0  0  0  0
    3.2209    0.9700  -63.6158 H   0  0  0  0  0  0  0  0  0  0  0  0
    6.3820    4.0880  -59.7250 H   0  0  0  0  0  0  0  0  0  0  0  0
    8.0350    5.8624  -59.2806 H   0  0  0  0  0  0  0  0  0  0  0  0
    7.9700    5.1235  -57.6325 H   0  0  0  0  0  0  0  0  0  0  0  0
    9.9974    6.5306  -57.8909 H   0  0  0  0  0  0  0  0  0  0  0  0
   10.2440    6.2866  -60.3627 H   0  0  0  0  0  0  0  0  0  0  0  0
   11.7642    5.8430  -59.5111 H   0  0  0  0  0  0  0  0  0  0  0  0
   11.2142    4.1841  -61.2905 H   0  0  0  0  0  0  0  0  0  0  0  0
   11.2991    2.1479  -59.8578 H   0  0  0  0  0  0  0  0  0  0  0  0
   12.3726    3.4401  -59.2098 H   0  0  0  0  0  0  0  0  0  0  0  0
   11.0400    2.3813  -57.3623 H   0  0  0  0  0  0  0  0  0  0  0  0
   10.0876    4.4907  -56.4578 H   0  0  0  0  0  0  0  0  0  0  0  0
   11.6742    4.7908  -57.2568 H   0  0  0  0  0  0  0  0  0  0  0  0
    9.0705    1.7095  -58.8581 H   0  0  0  0  0  0  0  0  0  0  0  0
    9.0440    2.6366  -56.1458 H   0  0  0  0  0  0  0  0  0  0  0  0
    7.4620    2.9594  -56.9332 H   0  0  0  0  0  0  0  0  0  0  0  0
    8.1427    1.2970  -56.9332 H   0  0  0  0  0  0  0  0  0  0  0  0
    8.7413    4.5014  -61.2371 H   0  0  0  0  0  0  0  0  0  0  0  0
    9.1938    2.7607  -61.0122 H   0  0  0  0  0  0  0  0  0  0  0  0
  1  2  1  0
  2  3  2  0
  3  4  1  0
  4  5  1  0
  4  6  1  0
  6  7  2  0
  7  8  1  0
  8  9  2  0
  8 10  1  0
 11 10  1  6
 11 12  1  0
 12 13  1  0
 13 14  1  0
 14 15  1  0
 15 16  1  0
 16 17  1  0
 17 18  1  0
 17 19  1  0
 19 20  1  0
 15 21  1  0
  7  2  1  0
 19 11  1  0
 21 11  1  0
 18 13  1  0
  1 22  1  0
  1 23  1  0
  1 24  1  0
  3 25  1  0
  5 26  1  0
  5 27  1  0
  5 28  1  0
 10 29  1  0
 12 30  1  0
 12 31  1  0
 13 32  1  1
 14 33  1  0
 14 34  1  0
 15 35  1  6
 16 36  1  0
 16 37  1  0
 17 38  1  1
 18 39  1  0
 18 40  1  0
 19 41  1  6
 20 42  1  0
 20 43  1  0
 20 44  1  0
 21 45  1  0
 21 46  1  0
M  END
>  <meeko>  (62) 
{"is_sidechain": false}

$$$$

     RDKit          3D

 53 57  0  0  0  0  0  0  0  0999 V2000
   11.7490    2.9400  -57.3310 C   0  0  0  0  0  0  0  0  0  0  0  0
   10.5330    2.7880  -58.2600 C   0  0  2  0  0  0  0  0  0  0  0  0
   10.5530    3.8530  -59.3860 C   0  0  2  0  0  0  0  0  0  0  0  0
   10.2930    5.2570  -58.8120 C   0  0  0  0  0  0  0  0  0  0  0  0
    8.9310    5.2930  -58.1040 C   0  0  1  0  0  0  0  0  0  0  0  0
    7.8280    4.9520  -59.1220 C   0  0  0  0  0  0  0  0  0  0  0  0
    8.0710    3.5540  -59.7110 C   0  0  1  0  0  0  0  0  0  0  0  0
    9.4430    3.5230  -60.4020 C   0  0  0  0  0  0  0  0  0  0  0  0
    8.0500    2.5180  -58.5750 C   0  0  0  0  0  0  0  0  0  0  0  0
    9.1500    2.8260  -57.5220 C   0  0  1  0  0  0  0  0  0  0  0  0
    9.1310    1.8130  -56.4670 N   0  0  0  0  0  0  0  0  0  0  0  0
    8.0120    1.2640  -55.8780 C   0  0  0  0  0  0  0  0  0  0  0  0
    6.8600    1.6300  -56.0840 O   0  0  0  0  0  0  0  0  0  0  0  0
    8.3400    0.1560  -54.9660 C   0  0  0  0  0  0  0  0  0  0  0  0
    7.4720   -0.4730  -54.0400 C   0  0  0  0  0  0  0  0  0  0  0  0
    8.2240   -1.4420  -53.4050 C   0  0  0  0  0  0  0  0  0  0  0  0
    7.8410   -2.3820  -52.3590 C   0  0  0  0  0  0  0  0  0  0  0  0
    8.0310   -2.0680  -51.0070 C   0  0  0  0  0  0  0  0  0  0  0  0
    7.6600   -2.9740  -50.0120 C   0  0  0  0  0  0  0  0  0  0  0  0
    7.0920   -4.1990  -50.3600 C   0  0  0  0  0  0  0  0  0  0  0  0
    6.8910   -4.5160  -51.7030 C   0  0  0  0  0  0  0  0  0  0  0  0
    7.2600   -3.6100  -52.6980 C   0  0  0  0  0  0  0  0  0  0  0  0
    9.4630   -1.3720  -54.0000 N   0  0  0  0  0  0  0  0  0  0  0  0
   10.6050   -2.2230  -53.7510 C   0  0  0  0  0  0  0  0  0  0  0  0
    9.5680   -0.4010  -54.9320 N   0  0  0  0  0  0  0  0  0  0  0  0
    8.9050    4.2550  -56.9680 C   0  0  0  0  0  0  0  0  0  0  0  0
   11.4173    2.8985  -56.2830 H   0  0  0  0  0  0  0  0  0  0  0  0
   12.4612    2.1239  -57.5227 H   0  0  0  0  0  0  0  0  0  0  0  0
   12.2384    3.9063  -57.5227 H   0  0  0  0  0  0  0  0  0  0  0  0
   10.6303    1.7814  -58.6928 H   0  0  0  0  0  0  0  0  0  0  0  0
   11.5417    3.8409  -59.8680 H   0  0  0  0  0  0  0  0  0  0  0  0
   11.0848    5.5077  -58.0908 H   0  0  0  0  0  0  0  0  0  0  0  0
   10.2911    5.9877  -59.6342 H   0  0  0  0  0  0  0  0  0  0  0  0
    8.7635    6.2961  -57.6847 H   0  0  0  0  0  0  0  0  0  0  0  0
    6.8498    4.9705  -58.6192 H   0  0  0  0  0  0  0  0  0  0  0  0
    7.8440    5.6939  -59.9340 H   0  0  0  0  0  0  0  0  0  0  0  0
    7.2852    3.3186  -60.4438 H   0  0  0  0  0  0  0  0  0  0  0  0
    9.6179    2.5205  -60.8196 H   0  0  0  0  0  0  0  0  0  0  0  0
    9.4579    4.2711  -61.2083 H   0  0  0  0  0  0  0  0  0  0  0  0
    7.0656    2.5414  -58.0846 H   0  0  0  0  0  0  0  0  0  0  0  0
    8.2428    1.5234  -59.0034 H   0  0  0  0  0  0  0  0  0  0  0  0
    9.9810    1.2940  -56.2550 H   0  0  0  0  0  0  0  0  0  0  0  0
    6.4124   -0.2372  -53.8624 H   0  0  0  0  0  0  0  0  0  0  0  0
    8.4754   -1.1013  -50.7277 H   0  0  0  0  0  0  0  0  0  0  0  0
    7.8158   -2.7214  -48.9528 H   0  0  0  0  0  0  0  0  0  0  0  0
    6.8028   -4.9144  -49.5761 H   0  0  0  0  0  0  0  0  0  0  0  0
    6.4411   -5.4813  -51.9783 H   0  0  0  0  0  0  0  0  0  0  0  0
    7.0934   -3.8622  -53.7557 H   0  0  0  0  0  0  0  0  0  0  0  0
   10.7514   -2.3321  -52.6663 H   0  0  0  0  0  0  0  0  0  0  0  0
   10.4296   -3.2124  -54.1986 H   0  0  0  0  0  0  0  0  0  0  0  0
   11.5029   -1.7720  -54.1986 H   0  0  0  0  0  0  0  0  0  0  0  0
    7.9232    4.2865  -56.4730 H   0  0  0  0  0  0  0  0  0  0  0  0
    9.7031    4.4969  -56.2508 H   0  0  0  0  0  0  0  0  0  0  0  0
  1  2  1  0
  2  3  1  0
  3  4  1  0
  4  5  1  0
  5  6  1  0
  6  7  1  0
  7  8  1  0
  7  9  1  0
  9 10  1  0
 10 11  1  1
 11 12  1  0
 12 13  2  0
 12 14  1  0
 14 15  1  0
 15 16  2  0
 16 17  1  0
 17 18  2  0
 18 19  1  0
 19 20  2  0
 20 21  1  0
 21 22  2  0
 16 23  1  0
 23 24  1  0
 23 25  1  0
 10 26  1  0
 10  2  1  0
 25 14  2  0
  8  3  1  0
 22 17  1  0
 26  5  1  0
  1 27  1  0
  1 28  1  0
  1 29  1  0
  2 30  1  6
  3 31  1  6
  4 32  1  0
  4 33  1  0
  5 34  1  1
  6 35  1  0
  6 36  1  0
  7 37  1  6
  8 38  1  0
  8 39  1  0
  9 40  1  0
  9 41  1  0
 11 42  1  0
 15 43  1  0
 18 44  1  0
 19 45  1  0
 20 46  1  0
 21 47  1  0
 22 48  1  0
 24 49  1  0
 24 50  1  0
 24 51  1  0
 26 52  1  0
 26 53  1  0
M  END
>  <meeko>  (63) 
{"is_sidechain": false}

$$$$

     RDKit          3D

 52 56  0  0  0  0  0  0  0  0999 V2000
   10.9940   -2.4300  -53.5700 C   0  0  0  0  0  0  0  0  0  0  0  0
    9.8610   -1.5440  -53.9220 C   0  0  0  0  0  0  0  0  0  0  0  0
    9.9470   -0.5920  -54.8300 N   0  0  0  0  0  0  0  0  0  0  0  0
    8.6770   -0.0880  -54.9170 C   0  0  0  0  0  0  0  0  0  0  0  0
    8.2820    1.0120  -55.8280 C   0  0  0  0  0  0  0  0  0  0  0  0
    7.1260    1.4060  -55.9500 O   0  0  0  0  0  0  0  0  0  0  0  0
    9.3540    1.5380  -56.5280 N   0  0  0  0  0  0  0  0  0  0  0  0
    9.2920    2.6110  -57.5190 C   0  0  1  0  0  0  0  0  0  0  0  0
    8.9080    3.9300  -56.7900 C   0  0  0  0  0  0  0  0  0  0  0  0
    8.7910    5.0980  -57.7820 C   0  0  2  0  0  0  0  0  0  0  0  0
    7.6990    4.7740  -58.8120 C   0  0  0  0  0  0  0  0  0  0  0  0
    8.0610    3.4890  -59.5690 C   0  0  1  0  0  0  0  0  0  0  0  0
    9.4080    3.6820  -60.2840 C   0  0  0  0  0  0  0  0  0  0  0  0
   10.5140    4.0020  -59.2590 C   0  0  1  0  0  0  0  0  0  0  0  0
   10.1290    5.2910  -58.5110 C   0  0  0  0  0  0  0  0  0  0  0  0
   10.6460    2.8080  -58.2770 C   0  0  1  0  0  0  0  0  0  0  0  0
   11.8610    2.9670  -57.3530 C   0  0  0  0  0  0  0  0  0  0  0  0
    8.1810    2.3270  -58.5680 C   0  0  0  0  0  0  0  0  0  0  0  0
    7.7990   -0.6900  -54.0950 N   0  0  0  0  0  0  0  0  0  0  0  0
    8.5660   -1.5950  -53.4210 N   0  0  0  0  0  0  0  0  0  0  0  0
    7.9660   -2.3880  -52.3950 C   0  0  0  0  0  0  0  0  0  0  0  0
    7.0200   -3.3640  -52.7660 C   0  0  0  0  0  0  0  0  0  0  0  0
    6.4030   -4.1690  -51.8040 C   0  0  0  0  0  0  0  0  0  0  0  0
    6.7160   -4.0060  -50.4590 C   0  0  0  0  0  0  0  0  0  0  0  0
    7.6380   -3.0360  -50.0760 C   0  0  0  0  0  0  0  0  0  0  0  0
    8.2590   -2.2290  -51.0370 C   0  0  0  0  0  0  0  0  0  0  0  0
   11.0803   -2.4975  -52.4755 H   0  0  0  0  0  0  0  0  0  0  0  0
   10.8184   -3.4328  -53.9865 H   0  0  0  0  0  0  0  0  0  0  0  0
   11.9249   -2.0178  -53.9865 H   0  0  0  0  0  0  0  0  0  0  0  0
   10.2430    1.0870  -56.3310 H   0  0  0  0  0  0  0  0  0  0  0  0
    7.9418    3.7917  -56.2827 H   0  0  0  0  0  0  0  0  0  0  0  0
    9.6971    4.1686  -56.0617 H   0  0  0  0  0  0  0  0  0  0  0  0
    8.5338    6.0186  -57.2376 H   0  0  0  0  0  0  0  0  0  0  0  0
    6.7387    4.6341  -58.2940 H   0  0  0  0  0  0  0  0  0  0  0  0
    7.6173    5.6055  -59.5275 H   0  0  0  0  0  0  0  0  0  0  0  0
    7.2785    3.2630  -60.3083 H   0  0  0  0  0  0  0  0  0  0  0  0
    9.6685    2.7594  -60.8234 H   0  0  0  0  0  0  0  0  0  0  0  0
    9.3217    4.5195  -60.9920 H   0  0  0  0  0  0  0  0  0  0  0  0
   11.4826    4.1553  -59.7572 H   0  0  0  0  0  0  0  0  0  0  0  0
   10.9117    5.5334  -57.7770 H   0  0  0  0  0  0  0  0  0  0  0  0
   10.0290    6.1121  -59.2361 H   0  0  0  0  0  0  0  0  0  0  0  0
   10.8429    1.8830  -58.8388 H   0  0  0  0  0  0  0  0  0  0  0  0
   11.5322    2.9240  -56.3042 H   0  0  0  0  0  0  0  0  0  0  0  0
   12.5774    2.1549  -57.5463 H   0  0  0  0  0  0  0  0  0  0  0  0
   12.3443    3.9361  -57.5463 H   0  0  0  0  0  0  0  0  0  0  0  0
    7.2199    2.1983  -58.0487 H   0  0  0  0  0  0  0  0  0  0  0  0
    8.4447    1.4131  -59.1205 H   0  0  0  0  0  0  0  0  0  0  0  0
    6.7633   -3.4944  -53.8277 H   0  0  0  0  0  0  0  0  0  0  0  0
    5.6708   -4.9305  -52.1106 H   0  0  0  0  0  0  0  0  0  0  0  0
    6.2365   -4.6416  -49.7000 H   0  0  0  0  0  0  0  0  0  0  0  0
    7.8803   -2.9026  -49.0113 H   0  0  0  0  0  0  0  0  0  0  0  0
    8.9833   -1.4637  -50.7211 H   0  0  0  0  0  0  0  0  0  0  0  0
  1  2  1  0
  2  3  2  0
  3  4  1  0
  4  5  1  0
  5  6  2  0
  5  7  1  0
  8  7  1  1
  8  9  1  0
  9 10  1  0
 10 11  1  0
 11 12  1  0
 12 13  1  0
 13 14  1  0
 14 15  1  0
 14 16  1  0
 16 17  1  0
 12 18  1  0
  4 19  2  0
 19 20  1  0
 20 21  1  0
 21 22  2  0
 22 23  1  0
 23 24  2  0
 24 25  1  0
 25 26  2  0
 20  2  1  0
 26 21  1  0
 16  8  1  0
 18  8  1  0
 15 10  1  0
  1 27  1  0
  1 28  1  0
  1 29  1  0
  7 30  1  0
  9 31  1  0
  9 32  1  0
 10 33  1  1
 11 34  1  0
 11 35  1  0
 12 36  1  6
 13 37  1  0
 13 38  1  0
 14 39  1  6
 15 40  1  0
 15 41  1  0
 16 42  1  6
 17 43  1  0
 17 44  1  0
 17 45  1  0
 18 46  1  0
 18 47  1  0
 22 48  1  0
 23 49  1  0
 24 50  1  0
 25 51  1  0
 26 52  1  0
M  END
>  <meeko>  (64) 
{"is_sidechain": false}

$$$$

     RDKit          3D

 53 57  0  0  0  0  0  0  0  0999 V2000
    5.9090   -0.3110  -53.9220 C   0  0  0  0  0  0  0  0  0  0  0  0
    7.3740   -0.5150  -54.0590 C   0  0  0  0  0  0  0  0  0  0  0  0
    8.2510    0.1760  -54.9490 C   0  0  0  0  0  0  0  0  0  0  0  0
    7.9070    1.2290  -55.9270 C   0  0  0  0  0  0  0  0  0  0  0  0
    6.7520    1.5520  -56.1850 O   0  0  0  0  0  0  0  0  0  0  0  0
    9.0210    1.7930  -56.5090 N   0  0  0  0  0  0  0  0  0  0  0  0
    9.0320    2.8500  -57.5140 C   0  0  2  0  0  0  0  0  0  0  0  0
    8.0170    2.5660  -58.6490 C   0  0  0  0  0  0  0  0  0  0  0  0
    8.0810    3.6690  -59.7210 C   0  0  1  0  0  0  0  0  0  0  0  0
    7.7630    5.0260  -59.0690 C   0  0  0  0  0  0  0  0  0  0  0  0
    8.7860    5.3350  -57.9630 C   0  0  2  0  0  0  0  0  0  0  0  0
   10.1960    5.3700  -58.5720 C   0  0  0  0  0  0  0  0  0  0  0  0
   10.5240    4.0150  -59.2170 C   0  0  2  0  0  0  0  0  0  0  0  0
    9.4960    3.7150  -60.3190 C   0  0  0  0  0  0  0  0  0  0  0  0
   10.4490    2.9160  -58.1450 C   0  0  0  0  0  0  0  0  0  0  0  0
    8.7210    4.2330  -56.8920 C   0  0  0  0  0  0  0  0  0  0  0  0
    9.5250   -0.2480  -54.8060 N   0  0  0  0  0  0  0  0  0  0  0  0
    9.4510   -1.1990  -53.8560 N   0  0  0  0  0  0  0  0  0  0  0  0
   10.6560   -1.9000  -53.4730 C   0  0  0  0  0  0  0  0  0  0  0  0
    8.1870   -1.3940  -53.3590 C   0  0  0  0  0  0  0  0  0  0  0  0
    7.8580   -2.3620  -52.3200 C   0  0  0  0  0  0  0  0  0  0  0  0
    7.9120   -1.9990  -50.9690 C   0  0  0  0  0  0  0  0  0  0  0  0
    7.6020   -2.9310  -49.9770 C   0  0  0  0  0  0  0  0  0  0  0  0
    7.2340   -4.2290  -50.3290 C   0  0  0  0  0  0  0  0  0  0  0  0
    7.1720   -4.5960  -51.6730 C   0  0  0  0  0  0  0  0  0  0  0  0
    7.4810   -3.6650  -52.6660 C   0  0  0  0  0  0  0  0  0  0  0  0
    5.6421   -0.2738  -52.8555 H   0  0  0  0  0  0  0  0  0  0  0  0
    5.6239    0.6355  -54.4045 H   0  0  0  0  0  0  0  0  0  0  0  0
    5.3761   -1.1436  -54.4045 H   0  0  0  0  0  0  0  0  0  0  0  0
    9.8980    1.3950  -56.1760 H   0  0  0  0  0  0  0  0  0  0  0  0
    8.2546    1.5971  -59.1125 H   0  0  0  0  0  0  0  0  0  0  0  0
    7.0036    2.5449  -58.2217 H   0  0  0  0  0  0  0  0  0  0  0  0
    7.3503    3.4567  -60.5153 H   0  0  0  0  0  0  0  0  0  0  0  0
    7.8047    5.8155  -59.8338 H   0  0  0  0  0  0  0  0  0  0  0  0
    6.7567    4.9853  -58.6267 H   0  0  0  0  0  0  0  0  0  0  0  0
    8.5569    6.3092  -57.5065 H   0  0  0  0  0  0  0  0  0  0  0  0
   10.2426    6.1585  -59.3375 H   0  0  0  0  0  0  0  0  0  0  0  0
   10.9274    5.5778  -57.7771 H   0  0  0  0  0  0  0  0  0  0  0  0
   11.5343    4.0455  -59.6511 H   0  0  0  0  0  0  0  0  0  0  0  0
    9.5423    4.5036  -61.0845 H   0  0  0  0  0  0  0  0  0  0  0  0
    9.7277    2.7400  -60.7725 H   0  0  0  0  0  0  0  0  0  0  0  0
   10.6823    1.9457  -58.6077 H   0  0  0  0  0  0  0  0  0  0  0  0
   11.1751    3.1495  -57.3523 H   0  0  0  0  0  0  0  0  0  0  0  0
    9.4585    4.4496  -56.1051 H   0  0  0  0  0  0  0  0  0  0  0  0
    7.7067    4.2108  -56.4670 H   0  0  0  0  0  0  0  0  0  0  0  0
   10.7241   -1.9396  -52.3758 H   0  0  0  0  0  0  0  0  0  0  0  0
   10.6287   -2.9232  -53.8759 H   0  0  0  0  0  0  0  0  0  0  0  0
   11.5320   -1.3705  -53.8759 H   0  0  0  0  0  0  0  0  0  0  0  0
    8.1999   -0.9752  -50.6880 H   0  0  0  0  0  0  0  0  0  0  0  0
    7.6481   -2.6412  -48.9169 H   0  0  0  0  0  0  0  0  0  0  0  0
    6.9926   -4.9635  -49.5466 H   0  0  0  0  0  0  0  0  0  0  0  0
    6.8795   -5.6194  -51.9506 H   0  0  0  0  0  0  0  0  0  0  0  0
    7.4280   -3.9565  -53.7253 H   0  0  0  0  0  0  0  0  0  0  0  0
  1  2  1  0
  2  3  1  0
  3  4  1  0
  4  5  2  0
  4  6  1  0
  7  6  1  1
  7  8  1  0
  8  9  1  0
  9 10  1  0
 10 11  1  0
 11 12  1  0
 12 13  1  0
 13 14  1  0
 13 15  1  0
 11 16  1  0
  3 17  2  0
 17 18  1  0
 18 19  1  0
 18 20  1  0
 20 21  1  0
 21 22  2  0
 22 23  1  0
 23 24  2  0
 24 25  1  0
 25 26  2  0
 20  2  2  0
 26 21  1  0
 15  7  1  0
 16  7  1  0
 14  9  1  0
  1 27  1  0
  1 28  1  0
  1 29  1  0
  6 30  1  0
  8 31  1  0
  8 32  1  0
  9 33  1  6
 10 34  1  0
 10 35  1  0
 11 36  1  1
 12 37  1  0
 12 38  1  0
 13 39  1  6
 14 40  1  0
 14 41  1  0
 15 42  1  0
 15 43  1  0
 16 44  1  0
 16 45  1  0
 19 46  1  0
 19 47  1  0
 19 48  1  0
 22 49  1  0
 23 50  1  0
 24 51  1  0
 25 52  1  0
 26 53  1  0
M  END
>  <meeko>  (65) 
{"is_sidechain": false}

$$$$

     RDKit          3D

 62 66  0  0  0  0  0  0  0  0999 V2000
    6.5060   -0.2060  -53.6940 C   0  0  0  0  0  0  0  0  0  0  0  0
    7.9100   -0.5400  -54.0530 C   0  0  0  0  0  0  0  0  0  0  0  0
    8.7190    0.0820  -55.0580 C   0  0  0  0  0  0  0  0  0  0  0  0
    8.3460    1.1450  -56.0130 C   0  0  0  0  0  0  0  0  0  0  0  0
    7.2080    1.5980  -56.0980 O   0  0  0  0  0  0  0  0  0  0  0  0
    9.4100    1.6000  -56.7770 N   0  0  0  0  0  0  0  0  0  0  0  0
    9.3480    2.7410  -57.6970 C   0  0  1  0  0  0  0  0  0  0  0  0
    9.0210    4.0150  -56.8670 C   0  0  0  0  0  0  0  0  0  0  0  0
    8.8930    5.2510  -57.7700 C   0  0  2  0  0  0  0  0  0  0  0  0
    7.7590    5.0200  -58.7800 C   0  0  0  0  0  0  0  0  0  0  0  0
    8.0690    3.7830  -59.6370 C   0  0  1  0  0  0  0  0  0  0  0  0
    9.3950    4.0030  -60.3840 C   0  0  0  0  0  0  0  0  0  0  0  0
   10.5410    4.2310  -59.3790 C   0  0  1  0  0  0  0  0  0  0  0  0
   10.2090    5.4710  -58.5300 C   0  0  0  0  0  0  0  0  0  0  0  0
   10.6800    2.9680  -58.4870 C   0  0  1  0  0  0  0  0  0  0  0  0
   11.9290    3.0390  -57.5980 C   0  0  0  0  0  0  0  0  0  0  0  0
    8.1960    2.5520  -58.7240 C   0  0  0  0  0  0  0  0  0  0  0  0
    9.9490   -0.4500  -55.0650 N   0  0  0  0  0  0  0  0  0  0  0  0
    9.9430   -1.3720  -54.0910 N   0  0  0  0  0  0  0  0  0  0  0  0
   11.1750   -2.0860  -53.8510 C   0  0  0  0  0  0  0  0  0  0  0  0
    8.7220   -1.5080  -53.4720 C   0  0  0  0  0  0  0  0  0  0  0  0
    8.3900   -2.4920  -52.3780 C   0  0  0  0  0  0  0  0  0  0  0  0
    7.5230   -3.6590  -52.8870 C   0  0  0  0  0  0  0  0  0  0  0  0
    6.6430   -4.2740  -51.7960 C   0  0  0  0  0  0  0  0  0  0  0  0
    7.3400   -4.2690  -50.4420 C   0  0  0  0  0  0  0  0  0  0  0  0
    7.6850   -2.8530  -49.9730 C   0  0  0  0  0  0  0  0  0  0  0  0
    7.8150   -1.8410  -51.1150 C   0  0  0  0  0  0  0  0  0  0  0  0
    6.4034   -0.1816  -52.5991 H   0  0  0  0  0  0  0  0  0  0  0  0
    6.2459    0.7791  -54.1087 H   0  0  0  0  0  0  0  0  0  0  0  0
    5.8302   -0.9684  -54.1087 H   0  0  0  0  0  0  0  0  0  0  0  0
   10.3230    1.3370  -56.4330 H   0  0  0  0  0  0  0  0  0  0  0  0
    8.0715    3.8612  -56.3333 H   0  0  0  0  0  0  0  0  0  0  0  0
    9.8430    4.1873  -56.1566 H   0  0  0  0  0  0  0  0  0  0  0  0
    8.6727    6.1358  -57.1546 H   0  0  0  0  0  0  0  0  0  0  0  0
    6.8145    4.8618  -58.2387 H   0  0  0  0  0  0  0  0  0  0  0  0
    7.6692    5.9008  -59.4328 H   0  0  0  0  0  0  0  0  0  0  0  0
    7.2585    3.6219  -60.3630 H   0  0  0  0  0  0  0  0  0  0  0  0
    9.6190    3.1164  -60.9954 H   0  0  0  0  0  0  0  0  0  0  0  0
    9.3010    4.8897  -61.0282 H   0  0  0  0  0  0  0  0  0  0  0  0
   11.4951    4.4019  -59.8991 H   0  0  0  0  0  0  0  0  0  0  0  0
   11.0209    5.6467  -57.8090 H   0  0  0  0  0  0  0  0  0  0  0  0
   10.1020    6.3432  -59.1917 H   0  0  0  0  0  0  0  0  0  0  0  0
   10.8372    2.0814  -59.1189 H   0  0  0  0  0  0  0  0  0  0  0  0
   11.6276    3.0219  -56.5402 H   0  0  0  0  0  0  0  0  0  0  0  0
   12.5783    2.1763  -57.8083 H   0  0  0  0  0  0  0  0  0  0  0  0
   12.4763    3.9697  -57.8083 H   0  0  0  0  0  0  0  0  0  0  0  0
    7.2501    2.4064  -58.1817 H   0  0  0  0  0  0  0  0  0  0  0  0
    8.4203    1.6735  -59.3468 H   0  0  0  0  0  0  0  0  0  0  0  0
   11.3387   -2.1809  -52.7674 H   0  0  0  0  0  0  0  0  0  0  0  0
   11.1120   -3.0876  -54.3014 H   0  0  0  0  0  0  0  0  0  0  0  0
   12.0127   -1.5334  -54.3014 H   0  0  0  0  0  0  0  0  0  0  0  0
    9.3540   -2.9209  -52.0668 H   0  0  0  0  0  0  0  0  0  0  0  0
    6.8730   -3.2867  -53.6925 H   0  0  0  0  0  0  0  0  0  0  0  0
    8.2063   -4.4457  -53.2393 H   0  0  0  0  0  0  0  0  0  0  0  0
    5.7116   -3.6938  -51.7198 H   0  0  0  0  0  0  0  0  0  0  0  0
    6.4348   -5.3185  -52.0711 H   0  0  0  0  0  0  0  0  0  0  0  0
    6.6754   -4.7356  -49.7000 H   0  0  0  0  0  0  0  0  0  0  0  0
    8.2813   -4.8287  -50.5453 H   0  0  0  0  0  0  0  0  0  0  0  0
    6.8915   -2.5094  -49.2931 H   0  0  0  0  0  0  0  0  0  0  0  0
    8.6662   -2.9081  -49.4789 H   0  0  0  0  0  0  0  0  0  0  0  0
    6.8203   -1.4314  -51.3449 H   0  0  0  0  0  0  0  0  0  0  0  0
    8.5015   -1.0437  -50.7939 H   0  0  0  0  0  0  0  0  0  0  0  0
  1  2  1  0
  2  3  1  0
  3  4  1  0
  4  5  2  0
  4  6  1  0
  7  6  1  1
  7  8  1  0
  8  9  1  0
  9 10  1  0
 10 11  1  0
 11 12  1  0
 12 13  1  0
 13 14  1  0
 13 15  1  0
 15 16  1  0
 11 17  1  0
  3 18  2  0
 18 19  1  0
 19 20  1  0
 19 21  1  0
 21 22  1  0
 22 23  1  0
 23 24  1  0
 24 25  1  0
 25 26  1  0
 26 27  1  0
 21  2  2  0
 27 22  1  0
 15  7  1  0
 17  7  1  0
 14  9  1  0
  1 28  1  0
  1 29  1  0
  1 30  1  0
  6 31  1  0
  8 32  1  0
  8 33  1  0
  9 34  1  1
 10 35  1  0
 10 36  1  0
 11 37  1  6
 12 38  1  0
 12 39  1  0
 13 40  1  6
 14 41  1  0
 14 42  1  0
 15 43  1  6
 16 44  1  0
 16 45  1  0
 16 46  1  0
 17 47  1  0
 17 48  1  0
 20 49  1  0
 20 50  1  0
 20 51  1  0
 22 52  1  0
 23 53  1  0
 23 54  1  0
 24 55  1  0
 24 56  1  0
 25 57  1  0
 25 58  1  0
 26 59  1  0
 26 60  1  0
 27 61  1  0
 27 62  1  0
M  END
>  <meeko>  (66) 
{"is_sidechain": false}

$$$$

     RDKit          3D

 56 60  0  0  0  0  0  0  0  0999 V2000
    5.9860   -0.2850  -54.2060 C   0  0  0  0  0  0  0  0  0  0  0  0
    7.4590   -0.4600  -54.2900 C   0  0  0  0  0  0  0  0  0  0  0  0
    8.3760    0.2240  -55.1570 C   0  0  0  0  0  0  0  0  0  0  0  0
    8.0840    1.2890  -56.1390 C   0  0  0  0  0  0  0  0  0  0  0  0
    6.9500    1.7000  -56.3570 O   0  0  0  0  0  0  0  0  0  0  0  0
    9.2110    1.7550  -56.7980 N   0  0  0  0  0  0  0  0  0  0  0  0
    9.2100    2.7610  -57.8680 C   0  0  1  0  0  0  0  0  0  0  0  0
    8.1560    2.3920  -58.9530 C   0  0  0  0  0  0  0  0  0  0  0  0
    8.1260    3.4440  -60.0740 C   0  0  2  0  0  0  0  0  0  0  0  0
    9.5160    3.5280  -60.7230 C   0  0  0  0  0  0  0  0  0  0  0  0
   10.5630    3.9370  -59.6720 C   0  0  1  0  0  0  0  0  0  0  0  0
   10.1760    5.3040  -59.0880 C   0  0  0  0  0  0  0  0  0  0  0  0
    8.7920    5.2180  -58.4190 C   0  0  1  0  0  0  0  0  0  0  0  0
    7.7560    4.8090  -59.4800 C   0  0  0  0  0  0  0  0  0  0  0  0
    8.7970    4.1620  -57.2830 C   0  0  2  0  0  0  0  0  0  0  0  0
    9.6550    4.6430  -56.1000 C   0  0  0  0  0  0  0  0  0  0  0  0
   10.5960    2.8800  -58.5540 C   0  0  0  0  0  0  0  0  0  0  0  0
    9.6290   -0.2210  -54.9710 N   0  0  0  0  0  0  0  0  0  0  0  0
    9.5220   -1.1640  -54.0230 N   0  0  0  0  0  0  0  0  0  0  0  0
   10.7090   -1.8780  -53.6080 C   0  0  0  0  0  0  0  0  0  0  0  0
    8.2450   -1.3320  -53.5500 C   0  0  0  0  0  0  0  0  0  0  0  0
    7.8820   -2.2830  -52.5070 C   0  0  0  0  0  0  0  0  0  0  0  0
    7.4830   -3.5800  -52.8440 C   0  0  0  0  0  0  0  0  0  0  0  0
    7.1390   -4.4920  -51.8450 C   0  0  0  0  0  0  0  0  0  0  0  0
    7.1910   -4.1110  -50.5050 C   0  0  0  0  0  0  0  0  0  0  0  0
    7.5840   -2.8180  -50.1620 C   0  0  0  0  0  0  0  0  0  0  0  0
    7.9280   -1.9040  -51.1600 C   0  0  0  0  0  0  0  0  0  0  0  0
    5.6807   -0.2487  -53.1498 H   0  0  0  0  0  0  0  0  0  0  0  0
    5.6993    0.6535  -54.7030 H   0  0  0  0  0  0  0  0  0  0  0  0
    5.4874   -1.1302  -54.7030 H   0  0  0  0  0  0  0  0  0  0  0  0
   10.0420    1.1960  -56.6740 H   0  0  0  0  0  0  0  0  0  0  0  0
    8.4123    1.4134  -59.3851 H   0  0  0  0  0  0  0  0  0  0  0  0
    7.1638    2.3568  -58.4794 H   0  0  0  0  0  0  0  0  0  0  0  0
    7.3805    3.1598  -60.8313 H   0  0  0  0  0  0  0  0  0  0  0  0
    9.7832    2.5460  -61.1405 H   0  0  0  0  0  0  0  0  0  0  0  0
    9.4956    4.2809  -61.5247 H   0  0  0  0  0  0  0  0  0  0  0  0
   11.5584    4.0055  -60.1350 H   0  0  0  0  0  0  0  0  0  0  0  0
   10.9241    5.6056  -58.3400 H   0  0  0  0  0  0  0  0  0  0  0  0
   10.1395    6.0460  -59.8992 H   0  0  0  0  0  0  0  0  0  0  0  0
    8.5404    6.1982  -57.9879 H   0  0  0  0  0  0  0  0  0  0  0  0
    6.7618    4.7461  -59.0135 H   0  0  0  0  0  0  0  0  0  0  0  0
    7.7440    5.5613  -60.2825 H   0  0  0  0  0  0  0  0  0  0  0  0
    7.7862    4.0345  -56.8682 H   0  0  0  0  0  0  0  0  0  0  0  0
    9.1639    4.3677  -55.1550 H   0  0  0  0  0  0  0  0  0  0  0  0
   10.6465    4.1692  -56.1496 H   0  0  0  0  0  0  0  0  0  0  0  0
    9.7681    5.7360  -56.1496 H   0  0  0  0  0  0  0  0  0  0  0  0
   10.8693    1.9061  -58.9863 H   0  0  0  0  0  0  0  0  0  0  0  0
   11.3372    3.1860  -57.8010 H   0  0  0  0  0  0  0  0  0  0  0  0
   10.7549   -1.9056  -52.5093 H   0  0  0  0  0  0  0  0  0  0  0  0
   10.6746   -2.9054  -53.9995 H   0  0  0  0  0  0  0  0  0  0  0  0
   11.6005   -1.3661  -53.9995 H   0  0  0  0  0  0  0  0  0  0  0  0
    7.4400   -3.8828  -53.9006 H   0  0  0  0  0  0  0  0  0  0  0  0
    6.8268   -5.5116  -52.1151 H   0  0  0  0  0  0  0  0  0  0  0  0
    6.9219   -4.8308  -49.7179 H   0  0  0  0  0  0  0  0  0  0  0  0
    7.6231   -2.5177  -49.1045 H   0  0  0  0  0  0  0  0  0  0  0  0
    8.2359   -0.8838  -50.8872 H   0  0  0  0  0  0  0  0  0  0  0  0
  1  2  1  0
  2  3  1  0
  3  4  1  0
  4  5  2  0
  4  6  1  0
  7  6  1  1
  7  8  1  0
  8  9  1  0
  9 10  1  0
 10 11  1  0
 11 12  1  0
 12 13  1  0
 13 14  1  0
 13 15  1  0
 15 16  1  0
 11 17  1  0
  3 18  2  0
 18 19  1  0
 19 20  1  0
 19 21  1  0
 21 22  1  0
 22 23  2  0
 23 24  1  0
 24 25  2  0
 25 26  1  0
 26 27  2  0
 21  2  2  0
 27 22  1  0
 15  7  1  0
 17  7  1  0
 14  9  1  0
  1 28  1  0
  1 29  1  0
  1 30  1  0
  6 31  1  0
  8 32  1  0
  8 33  1  0
  9 34  1  6
 10 35  1  0
 10 36  1  0
 11 37  1  6
 12 38  1  0
 12 39  1  0
 13 40  1  1
 14 41  1  0
 14 42  1  0
 15 43  1  1
 16 44  1  0
 16 45  1  0
 16 46  1  0
 17 47  1  0
 17 48  1  0
 20 49  1  0
 20 50  1  0
 20 51  1  0
 23 52  1  0
 24 53  1  0
 25 54  1  0
 26 55  1  0
 27 56  1  0
M  END
>  <meeko>  (67) 
{"is_sidechain": false}

$$$$

     RDKit          3D

 53 57  0  0  0  0  0  0  0  0999 V2000
    6.1620   -0.1730  -53.6770 C   0  0  0  0  0  0  0  0  0  0  0  0
    7.5760   -0.5430  -53.9530 C   0  0  0  0  0  0  0  0  0  0  0  0
    8.4240    0.0320  -54.9480 C   0  0  0  0  0  0  0  0  0  0  0  0
    8.1010    1.1110  -55.9050 C   0  0  0  0  0  0  0  0  0  0  0  0
    6.9620    1.5230  -56.0910 O   0  0  0  0  0  0  0  0  0  0  0  0
    9.2180    1.5870  -56.5580 N   0  0  0  0  0  0  0  0  0  0  0  0
    9.2480    2.6430  -57.5670 C   0  0  1  0  0  0  0  0  0  0  0  0
    8.9130    3.9940  -56.8760 C   0  0  0  0  0  0  0  0  0  0  0  0
    8.8930    5.1470  -57.8930 C   0  0  2  0  0  0  0  0  0  0  0  0
    7.8190    4.8610  -58.9540 C   0  0  0  0  0  0  0  0  0  0  0  0
    8.1360    3.5420  -59.6740 C   0  0  1  0  0  0  0  0  0  0  0  0
    9.5140    3.6500  -60.3460 C   0  0  0  0  0  0  0  0  0  0  0  0
   10.6020    3.9300  -59.2900 C   0  0  1  0  0  0  0  0  0  0  0  0
   10.2630    5.2530  -58.5790 C   0  0  0  0  0  0  0  0  0  0  0  0
   10.6340    2.7510  -58.2820 C   0  0  1  0  0  0  0  0  0  0  0  0
   11.8250    2.8630  -57.3200 C   0  0  0  0  0  0  0  0  0  0  0  0
    8.1590    2.3980  -58.6480 C   0  0  0  0  0  0  0  0  0  0  0  0
    9.6440   -0.5430  -54.9400 N   0  0  0  0  0  0  0  0  0  0  0  0
    9.5820   -1.4400  -53.9350 N   0  0  0  0  0  0  0  0  0  0  0  0
   10.7820   -2.1670  -53.5910 C   0  0  0  0  0  0  0  0  0  0  0  0
    8.3530   -1.5070  -53.3290 C   0  0  0  0  0  0  0  0  0  0  0  0
    8.0110   -2.3880  -52.2530 C   0  0  0  0  0  0  0  0  0  0  0  0
    8.0720   -2.1770  -50.8850 C   0  0  0  0  0  0  0  0  0  0  0  0
    7.6320   -3.3660  -50.2550 C   0  0  0  0  0  0  0  0  0  0  0  0
    7.3370   -4.2430  -51.2680 C   0  0  0  0  0  0  0  0  0  0  0  0
    7.5670   -3.6660  -52.4730 O   0  0  0  0  0  0  0  0  0  0  0  0
    5.9996   -0.1305  -52.5899 H   0  0  0  0  0  0  0  0  0  0  0  0
    5.9477    0.8115  -54.1185 H   0  0  0  0  0  0  0  0  0  0  0  0
    5.4930   -0.9263  -54.1185 H   0  0  0  0  0  0  0  0  0  0  0  0
   10.0790    1.1220  -56.2810 H   0  0  0  0  0  0  0  0  0  0  0  0
    7.9244    3.9182  -56.3996 H   0  0  0  0  0  0  0  0  0  0  0  0
    9.6893    4.2041  -56.1255 H   0  0  0  0  0  0  0  0  0  0  0  0
    8.6686    6.0911  -57.3750 H   0  0  0  0  0  0  0  0  0  0  0  0
    6.8359    4.7837  -58.4666 H   0  0  0  0  0  0  0  0  0  0  0  0
    7.8062    5.6807  -59.6874 H   0  0  0  0  0  0  0  0  0  0  0  0
    7.3681    3.3408  -60.4354 H   0  0  0  0  0  0  0  0  0  0  0  0
    9.7421    2.7050  -60.8607 H   0  0  0  0  0  0  0  0  0  0  0  0
    9.4958    4.4778  -61.0702 H   0  0  0  0  0  0  0  0  0  0  0  0
   11.5937    4.0201  -59.7573 H   0  0  0  0  0  0  0  0  0  0  0  0
   11.0328    5.4676  -57.8231 H   0  0  0  0  0  0  0  0  0  0  0  0
   10.2321    6.0636  -59.3220 H   0  0  0  0  0  0  0  0  0  0  0  0
   10.7966    1.8053  -58.8198 H   0  0  0  0  0  0  0  0  0  0  0  0
   11.4624    2.8289  -56.2820 H   0  0  0  0  0  0  0  0  0  0  0  0
   12.5171    2.0260  -57.4943 H   0  0  0  0  0  0  0  0  0  0  0  0
   12.3489    3.8144  -57.4943 H   0  0  0  0  0  0  0  0  0  0  0  0
    7.1755    2.3326  -58.1598 H   0  0  0  0  0  0  0  0  0  0  0  0
    8.3909    1.4599  -59.1735 H   0  0  0  0  0  0  0  0  0  0  0  0
   10.8754   -2.2236  -52.4964 H   0  0  0  0  0  0  0  0  0  0  0  0
   10.7268   -3.1837  -54.0073 H   0  0  0  0  0  0  0  0  0  0  0  0
   11.6576   -1.6473  -54.0073 H   0  0  0  0  0  0  0  0  0  0  0  0
    8.4014   -1.2561  -50.3816 H   0  0  0  0  0  0  0  0  0  0  0  0
    7.5445   -3.5493  -49.1739 H   0  0  0  0  0  0  0  0  0  0  0  0
    6.9665   -5.2685  -51.1231 H   0  0  0  0  0  0  0  0  0  0  0  0
  1  2  1  0
  2  3  1  0
  3  4  1  0
  4  5  2  0
  4  6  1  0
  7  6  1  1
  7  8  1  0
  8  9  1  0
  9 10  1  0
 10 11  1  0
 11 12  1  0
 12 13  1  0
 13 14  1  0
 13 15  1  0
 15 16  1  0
 11 17  1  0
  3 18  2  0
 18 19  1  0
 19 20  1  0
 19 21  1  0
 21 22  1  0
 22 23  2  0
 23 24  1  0
 24 25  2  0
 25 26  1  0
 21  2  2  0
 26 22  1  0
 15  7  1  0
 17  7  1  0
 14  9  1  0
  1 27  1  0
  1 28  1  0
  1 29  1  0
  6 30  1  0
  8 31  1  0
  8 32  1  0
  9 33  1  1
 10 34  1  0
 10 35  1  0
 11 36  1  6
 12 37  1  0
 12 38  1  0
 13 39  1  6
 14 40  1  0
 14 41  1  0
 15 42  1  6
 16 43  1  0
 16 44  1  0
 16 45  1  0
 17 46  1  0
 17 47  1  0
 20 48  1  0
 20 49  1  0
 20 50  1  0
 23 51  1  0
 24 52  1  0
 25 53  1  0
M  END
>  <meeko>  (68) 
{"is_sidechain": false}

$$$$

     RDKit          3D

 55 59  0  0  0  0  0  0  0  0999 V2000
    5.9430   -0.2860  -53.9030 C   0  0  0  0  0  0  0  0  0  0  0  0
    7.3980   -0.5200  -54.0850 C   0  0  0  0  0  0  0  0  0  0  0  0
    8.2900    0.1610  -54.9770 C   0  0  0  0  0  0  0  0  0  0  0  0
    7.9920    1.2780  -55.8980 C   0  0  0  0  0  0  0  0  0  0  0  0
    6.8490    1.6550  -56.1360 O   0  0  0  0  0  0  0  0  0  0  0  0
    9.1220    1.8290  -56.4820 N   0  0  0  0  0  0  0  0  0  0  0  0
    9.1050    2.8520  -57.5360 C   0  0  1  0  0  0  0  0  0  0  0  0
    8.9110    4.2840  -56.9690 C   0  0  0  0  0  0  0  0  0  0  0  0
    8.9080    5.3250  -58.1030 C   0  0  2  0  0  0  0  0  0  0  0  0
    7.7590    5.0080  -59.0750 C   0  0  0  0  0  0  0  0  0  0  0  0
    7.9520    3.6080  -59.6780 C   0  0  1  0  0  0  0  0  0  0  0  0
    9.2930    3.5570  -60.4250 C   0  0  0  0  0  0  0  0  0  0  0  0
   10.4490    3.8630  -59.4550 C   0  0  1  0  0  0  0  0  0  0  0  0
   10.2390    5.2690  -58.8670 C   0  0  0  0  0  0  0  0  0  0  0  0
   10.4570    2.7940  -58.3330 C   0  0  1  0  0  0  0  0  0  0  0  0
   11.7120    2.9200  -57.4550 C   0  0  0  0  0  0  0  0  0  0  0  0
    7.9590    2.5660  -58.5470 C   0  0  0  0  0  0  0  0  0  0  0  0
    9.5330   -0.3430  -54.8860 N   0  0  0  0  0  0  0  0  0  0  0  0
    9.4400   -1.3230  -53.9760 N   0  0  0  0  0  0  0  0  0  0  0  0
   10.6170   -2.1050  -53.6660 C   0  0  0  0  0  0  0  0  0  0  0  0
    8.1860   -1.4590  -53.4330 C   0  0  0  0  0  0  0  0  0  0  0  0
    7.8400   -2.4400  -52.4130 C   0  0  0  0  0  0  0  0  0  0  0  0
    7.8900   -2.1000  -51.0620 C   0  0  0  0  0  0  0  0  0  0  0  0
    7.5520   -3.0680  -50.1320 C   0  0  0  0  0  0  0  0  0  0  0  0
    7.1770   -4.3240  -50.4570 N   0  0  0  0  0  0  0  0  0  0  0  0
    7.1320   -4.6240  -51.7730 C   0  0  0  0  0  0  0  0  0  0  0  0
    7.4500   -3.7270  -52.7790 C   0  0  0  0  0  0  0  0  0  0  0  0
    5.7092   -0.2484  -52.8288 H   0  0  0  0  0  0  0  0  0  0  0  0
    5.6636    0.6686  -54.3727 H   0  0  0  0  0  0  0  0  0  0  0  0
    5.3784   -1.1049  -54.3727 H   0  0  0  0  0  0  0  0  0  0  0  0
    9.9500    1.2520  -56.4220 H   0  0  0  0  0  0  0  0  0  0  0  0
    7.9520    4.3326  -56.4323 H   0  0  0  0  0  0  0  0  0  0  0  0
    9.7436    4.5087  -56.2862 H   0  0  0  0  0  0  0  0  0  0  0  0
    8.7751    6.3290  -57.6738 H   0  0  0  0  0  0  0  0  0  0  0  0
    6.8028    5.0422  -58.5323 H   0  0  0  0  0  0  0  0  0  0  0  0
    7.7552    5.7525  -59.8847 H   0  0  0  0  0  0  0  0  0  0  0  0
    7.1318    3.3895  -60.3776 H   0  0  0  0  0  0  0  0  0  0  0  0
    9.4332    2.5537  -60.8535 H   0  0  0  0  0  0  0  0  0  0  0  0
    9.2874    4.3087  -61.2281 H   0  0  0  0  0  0  0  0  0  0  0  0
   11.4166    3.8351  -59.9774 H   0  0  0  0  0  0  0  0  0  0  0  0
   11.0644    5.5030  -58.1785 H   0  0  0  0  0  0  0  0  0  0  0  0
   10.2167    6.0033  -59.6857 H   0  0  0  0  0  0  0  0  0  0  0  0
   10.5184    1.7883  -58.7742 H   0  0  0  0  0  0  0  0  0  0  0  0
   11.4219    2.8909  -56.3943 H   0  0  0  0  0  0  0  0  0  0  0  0
   12.3959    2.0860  -57.6711 H   0  0  0  0  0  0  0  0  0  0  0  0
   12.2165    3.8733  -57.6711 H   0  0  0  0  0  0  0  0  0  0  0  0
    6.9951    2.6019  -58.0183 H   0  0  0  0  0  0  0  0  0  0  0  0
    8.1190    1.5707  -58.9872 H   0  0  0  0  0  0  0  0  0  0  0  0
   10.7302   -2.1802  -52.5744 H   0  0  0  0  0  0  0  0  0  0  0  0
   10.5108   -3.1128  -54.0939 H   0  0  0  0  0  0  0  0  0  0  0  0
   11.5049   -1.6166  -54.0939 H   0  0  0  0  0  0  0  0  0  0  0  0
    8.1897   -1.0906  -50.7438 H   0  0  0  0  0  0  0  0  0  0  0  0
    7.5911   -2.7985  -49.0662 H   0  0  0  0  0  0  0  0  0  0  0  0
    6.8249   -5.6398  -52.0626 H   0  0  0  0  0  0  0  0  0  0  0  0
    7.3963   -4.0220  -53.8373 H   0  0  0  0  0  0  0  0  0  0  0  0
  1  2  1  0
  2  3  1  0
  3  4  1  0
  4  5  2  0
  4  6  1  0
  7  6  1  1
  7  8  1  0
  8  9  1  0
  9 10  1  0
 10 11  1  0
 11 12  1  0
 12 13  1  0
 13 14  1  0
 13 15  1  0
 15 16  1  0
 11 17  1  0
  3 18  2  0
 18 19  1  0
 19 20  1  0
 19 21  1  0
 21 22  1  0
 22 23  2  0
 23 24  1  0
 24 25  2  0
 25 26  1  0
 26 27  2  0
 21  2  2  0
 27 22  1  0
 15  7  1  0
 17  7  1  0
 14  9  1  0
  1 28  1  0
  1 29  1  0
  1 30  1  0
  6 31  1  0
  8 32  1  0
  8 33  1  0
  9 34  1  1
 10 35  1  0
 10 36  1  0
 11 37  1  6
 12 38  1  0
 12 39  1  0
 13 40  1  6
 14 41  1  0
 14 42  1  0
 15 43  1  6
 16 44  1  0
 16 45  1  0
 16 46  1  0
 17 47  1  0
 17 48  1  0
 20 49  1  0
 20 50  1  0
 20 51  1  0
 23 52  1  0
 24 53  1  0
 26 54  1  0
 27 55  1  0
M  END
>  <meeko>  (69) 
{"is_sidechain": false}

$$$$

     RDKit          3D

 52 56  0  0  0  0  0  0  0  0999 V2000
    5.8890    0.0110  -53.9840 C   0  0  0  0  0  0  0  0  0  0  0  0
    7.3170   -0.3420  -54.1710 C   0  0  0  0  0  0  0  0  0  0  0  0
    8.2360    0.2440  -55.0980 C   0  0  0  0  0  0  0  0  0  0  0  0
    7.9810    1.2950  -56.0940 C   0  0  0  0  0  0  0  0  0  0  0  0
    6.8520    1.7040  -56.3450 O   0  0  0  0  0  0  0  0  0  0  0  0
    9.1240    1.7590  -56.7110 N   0  0  0  0  0  0  0  0  0  0  0  0
    9.1850    2.7780  -57.7600 C   0  0  1  0  0  0  0  0  0  0  0  0
    8.8450    4.1570  -57.1270 C   0  0  0  0  0  0  0  0  0  0  0  0
    8.8560    5.2710  -58.1850 C   0  0  2  0  0  0  0  0  0  0  0  0
    7.8040    4.9550  -59.2590 C   0  0  0  0  0  0  0  0  0  0  0  0
    8.1250    3.6080  -59.9220 C   0  0  1  0  0  0  0  0  0  0  0  0
    9.5190    3.6800  -60.5680 C   0  0  0  0  0  0  0  0  0  0  0  0
   10.5850    3.9920  -59.4980 C   0  0  1  0  0  0  0  0  0  0  0  0
   10.2420    5.3410  -58.8440 C   0  0  0  0  0  0  0  0  0  0  0  0
   10.5870    2.8490  -58.4480 C   0  0  1  0  0  0  0  0  0  0  0  0
   11.7570    2.9880  -57.4650 C   0  0  0  0  0  0  0  0  0  0  0  0
    8.1170    2.5010  -58.8550 C   0  0  0  0  0  0  0  0  0  0  0  0
    9.4600   -0.2990  -54.9670 N   0  0  0  0  0  0  0  0  0  0  0  0
    9.3490   -1.2490  -53.9750 O   0  0  0  0  0  0  0  0  0  0  0  0
    8.0700   -1.2890  -53.5050 C   0  0  0  0  0  0  0  0  0  0  0  0
    7.8200   -2.2850  -52.4710 C   0  0  0  0  0  0  0  0  0  0  0  0
    7.2620   -3.5300  -52.7990 C   0  0  0  0  0  0  0  0  0  0  0  0
    7.0230   -4.4890  -51.8120 C   0  0  0  0  0  0  0  0  0  0  0  0
    7.3350   -4.2140  -50.4830 C   0  0  0  0  0  0  0  0  0  0  0  0
    7.8830   -2.9800  -50.1400 C   0  0  0  0  0  0  0  0  0  0  0  0
    8.1240   -2.0210  -51.1280 C   0  0  0  0  0  0  0  0  0  0  0  0
    5.6629    0.0669  -52.9089 H   0  0  0  0  0  0  0  0  0  0  0  0
    5.6879    0.9859  -54.4522 H   0  0  0  0  0  0  0  0  0  0  0  0
    5.2569   -0.7579  -54.4522 H   0  0  0  0  0  0  0  0  0  0  0  0
    9.9840    1.3020  -56.4190 H   0  0  0  0  0  0  0  0  0  0  0  0
    7.8457    4.1057  -56.6702 H   0  0  0  0  0  0  0  0  0  0  0  0
    9.6065    4.3895  -56.3680 H   0  0  0  0  0  0  0  0  0  0  0  0
    8.6271    6.2347  -57.7066 H   0  0  0  0  0  0  0  0  0  0  0  0
    6.8094    4.9042  -58.7920 H   0  0  0  0  0  0  0  0  0  0  0  0
    7.8154    5.7470  -60.0223 H   0  0  0  0  0  0  0  0  0  0  0  0
    7.3708    3.3855  -60.6912 H   0  0  0  0  0  0  0  0  0  0  0  0
    9.7507    2.7145  -61.0413 H   0  0  0  0  0  0  0  0  0  0  0  0
    9.5240    4.4790  -61.3241 H   0  0  0  0  0  0  0  0  0  0  0  0
   11.5874    4.0596  -59.9460 H   0  0  0  0  0  0  0  0  0  0  0  0
   10.9968    5.5771  -58.0795 H   0  0  0  0  0  0  0  0  0  0  0  0
   10.2342    6.1240  -59.6166 H   0  0  0  0  0  0  0  0  0  0  0  0
   10.7545    1.8833  -58.9474 H   0  0  0  0  0  0  0  0  0  0  0  0
   11.3768    2.9428  -56.4338 H   0  0  0  0  0  0  0  0  0  0  0  0
   12.4724    2.1685  -57.6283 H   0  0  0  0  0  0  0  0  0  0  0  0
   12.2605    3.9523  -57.6283 H   0  0  0  0  0  0  0  0  0  0  0  0
    7.1228    2.4600  -58.3861 H   0  0  0  0  0  0  0  0  0  0  0  0
    8.3525    1.5428  -59.3411 H   0  0  0  0  0  0  0  0  0  0  0  0
    7.0097   -3.7534  -53.8461 H   0  0  0  0  0  0  0  0  0  0  0  0
    6.5881   -5.4619  -52.0846 H   0  0  0  0  0  0  0  0  0  0  0  0
    7.1491   -4.9697  -49.7056 H   0  0  0  0  0  0  0  0  0  0  0  0
    8.1264   -2.7600  -49.0901 H   0  0  0  0  0  0  0  0  0  0  0  0
    8.5567   -1.0490  -50.8489 H   0  0  0  0  0  0  0  0  0  0  0  0
  1  2  1  0
  2  3  1  0
  3  4  1  0
  4  5  2  0
  4  6  1  0
  7  6  1  1
  7  8  1  0
  8  9  1  0
  9 10  1  0
 10 11  1  0
 11 12  1  0
 12 13  1  0
 13 14  1  0
 13 15  1  0
 15 16  1  0
 11 17  1  0
  3 18  2  0
 18 19  1  0
 19 20  1  0
 20 21  1  0
 21 22  2  0
 22 23  1  0
 23 24  2  0
 24 25  1  0
 25 26  2  0
 20  2  2  0
 26 21  1  0
 15  7  1  0
 17  7  1  0
 14  9  1  0
  1 27  1  0
  1 28  1  0
  1 29  1  0
  6 30  1  0
  8 31  1  0
  8 32  1  0
  9 33  1  1
 10 34  1  0
 10 35  1  0
 11 36  1  6
 12 37  1  0
 12 38  1  0
 13 39  1  6
 14 40  1  0
 14 41  1  0
 15 42  1  6
 16 43  1  0
 16 44  1  0
 16 45  1  0
 17 46  1  0
 17 47  1  0
 22 48  1  0
 23 49  1  0
 24 50  1  0
 25 51  1  0
 26 52  1  0
M  END
>  <meeko>  (70) 
{"is_sidechain": false}

$$$$

     RDKit          3D

 45 48  0  0  0  0  0  0  0  0999 V2000
    3.4740    1.9250  -59.8810 C   0  0  0  0  0  0  0  0  0  0  0  0
    4.3510    2.0700  -61.0650 C   0  0  0  0  0  0  0  0  0  0  0  0
    5.7090    2.3280  -61.1710 C   0  0  0  0  0  0  0  0  0  0  0  0
    6.6770    2.5380  -60.1000 C   0  0  0  0  0  0  0  0  0  0  0  0
    6.4920    2.1470  -58.9530 O   0  0  0  0  0  0  0  0  0  0  0  0
    7.8000    3.2190  -60.5180 N   0  0  0  0  0  0  0  0  0  0  0  0
    8.9390    3.5930  -59.6770 C   0  0  1  0  0  0  0  0  0  0  0  0
   10.0430    4.2030  -60.5860 C   0  0  0  0  0  0  0  0  0  0  0  0
   11.2860    4.5860  -59.7680 C   0  0  2  0  0  0  0  0  0  0  0  0
   11.8510    3.3250  -59.0950 C   0  0  0  0  0  0  0  0  0  0  0  0
   10.7930    2.7110  -58.1680 C   0  0  1  0  0  0  0  0  0  0  0  0
   10.3970    3.7400  -57.0960 C   0  0  0  0  0  0  0  0  0  0  0  0
    9.8230    5.0070  -57.7600 C   0  0  1  0  0  0  0  0  0  0  0  0
   10.8990    5.6050  -58.6860 C   0  0  0  0  0  0  0  0  0  0  0  0
    8.5530    4.6190  -58.5620 C   0  0  1  0  0  0  0  0  0  0  0  0
    7.8140    5.8590  -59.0850 C   0  0  0  0  0  0  0  0  0  0  0  0
    9.5510    2.3370  -58.9950 C   0  0  0  0  0  0  0  0  0  0  0  0
    6.0540    2.3670  -62.5050 N   0  0  0  0  0  0  0  0  0  0  0  0
    4.9630    2.1470  -63.2230 N   0  0  0  0  0  0  0  0  0  0  0  0
    3.9410    1.9750  -62.3670 N   0  0  0  0  0  0  0  0  0  0  0  0
    2.6170    1.7250  -62.8770 C   0  0  0  0  0  0  0  0  0  0  0  0
    4.0751    2.0244  -58.9651 H   0  0  0  0  0  0  0  0  0  0  0  0
    2.7012    2.7076  -59.8991 H   0  0  0  0  0  0  0  0  0  0  0  0
    2.9942    0.9353  -59.8991 H   0  0  0  0  0  0  0  0  0  0  0  0
    7.8050    3.4930  -61.4970 H   0  0  0  0  0  0  0  0  0  0  0  0
   10.3290    3.4638  -61.3487 H   0  0  0  0  0  0  0  0  0  0  0  0
    9.6427    5.1121  -61.0585 H   0  0  0  0  0  0  0  0  0  0  0  0
   12.0420    5.0289  -60.4331 H   0  0  0  0  0  0  0  0  0  0  0  0
   12.1291    2.5926  -59.8672 H   0  0  0  0  0  0  0  0  0  0  0  0
   12.7382    3.5958  -58.5038 H   0  0  0  0  0  0  0  0  0  0  0  0
   11.2019    1.8117  -57.6841 H   0  0  0  0  0  0  0  0  0  0  0  0
    9.6364    3.3005  -56.4339 H   0  0  0  0  0  0  0  0  0  0  0  0
   11.2895    4.0130  -56.5138 H   0  0  0  0  0  0  0  0  0  0  0  0
    9.5460    5.7579  -57.0054 H   0  0  0  0  0  0  0  0  0  0  0  0
   10.5036    6.5128  -59.1652 H   0  0  0  0  0  0  0  0  0  0  0  0
   11.7894    5.8552  -58.0905 H   0  0  0  0  0  0  0  0  0  0  0  0
    7.8303    4.1222  -57.8980 H   0  0  0  0  0  0  0  0  0  0  0  0
    7.4567    6.4586  -58.2348 H   0  0  0  0  0  0  0  0  0  0  0  0
    8.4995    6.4632  -59.6974 H   0  0  0  0  0  0  0  0  0  0  0  0
    6.9564    5.5436  -59.6974 H   0  0  0  0  0  0  0  0  0  0  0  0
    9.8394    1.6112  -59.7696 H   0  0  0  0  0  0  0  0  0  0  0  0
    8.7985    1.9015  -58.3212 H   0  0  0  0  0  0  0  0  0  0  0  0
    1.9193    1.5933  -62.0369 H   0  0  0  0  0  0  0  0  0  0  0  0
    2.2938    2.5780  -63.4918 H   0  0  0  0  0  0  0  0  0  0  0  0
    2.6270    0.8129  -63.4918 H   0  0  0  0  0  0  0  0  0  0  0  0
  1  2  1  0
  2  3  2  0
  3  4  1  0
  4  5  2  0
  4  6  1  0
  7  6  1  6
  7  8  1  0
  8  9  1  0
  9 10  1  0
 10 11  1  0
 11 12  1  0
 12 13  1  0
 13 14  1  0
 13 15  1  0
 15 16  1  0
 11 17  1  0
  3 18  1  0
 18 19  2  0
 19 20  1  0
 20 21  1  0
 20  2  1  0
 15  7  1  0
 17  7  1  0
 14  9  1  0
  1 22  1  0
  1 23  1  0
  1 24  1  0
  6 25  1  0
  8 26  1  0
  8 27  1  0
  9 28  1  6
 10 29  1  0
 10 30  1  0
 11 31  1  1
 12 32  1  0
 12 33  1  0
 13 34  1  1
 14 35  1  0
 14 36  1  0
 15 37  1  1
 16 38  1  0
 16 39  1  0
 16 40  1  0
 17 41  1  0
 17 42  1  0
 21 43  1  0
 21 44  1  0
 21 45  1  0
M  END
>  <meeko>  (71) 
{"is_sidechain": false}

$$$$

     RDKit          3D

 47 50  0  0  0  0  0  0  0  0999 V2000
    6.4030    0.3100  -53.6350 C   0  0  0  0  0  0  0  0  0  0  0  0
    7.7710   -0.1240  -54.0170 C   0  0  0  0  0  0  0  0  0  0  0  0
    8.5700    0.3420  -55.1160 C   0  0  0  0  0  0  0  0  0  0  0  0
    8.2460    1.3920  -56.1070 C   0  0  0  0  0  0  0  0  0  0  0  0
    7.0960    1.7310  -56.3560 O   0  0  0  0  0  0  0  0  0  0  0  0
    9.3610    1.9230  -56.7370 N   0  0  0  0  0  0  0  0  0  0  0  0
    9.3140    2.8800  -57.8510 C   0  0  1  0  0  0  0  0  0  0  0  0
    8.9280    4.3110  -57.3880 C   0  0  0  0  0  0  0  0  0  0  0  0
    8.8990    5.2830  -58.5810 C   0  0  2  0  0  0  0  0  0  0  0  0
    7.8650    4.7880  -59.6070 C   0  0  0  0  0  0  0  0  0  0  0  0
    8.2510    3.3870  -60.1090 C   0  0  1  0  0  0  0  0  0  0  0  0
    9.6420    3.4450  -60.7580 C   0  0  0  0  0  0  0  0  0  0  0  0
   10.6830    3.9290  -59.7320 C   0  0  1  0  0  0  0  0  0  0  0  0
   10.2810    5.3320  -59.2470 C   0  0  0  0  0  0  0  0  0  0  0  0
   10.7210    2.9290  -58.5480 C   0  0  1  0  0  0  0  0  0  0  0  0
   11.8860    3.2390  -57.5960 C   0  0  0  0  0  0  0  0  0  0  0  0
    8.2840    2.4160  -58.9180 C   0  0  0  0  0  0  0  0  0  0  0  0
    9.7440   -0.3120  -55.1630 N   0  0  0  0  0  0  0  0  0  0  0  0
    9.6990   -1.1750  -54.1370 N   0  0  0  0  0  0  0  0  0  0  0  0
   10.8170   -2.0630  -53.9100 C   0  0  0  0  0  0  0  0  0  0  0  0
    8.5500   -1.0920  -53.4080 C   0  0  0  0  0  0  0  0  0  0  0  0
    8.2600   -1.8830  -52.2650 C   0  0  0  0  0  0  0  0  0  0  0  0
    8.0410   -2.5320  -51.3290 N   0  0  0  0  0  0  0  0  0  0  0  0
    6.3195    0.3365  -52.5385 H   0  0  0  0  0  0  0  0  0  0  0  0
    6.2097    1.3136  -54.0418 H   0  0  0  0  0  0  0  0  0  0  0  0
    5.6665   -0.3986  -54.0418 H   0  0  0  0  0  0  0  0  0  0  0  0
   10.2010    1.3650  -56.6570 H   0  0  0  0  0  0  0  0  0  0  0  0
    7.9321    4.2827  -56.9218 H   0  0  0  0  0  0  0  0  0  0  0  0
    9.6795    4.6622  -56.6656 H   0  0  0  0  0  0  0  0  0  0  0  0
    8.6293    6.2885  -58.2256 H   0  0  0  0  0  0  0  0  0  0  0  0
    6.8734    4.7446  -59.1328 H   0  0  0  0  0  0  0  0  0  0  0  0
    7.8410    5.4829  -60.4594 H   0  0  0  0  0  0  0  0  0  0  0  0
    7.5142    3.0412  -60.8490 H   0  0  0  0  0  0  0  0  0  0  0  0
    9.9201    2.4418  -61.1134 H   0  0  0  0  0  0  0  0  0  0  0  0
    9.6162    4.1472  -61.6043 H   0  0  0  0  0  0  0  0  0  0  0  0
   11.6842    3.9807  -60.1846 H   0  0  0  0  0  0  0  0  0  0  0  0
   11.0232    5.6921  -58.5193 H   0  0  0  0  0  0  0  0  0  0  0  0
   10.2415    6.0138  -60.1093 H   0  0  0  0  0  0  0  0  0  0  0  0
   10.9223    1.9139  -58.9210 H   0  0  0  0  0  0  0  0  0  0  0  0
   11.5430    3.1477  -56.5549 H   0  0  0  0  0  0  0  0  0  0  0  0
   12.7056    2.5277  -57.7757 H   0  0  0  0  0  0  0  0  0  0  0  0
   12.2437    4.2636  -57.7757 H   0  0  0  0  0  0  0  0  0  0  0  0
    7.2849    2.3745  -58.4597 H   0  0  0  0  0  0  0  0  0  0  0  0
    8.5812    1.4221  -59.2837 H   0  0  0  0  0  0  0  0  0  0  0  0
   10.9730   -2.1869  -52.8282 H   0  0  0  0  0  0  0  0  0  0  0  0
   10.6057   -3.0422  -54.3645 H   0  0  0  0  0  0  0  0  0  0  0  0
   11.7229   -1.6356  -54.3645 H   0  0  0  0  0  0  0  0  0  0  0  0
  1  2  1  0
  2  3  1  0
  3  4  1  0
  4  5  2  0
  4  6  1  0
  7  6  1  1
  7  8  1  0
  8  9  1  0
  9 10  1  0
 10 11  1  0
 11 12  1  0
 12 13  1  0
 13 14  1  0
 13 15  1  0
 15 16  1  0
 11 17  1  0
  3 18  2  0
 18 19  1  0
 19 20  1  0
 19 21  1  0
 21 22  1  0
 22 23  3  0
 21  2  2  0
 15  7  1  0
 17  7  1  0
 14  9  1  0
  1 24  1  0
  1 25  1  0
  1 26  1  0
  6 27  1  0
  8 28  1  0
  8 29  1  0
  9 30  1  1
 10 31  1  0
 10 32  1  0
 11 33  1  6
 12 34  1  0
 12 35  1  0
 13 36  1  6
 14 37  1  0
 14 38  1  0
 15 39  1  6
 16 40  1  0
 16 41  1  0
 16 42  1  0
 17 43  1  0
 17 44  1  0
 20 45  1  0
 20 46  1  0
 20 47  1  0
M  END
>  <meeko>  (72) 
{"is_sidechain": false}

$$$$

     RDKit          3D

 51 53  0  0  0  0  0  0  0  0999 V2000
    6.5800    0.2240  -53.7000 C   0  0  0  0  0  0  0  0  0  0  0  0
    7.8500   -0.4890  -53.9900 C   0  0  0  0  0  0  0  0  0  0  0  0
    8.8320   -0.1210  -54.9570 C   0  0  0  0  0  0  0  0  0  0  0  0
    8.8160    1.0390  -55.8700 C   0  0  0  0  0  0  0  0  0  0  0  0
    7.8390    1.7670  -56.0230 O   0  0  0  0  0  0  0  0  0  0  0  0
   10.0180    1.2270  -56.5170 N   0  0  0  0  0  0  0  0  0  0  0  0
   10.3160    2.4100  -57.3000 C   0  0  0  0  0  0  0  0  0  0  0  0
   11.8090    2.7700  -57.2020 C   0  0  0  0  0  0  0  0  0  0  0  0
   12.3350    3.5370  -58.4170 C   0  0  0  0  0  0  0  0  0  0  0  0
   11.2440    4.3620  -59.0870 C   0  0  0  0  0  0  0  0  0  0  0  0
   10.0940    3.4850  -59.5830 C   0  0  0  0  0  0  0  0  0  0  0  0
    9.8870    2.2160  -58.7530 C   0  0  0  0  0  0  0  0  0  0  0  0
    9.8640   -0.9890  -54.9590 N   0  0  0  0  0  0  0  0  0  0  0  0
    9.5450   -1.8940  -54.0100 N   0  0  0  0  0  0  0  0  0  0  0  0
   10.4710   -2.9950  -53.7410 C   0  0  0  0  0  0  0  0  0  0  0  0
   11.4720   -2.6310  -52.6450 C   0  0  0  0  0  0  0  0  0  0  0  0
   11.1810   -3.4410  -55.0190 C   0  0  0  0  0  0  0  0  0  0  0  0
    8.3380   -1.6440  -53.3980 C   0  0  0  0  0  0  0  0  0  0  0  0
    7.7590   -2.4710  -52.3480 C   0  0  0  0  0  0  0  0  0  0  0  0
    8.0620   -2.2200  -51.0050 C   0  0  0  0  0  0  0  0  0  0  0  0
    7.5010   -3.0090  -50.0000 C   0  0  0  0  0  0  0  0  0  0  0  0
    6.6390   -4.0530  -50.3330 C   0  0  0  0  0  0  0  0  0  0  0  0
    6.3380   -4.3120  -51.6700 C   0  0  0  0  0  0  0  0  0  0  0  0
    6.8980   -3.5230  -52.6760 C   0  0  0  0  0  0  0  0  0  0  0  0
    6.4430    0.3009  -52.6113 H   0  0  0  0  0  0  0  0  0  0  0  0
    6.6178    1.2328  -54.1370 H   0  0  0  0  0  0  0  0  0  0  0  0
    5.7384   -0.3335  -54.1370 H   0  0  0  0  0  0  0  0  0  0  0  0
   10.7670    0.6230  -56.1830 H   0  0  0  0  0  0  0  0  0  0  0  0
    9.7414    3.2523  -56.8873 H   0  0  0  0  0  0  0  0  0  0  0  0
   11.9589    3.3914  -56.3068 H   0  0  0  0  0  0  0  0  0  0  0  0
   12.3666    1.8231  -57.1520 H   0  0  0  0  0  0  0  0  0  0  0  0
   13.1400    4.2115  -58.0899 H   0  0  0  0  0  0  0  0  0  0  0  0
   12.7036    2.8030  -59.1487 H   0  0  0  0  0  0  0  0  0  0  0  0
   10.8503    5.0886  -58.3610 H   0  0  0  0  0  0  0  0  0  0  0  0
   11.6853    4.8716  -59.9562 H   0  0  0  0  0  0  0  0  0  0  0  0
    9.1671    4.0764  -59.5506 H   0  0  0  0  0  0  0  0  0  0  0  0
   10.3510    3.1639  -60.6032 H   0  0  0  0  0  0  0  0  0  0  0  0
    8.8209    1.9458  -58.7761 H   0  0  0  0  0  0  0  0  0  0  0  0
   10.5074    1.4188  -59.1883 H   0  0  0  0  0  0  0  0  0  0  0  0
    9.8785   -3.8454  -53.3725 H   0  0  0  0  0  0  0  0  0  0  0  0
   11.0132   -2.7978  -51.6593 H   0  0  0  0  0  0  0  0  0  0  0  0
   12.3686   -3.2607  -52.7434 H   0  0  0  0  0  0  0  0  0  0  0  0
   11.7547   -1.5725  -52.7434 H   0  0  0  0  0  0  0  0  0  0  0  0
   12.0856   -4.0092  -54.7567 H   0  0  0  0  0  0  0  0  0  0  0  0
   10.5064   -4.0779  -55.6100 H   0  0  0  0  0  0  0  0  0  0  0  0
   11.4619   -2.5568  -55.6100 H   0  0  0  0  0  0  0  0  0  0  0  0
    8.7442   -1.3985  -50.7409 H   0  0  0  0  0  0  0  0  0  0  0  0
    7.7388   -2.8073  -48.9451 H   0  0  0  0  0  0  0  0  0  0  0  0
    6.1957   -4.6733  -49.5401 H   0  0  0  0  0  0  0  0  0  0  0  0
    5.6597   -5.1376  -51.9315 H   0  0  0  0  0  0  0  0  0  0  0  0
    6.6613   -3.7294  -53.7302 H   0  0  0  0  0  0  0  0  0  0  0  0
  1  2  1  0
  2  3  1  0
  3  4  1  0
  4  5  2  0
  4  6  1  0
  6  7  1  0
  7  8  1  0
  8  9  1  0
  9 10  1  0
 10 11  1  0
 11 12  1  0
  3 13  2  0
 13 14  1  0
 14 15  1  0
 15 16  1  0
 15 17  1  0
 14 18  1  0
 18 19  1  0
 19 20  2  0
 20 21  1  0
 21 22  2  0
 22 23  1  0
 23 24  2  0
 18  2  2  0
 24 19  1  0
 12  7  1  0
  1 25  1  0
  1 26  1  0
  1 27  1  0
  6 28  1  0
  7 29  1  0
  8 30  1  0
  8 31  1  0
  9 32  1  0
  9 33  1  0
 10 34  1  0
 10 35  1  0
 11 36  1  0
 11 37  1  0
 12 38  1  0
 12 39  1  0
 15 40  1  0
 16 41  1  0
 16 42  1  0
 16 43  1  0
 17 44  1  0
 17 45  1  0
 17 46  1  0
 20 47  1  0
 21 48  1  0
 22 49  1  0
 23 50  1  0
 24 51  1  0
M  END
>  <meeko>  (73) 
{"is_sidechain": false}

$$$$

     RDKit          3D

 48 52  0  0  0  0  0  0  0  0999 V2000
    6.5230    1.9990  -56.6940 O   0  0  0  0  0  0  0  0  0  0  0  0
    7.6120    1.5510  -56.3560 C   0  0  0  0  0  0  0  0  0  0  0  0
    8.8240    1.9350  -56.8950 N   0  0  0  0  0  0  0  0  0  0  0  0
    9.0100    2.9320  -57.9500 C   0  0  2  0  0  0  0  0  0  0  0  0
    8.8370    4.3440  -57.3270 C   0  0  0  0  0  0  0  0  0  0  0  0
    9.0210    5.4410  -58.3890 C   0  0  1  0  0  0  0  0  0  0  0  0
   10.4290    5.3270  -58.9910 C   0  0  0  0  0  0  0  0  0  0  0  0
   10.6140    3.9450  -59.6360 C   0  0  2  0  0  0  0  0  0  0  0  0
    9.5600    3.7550  -60.7400 C   0  0  0  0  0  0  0  0  0  0  0  0
    8.1460    3.8660  -60.1460 C   0  0  2  0  0  0  0  0  0  0  0  0
    7.9740    5.2490  -59.4980 C   0  0  0  0  0  0  0  0  0  0  0  0
    7.9580    2.7760  -59.0760 C   0  0  0  0  0  0  0  0  0  0  0  0
   10.4290    2.8550  -58.5660 C   0  0  0  0  0  0  0  0  0  0  0  0
    7.7030    0.5130  -55.2880 C   0  0  0  0  0  0  0  0  0  0  0  0
    8.8870    0.2790  -54.6150 C   0  0  0  0  0  0  0  0  0  0  0  0
    8.9000   -0.7060  -53.6280 C   0  0  0  0  0  0  0  0  0  0  0  0
    7.7360   -1.4200  -53.3550 C   0  0  0  0  0  0  0  0  0  0  0  0
    7.6470   -2.4800  -52.3310 C   0  0  0  0  0  0  0  0  0  0  0  0
    6.6650   -3.4850  -52.4190 C   0  0  0  0  0  0  0  0  0  0  0  0
    6.5610   -4.4940  -51.4570 C   0  0  0  0  0  0  0  0  0  0  0  0
    7.4430   -4.5220  -50.3810 C   0  0  0  0  0  0  0  0  0  0  0  0
    8.4290   -3.5470  -50.2710 C   0  0  0  0  0  0  0  0  0  0  0  0
    8.5300   -2.5380  -51.2360 C   0  0  0  0  0  0  0  0  0  0  0  0
    6.5950   -1.1480  -54.0380 N   0  0  0  0  0  0  0  0  0  0  0  0
    6.5720   -0.1780  -55.0130 N   0  0  0  0  0  0  0  0  0  0  0  0
    9.6460    1.4760  -56.5100 H   0  0  0  0  0  0  0  0  0  0  0  0
    7.8282    4.4260  -56.8961 H   0  0  0  0  0  0  0  0  0  0  0  0
    9.6011    4.4792  -56.5473 H   0  0  0  0  0  0  0  0  0  0  0  0
    8.8948    6.4324  -57.9295 H   0  0  0  0  0  0  0  0  0  0  0  0
   10.5626    6.1066  -59.7554 H   0  0  0  0  0  0  0  0  0  0  0  0
   11.1747    5.4558  -58.1927 H   0  0  0  0  0  0  0  0  0  0  0  0
   11.6225    3.8714  -60.0690 H   0  0  0  0  0  0  0  0  0  0  0  0
    9.6938    4.5310  -61.5081 H   0  0  0  0  0  0  0  0  0  0  0  0
    9.6846    2.7585  -61.1888 H   0  0  0  0  0  0  0  0  0  0  0  0
    7.3986    3.7358  -60.9426 H   0  0  0  0  0  0  0  0  0  0  0  0
    8.1053    6.0289  -60.2625 H   0  0  0  0  0  0  0  0  0  0  0  0
    6.9668    5.3218  -59.0617 H   0  0  0  0  0  0  0  0  0  0  0  0
    6.9501    2.8632  -58.6440 H   0  0  0  0  0  0  0  0  0  0  0  0
    8.0855    1.7902  -59.5471 H   0  0  0  0  0  0  0  0  0  0  0  0
   10.5694    1.8668  -59.0284 H   0  0  0  0  0  0  0  0  0  0  0  0
   11.1709    3.0106  -57.7689 H   0  0  0  0  0  0  0  0  0  0  0  0
    9.7945    0.8540  -54.8514 H   0  0  0  0  0  0  0  0  0  0  0  0
    9.8234   -0.9175  -53.0689 H   0  0  0  0  0  0  0  0  0  0  0  0
    5.9624   -3.4761  -53.2654 H   0  0  0  0  0  0  0  0  0  0  0  0
    5.7824   -5.2654  -51.5505 H   0  0  0  0  0  0  0  0  0  0  0  0
    7.3608   -5.3122  -49.6202 H   0  0  0  0  0  0  0  0  0  0  0  0
    9.1307   -3.5689  -49.4241 H   0  0  0  0  0  0  0  0  0  0  0  0
    9.3156   -1.7745  -51.1367 H   0  0  0  0  0  0  0  0  0  0  0  0
  1  2  2  0
  2  3  1  0
  4  3  1  1
  4  5  1  0
  5  6  1  0
  6  7  1  0
  7  8  1  0
  8  9  1  0
  9 10  1  0
 10 11  1  0
 10 12  1  0
  8 13  1  0
  2 14  1  0
 14 15  2  0
 15 16  1  0
 16 17  2  0
 17 18  1  0
 18 19  2  0
 19 20  1  0
 20 21  2  0
 21 22  1  0
 22 23  2  0
 17 24  1  0
 24 25  2  0
 12  4  1  0
 25 14  1  0
 13  4  1  0
 23 18  1  0
 11  6  1  0
  3 26  1  0
  5 27  1  0
  5 28  1  0
  6 29  1  1
  7 30  1  0
  7 31  1  0
  8 32  1  6
  9 33  1  0
  9 34  1  0
 10 35  1  6
 11 36  1  0
 11 37  1  0
 12 38  1  0
 12 39  1  0
 13 40  1  0
 13 41  1  0
 15 42  1  0
 16 43  1  0
 19 44  1  0
 20 45  1  0
 21 46  1  0
 22 47  1  0
 23 48  1  0
M  END
>  <meeko>  (74) 
{"is_sidechain": false}

$$$$

     RDKit          3D

 45 49  0  0  0  0  0  0  0  0999 V2000
    9.6540    1.1370  -55.7740 O   0  0  0  0  0  0  0  0  0  0  0  0
    8.4260    1.1490  -55.8070 C   0  0  0  0  0  0  0  0  0  0  0  0
    7.7070    1.9940  -56.6380 N   0  0  0  0  0  0  0  0  0  0  0  0
    8.2780    2.9670  -57.5720 C   0  0  2  0  0  0  0  0  0  0  0  0
    9.4270    2.3520  -58.4080 C   0  0  0  0  0  0  0  0  0  0  0  0
    9.9740    3.3800  -59.4140 C   0  0  1  0  0  0  0  0  0  0  0  0
    8.8460    3.8100  -60.3650 C   0  0  0  0  0  0  0  0  0  0  0  0
    7.6980    4.4440  -59.5640 C   0  0  2  0  0  0  0  0  0  0  0  0
    8.2250    5.6720  -58.8050 C   0  0  0  0  0  0  0  0  0  0  0  0
    9.3490    5.2530  -57.8450 C   0  0  2  0  0  0  0  0  0  0  0  0
   10.4920    4.6110  -58.6510 C   0  0  0  0  0  0  0  0  0  0  0  0
    8.8020    4.2260  -56.8360 C   0  0  0  0  0  0  0  0  0  0  0  0
    7.1630    3.4180  -58.5530 C   0  0  0  0  0  0  0  0  0  0  0  0
    7.5910    0.2910  -54.9900 C   0  0  0  0  0  0  0  0  0  0  0  0
    6.2750    0.2110  -55.0350 N   0  0  0  0  0  0  0  0  0  0  0  0
    5.9150   -0.7260  -54.0880 N   0  0  0  0  0  0  0  0  0  0  0  0
    7.0340   -1.1510  -53.5310 C   0  0  0  0  0  0  0  0  0  0  0  0
    7.2420   -2.1360  -52.4780 C   0  0  0  0  0  0  0  0  0  0  0  0
    6.8850   -3.4760  -52.6990 C   0  0  0  0  0  0  0  0  0  0  0  0
    7.0730   -4.4410  -51.7050 C   0  0  0  0  0  0  0  0  0  0  0  0
    7.6210   -4.0780  -50.4780 C   0  0  0  0  0  0  0  0  0  0  0  0
    7.9800   -2.7520  -50.2410 C   0  0  0  0  0  0  0  0  0  0  0  0
    7.7930   -1.7880  -51.2350 C   0  0  0  0  0  0  0  0  0  0  0  0
    8.1450   -0.5450  -54.0580 O   0  0  0  0  0  0  0  0  0  0  0  0
    6.6950    1.9170  -56.5800 H   0  0  0  0  0  0  0  0  0  0  0  0
   10.2377    2.0393  -57.7335 H   0  0  0  0  0  0  0  0  0  0  0  0
    9.0381    1.4851  -58.9623 H   0  0  0  0  0  0  0  0  0  0  0  0
   10.7945    2.9308  -59.9928 H   0  0  0  0  0  0  0  0  0  0  0  0
    9.2365    4.5438  -61.0854 H   0  0  0  0  0  0  0  0  0  0  0  0
    8.4683    2.9266  -60.9008 H   0  0  0  0  0  0  0  0  0  0  0  0
    6.8928    4.7493  -60.2485 H   0  0  0  0  0  0  0  0  0  0  0  0
    8.6157    6.4057  -59.5255 H   0  0  0  0  0  0  0  0  0  0  0  0
    7.4034    6.1191  -58.2262 H   0  0  0  0  0  0  0  0  0  0  0  0
    9.7237    6.1366  -57.3076 H   0  0  0  0  0  0  0  0  0  0  0  0
   10.8874    5.3444  -59.3692 H   0  0  0  0  0  0  0  0  0  0  0  0
   11.2881    4.2975  -57.9597 H   0  0  0  0  0  0  0  0  0  0  0  0
    9.6067    3.9329  -56.1457 H   0  0  0  0  0  0  0  0  0  0  0  0
    7.9713    4.6832  -56.2784 H   0  0  0  0  0  0  0  0  0  0  0  0
    6.3422    3.8732  -57.9793 H   0  0  0  0  0  0  0  0  0  0  0  0
    6.8059    2.5364  -59.1054 H   0  0  0  0  0  0  0  0  0  0  0  0
    6.4519   -3.7701  -53.6664 H   0  0  0  0  0  0  0  0  0  0  0  0
    6.7880   -5.4868  -51.8925 H   0  0  0  0  0  0  0  0  0  0  0  0
    7.7707   -4.8369  -49.6959 H   0  0  0  0  0  0  0  0  0  0  0  0
    8.4109   -2.4644  -49.2706 H   0  0  0  0  0  0  0  0  0  0  0  0
    8.0810   -0.7442  -51.0411 H   0  0  0  0  0  0  0  0  0  0  0  0
  1  2  2  0
  2  3  1  0
  4  3  1  1
  4  5  1  0
  5  6  1  0
  6  7  1  0
  7  8  1  0
  8  9  1  0
  9 10  1  0
 10 11  1  0
 10 12  1  0
  8 13  1  0
  2 14  1  0
 14 15  2  0
 15 16  1  0
 16 17  2  0
 17 18  1  0
 18 19  2  0
 19 20  1  0
 20 21  2  0
 21 22  1  0
 22 23  2  0
 17 24  1  0
 12  4  1  0
 24 14  1  0
 13  4  1  0
 23 18  1  0
 11  6  1  0
  3 25  1  0
  5 26  1  0
  5 27  1  0
  6 28  1  6
  7 29  1  0
  7 30  1  0
  8 31  1  6
  9 32  1  0
  9 33  1  0
 10 34  1  1
 11 35  1  0
 11 36  1  0
 12 37  1  0
 12 38  1  0
 13 39  1  0
 13 40  1  0
 19 41  1  0
 20 42  1  0
 21 43  1  0
 22 44  1  0
 23 45  1  0
M  END
>  <meeko>  (75) 
{"is_sidechain": false}

$$$$

     RDKit          3D

 51 55  0  0  0  0  0  0  0  0999 V2000
   10.2480   -1.7120  -53.6560 C   0  0  0  0  0  0  0  0  0  0  0  0
    8.9400   -1.0540  -53.9830 C   0  0  0  0  0  0  0  0  0  0  0  0
    8.9070   -0.0350  -54.9420 C   0  0  0  0  0  0  0  0  0  0  0  0
    7.6930    0.5590  -55.2460 C   0  0  0  0  0  0  0  0  0  0  0  0
    7.5980    1.6450  -56.2640 C   0  0  0  0  0  0  0  0  0  0  0  0
    6.5230    2.1820  -56.5000 O   0  0  0  0  0  0  0  0  0  0  0  0
    8.7900    1.9650  -56.8830 N   0  0  0  0  0  0  0  0  0  0  0  0
    8.9680    2.9870  -57.9150 C   0  0  2  0  0  0  0  0  0  0  0  0
   10.3770    2.8120  -58.5440 C   0  0  0  0  0  0  0  0  0  0  0  0
   10.6250    3.8610  -59.6400 C   0  0  1  0  0  0  0  0  0  0  0  0
    9.5620    3.7020  -60.7380 C   0  0  0  0  0  0  0  0  0  0  0  0
    8.1580    3.8970  -60.1420 C   0  0  2  0  0  0  0  0  0  0  0  0
    8.0610    5.3010  -59.5230 C   0  0  0  0  0  0  0  0  0  0  0  0
    9.1210    5.4700  -58.4210 C   0  0  2  0  0  0  0  0  0  0  0  0
   10.5180    5.2660  -59.0270 C   0  0  0  0  0  0  0  0  0  0  0  0
    8.8830    4.4160  -57.3250 C   0  0  0  0  0  0  0  0  0  0  0  0
    7.9200    2.8430  -59.0470 C   0  0  0  0  0  0  0  0  0  0  0  0
    6.5390    0.1870  -54.6460 N   0  0  0  0  0  0  0  0  0  0  0  0
    6.5680   -0.8000  -53.6970 N   0  0  0  0  0  0  0  0  0  0  0  0
    7.7370   -1.4030  -53.3560 C   0  0  0  0  0  0  0  0  0  0  0  0
    7.6130   -2.4270  -52.3110 C   0  0  0  0  0  0  0  0  0  0  0  0
    7.8720   -2.1350  -50.9610 C   0  0  0  0  0  0  0  0  0  0  0  0
    7.7510   -3.1180  -49.9760 C   0  0  0  0  0  0  0  0  0  0  0  0
    7.3620   -4.4100  -50.3240 C   0  0  0  0  0  0  0  0  0  0  0  0
    7.0870   -4.7170  -51.6540 C   0  0  0  0  0  0  0  0  0  0  0  0
    7.2080   -3.7330  -52.6380 C   0  0  0  0  0  0  0  0  0  0  0  0
   10.3657   -1.7712  -52.5639 H   0  0  0  0  0  0  0  0  0  0  0  0
   10.2650   -2.7260  -54.0822 H   0  0  0  0  0  0  0  0  0  0  0  0
   11.0723   -1.1213  -54.0822 H   0  0  0  0  0  0  0  0  0  0  0  0
    9.8297    0.2888  -55.4459 H   0  0  0  0  0  0  0  0  0  0  0  0
    9.6020    1.4290  -56.5840 H   0  0  0  0  0  0  0  0  0  0  0  0
   11.1384    2.9257  -57.7583 H   0  0  0  0  0  0  0  0  0  0  0  0
   10.4370    1.8112  -58.9966 H   0  0  0  0  0  0  0  0  0  0  0  0
   11.6272    3.7215  -60.0715 H   0  0  0  0  0  0  0  0  0  0  0  0
    9.7327    4.4543  -61.5221 H   0  0  0  0  0  0  0  0  0  0  0  0
    9.6349    2.6922  -61.1681 H   0  0  0  0  0  0  0  0  0  0  0  0
    7.4014    3.7868  -60.9329 H   0  0  0  0  0  0  0  0  0  0  0  0
    8.2273    6.0556  -60.3059 H   0  0  0  0  0  0  0  0  0  0  0  0
    7.0614    5.4309  -59.0826 H   0  0  0  0  0  0  0  0  0  0  0  0
    9.0497    6.4785  -57.9875 H   0  0  0  0  0  0  0  0  0  0  0  0
   10.6888    6.0192  -59.8103 H   0  0  0  0  0  0  0  0  0  0  0  0
   11.2741    5.3730  -58.2353 H   0  0  0  0  0  0  0  0  0  0  0  0
    9.6472    4.5298  -56.5420 H   0  0  0  0  0  0  0  0  0  0  0  0
    7.8789    4.5655  -56.9015 H   0  0  0  0  0  0  0  0  0  0  0  0
    6.9127    2.9794  -58.6267 H   0  0  0  0  0  0  0  0  0  0  0  0
    8.0139    1.8415  -59.4922 H   0  0  0  0  0  0  0  0  0  0  0  0
    8.1747   -1.1167  -50.6756 H   0  0  0  0  0  0  0  0  0  0  0  0
    7.9629   -2.8720  -48.9250 H   0  0  0  0  0  0  0  0  0  0  0  0
    7.2723   -5.1859  -49.5495 H   0  0  0  0  0  0  0  0  0  0  0  0
    6.7743   -5.7349  -51.9299 H   0  0  0  0  0  0  0  0  0  0  0  0
    6.9829   -3.9839  -53.6851 H   0  0  0  0  0  0  0  0  0  0  0  0
  1  2  1  0
  2  3  1  0
  3  4  2  0
  4  5  1  0
  5  6  2  0
  5  7  1  0
  8  7  1  1
  8  9  1  0
  9 10  1  0
 10 11  1  0
 11 12  1  0
 12 13  1  0
 13 14  1  0
 14 15  1  0
 14 16  1  0
 12 17  1  0
  4 18  1  0
 18 19  2  0
 19 20  1  0
 20 21  1  0
 21 22  2  0
 22 23  1  0
 23 24  2  0
 24 25  1  0
 25 26  2  0
 20  2  2  0
 26 21  1  0
 16  8  1  0
 17  8  1  0
 15 10  1  0
  1 27  1  0
  1 28  1  0
  1 29  1  0
  3 30  1  0
  7 31  1  0
  9 32  1  0
  9 33  1  0
 10 34  1  6
 11 35  1  0
 11 36  1  0
 12 37  1  6
 13 38  1  0
 13 39  1  0
 14 40  1  1
 15 41  1  0
 15 42  1  0
 16 43  1  0
 16 44  1  0
 17 45  1  0
 17 46  1  0
 22 47  1  0
 23 48  1  0
 24 49  1  0
 25 50  1  0
 26 51  1  0
M  END
>  <meeko>  (76) 
{"is_sidechain": false}

$$$$

     RDKit          3D

 56 60  0  0  0  0  0  0  0  0999 V2000
   10.8080   -3.6210  -54.6510 C   0  0  0  0  0  0  0  0  0  0  0  0
   10.8070   -2.4120  -53.7320 C   0  0  0  0  0  0  0  0  0  0  0  0
    9.6830   -1.5290  -53.9860 N   0  0  0  0  0  0  0  0  0  0  0  0
    9.8280   -0.5530  -54.8970 N   0  0  0  0  0  0  0  0  0  0  0  0
    8.6380    0.0710  -54.9280 C   0  0  0  0  0  0  0  0  0  0  0  0
    8.4110    1.2260  -55.8210 C   0  0  0  0  0  0  0  0  0  0  0  0
    7.2950    1.6710  -56.0660 O   0  0  0  0  0  0  0  0  0  0  0  0
    9.5760    1.7370  -56.3720 N   0  0  0  0  0  0  0  0  0  0  0  0
    9.6250    2.8060  -57.3720 C   0  0  2  0  0  0  0  0  0  0  0  0
    8.7590    2.4710  -58.6110 C   0  0  0  0  0  0  0  0  0  0  0  0
    8.8760    3.5810  -59.6690 C   0  0  1  0  0  0  0  0  0  0  0  0
    8.4090    4.9150  -59.0600 C   0  0  0  0  0  0  0  0  0  0  0  0
    9.2880    5.2790  -57.8490 C   0  0  2  0  0  0  0  0  0  0  0  0
   10.7510    5.4000  -58.3010 C   0  0  0  0  0  0  0  0  0  0  0  0
   11.2240    4.0670  -58.9030 C   0  0  2  0  0  0  0  0  0  0  0  0
   10.3430    3.7120  -60.1110 C   0  0  0  0  0  0  0  0  0  0  0  0
   11.0970    2.9620  -57.8420 C   0  0  0  0  0  0  0  0  0  0  0  0
    9.1720    4.1700  -56.7890 C   0  0  0  0  0  0  0  0  0  0  0  0
    7.7220   -0.5360  -54.0070 C   0  0  0  0  0  0  0  0  0  0  0  0
    6.3010   -0.1720  -53.7670 C   0  0  0  0  0  0  0  0  0  0  0  0
    8.4400   -1.5560  -53.4010 C   0  0  0  0  0  0  0  0  0  0  0  0
    8.0320   -2.5110  -52.3800 C   0  0  0  0  0  0  0  0  0  0  0  0
    8.2280   -2.2200  -51.0260 C   0  0  0  0  0  0  0  0  0  0  0  0
    7.8380   -3.1370  -50.0480 C   0  0  0  0  0  0  0  0  0  0  0  0
    7.2470   -4.3450  -50.4190 C   0  0  0  0  0  0  0  0  0  0  0  0
    7.0440   -4.6370  -51.7670 C   0  0  0  0  0  0  0  0  0  0  0  0
    7.4340   -3.7220  -52.7460 C   0  0  0  0  0  0  0  0  0  0  0  0
   10.8088   -4.5405  -54.0472 H   0  0  0  0  0  0  0  0  0  0  0  0
    9.9098   -3.5999  -55.2857 H   0  0  0  0  0  0  0  0  0  0  0  0
   11.7061   -3.5984  -55.2857 H   0  0  0  0  0  0  0  0  0  0  0  0
   10.7554   -2.7598  -52.6897 H   0  0  0  0  0  0  0  0  0  0  0  0
   11.7304   -1.8447  -53.9204 H   0  0  0  0  0  0  0  0  0  0  0  0
   10.3840    1.1330  -56.3050 H   0  0  0  0  0  0  0  0  0  0  0  0
    9.1016    1.5201  -59.0452 H   0  0  0  0  0  0  0  0  0  0  0  0
    7.7078    2.3892  -58.2974 H   0  0  0  0  0  0  0  0  0  0  0  0
    8.2494    3.3299  -60.5375 H   0  0  0  0  0  0  0  0  0  0  0  0
    8.4870    5.7083  -59.8180 H   0  0  0  0  0  0  0  0  0  0  0  0
    7.3644    4.8147  -58.7301 H   0  0  0  0  0  0  0  0  0  0  0  0
    8.9542    6.2363  -57.4222 H   0  0  0  0  0  0  0  0  0  0  0  0
   10.8342    6.1926  -59.0591 H   0  0  0  0  0  0  0  0  0  0  0  0
   11.3791    5.6487  -57.4329 H   0  0  0  0  0  0  0  0  0  0  0  0
   12.2721    4.1570  -59.2247 H   0  0  0  0  0  0  0  0  0  0  0  0
   10.4261    4.5052  -60.8686 H   0  0  0  0  0  0  0  0  0  0  0  0
   10.6799    2.7549  -60.5359 H   0  0  0  0  0  0  0  0  0  0  0  0
   11.4398    2.0094  -58.2723 H   0  0  0  0  0  0  0  0  0  0  0  0
   11.7139    3.2379  -56.9741 H   0  0  0  0  0  0  0  0  0  0  0  0
    9.8086    4.4245  -55.9288 H   0  0  0  0  0  0  0  0  0  0  0  0
    8.1209    4.0892  -56.4748 H   0  0  0  0  0  0  0  0  0  0  0  0
    6.1127   -0.1238  -52.6843 H   0  0  0  0  0  0  0  0  0  0  0  0
    6.0922    0.8086  -54.2195 H   0  0  0  0  0  0  0  0  0  0  0  0
    5.6465   -0.9315  -54.2195 H   0  0  0  0  0  0  0  0  0  0  0  0
    8.6905   -1.2665  -50.7310 H   0  0  0  0  0  0  0  0  0  0  0  0
    7.9969   -2.9068  -48.9842 H   0  0  0  0  0  0  0  0  0  0  0  0
    6.9411   -5.0672  -49.6478 H   0  0  0  0  0  0  0  0  0  0  0  0
    6.5763   -5.5888  -52.0591 H   0  0  0  0  0  0  0  0  0  0  0  0
    7.2708   -3.9536  -53.8089 H   0  0  0  0  0  0  0  0  0  0  0  0
  1  2  1  0
  2  3  1  0
  3  4  1  0
  4  5  2  0
  5  6  1  0
  6  7  2  0
  6  8  1  0
  9  8  1  1
  9 10  1  0
 10 11  1  0
 11 12  1  0
 12 13  1  0
 13 14  1  0
 14 15  1  0
 15 16  1  0
 15 17  1  0
 13 18  1  0
  5 19  1  0
 19 20  1  0
 19 21  2  0
 21 22  1  0
 22 23  2  0
 23 24  1  0
 24 25  2  0
 25 26  1  0
 26 27  2  0
 21  3  1  0
 27 22  1  0
 17  9  1  0
 18  9  1  0
 16 11  1  0
  1 28  1  0
  1 29  1  0
  1 30  1  0
  2 31  1  0
  2 32  1  0
  8 33  1  0
 10 34  1  0
 10 35  1  0
 11 36  1  6
 12 37  1  0
 12 38  1  0
 13 39  1  1
 14 40  1  0
 14 41  1  0
 15 42  1  6
 16 43  1  0
 16 44  1  0
 17 45  1  0
 17 46  1  0
 18 47  1  0
 18 48  1  0
 20 49  1  0
 20 50  1  0
 20 51  1  0
 23 52  1  0
 24 53  1  0
 25 54  1  0
 26 55  1  0
 27 56  1  0
M  END
>  <meeko>  (77) 
{"is_sidechain": false}

$$$$

     RDKit          3D

 50 54  0  0  0  0  0  0  0  0999 V2000
    5.8900   -0.2550  -53.8910 C   0  0  0  0  0  0  0  0  0  0  0  0
    7.3420   -0.5100  -54.0850 C   0  0  0  0  0  0  0  0  0  0  0  0
    8.2100    0.1660  -55.0000 C   0  0  0  0  0  0  0  0  0  0  0  0
    7.8640    1.2370  -55.9580 C   0  0  0  0  0  0  0  0  0  0  0  0
    6.7100    1.5830  -56.1860 O   0  0  0  0  0  0  0  0  0  0  0  0
    8.9750    1.7890  -56.5570 N   0  0  0  0  0  0  0  0  0  0  0  0
    8.9810    2.8490  -57.5590 C   0  0  2  0  0  0  0  0  0  0  0  0
    7.9530    2.5760  -58.6840 C   0  0  0  0  0  0  0  0  0  0  0  0
    8.0120    3.6830  -59.7520 C   0  0  1  0  0  0  0  0  0  0  0  0
    7.7080    5.0380  -59.0940 C   0  0  0  0  0  0  0  0  0  0  0  0
    8.7430    5.3380  -57.9960 C   0  0  2  0  0  0  0  0  0  0  0  0
   10.1470    5.3690  -58.6190 C   0  0  0  0  0  0  0  0  0  0  0  0
   10.4620    4.0130  -59.2730 C   0  0  2  0  0  0  0  0  0  0  0  0
    9.4210    3.7220  -60.3650 C   0  0  0  0  0  0  0  0  0  0  0  0
   10.3910    2.9110  -58.2040 C   0  0  0  0  0  0  0  0  0  0  0  0
    8.6850    4.2320  -56.9280 C   0  0  0  0  0  0  0  0  0  0  0  0
    9.4740   -0.2990  -54.9050 N   0  0  0  0  0  0  0  0  0  0  0  0
    9.3990   -1.2510  -53.9630 N   0  0  0  0  0  0  0  0  0  0  0  0
    8.1490   -1.4270  -53.4330 C   0  0  0  0  0  0  0  0  0  0  0  0
    7.8720   -2.4340  -52.4150 C   0  0  0  0  0  0  0  0  0  0  0  0
    7.3340   -3.6750  -52.7760 C   0  0  0  0  0  0  0  0  0  0  0  0
    7.0800   -4.6460  -51.8040 C   0  0  0  0  0  0  0  0  0  0  0  0
    7.3610   -4.3840  -50.4650 C   0  0  0  0  0  0  0  0  0  0  0  0
    7.8960   -3.1510  -50.0950 C   0  0  0  0  0  0  0  0  0  0  0  0
    8.1510   -2.1790  -51.0660 C   0  0  0  0  0  0  0  0  0  0  0  0
    5.6652   -0.2155  -52.8149 H   0  0  0  0  0  0  0  0  0  0  0  0
    5.6207    0.7042  -54.3573 H   0  0  0  0  0  0  0  0  0  0  0  0
    5.3100   -1.0650  -54.3573 H   0  0  0  0  0  0  0  0  0  0  0  0
    9.8510    1.3650  -56.2580 H   0  0  0  0  0  0  0  0  0  0  0  0
    8.1800    1.6077  -59.1540 H   0  0  0  0  0  0  0  0  0  0  0  0
    6.9441    2.5591  -58.2461 H   0  0  0  0  0  0  0  0  0  0  0  0
    7.2713    3.4784  -60.5391 H   0  0  0  0  0  0  0  0  0  0  0  0
    7.7473    5.8296  -59.8568 H   0  0  0  0  0  0  0  0  0  0  0  0
    6.7055    5.0017  -58.6428 H   0  0  0  0  0  0  0  0  0  0  0  0
    8.5215    6.3110  -57.5332 H   0  0  0  0  0  0  0  0  0  0  0  0
   10.1896    6.1602  -59.3820 H   0  0  0  0  0  0  0  0  0  0  0  0
   10.8875    5.5707  -57.8310 H   0  0  0  0  0  0  0  0  0  0  0  0
   11.4680    4.0398  -59.7172 H   0  0  0  0  0  0  0  0  0  0  0  0
    9.4640    4.5122  -61.1290 H   0  0  0  0  0  0  0  0  0  0  0  0
    9.6421    2.7469  -60.8236 H   0  0  0  0  0  0  0  0  0  0  0  0
   10.6149    1.9412  -58.6723 H   0  0  0  0  0  0  0  0  0  0  0  0
   11.1255    3.1391  -57.4175 H   0  0  0  0  0  0  0  0  0  0  0  0
    9.4332    4.4417  -56.1494 H   0  0  0  0  0  0  0  0  0  0  0  0
    7.6758    4.2137  -56.4908 H   0  0  0  0  0  0  0  0  0  0  0  0
   10.2400   -1.7670  -53.7310 H   0  0  0  0  0  0  0  0  0  0  0  0
    7.1098   -3.8870  -53.8318 H   0  0  0  0  0  0  0  0  0  0  0  0
    6.6576   -5.6186  -52.0965 H   0  0  0  0  0  0  0  0  0  0  0  0
    7.1610   -5.1492  -49.7005 H   0  0  0  0  0  0  0  0  0  0  0  0
    8.1176   -2.9431  -49.0378 H   0  0  0  0  0  0  0  0  0  0  0  0
    8.5734   -1.2076  -50.7693 H   0  0  0  0  0  0  0  0  0  0  0  0
  1  2  1  0
  2  3  1  0
  3  4  1  0
  4  5  2  0
  4  6  1  0
  7  6  1  1
  7  8  1  0
  8  9  1  0
  9 10  1  0
 10 11  1  0
 11 12  1  0
 12 13  1  0
 13 14  1  0
 13 15  1  0
 11 16  1  0
  3 17  2  0
 17 18  1  0
 18 19  1  0
 19 20  1  0
 20 21  2  0
 21 22  1  0
 22 23  2  0
 23 24  1  0
 24 25  2  0
 19  2  2  0
 25 20  1  0
 15  7  1  0
 16  7  1  0
 14  9  1  0
  1 26  1  0
  1 27  1  0
  1 28  1  0
  6 29  1  0
  8 30  1  0
  8 31  1  0
  9 32  1  6
 10 33  1  0
 10 34  1  0
 11 35  1  1
 12 36  1  0
 12 37  1  0
 13 38  1  6
 14 39  1  0
 14 40  1  0
 15 41  1  0
 15 42  1  0
 16 43  1  0
 16 44  1  0
 18 45  1  0
 21 46  1  0
 22 47  1  0
 23 48  1  0
 24 49  1  0
 25 50  1  0
M  END
>  <meeko>  (78) 
{"is_sidechain": false}

$$$$

     RDKit          3D

 50 54  0  0  0  0  0  0  0  0999 V2000
    5.7890   -0.3760  -54.1060 C   0  0  0  0  0  0  0  0  0  0  0  0
    7.2680   -0.4450  -54.2440 C   0  0  0  0  0  0  0  0  0  0  0  0
    8.1570   -1.3300  -53.5430 C   0  0  0  0  0  0  0  0  0  0  0  0
    7.8420   -2.2950  -52.4890 C   0  0  0  0  0  0  0  0  0  0  0  0
    8.0060   -1.9410  -51.1420 C   0  0  0  0  0  0  0  0  0  0  0  0
    7.7130   -2.8550  -50.1280 C   0  0  0  0  0  0  0  0  0  0  0  0
    7.2460   -4.1280  -50.4500 C   0  0  0  0  0  0  0  0  0  0  0  0
    7.0650   -4.4860  -51.7840 C   0  0  0  0  0  0  0  0  0  0  0  0
    7.3580   -3.5720  -52.8010 C   0  0  0  0  0  0  0  0  0  0  0  0
    9.4130   -1.2030  -53.9920 N   0  0  0  0  0  0  0  0  0  0  0  0
    9.3380   -0.2550  -54.9320 N   0  0  0  0  0  0  0  0  0  0  0  0
    8.0910    0.2820  -55.0980 C   0  0  0  0  0  0  0  0  0  0  0  0
    7.8890    1.3460  -56.0510 C   0  0  0  0  0  0  0  0  0  0  0  0
    6.7670    1.7660  -56.3090 O   0  0  0  0  0  0  0  0  0  0  0  0
    9.0290    1.8000  -56.6730 N   0  0  0  0  0  0  0  0  0  0  0  0
    9.0620    2.8080  -57.7380 C   0  0  2  0  0  0  0  0  0  0  0  0
    8.7340    4.2260  -57.2040 C   0  0  0  0  0  0  0  0  0  0  0  0
    8.8300    5.2670  -58.3340 C   0  0  1  0  0  0  0  0  0  0  0  0
   10.2580    5.2720  -58.9010 C   0  0  0  0  0  0  0  0  0  0  0  0
   10.6070    3.8820  -59.4550 C   0  0  2  0  0  0  0  0  0  0  0  0
    9.6160    3.5150  -60.5700 C   0  0  0  0  0  0  0  0  0  0  0  0
    8.1830    3.5000  -60.0150 C   0  0  2  0  0  0  0  0  0  0  0  0
    7.8420    4.8900  -59.4530 C   0  0  0  0  0  0  0  0  0  0  0  0
    8.0860    2.4580  -58.8860 C   0  0  0  0  0  0  0  0  0  0  0  0
   10.5000    2.8480  -58.3240 C   0  0  0  0  0  0  0  0  0  0  0  0
    5.5205   -0.3635  -53.0394 H   0  0  0  0  0  0  0  0  0  0  0  0
    5.4181    0.5404  -54.5883 H   0  0  0  0  0  0  0  0  0  0  0  0
    5.3344   -1.2539  -54.5883 H   0  0  0  0  0  0  0  0  0  0  0  0
    8.3683   -0.9354  -50.8823 H   0  0  0  0  0  0  0  0  0  0  0  0
    7.8508   -2.5702  -49.0745 H   0  0  0  0  0  0  0  0  0  0  0  0
    7.0204   -4.8497  -49.6511 H   0  0  0  0  0  0  0  0  0  0  0  0
    6.6911   -5.4889  -52.0377 H   0  0  0  0  0  0  0  0  0  0  0  0
    7.2075   -3.8576  -53.8526 H   0  0  0  0  0  0  0  0  0  0  0  0
   10.1800    0.0060  -55.4340 H   0  0  0  0  0  0  0  0  0  0  0  0
    9.8470    1.2170  -56.5780 H   0  0  0  0  0  0  0  0  0  0  0  0
    7.7132    4.2306  -56.7942 H   0  0  0  0  0  0  0  0  0  0  0  0
    9.4604    4.4861  -56.4200 H   0  0  0  0  0  0  0  0  0  0  0  0
    8.5851    6.2647  -57.9407 H   0  0  0  0  0  0  0  0  0  0  0  0
   10.3264    6.0144  -59.7098 H   0  0  0  0  0  0  0  0  0  0  0  0
   10.9648    5.5293  -58.0984 H   0  0  0  0  0  0  0  0  0  0  0  0
   11.6304    3.8900  -59.8581 H   0  0  0  0  0  0  0  0  0  0  0  0
    9.6858    4.2576  -61.3785 H   0  0  0  0  0  0  0  0  0  0  0  0
    9.8633    2.5162  -60.9588 H   0  0  0  0  0  0  0  0  0  0  0  0
    7.4775    3.2420  -60.8186 H   0  0  0  0  0  0  0  0  0  0  0  0
    7.9060    5.6343  -60.2604 H   0  0  0  0  0  0  0  0  0  0  0  0
    6.8224    4.8707  -59.0407 H   0  0  0  0  0  0  0  0  0  0  0  0
    7.0580    2.4432  -58.4949 H   0  0  0  0  0  0  0  0  0  0  0  0
    8.3531    1.4705  -59.2904 H   0  0  0  0  0  0  0  0  0  0  0  0
   10.7542    1.8540  -58.7206 H   0  0  0  0  0  0  0  0  0  0  0  0
   11.1966    3.1337  -57.5220 H   0  0  0  0  0  0  0  0  0  0  0  0
  1  2  1  0
  2  3  1  0
  3  4  1  0
  4  5  2  0
  5  6  1  0
  6  7  2  0
  7  8  1  0
  8  9  2  0
  3 10  2  0
 10 11  1  0
 11 12  1  0
 12 13  1  0
 13 14  2  0
 13 15  1  0
 16 15  1  1
 16 17  1  0
 17 18  1  0
 18 19  1  0
 19 20  1  0
 20 21  1  0
 21 22  1  0
 22 23  1  0
 22 24  1  0
 20 25  1  0
 12  2  2  0
 24 16  1  0
  9  4  1  0
 25 16  1  0
 23 18  1  0
  1 26  1  0
  1 27  1  0
  1 28  1  0
  5 29  1  0
  6 30  1  0
  7 31  1  0
  8 32  1  0
  9 33  1  0
 11 34  1  0
 15 35  1  0
 17 36  1  0
 17 37  1  0
 18 38  1  1
 19 39  1  0
 19 40  1  0
 20 41  1  6
 21 42  1  0
 21 43  1  0
 22 44  1  6
 23 45  1  0
 23 46  1  0
 24 47  1  0
 24 48  1  0
 25 49  1  0
 25 50  1  0
M  END
>  <meeko>  (79) 
{"is_sidechain": false}

$$$$

     RDKit          3D

 53 57  0  0  0  0  0  0  0  0999 V2000
   11.5410   -0.8910  -56.0930 C   0  0  0  0  0  0  0  0  0  0  0  0
   10.3860   -1.1830  -55.2040 C   0  0  0  0  0  0  0  0  0  0  0  0
    9.2020   -0.4100  -55.0390 C   0  0  0  0  0  0  0  0  0  0  0  0
    8.8110    0.8340  -55.7320 C   0  0  0  0  0  0  0  0  0  0  0  0
    7.6690    1.2780  -55.7100 O   0  0  0  0  0  0  0  0  0  0  0  0
    9.8520    1.4280  -56.4290 N   0  0  0  0  0  0  0  0  0  0  0  0
    9.7100    2.6020  -57.2930 C   0  0  2  0  0  0  0  0  0  0  0  0
    8.5750    2.4160  -58.3290 C   0  0  0  0  0  0  0  0  0  0  0  0
    8.4880    3.6380  -59.2610 C   0  0  1  0  0  0  0  0  0  0  0  0
    8.2190    4.8980  -58.4210 C   0  0  0  0  0  0  0  0  0  0  0  0
    9.3590    5.1150  -57.4120 C   0  0  2  0  0  0  0  0  0  0  0  0
   10.6860    5.2730  -58.1710 C   0  0  0  0  0  0  0  0  0  0  0  0
   10.9640    4.0130  -59.0050 C   0  0  2  0  0  0  0  0  0  0  0  0
    9.8200    3.8030  -60.0100 C   0  0  0  0  0  0  0  0  0  0  0  0
   11.0420    2.7960  -58.0680 C   0  0  0  0  0  0  0  0  0  0  0  0
    9.4490    3.8950  -56.4780 C   0  0  0  0  0  0  0  0  0  0  0  0
    8.3830   -0.9830  -54.1490 N   0  0  0  0  0  0  0  0  0  0  0  0
    9.0450   -2.0590  -53.6540 N   0  0  0  0  0  0  0  0  0  0  0  0
    8.4640   -2.7680  -52.5550 C   0  0  0  0  0  0  0  0  0  0  0  0
    8.8760   -2.5830  -51.2300 C   0  0  0  0  0  0  0  0  0  0  0  0
    8.2710   -3.3000  -50.1910 C   0  0  0  0  0  0  0  0  0  0  0  0
    7.2430   -4.2010  -50.4610 C   0  0  0  0  0  0  0  0  0  0  0  0
    6.8070   -4.3770  -51.7700 C   0  0  0  0  0  0  0  0  0  0  0  0
    7.4070   -3.6620  -52.8080 C   0  0  0  0  0  0  0  0  0  0  0  0
   10.2210   -2.2790  -54.3670 C   0  0  0  0  0  0  0  0  0  0  0  0
   11.0910   -3.4790  -54.2590 C   0  0  0  0  0  0  0  0  0  0  0  0
   12.4272   -0.6670  -55.4811 H   0  0  0  0  0  0  0  0  0  0  0  0
   11.7454   -1.7657  -56.7279 H   0  0  0  0  0  0  0  0  0  0  0  0
   11.3051   -0.0242  -56.7279 H   0  0  0  0  0  0  0  0  0  0  0  0
   10.6560    0.8350  -56.5880 H   0  0  0  0  0  0  0  0  0  0  0  0
    8.7772    1.5168  -58.9295 H   0  0  0  0  0  0  0  0  0  0  0  0
    7.6199    2.3088  -57.7939 H   0  0  0  0  0  0  0  0  0  0  0  0
    7.6726    3.4934  -59.9850 H   0  0  0  0  0  0  0  0  0  0  0  0
    8.1514    5.7712  -59.0866 H   0  0  0  0  0  0  0  0  0  0  0  0
    7.2736    4.7701  -57.8734 H   0  0  0  0  0  0  0  0  0  0  0  0
    9.1621    6.0209  -56.8199 H   0  0  0  0  0  0  0  0  0  0  0  0
   10.6232    6.1455  -58.8380 H   0  0  0  0  0  0  0  0  0  0  0  0
   11.5023    5.4162  -57.4477 H   0  0  0  0  0  0  0  0  0  0  0  0
   11.9143    4.1302  -59.5465 H   0  0  0  0  0  0  0  0  0  0  0  0
    9.7570    4.6746  -60.6780 H   0  0  0  0  0  0  0  0  0  0  0  0
   10.0183    2.8957  -60.5994 H   0  0  0  0  0  0  0  0  0  0  0  0
   11.2448    1.8949  -58.6653 H   0  0  0  0  0  0  0  0  0  0  0  0
   11.8488    2.9663  -57.3399 H   0  0  0  0  0  0  0  0  0  0  0  0
   10.2731    4.0455  -55.7651 H   0  0  0  0  0  0  0  0  0  0  0  0
    8.4953    3.7889  -55.9403 H   0  0  0  0  0  0  0  0  0  0  0  0
    9.6813   -1.8687  -51.0035 H   0  0  0  0  0  0  0  0  0  0  0  0
    8.6093   -3.1512  -49.1549 H   0  0  0  0  0  0  0  0  0  0  0  0
    6.7784   -4.7705  -49.6426 H   0  0  0  0  0  0  0  0  0  0  0  0
    5.9892   -5.0798  -51.9874 H   0  0  0  0  0  0  0  0  0  0  0  0
    7.0484   -3.7994  -53.8388 H   0  0  0  0  0  0  0  0  0  0  0  0
   11.2614   -3.7140  -53.1980 H   0  0  0  0  0  0  0  0  0  0  0  0
   10.6006   -4.3328  -54.7495 H   0  0  0  0  0  0  0  0  0  0  0  0
   12.0549   -3.2784  -54.7495 H   0  0  0  0  0  0  0  0  0  0  0  0
  1  2  1  0
  2  3  1  0
  3  4  1  0
  4  5  2  0
  4  6  1  0
  7  6  1  1
  7  8  1  0
  8  9  1  0
  9 10  1  0
 10 11  1  0
 11 12  1  0
 12 13  1  0
 13 14  1  0
 13 15  1  0
 11 16  1  0
  3 17  2  0
 17 18  1  0
 18 19  1  0
 19 20  2  0
 20 21  1  0
 21 22  2  0
 22 23  1  0
 23 24  2  0
 18 25  1  0
 25 26  1  0
 25  2  2  0
 15  7  1  0
 24 19  1  0
 16  7  1  0
 14  9  1  0
  1 27  1  0
  1 28  1  0
  1 29  1  0
  6 30  1  0
  8 31  1  0
  8 32  1  0
  9 33  1  6
 10 34  1  0
 10 35  1  0
 11 36  1  1
 12 37  1  0
 12 38  1  0
 13 39  1  6
 14 40  1  0
 14 41  1  0
 15 42  1  0
 15 43  1  0
 16 44  1  0
 16 45  1  0
 20 46  1  0
 21 47  1  0
 22 48  1  0
 23 49  1  0
 24 50  1  0
 26 51  1  0
 26 52  1  0
 26 53  1  0
M  END
>  <meeko>  (80) 
{"is_sidechain": false}

$$$$

     RDKit          3D

 39 41  0  0  0  0  0  0  0  0999 V2000
    3.3520    1.9790  -60.6720 C   0  0  0  0  0  0  0  0  0  0  0  0
    4.7800    1.7300  -61.1490 C   0  0  0  0  0  0  0  0  0  0  0  0
    4.9990    2.2630  -62.5620 C   0  0  0  0  0  0  0  0  0  0  0  0
    5.8000    2.3100  -60.1740 C   0  0  0  0  0  0  0  0  0  0  0  0
    5.5380    2.4280  -58.9800 O   0  0  0  0  0  0  0  0  0  0  0  0
    7.0010    2.6790  -60.7380 N   0  0  0  0  0  0  0  0  0  0  0  0
    8.1320    3.2590  -60.0060 C   0  0  2  0  0  0  0  0  0  0  0  0
    8.6000    2.3370  -58.8520 C   0  0  0  0  0  0  0  0  0  0  0  0
    9.8200    2.9450  -58.1360 C   0  0  1  0  0  0  0  0  0  0  0  0
   10.9720    3.1050  -59.1390 C   0  0  0  0  0  0  0  0  0  0  0  0
   10.5430    4.0320  -60.2870 C   0  0  2  0  0  0  0  0  0  0  0  0
   10.1650    5.4080  -59.7170 C   0  0  0  0  0  0  0  0  0  0  0  0
    9.0080    5.2620  -58.7170 C   0  0  2  0  0  0  0  0  0  0  0  0
    9.4400    4.3260  -57.5750 C   0  0  0  0  0  0  0  0  0  0  0  0
    7.7890    4.6570  -59.4340 C   0  0  0  0  0  0  0  0  0  0  0  0
    9.3190    3.4270  -60.9930 C   0  0  0  0  0  0  0  0  0  0  0  0
    3.3282    1.9831  -59.5723 H   0  0  0  0  0  0  0  0  0  0  0  0
    3.0035    2.9515  -61.0500 H   0  0  0  0  0  0  0  0  0  0  0  0
    2.6949    1.1819  -61.0500 H   0  0  0  0  0  0  0  0  0  0  0  0
    4.9309    0.6408  -61.1804 H   0  0  0  0  0  0  0  0  0  0  0  0
    5.4166    3.2793  -62.5099 H   0  0  0  0  0  0  0  0  0  0  0  0
    5.6999    1.6056  -63.0973 H   0  0  0  0  0  0  0  0  0  0  0  0
    4.0384    2.2883  -63.0973 H   0  0  0  0  0  0  0  0  0  0  0  0
    7.1160    2.5400  -61.7340 H   0  0  0  0  0  0  0  0  0  0  0  0
    7.7793    2.2166  -58.1295 H   0  0  0  0  0  0  0  0  0  0  0  0
    8.8838    1.3601  -59.2704 H   0  0  0  0  0  0  0  0  0  0  0  0
   10.1351    2.2838  -57.3154 H   0  0  0  0  0  0  0  0  0  0  0  0
   11.8436    3.5385  -58.6268 H   0  0  0  0  0  0  0  0  0  0  0  0
   11.2336    2.1185  -59.5494 H   0  0  0  0  0  0  0  0  0  0  0  0
   11.3715    4.1421  -61.0022 H   0  0  0  0  0  0  0  0  0  0  0  0
   11.0364    5.8423  -59.2051 H   0  0  0  0  0  0  0  0  0  0  0  0
    9.8501    6.0660  -60.5403 H   0  0  0  0  0  0  0  0  0  0  0  0
    8.7451    6.2491  -58.3090 H   0  0  0  0  0  0  0  0  0  0  0  0
   10.3087    4.7600  -57.0582 H   0  0  0  0  0  0  0  0  0  0  0  0
    8.6037    4.2096  -56.8700 H   0  0  0  0  0  0  0  0  0  0  0  0
    6.9592    4.5612  -58.7182 H   0  0  0  0  0  0  0  0  0  0  0  0
    7.5008    5.3190  -60.2639 H   0  0  0  0  0  0  0  0  0  0  0  0
    9.0125    4.0919  -61.8140 H   0  0  0  0  0  0  0  0  0  0  0  0
    9.5940    2.4353  -61.3815 H   0  0  0  0  0  0  0  0  0  0  0  0
  1  2  1  0
  2  3  1  0
  2  4  1  0
  4  5  2  0
  4  6  1  0
  7  6  1  6
  7  8  1  0
  8  9  1  0
  9 10  1  0
 10 11  1  0
 11 12  1  0
 12 13  1  0
 13 14  1  0
 13 15  1  0
 11 16  1  0
 15  7  1  0
 16  7  1  0
 14  9  1  0
  1 17  1  0
  1 18  1  0
  1 19  1  0
  2 20  1  0
  3 21  1  0
  3 22  1  0
  3 23  1  0
  6 24  1  0
  8 25  1  0
  8 26  1  0
  9 27  1  1
 10 28  1  0
 10 29  1  0
 11 30  1  6
 12 31  1  0
 12 32  1  0
 13 33  1  1
 14 34  1  0
 14 35  1  0
 15 36  1  0
 15 37  1  0
 16 38  1  0
 16 39  1  0
M  END
>  <meeko>  (81) 
{"is_sidechain": false}

$$$$

     RDKit          3D

 47 51  0  0  0  0  0  0  0  0999 V2000
    9.6580    1.2090  -55.7180 O   0  0  0  0  0  0  0  0  0  0  0  0
    8.4360    1.1600  -55.8210 C   0  0  0  0  0  0  0  0  0  0  0  0
    7.7260    1.9350  -56.7270 N   0  0  0  0  0  0  0  0  0  0  0  0
    8.3270    2.9390  -57.6110 C   0  0  2  0  0  0  0  0  0  0  0  0
    9.5570    2.3830  -58.3730 C   0  0  0  0  0  0  0  0  0  0  0  0
   10.1280    3.4460  -59.3310 C   0  0  1  0  0  0  0  0  0  0  0  0
    9.0510    3.8380  -60.3540 C   0  0  0  0  0  0  0  0  0  0  0  0
    7.8250    4.4110  -59.6300 C   0  0  2  0  0  0  0  0  0  0  0  0
    8.2420    5.6520  -58.8260 C   0  0  0  0  0  0  0  0  0  0  0  0
    9.3140    5.2710  -57.7920 C   0  0  2  0  0  0  0  0  0  0  0  0
   10.5360    4.6880  -58.5220 C   0  0  0  0  0  0  0  0  0  0  0  0
    8.7430    4.2130  -56.8330 C   0  0  0  0  0  0  0  0  0  0  0  0
    7.2660    3.3510  -58.6680 C   0  0  0  0  0  0  0  0  0  0  0  0
    7.5950    0.2820  -54.9760 C   0  0  0  0  0  0  0  0  0  0  0  0
    6.1820    0.1480  -54.9720 C   0  0  0  0  0  0  0  0  0  0  0  0
    5.9040   -0.7960  -54.0130 C   0  0  0  0  0  0  0  0  0  0  0  0
    7.1100   -1.2000  -53.4850 N   0  0  0  0  0  0  0  0  0  0  0  0
    7.3430   -2.1650  -52.4640 C   0  0  0  0  0  0  0  0  0  0  0  0
    7.7890   -1.7860  -51.1900 C   0  0  0  0  0  0  0  0  0  0  0  0
    8.0080   -2.7580  -50.2080 C   0  0  0  0  0  0  0  0  0  0  0  0
    7.7850   -4.1050  -50.4890 C   0  0  0  0  0  0  0  0  0  0  0  0
    7.3420   -4.4880  -51.7520 C   0  0  0  0  0  0  0  0  0  0  0  0
    7.1210   -3.5240  -52.7380 C   0  0  0  0  0  0  0  0  0  0  0  0
    8.1410   -0.5430  -54.0660 N   0  0  0  0  0  0  0  0  0  0  0  0
    6.7280    1.9880  -56.5930 H   0  0  0  0  0  0  0  0  0  0  0  0
   10.3325    2.0965  -57.6474 H   0  0  0  0  0  0  0  0  0  0  0  0
    9.2437    1.5077  -58.9610 H   0  0  0  0  0  0  0  0  0  0  0  0
   11.0054    3.0400  -59.8557 H   0  0  0  0  0  0  0  0  0  0  0  0
    9.4576    4.5968  -61.0387 H   0  0  0  0  0  0  0  0  0  0  0  0
    8.7507    2.9457  -60.9229 H   0  0  0  0  0  0  0  0  0  0  0  0
    7.0568    4.6887  -60.3668 H   0  0  0  0  0  0  0  0  0  0  0  0
    8.6494    6.4102  -59.5110 H   0  0  0  0  0  0  0  0  0  0  0  0
    7.3628    6.0565  -58.3032 H   0  0  0  0  0  0  0  0  0  0  0  0
    9.6126    6.1631  -57.2218 H   0  0  0  0  0  0  0  0  0  0  0  0
   10.9481    5.4466  -59.2038 H   0  0  0  0  0  0  0  0  0  0  0  0
   11.2942    4.3995  -57.7791 H   0  0  0  0  0  0  0  0  0  0  0  0
    9.5090    3.9483  -56.0893 H   0  0  0  0  0  0  0  0  0  0  0  0
    7.8555    4.6292  -56.3339 H   0  0  0  0  0  0  0  0  0  0  0  0
    6.3861    3.7627  -58.1520 H   0  0  0  0  0  0  0  0  0  0  0  0
    6.9907    2.4603  -59.2518 H   0  0  0  0  0  0  0  0  0  0  0  0
    5.4608    0.6868  -55.6040 H   0  0  0  0  0  0  0  0  0  0  0  0
    4.9075   -1.1599  -53.7223 H   0  0  0  0  0  0  0  0  0  0  0  0
    7.9667   -0.7245  -50.9626 H   0  0  0  0  0  0  0  0  0  0  0  0
    8.3579   -2.4579  -49.2092 H   0  0  0  0  0  0  0  0  0  0  0  0
    7.9590   -4.8650  -49.7131 H   0  0  0  0  0  0  0  0  0  0  0  0
    7.1659   -5.5510  -51.9735 H   0  0  0  0  0  0  0  0  0  0  0  0
    6.7711   -3.8311  -53.7346 H   0  0  0  0  0  0  0  0  0  0  0  0
  1  2  2  0
  2  3  1  0
  4  3  1  1
  4  5  1  0
  5  6  1  0
  6  7  1  0
  7  8  1  0
  8  9  1  0
  9 10  1  0
 10 11  1  0
 10 12  1  0
  8 13  1  0
  2 14  1  0
 14 15  1  0
 15 16  2  0
 16 17  1  0
 17 18  1  0
 18 19  2  0
 19 20  1  0
 20 21  2  0
 21 22  1  0
 22 23  2  0
 17 24  1  0
 12  4  1  0
 24 14  2  0
 13  4  1  0
 23 18  1  0
 11  6  1  0
  3 25  1  0
  5 26  1  0
  5 27  1  0
  6 28  1  6
  7 29  1  0
  7 30  1  0
  8 31  1  6
  9 32  1  0
  9 33  1  0
 10 34  1  1
 11 35  1  0
 11 36  1  0
 12 37  1  0
 12 38  1  0
 13 39  1  0
 13 40  1  0
 15 41  1  0
 16 42  1  0
 19 43  1  0
 20 44  1  0
 21 45  1  0
 22 46  1  0
 23 47  1  0
M  END
>  <meeko>  (82) 
{"is_sidechain": false}

$$$$

     RDKit          3D

 48 50  0  0  0  0  0  0  0  0999 V2000
    6.3010    0.1490  -53.4700 C   0  0  0  0  0  0  0  0  0  0  0  0
    7.5790   -0.4580  -53.9250 C   0  0  0  0  0  0  0  0  0  0  0  0
    8.4670    0.0210  -54.9430 C   0  0  0  0  0  0  0  0  0  0  0  0
    8.3160    1.1940  -55.8270 C   0  0  0  0  0  0  0  0  0  0  0  0
    7.2990    1.4210  -56.4780 O   0  0  0  0  0  0  0  0  0  0  0  0
    9.4110    2.0400  -55.8380 N   0  0  0  0  0  0  0  0  0  0  0  0
    9.3560    3.3270  -56.4900 C   0  0  0  0  0  0  0  0  0  0  0  0
   10.4850    3.4720  -57.4800 C   0  0  0  0  0  0  0  0  0  0  0  0
   11.7570    3.8860  -57.0630 C   0  0  0  0  0  0  0  0  0  0  0  0
   12.7900    4.0380  -57.9910 C   0  0  0  0  0  0  0  0  0  0  0  0
   12.5590    3.7840  -59.3410 C   0  0  0  0  0  0  0  0  0  0  0  0
   11.2960    3.3800  -59.7680 C   0  0  0  0  0  0  0  0  0  0  0  0
   10.2620    3.2270  -58.8430 C   0  0  0  0  0  0  0  0  0  0  0  0
    9.5540   -0.7660  -55.0320 N   0  0  0  0  0  0  0  0  0  0  0  0
    9.3610   -1.7360  -54.1190 N   0  0  0  0  0  0  0  0  0  0  0  0
   10.3770   -2.7770  -53.9710 C   0  0  0  0  0  0  0  0  0  0  0  0
   11.3930   -2.4060  -52.8910 C   0  0  0  0  0  0  0  0  0  0  0  0
   11.0650   -3.0870  -55.3020 C   0  0  0  0  0  0  0  0  0  0  0  0
    8.1840   -1.6030  -53.4240 C   0  0  0  0  0  0  0  0  0  0  0  0
    7.7390   -2.5060  -52.3710 C   0  0  0  0  0  0  0  0  0  0  0  0
    8.1350   -2.2940  -51.0460 C   0  0  0  0  0  0  0  0  0  0  0  0
    7.7100   -3.1620  -50.0390 C   0  0  0  0  0  0  0  0  0  0  0  0
    6.8880   -4.2440  -50.3520 C   0  0  0  0  0  0  0  0  0  0  0  0
    6.4860   -4.4570  -51.6700 C   0  0  0  0  0  0  0  0  0  0  0  0
    6.9090   -3.5890  -52.6790 C   0  0  0  0  0  0  0  0  0  0  0  0
    6.2725    0.1625  -52.3705 H   0  0  0  0  0  0  0  0  0  0  0  0
    6.2276    1.1782  -53.8514 H   0  0  0  0  0  0  0  0  0  0  0  0
    5.4570   -0.4444  -53.8514 H   0  0  0  0  0  0  0  0  0  0  0  0
   10.0830    1.9310  -55.0930 H   0  0  0  0  0  0  0  0  0  0  0  0
    8.3967    3.4227  -57.0197 H   0  0  0  0  0  0  0  0  0  0  0  0
    9.4511    4.1141  -55.7274 H   0  0  0  0  0  0  0  0  0  0  0  0
   11.9432    4.0925  -55.9987 H   0  0  0  0  0  0  0  0  0  0  0  0
   13.7872    4.3587  -57.6552 H   0  0  0  0  0  0  0  0  0  0  0  0
   13.3741    3.9025  -60.0701 H   0  0  0  0  0  0  0  0  0  0  0  0
   11.1136    3.1815  -60.8345 H   0  0  0  0  0  0  0  0  0  0  0  0
    9.2652    2.9121  -59.1853 H   0  0  0  0  0  0  0  0  0  0  0  0
    9.8648   -3.6953  -53.6480 H   0  0  0  0  0  0  0  0  0  0  0  0
   10.9484   -2.5684  -51.8980 H   0  0  0  0  0  0  0  0  0  0  0  0
   12.2890   -3.0350  -52.9989 H   0  0  0  0  0  0  0  0  0  0  0  0
   11.6728   -1.3477  -52.9989 H   0  0  0  0  0  0  0  0  0  0  0  0
   12.0524   -3.5319  -55.1095 H   0  0  0  0  0  0  0  0  0  0  0  0
   10.4496   -3.7948  -55.8767 H   0  0  0  0  0  0  0  0  0  0  0  0
   11.1876   -2.1571  -55.8767 H   0  0  0  0  0  0  0  0  0  0  0  0
    8.7832   -1.4408  -50.7971 H   0  0  0  0  0  0  0  0  0  0  0  0
    8.0235   -2.9925  -48.9983 H   0  0  0  0  0  0  0  0  0  0  0  0
    6.5565   -4.9300  -49.5586 H   0  0  0  0  0  0  0  0  0  0  0  0
    5.8352   -5.3093  -51.9152 H   0  0  0  0  0  0  0  0  0  0  0  0
    6.5889   -3.7573  -53.7178 H   0  0  0  0  0  0  0  0  0  0  0  0
  1  2  1  0
  2  3  1  0
  3  4  1  0
  4  5  2  0
  4  6  1  0
  6  7  1  0
  7  8  1  0
  8  9  2  0
  9 10  1  0
 10 11  2  0
 11 12  1  0
 12 13  2  0
  3 14  2  0
 14 15  1  0
 15 16  1  0
 16 17  1  0
 16 18  1  0
 15 19  1  0
 19 20  1  0
 20 21  2  0
 21 22  1  0
 22 23  2  0
 23 24  1  0
 24 25  2  0
 19  2  2  0
 25 20  1  0
 13  8  1  0
  1 26  1  0
  1 27  1  0
  1 28  1  0
  6 29  1  0
  7 30  1  0
  7 31  1  0
  9 32  1  0
 10 33  1  0
 11 34  1  0
 12 35  1  0
 13 36  1  0
 16 37  1  0
 17 38  1  0
 17 39  1  0
 17 40  1  0
 18 41  1  0
 18 42  1  0
 18 43  1  0
 21 44  1  0
 22 45  1  0
 23 46  1  0
 24 47  1  0
 25 48  1  0
M  END
>  <meeko>  (83) 
{"is_sidechain": false}

$$$$

     RDKit          3D

 54 56  0  0  0  0  0  0  0  0999 V2000
    6.5020    0.2640  -53.6570 C   0  0  0  0  0  0  0  0  0  0  0  0
    7.7650   -0.4370  -54.0130 C   0  0  0  0  0  0  0  0  0  0  0  0
    8.7520   -0.0330  -54.9690 C   0  0  0  0  0  0  0  0  0  0  0  0
    8.7340    1.1400  -55.8660 C   0  0  0  0  0  0  0  0  0  0  0  0
    7.7340    1.8240  -56.0650 O   0  0  0  0  0  0  0  0  0  0  0  0
    9.9600    1.4190  -56.4480 N   0  0  0  0  0  0  0  0  0  0  0  0
   10.1610    2.5620  -57.3320 C   0  0  0  0  0  0  0  0  0  0  0  0
   11.6120    3.0690  -57.2720 C   0  0  0  0  0  0  0  0  0  0  0  0
   11.9000    4.3370  -58.0770 C   0  0  0  0  0  0  0  0  0  0  0  0
   10.7170    5.2840  -58.2440 C   0  0  0  0  0  0  0  0  0  0  0  0
    9.5290    4.7920  -59.0700 C   0  0  0  0  0  0  0  0  0  0  0  0
    9.7180    3.4360  -59.7420 C   0  0  0  0  0  0  0  0  0  0  0  0
    9.6450    2.2760  -58.7490 C   0  0  0  0  0  0  0  0  0  0  0  0
    9.7820   -0.8940  -54.9810 N   0  0  0  0  0  0  0  0  0  0  0  0
    9.4650   -1.8330  -54.0700 N   0  0  0  0  0  0  0  0  0  0  0  0
   10.4010   -2.9320  -53.8340 C   0  0  0  0  0  0  0  0  0  0  0  0
   11.1470   -3.3200  -55.1120 C   0  0  0  0  0  0  0  0  0  0  0  0
   11.3710   -2.5990  -52.7010 C   0  0  0  0  0  0  0  0  0  0  0  0
    8.2530   -1.6120  -53.4620 C   0  0  0  0  0  0  0  0  0  0  0  0
    7.6780   -2.4700  -52.4330 C   0  0  0  0  0  0  0  0  0  0  0  0
    8.0180   -2.2830  -51.0890 C   0  0  0  0  0  0  0  0  0  0  0  0
    7.4680   -3.1060  -50.1060 C   0  0  0  0  0  0  0  0  0  0  0  0
    6.5740   -4.1160  -50.4620 C   0  0  0  0  0  0  0  0  0  0  0  0
    6.2270   -4.3030  -51.7990 C   0  0  0  0  0  0  0  0  0  0  0  0
    6.7760   -3.4800  -52.7840 C   0  0  0  0  0  0  0  0  0  0  0  0
    6.4077    0.3163  -52.5623 H   0  0  0  0  0  0  0  0  0  0  0  0
    6.5181    1.2823  -54.0727 H   0  0  0  0  0  0  0  0  0  0  0  0
    5.6464   -0.2883  -54.0727 H   0  0  0  0  0  0  0  0  0  0  0  0
   10.7630    0.9290  -56.0810 H   0  0  0  0  0  0  0  0  0  0  0  0
    9.5472    3.3992  -56.9682 H   0  0  0  0  0  0  0  0  0  0  0  0
   11.8564    3.2732  -56.2191 H   0  0  0  0  0  0  0  0  0  0  0  0
   12.2275    2.2776  -57.7246 H   0  0  0  0  0  0  0  0  0  0  0  0
   12.7064    4.8864  -57.5691 H   0  0  0  0  0  0  0  0  0  0  0  0
   12.1666    4.0009  -59.0899 H   0  0  0  0  0  0  0  0  0  0  0  0
   10.3420    5.5231  -57.2379 H   0  0  0  0  0  0  0  0  0  0  0  0
   11.1188    6.1361  -58.8119 H   0  0  0  0  0  0  0  0  0  0  0  0
    8.6573    4.7218  -58.4028 H   0  0  0  0  0  0  0  0  0  0  0  0
    9.4035    5.5200  -59.8850 H   0  0  0  0  0  0  0  0  0  0  0  0
    8.9297    3.3037  -60.4977 H   0  0  0  0  0  0  0  0  0  0  0  0
   10.7196    3.4247  -60.1966 H   0  0  0  0  0  0  0  0  0  0  0  0
    8.5915    1.9705  -58.6670 H   0  0  0  0  0  0  0  0  0  0  0  0
   10.3119    1.5004  -59.1536 H   0  0  0  0  0  0  0  0  0  0  0  0
    9.8113   -3.8066  -53.5219 H   0  0  0  0  0  0  0  0  0  0  0  0
   12.0944   -3.8128  -54.8483 H   0  0  0  0  0  0  0  0  0  0  0  0
   10.5271   -4.0099  -55.7033 H   0  0  0  0  0  0  0  0  0  0  0  0
   11.3559   -2.4163  -55.7033 H   0  0  0  0  0  0  0  0  0  0  0  0
   10.8765   -2.7688  -51.7332 H   0  0  0  0  0  0  0  0  0  0  0  0
   12.2590   -3.2438  -52.7771 H   0  0  0  0  0  0  0  0  0  0  0  0
   11.6757   -1.5448  -52.7771 H   0  0  0  0  0  0  0  0  0  0  0  0
    8.7207   -1.4852  -50.8066 H   0  0  0  0  0  0  0  0  0  0  0  0
    7.7392   -2.9585  -49.0502 H   0  0  0  0  0  0  0  0  0  0  0  0
    6.1423   -4.7658  -49.6865 H   0  0  0  0  0  0  0  0  0  0  0  0
    5.5207   -5.0989  -52.0779 H   0  0  0  0  0  0  0  0  0  0  0  0
    6.4987   -3.6260  -53.8384 H   0  0  0  0  0  0  0  0  0  0  0  0
  1  2  1  0
  2  3  1  0
  3  4  1  0
  4  5  2  0
  4  6  1  0
  6  7  1  0
  7  8  1  0
  8  9  1  0
  9 10  1  0
 10 11  1  0
 11 12  1  0
 12 13  1  0
  3 14  2  0
 14 15  1  0
 15 16  1  0
 16 17  1  0
 16 18  1  0
 15 19  1  0
 19 20  1  0
 20 21  2  0
 21 22  1  0
 22 23  2  0
 23 24  1  0
 24 25  2  0
 19  2  2  0
 25 20  1  0
 13  7  1  0
  1 26  1  0
  1 27  1  0
  1 28  1  0
  6 29  1  0
  7 30  1  0
  8 31  1  0
  8 32  1  0
  9 33  1  0
  9 34  1  0
 10 35  1  0
 10 36  1  0
 11 37  1  0
 11 38  1  0
 12 39  1  0
 12 40  1  0
 13 41  1  0
 13 42  1  0
 16 43  1  0
 17 44  1  0
 17 45  1  0
 17 46  1  0
 18 47  1  0
 18 48  1  0
 18 49  1  0
 21 50  1  0
 22 51  1  0
 23 52  1  0
 24 53  1  0
 25 54  1  0
M  END
>  <meeko>  (84) 
{"is_sidechain": false}

$$$$
