9JU
     RDKit          3D

 66 70  0  0  0  0  0  0  0  0999 V2000
    6.6310    0.1490  -53.6850 C   0  0  0  0  0  0  0  0  0  0  0  0
    7.9540   -0.4910  -54.0200 C   0  0  0  0  0  0  0  0  0  0  0  0
    8.8910   -0.0640  -54.9850 C   0  0  0  0  0  0  0  0  0  0  0  0
    8.7620    1.1120  -55.8700 C   0  0  0  0  0  0  0  0  0  0  0  0
    7.6850    1.6620  -55.9960 O   0  0  0  0  0  0  0  0  0  0  0  0
    9.8370    1.5730  -56.5400 N   0  0  0  0  0  0  0  0  0  0  0  0
    9.7090    2.7390  -57.4180 C   0  0  2  0  0  0  0  0  0  0  0  0
    9.4830    3.9930  -56.5710 C   0  0  0  0  0  0  0  0  0  0  0  0
    9.3500    5.2100  -57.4880 C   0  0  1  0  0  0  0  0  0  0  0  0
   10.6300    5.3730  -58.3090 C   0  0  0  0  0  0  0  0  0  0  0  0
   10.8560    4.1180  -59.1560 C   0  0  2  0  0  0  0  0  0  0  0  0
    9.6670    3.9190  -60.0980 C   0  0  0  0  0  0  0  0  0  0  0  0
    8.3870    3.7560  -59.2770 C   0  0  2  0  0  0  0  0  0  0  0  0
    8.1610    5.0100  -58.4300 C   0  0  0  0  0  0  0  0  0  0  0  0
    8.5200    2.5390  -58.3610 C   0  0  0  0  0  0  0  0  0  0  0  0
   10.9890    2.9010  -58.2400 C   0  0  0  0  0  0  0  0  0  0  0  0
    9.9010   -0.9110  -54.9540 N   0  0  0  0  0  0  0  0  0  0  0  0
    9.6970   -1.8190  -54.0690 N   0  0  0  0  0  0  0  0  0  0  0  0
   10.6160   -2.9190  -53.7670 C   0  0  0  0  0  0  0  0  0  0  0  0
   10.2820   -4.1210  -54.6520 C   0  0  0  0  0  0  0  0  0  0  0  0
   11.4940   -4.4690  -55.5200 C   0  0  0  0  0  0  0  0  0  0  0  0
   11.0810   -4.4750  -56.9930 C   0  0  0  0  0  0  0  0  0  0  0  0
   11.8410   -3.3770  -57.7400 C   0  0  0  0  0  0  0  0  0  0  0  0
   11.7530   -2.1530  -57.0100 O   0  0  0  0  0  0  0  0  0  0  0  0
    8.4990   -1.6090  -53.4530 C   0  0  0  0  0  0  0  0  0  0  0  0
    7.9010   -2.4360  -52.3800 C   0  0  0  0  0  0  0  0  0  0  0  0
    7.0370   -3.4820  -52.7010 C   0  0  0  0  0  0  0  0  0  0  0  0
    6.4830   -4.2480  -51.6960 C   0  0  0  0  0  0  0  0  0  0  0  0
    6.7830   -3.9800  -50.3720 C   0  0  0  0  0  0  0  0  0  0  0  0
    7.6400   -2.9430  -50.0480 C   0  0  0  0  0  0  0  0  0  0  0  0
    8.2050   -2.1740  -51.0430 C   0  0  0  0  0  0  0  0  0  0  0  0
    6.5167    0.2043  -52.5924 H   0  0  0  0  0  0  0  0  0  0  0  0
    6.5966    1.1634  -54.1091 H   0  0  0  0  0  0  0  0  0  0  0  0
    5.8143   -0.4536  -54.1091 H   0  0  0  0  0  0  0  0  0  0  0  0
   10.6960    1.1340  -56.4380 H   0  0  0  0  0  0  0  0  0  0  0  0
    8.5620    3.8760  -55.9810 H   0  0  0  0  0  0  0  0  0  0  0  0
   10.3370    4.1364  -55.8927 H   0  0  0  0  0  0  0  0  0  0  0  0
    9.1885    6.1120  -56.8795 H   0  0  0  0  0  0  0  0  0  0  0  0
   10.5337    6.2481  -58.9685 H   0  0  0  0  0  0  0  0  0  0  0  0
   11.4845    5.5169  -57.6314 H   0  0  0  0  0  0  0  0  0  0  0  0
   11.7770    4.2348  -59.7460 H   0  0  0  0  0  0  0  0  0  0  0  0
    9.5708    4.7946  -60.7569 H   0  0  0  0  0  0  0  0  0  0  0  0
    9.8290    3.0174  -60.7070 H   0  0  0  0  0  0  0  0  0  0  0  0
    7.5326    3.6127  -59.9549 H   0  0  0  0  0  0  0  0  0  0  0  0
    8.0641    5.8852  -59.0892 H   0  0  0  0  0  0  0  0  0  0  0  0
    7.2406    4.8925  -57.8391 H   0  0  0  0  0  0  0  0  0  0  0  0
    7.5993    2.4218  -57.7707 H   0  0  0  0  0  0  0  0  0  0  0  0
    8.6819    1.6373  -58.9698 H   0  0  0  0  0  0  0  0  0  0  0  0
   11.1501    1.9994  -58.8492 H   0  0  0  0  0  0  0  0  0  0  0  0
   11.8440    3.0435  -57.5628 H   0  0  0  0  0  0  0  0  0  0  0  0
   11.6497   -2.5968  -53.9612 H   0  0  0  0  0  0  0  0  0  0  0  0
   10.5126   -3.2028  -52.7093 H   0  0  0  0  0  0  0  0  0  0  0  0
   10.0255   -4.9827  -54.0183 H   0  0  0  0  0  0  0  0  0  0  0  0
    9.4272   -3.8736  -55.2986 H   0  0  0  0  0  0  0  0  0  0  0  0
   12.2842   -3.7199  -55.3637 H   0  0  0  0  0  0  0  0  0  0  0  0
   11.8716   -5.4637  -55.2409 H   0  0  0  0  0  0  0  0  0  0  0  0
   11.3194   -5.4529  -57.4367 H   0  0  0  0  0  0  0  0  0  0  0  0
    9.9994   -4.2908  -57.0714 H   0  0  0  0  0  0  0  0  0  0  0  0
   12.8971   -3.6673  -57.8424 H   0  0  0  0  0  0  0  0  0  0  0  0
   11.3987   -3.2402  -58.7378 H   0  0  0  0  0  0  0  0  0  0  0  0
   11.5800   -2.2690  -56.0660 H   0  0  0  0  0  0  0  0  0  0  0  0
    6.7975   -3.6961  -53.7531 H   0  0  0  0  0  0  0  0  0  0  0  0
    5.8012   -5.0737  -51.9479 H   0  0  0  0  0  0  0  0  0  0  0  0
    6.3387   -4.5934  -49.5743 H   0  0  0  0  0  0  0  0  0  0  0  0
    7.8711   -2.7316  -48.9935 H   0  0  0  0  0  0  0  0  0  0  0  0
    8.8935   -1.3562  -50.7840 H   0  0  0  0  0  0  0  0  0  0  0  0
  1  2  1  0
  2  3  1  0
  3  4  1  0
  4  5  2  0
  4  6  1  0
  7  6  1  1
  7  8  1  0
  8  9  1  0
  9 10  1  0
 10 11  1  0
 11 12  1  0
 12 13  1  0
 13 14  1  0
 13 15  1  0
 11 16  1  0
  3 17  2  0
 17 18  1  0
 18 19  1  0
 19 20  1  0
 20 21  1  0
 21 22  1  0
 22 23  1  0
 23 24  1  0
 18 25  1  0
 25 26  1  0
 26 27  2  0
 27 28  1  0
 28 29  2  0
 29 30  1  0
 30 31  2  0
 25  2  2  0
 31 26  1  0
 15  7  1  0
 16  7  1  0
 14  9  1  0
  1 32  1  0
  1 33  1  0
  1 34  1  0
  6 35  1  0
  8 36  1  0
  8 37  1  0
  9 38  1  1
 10 39  1  0
 10 40  1  0
 11 41  1  6
 12 42  1  0
 12 43  1  0
 13 44  1  6
 14 45  1  0
 14 46  1  0
 15 47  1  0
 15 48  1  0
 16 49  1  0
 16 50  1  0
 19 51  1  0
 19 52  1  0
 20 53  1  0
 20 54  1  0
 21 55  1  0
 21 56  1  0
 22 57  1  0
 22 58  1  0
 23 59  1  0
 23 60  1  0
 24 61  1  0
 27 62  1  0
 28 63  1  0
 29 64  1  0
 30 65  1  0
 31 66  1  0
M  END
>  <meeko>  (1) 
{"is_sidechain": [false], "free_energy": -10.822, "intermolecular_energy": -16.2, "internal_energy": -0.395}

$$$$
9JU
     RDKit          3D

 66 70  0  0  0  0  0  0  0  0999 V2000
    6.5800    0.1360  -53.7250 C   0  0  0  0  0  0  0  0  0  0  0  0
    7.9140   -0.4840  -54.0540 C   0  0  0  0  0  0  0  0  0  0  0  0
    8.8460   -0.0440  -55.0190 C   0  0  0  0  0  0  0  0  0  0  0  0
    8.7010    1.1250  -55.9080 C   0  0  0  0  0  0  0  0  0  0  0  0
    7.6140    1.6540  -56.0440 O   0  0  0  0  0  0  0  0  0  0  0  0
    9.7710    1.6060  -56.5720 N   0  0  0  0  0  0  0  0  0  0  0  0
    9.6260    2.7660  -57.4540 C   0  0  2  0  0  0  0  0  0  0  0  0
    8.3820    2.5910  -58.3270 C   0  0  0  0  0  0  0  0  0  0  0  0
    8.2310    3.8030  -59.2480 C   0  0  1  0  0  0  0  0  0  0  0  0
    8.0870    5.0700  -58.4050 C   0  0  0  0  0  0  0  0  0  0  0  0
    9.3320    5.2460  -57.5310 C   0  0  2  0  0  0  0  0  0  0  0  0
   10.5670    5.3650  -58.4250 C   0  0  0  0  0  0  0  0  0  0  0  0
   10.7120    4.0970  -59.2690 C   0  0  2  0  0  0  0  0  0  0  0  0
    9.4670    3.9210  -60.1420 C   0  0  0  0  0  0  0  0  0  0  0  0
   10.8630    2.8860  -58.3480 C   0  0  0  0  0  0  0  0  0  0  0  0
    9.4830    4.0340  -56.6100 C   0  0  0  0  0  0  0  0  0  0  0  0
    9.8700   -0.8750  -54.9810 N   0  0  0  0  0  0  0  0  0  0  0  0
    9.6790   -1.7830  -54.0930 N   0  0  0  0  0  0  0  0  0  0  0  0
   10.6150   -2.8670  -53.7850 C   0  0  0  0  0  0  0  0  0  0  0  0
   10.2860   -4.0870  -54.6470 C   0  0  0  0  0  0  0  0  0  0  0  0
   11.5000   -4.4470  -55.5070 C   0  0  0  0  0  0  0  0  0  0  0  0
   11.0890   -4.4770  -56.9800 C   0  0  0  0  0  0  0  0  0  0  0  0
   11.8170   -3.3620  -57.7360 C   0  0  0  0  0  0  0  0  0  0  0  0
   11.7820   -2.1610  -56.9640 O   0  0  0  0  0  0  0  0  0  0  0  0
    8.4760   -1.5910  -53.4820 C   0  0  0  0  0  0  0  0  0  0  0  0
    7.8890   -2.4230  -52.4070 C   0  0  0  0  0  0  0  0  0  0  0  0
    7.0330   -3.4770  -52.7260 C   0  0  0  0  0  0  0  0  0  0  0  0
    6.4890   -4.2480  -51.7190 C   0  0  0  0  0  0  0  0  0  0  0  0
    6.7910   -3.9780  -50.3960 C   0  0  0  0  0  0  0  0  0  0  0  0
    7.6390   -2.9330  -50.0740 C   0  0  0  0  0  0  0  0  0  0  0  0
    8.1940   -2.1590  -51.0710 C   0  0  0  0  0  0  0  0  0  0  0  0
    6.4608    0.1914  -52.6329 H   0  0  0  0  0  0  0  0  0  0  0  0
    6.5314    1.1490  -54.1510 H   0  0  0  0  0  0  0  0  0  0  0  0
    5.7743   -0.4800  -54.1510 H   0  0  0  0  0  0  0  0  0  0  0  0
   10.6380    1.1840  -56.4630 H   0  0  0  0  0  0  0  0  0  0  0  0
    8.4854    1.6796  -58.9342 H   0  0  0  0  0  0  0  0  0  0  0  0
    7.4927    2.5050  -57.6853 H   0  0  0  0  0  0  0  0  0  0  0  0
    7.3360    3.6778  -59.8751 H   0  0  0  0  0  0  0  0  0  0  0  0
    7.9783    5.9411  -59.0679 H   0  0  0  0  0  0  0  0  0  0  0  0
    7.1977    4.9843  -57.7633 H   0  0  0  0  0  0  0  0  0  0  0  0
    9.2296    6.1571  -56.9232 H   0  0  0  0  0  0  0  0  0  0  0  0
   10.4568    6.2358  -59.0880 H   0  0  0  0  0  0  0  0  0  0  0  0
   11.4619    5.4915  -57.7979 H   0  0  0  0  0  0  0  0  0  0  0  0
   11.6015    4.1831  -59.9105 H   0  0  0  0  0  0  0  0  0  0  0  0
    9.3581    4.7916  -60.8055 H   0  0  0  0  0  0  0  0  0  0  0  0
    9.5698    3.0090  -60.7484 H   0  0  0  0  0  0  0  0  0  0  0  0
   10.9662    1.9745  -58.9551 H   0  0  0  0  0  0  0  0  0  0  0  0
   11.7575    3.0125  -57.7204 H   0  0  0  0  0  0  0  0  0  0  0  0
   10.3778    4.1596  -55.9826 H   0  0  0  0  0  0  0  0  0  0  0  0
    8.5938    3.9485  -55.9681 H   0  0  0  0  0  0  0  0  0  0  0  0
   11.6422   -2.5352  -53.9964 H   0  0  0  0  0  0  0  0  0  0  0  0
   10.5271   -3.1355  -52.7219 H   0  0  0  0  0  0  0  0  0  0  0  0
   10.0320   -4.9373  -53.9971 H   0  0  0  0  0  0  0  0  0  0  0  0
    9.4308   -3.8553  -55.2989 H   0  0  0  0  0  0  0  0  0  0  0  0
   12.2889   -3.6943  -55.3615 H   0  0  0  0  0  0  0  0  0  0  0  0
   11.8790   -5.4364  -55.2113 H   0  0  0  0  0  0  0  0  0  0  0  0
   11.3570   -5.4509  -57.4157 H   0  0  0  0  0  0  0  0  0  0  0  0
   10.0024   -4.3257  -57.0606 H   0  0  0  0  0  0  0  0  0  0  0  0
   12.8627   -3.6574  -57.9071 H   0  0  0  0  0  0  0  0  0  0  0  0
   11.3211   -3.1906  -58.7028 H   0  0  0  0  0  0  0  0  0  0  0  0
   11.4880   -1.3840  -57.4580 H   0  0  0  0  0  0  0  0  0  0  0  0
    6.7922   -3.6931  -53.7773 H   0  0  0  0  0  0  0  0  0  0  0  0
    5.8135   -5.0794  -51.9688 H   0  0  0  0  0  0  0  0  0  0  0  0
    6.3554   -4.5963  -49.5973 H   0  0  0  0  0  0  0  0  0  0  0  0
    7.8709   -2.7193  -49.0202 H   0  0  0  0  0  0  0  0  0  0  0  0
    8.8759   -1.3350  -50.8138 H   0  0  0  0  0  0  0  0  0  0  0  0
  1  2  1  0
  2  3  1  0
  3  4  1  0
  4  5  2  0
  4  6  1  0
  7  6  1  1
  7  8  1  0
  8  9  1  0
  9 10  1  0
 10 11  1  0
 11 12  1  0
 12 13  1  0
 13 14  1  0
 13 15  1  0
 11 16  1  0
  3 17  2  0
 17 18  1  0
 18 19  1  0
 19 20  1  0
 20 21  1  0
 21 22  1  0
 22 23  1  0
 23 24  1  0
 18 25  1  0
 25 26  1  0
 26 27  2  0
 27 28  1  0
 28 29  2  0
 29 30  1  0
 30 31  2  0
 25  2  2  0
 31 26  1  0
 15  7  1  0
 16  7  1  0
 14  9  1  0
  1 32  1  0
  1 33  1  0
  1 34  1  0
  6 35  1  0
  8 36  1  0
  8 37  1  0
  9 38  1  6
 10 39  1  0
 10 40  1  0
 11 41  1  1
 12 42  1  0
 12 43  1  0
 13 44  1  6
 14 45  1  0
 14 46  1  0
 15 47  1  0
 15 48  1  0
 16 49  1  0
 16 50  1  0
 19 51  1  0
 19 52  1  0
 20 53  1  0
 20 54  1  0
 21 55  1  0
 21 56  1  0
 22 57  1  0
 22 58  1  0
 23 59  1  0
 23 60  1  0
 24 61  1  0
 27 62  1  0
 28 63  1  0
 29 64  1  0
 30 65  1  0
 31 66  1  0
M  END
>  <meeko>  (2) 
{"is_sidechain": [false], "free_energy": -10.76, "intermolecular_energy": -16.18, "internal_energy": -0.322}

$$$$
9JU
     RDKit          3D

 66 70  0  0  0  0  0  0  0  0999 V2000
    6.7020    0.2340  -53.7430 C   0  0  0  0  0  0  0  0  0  0  0  0
    8.0150   -0.4290  -54.0740 C   0  0  0  0  0  0  0  0  0  0  0  0
    8.9660   -0.0120  -55.0310 C   0  0  0  0  0  0  0  0  0  0  0  0
    8.8640    1.1710  -55.9090 C   0  0  0  0  0  0  0  0  0  0  0  0
    7.8250    1.8020  -55.9600 O   0  0  0  0  0  0  0  0  0  0  0  0
    9.9200    1.5500  -56.6550 N   0  0  0  0  0  0  0  0  0  0  0  0
    9.8190    2.7230  -57.5260 C   0  0  2  0  0  0  0  0  0  0  0  0
   11.0380    2.7810  -58.4480 C   0  0  0  0  0  0  0  0  0  0  0  0
   10.9310    4.0070  -59.3590 C   0  0  1  0  0  0  0  0  0  0  0  0
    9.6590    3.9070  -60.2010 C   0  0  0  0  0  0  0  0  0  0  0  0
    8.4390    3.8490  -59.2790 C   0  0  2  0  0  0  0  0  0  0  0  0
    8.3870    5.1160  -58.4240 C   0  0  0  0  0  0  0  0  0  0  0  0
    9.6590    5.2160  -57.5810 C   0  0  2  0  0  0  0  0  0  0  0  0
   10.8790    5.2740  -58.5030 C   0  0  0  0  0  0  0  0  0  0  0  0
    9.7660    3.9920  -56.6710 C   0  0  0  0  0  0  0  0  0  0  0  0
    8.5460    2.6240  -58.3690 C   0  0  0  0  0  0  0  0  0  0  0  0
    9.9600   -0.8780  -54.9990 N   0  0  0  0  0  0  0  0  0  0  0  0
    9.7340   -1.7880  -54.1210 N   0  0  0  0  0  0  0  0  0  0  0  0
   10.6310   -2.9070  -53.8210 C   0  0  0  0  0  0  0  0  0  0  0  0
   10.2750   -4.1000  -54.7090 C   0  0  0  0  0  0  0  0  0  0  0  0
   11.4950   -4.4980  -55.5430 C   0  0  0  0  0  0  0  0  0  0  0  0
   11.1000   -4.5750  -57.0180 C   0  0  0  0  0  0  0  0  0  0  0  0
   11.8350   -3.4850  -57.8010 C   0  0  0  0  0  0  0  0  0  0  0  0
   11.7910   -2.2600  -57.0690 O   0  0  0  0  0  0  0  0  0  0  0  0
    8.5360   -1.5600  -53.5110 C   0  0  0  0  0  0  0  0  0  0  0  0
    7.9170   -2.3820  -52.4470 C   0  0  0  0  0  0  0  0  0  0  0  0
    8.2030   -2.1240  -51.1070 C   0  0  0  0  0  0  0  0  0  0  0  0
    7.6220   -2.8940  -50.1200 C   0  0  0  0  0  0  0  0  0  0  0  0
    6.7580   -3.9200  -50.4570 C   0  0  0  0  0  0  0  0  0  0  0  0
    6.4700   -4.1810  -51.7850 C   0  0  0  0  0  0  0  0  0  0  0  0
    7.0390   -3.4150  -52.7810 C   0  0  0  0  0  0  0  0  0  0  0  0
    6.5859    0.2926  -52.6507 H   0  0  0  0  0  0  0  0  0  0  0  0
    6.6859    1.2483  -54.1684 H   0  0  0  0  0  0  0  0  0  0  0  0
    5.8762   -0.3552  -54.1684 H   0  0  0  0  0  0  0  0  0  0  0  0
   10.7480    1.0470  -56.6130 H   0  0  0  0  0  0  0  0  0  0  0  0
   11.9531    2.8533  -57.8419 H   0  0  0  0  0  0  0  0  0  0  0  0
   11.0765    1.8696  -59.0627 H   0  0  0  0  0  0  0  0  0  0  0  0
   11.8069    4.0488  -60.0231 H   0  0  0  0  0  0  0  0  0  0  0  0
    9.5824    4.7880  -60.8553 H   0  0  0  0  0  0  0  0  0  0  0  0
    9.6973    2.9955  -60.8156 H   0  0  0  0  0  0  0  0  0  0  0  0
    7.5237    3.7770  -59.8848 H   0  0  0  0  0  0  0  0  0  0  0  0
    8.3109    5.9969  -59.0784 H   0  0  0  0  0  0  0  0  0  0  0  0
    7.5104    5.0745  -57.7607 H   0  0  0  0  0  0  0  0  0  0  0  0
    9.6200    6.1273  -56.9662 H   0  0  0  0  0  0  0  0  0  0  0  0
   10.8032    6.1555  -59.1567 H   0  0  0  0  0  0  0  0  0  0  0  0
   11.7941    5.3452  -57.8968 H   0  0  0  0  0  0  0  0  0  0  0  0
   10.6813    4.0644  -56.0653 H   0  0  0  0  0  0  0  0  0  0  0  0
    8.8895    3.9507  -56.0077 H   0  0  0  0  0  0  0  0  0  0  0  0
    7.6695    2.5826  -57.7056 H   0  0  0  0  0  0  0  0  0  0  0  0
    8.5842    1.7130  -58.9843 H   0  0  0  0  0  0  0  0  0  0  0  0
   11.6710   -2.6046  -54.0133 H   0  0  0  0  0  0  0  0  0  0  0  0
   10.5205   -3.1915  -52.7642 H   0  0  0  0  0  0  0  0  0  0  0  0
    9.9695   -4.9480  -54.0785 H   0  0  0  0  0  0  0  0  0  0  0  0
    9.4474   -3.8240  -55.3790 H   0  0  0  0  0  0  0  0  0  0  0  0
   12.2881   -3.7467  -55.4144 H   0  0  0  0  0  0  0  0  0  0  0  0
   11.8628   -5.4797  -55.2099 H   0  0  0  0  0  0  0  0  0  0  0  0
   11.3729   -5.5621  -57.4195 H   0  0  0  0  0  0  0  0  0  0  0  0
   10.0143   -4.4269  -57.1148 H   0  0  0  0  0  0  0  0  0  0  0  0
   12.8827   -3.7848  -57.9511 H   0  0  0  0  0  0  0  0  0  0  0  0
   11.3494   -3.3454  -58.7781 H   0  0  0  0  0  0  0  0  0  0  0  0
   11.9460   -2.3620  -56.1210 H   0  0  0  0  0  0  0  0  0  0  0  0
    8.8902   -1.3086  -50.8371 H   0  0  0  0  0  0  0  0  0  0  0  0
    7.8467   -2.6912  -49.0625 H   0  0  0  0  0  0  0  0  0  0  0  0
    6.2980   -4.5309  -49.6663 H   0  0  0  0  0  0  0  0  0  0  0  0
    5.7856   -5.0013  -52.0470 H   0  0  0  0  0  0  0  0  0  0  0  0
    6.8017   -3.6174  -53.8358 H   0  0  0  0  0  0  0  0  0  0  0  0
  1  2  1  0
  2  3  1  0
  3  4  1  0
  4  5  2  0
  4  6  1  0
  7  6  1  1
  7  8  1  0
  8  9  1  0
  9 10  1  0
 10 11  1  0
 11 12  1  0
 12 13  1  0
 13 14  1  0
 13 15  1  0
 11 16  1  0
  3 17  2  0
 17 18  1  0
 18 19  1  0
 19 20  1  0
 20 21  1  0
 21 22  1  0
 22 23  1  0
 23 24  1  0
 18 25  1  0
 25 26  1  0
 26 27  2  0
 27 28  1  0
 28 29  2  0
 29 30  1  0
 30 31  2  0
 25  2  2  0
 31 26  1  0
 15  7  1  0
 16  7  1  0
 14  9  1  0
  1 32  1  0
  1 33  1  0
  1 34  1  0
  6 35  1  0
  8 36  1  0
  8 37  1  0
  9 38  1  6
 10 39  1  0
 10 40  1  0
 11 41  1  6
 12 42  1  0
 12 43  1  0
 13 44  1  1
 14 45  1  0
 14 46  1  0
 15 47  1  0
 15 48  1  0
 16 49  1  0
 16 50  1  0
 19 51  1  0
 19 52  1  0
 20 53  1  0
 20 54  1  0
 21 55  1  0
 21 56  1  0
 22 57  1  0
 22 58  1  0
 23 59  1  0
 23 60  1  0
 24 61  1  0
 27 62  1  0
 28 63  1  0
 29 64  1  0
 30 65  1  0
 31 66  1  0
M  END
>  <meeko>  (3) 
{"is_sidechain": [false], "free_energy": -10.728, "intermolecular_energy": -16.121, "internal_energy": -0.333}

$$$$
9JU
     RDKit          3D

 66 70  0  0  0  0  0  0  0  0999 V2000
    9.6880    1.5290  -56.1270 C   0  0  0  0  0  0  0  0  0  0  0  0
    8.2800    1.7110  -56.6340 C   0  0  0  0  0  0  0  0  0  0  0  0
    7.1030    1.1260  -56.1190 C   0  0  0  0  0  0  0  0  0  0  0  0
    7.0150    0.2070  -54.9660 C   0  0  0  0  0  0  0  0  0  0  0  0
    6.1380    0.3560  -54.1360 O   0  0  0  0  0  0  0  0  0  0  0  0
    7.9060   -0.7950  -54.8320 N   0  0  0  0  0  0  0  0  0  0  0  0
    7.8190   -1.7060  -53.6880 C   0  0  2  0  0  0  0  0  0  0  0  0
    7.6600   -0.8950  -52.4010 C   0  0  0  0  0  0  0  0  0  0  0  0
    7.5680   -1.8460  -51.2060 C   0  0  1  0  0  0  0  0  0  0  0  0
    6.3600   -2.7680  -51.3810 C   0  0  0  0  0  0  0  0  0  0  0  0
    6.5190   -3.5800  -52.6680 C   0  0  2  0  0  0  0  0  0  0  0  0
    7.7940   -4.4200  -52.5860 C   0  0  0  0  0  0  0  0  0  0  0  0
    9.0030   -3.4980  -52.4120 C   0  0  2  0  0  0  0  0  0  0  0  0
    8.8440   -2.6860  -51.1250 C   0  0  0  0  0  0  0  0  0  0  0  0
    9.0950   -2.5470  -53.6060 C   0  0  0  0  0  0  0  0  0  0  0  0
    6.6110   -2.6290  -53.8620 C   0  0  0  0  0  0  0  0  0  0  0  0
    6.0980    1.5470  -56.8610 N   0  0  0  0  0  0  0  0  0  0  0  0
    6.5200    2.3370  -57.7810 N   0  0  0  0  0  0  0  0  0  0  0  0
    5.6720    2.9890  -58.7830 C   0  0  0  0  0  0  0  0  0  0  0  0
    4.2130    2.5920  -58.5540 C   0  0  0  0  0  0  0  0  0  0  0  0
    3.5970    2.1280  -59.8750 C   0  0  0  0  0  0  0  0  0  0  0  0
    4.6880    1.5280  -60.7640 C   0  0  0  0  0  0  0  0  0  0  0  0
    4.3950    1.8640  -62.2280 C   0  0  0  0  0  0  0  0  0  0  0  0
    5.5230    2.5290  -62.7990 O   0  0  0  0  0  0  0  0  0  0  0  0
    7.8730    2.4780  -57.6900 C   0  0  0  0  0  0  0  0  0  0  0  0
    8.7360    3.3010  -58.5670 C   0  0  0  0  0  0  0  0  0  0  0  0
    8.9970    4.6330  -58.2440 C   0  0  0  0  0  0  0  0  0  0  0  0
    9.8030    5.3940  -59.0660 C   0  0  0  0  0  0  0  0  0  0  0  0
   10.3500    4.8400  -60.2090 C   0  0  0  0  0  0  0  0  0  0  0  0
   10.0940    3.5200  -60.5360 C   0  0  0  0  0  0  0  0  0  0  0  0
    9.2960    2.7460  -59.7190 C   0  0  0  0  0  0  0  0  0  0  0  0
    9.6845    1.5294  -55.0270 H   0  0  0  0  0  0  0  0  0  0  0  0
   10.0883    0.5716  -56.4920 H   0  0  0  0  0  0  0  0  0  0  0  0
   10.3186    2.3531  -56.4920 H   0  0  0  0  0  0  0  0  0  0  0  0
    8.6050   -0.9140  -55.4940 H   0  0  0  0  0  0  0  0  0  0  0  0
    8.5288   -0.2321  -52.2758 H   0  0  0  0  0  0  0  0  0  0  0  0
    6.7427   -0.2908  -52.4598 H   0  0  0  0  0  0  0  0  0  0  0  0
    7.4531   -1.2633  -50.2801 H   0  0  0  0  0  0  0  0  0  0  0  0
    6.2935   -3.4519  -50.5220 H   0  0  0  0  0  0  0  0  0  0  0  0
    5.4432   -2.1631  -51.4406 H   0  0  0  0  0  0  0  0  0  0  0  0
    5.6504   -4.2432  -52.7933 H   0  0  0  0  0  0  0  0  0  0  0  0
    7.7278   -5.1037  -51.7269 H   0  0  0  0  0  0  0  0  0  0  0  0
    7.9084   -5.0034  -53.5115 H   0  0  0  0  0  0  0  0  0  0  0  0
    9.9198   -4.1029  -52.3534 H   0  0  0  0  0  0  0  0  0  0  0  0
    8.7789   -3.3698  -50.2658 H   0  0  0  0  0  0  0  0  0  0  0  0
    9.7124   -2.0224  -51.0007 H   0  0  0  0  0  0  0  0  0  0  0  0
    9.9637   -1.8840  -53.4805 H   0  0  0  0  0  0  0  0  0  0  0  0
    9.2096   -3.1305  -54.5314 H   0  0  0  0  0  0  0  0  0  0  0  0
    6.7259   -3.2125  -54.7874 H   0  0  0  0  0  0  0  0  0  0  0  0
    5.6937   -2.0248  -53.9206 H   0  0  0  0  0  0  0  0  0  0  0  0
    5.7730    4.0807  -58.6941 H   0  0  0  0  0  0  0  0  0  0  0  0
    5.9841    2.6720  -59.7890 H   0  0  0  0  0  0  0  0  0  0  0  0
    4.1666    1.7736  -57.8204 H   0  0  0  0  0  0  0  0  0  0  0  0
    3.6529    3.4586  -58.1728 H   0  0  0  0  0  0  0  0  0  0  0  0
    2.8284    1.3672  -59.6739 H   0  0  0  0  0  0  0  0  0  0  0  0
    3.1381    2.9867  -60.3870 H   0  0  0  0  0  0  0  0  0  0  0  0
    5.6644    1.9474  -60.4798 H   0  0  0  0  0  0  0  0  0  0  0  0
    4.7066    0.4357  -60.6351 H   0  0  0  0  0  0  0  0  0  0  0  0
    4.1960    0.9362  -62.7844 H   0  0  0  0  0  0  0  0  0  0  0  0
    3.5148    2.5213  -62.2842 H   0  0  0  0  0  0  0  0  0  0  0  0
    6.2690    1.9450  -62.9890 H   0  0  0  0  0  0  0  0  0  0  0  0
    8.5613    5.0756  -57.3361 H   0  0  0  0  0  0  0  0  0  0  0  0
   10.0109    6.4438  -58.8115 H   0  0  0  0  0  0  0  0  0  0  0  0
   10.9913    5.4513  -60.8610 H   0  0  0  0  0  0  0  0  0  0  0  0
   10.5277    3.0869  -61.4494 H   0  0  0  0  0  0  0  0  0  0  0  0
    9.1015    1.6940  -59.9748 H   0  0  0  0  0  0  0  0  0  0  0  0
  1  2  1  0
  2  3  1  0
  3  4  1  0
  4  5  2  0
  4  6  1  0
  7  6  1  6
  7  8  1  0
  8  9  1  0
  9 10  1  0
 10 11  1  0
 11 12  1  0
 12 13  1  0
 13 14  1  0
 13 15  1  0
 11 16  1  0
  3 17  2  0
 17 18  1  0
 18 19  1  0
 19 20  1  0
 20 21  1  0
 21 22  1  0
 22 23  1  0
 23 24  1  0
 18 25  1  0
 25 26  1  0
 26 27  2  0
 27 28  1  0
 28 29  2  0
 29 30  1  0
 30 31  2  0
 25  2  2  0
 31 26  1  0
 15  7  1  0
 16  7  1  0
 14  9  1  0
  1 32  1  0
  1 33  1  0
  1 34  1  0
  6 35  1  0
  8 36  1  0
  8 37  1  0
  9 38  1  1
 10 39  1  0
 10 40  1  0
 11 41  1  6
 12 42  1  0
 12 43  1  0
 13 44  1  1
 14 45  1  0
 14 46  1  0
 15 47  1  0
 15 48  1  0
 16 49  1  0
 16 50  1  0
 19 51  1  0
 19 52  1  0
 20 53  1  0
 20 54  1  0
 21 55  1  0
 21 56  1  0
 22 57  1  0
 22 58  1  0
 23 59  1  0
 23 60  1  0
 24 61  1  0
 27 62  1  0
 28 63  1  0
 29 64  1  0
 30 65  1  0
 31 66  1  0
M  END
>  <meeko>  (4) 
{"is_sidechain": [false], "free_energy": -9.551, "intermolecular_energy": -14.544, "internal_energy": -0.147}

$$$$
9JU
     RDKit          3D

 66 70  0  0  0  0  0  0  0  0999 V2000
   10.7130    3.5100  -56.2970 C   0  0  0  0  0  0  0  0  0  0  0  0
   10.0330    3.1070  -57.5800 C   0  0  0  0  0  0  0  0  0  0  0  0
    8.9320    2.2360  -57.7280 C   0  0  0  0  0  0  0  0  0  0  0  0
    8.2160    1.5380  -56.6410 C   0  0  0  0  0  0  0  0  0  0  0  0
    7.0810    1.8650  -56.3530 O   0  0  0  0  0  0  0  0  0  0  0  0
    8.8220    0.5390  -55.9670 N   0  0  0  0  0  0  0  0  0  0  0  0
    8.1120   -0.1530  -54.8890 C   0  0  2  0  0  0  0  0  0  0  0  0
    6.6590   -0.3890  -55.3040 C   0  0  0  0  0  0  0  0  0  0  0  0
    5.9170   -1.1120  -54.1780 C   0  0  1  0  0  0  0  0  0  0  0  0
    6.5940   -2.4560  -53.9030 C   0  0  0  0  0  0  0  0  0  0  0  0
    8.0480   -2.2200  -53.4880 C   0  0  2  0  0  0  0  0  0  0  0  0
    8.0820   -1.3630  -52.2210 C   0  0  0  0  0  0  0  0  0  0  0  0
    7.4070   -0.0180  -52.4960 C   0  0  2  0  0  0  0  0  0  0  0  0
    5.9530   -0.2540  -52.9110 C   0  0  0  0  0  0  0  0  0  0  0  0
    8.1480    0.7050  -53.6220 C   0  0  0  0  0  0  0  0  0  0  0  0
    8.7880   -1.4970  -54.6130 C   0  0  0  0  0  0  0  0  0  0  0  0
    8.6640    2.1580  -59.0170 N   0  0  0  0  0  0  0  0  0  0  0  0
    9.4760    2.8910  -59.6900 N   0  0  0  0  0  0  0  0  0  0  0  0
    9.4630    3.0390  -61.1470 C   0  0  0  0  0  0  0  0  0  0  0  0
    8.2670    2.2830  -61.7270 C   0  0  0  0  0  0  0  0  0  0  0  0
    6.9870    3.0840  -61.4760 C   0  0  0  0  0  0  0  0  0  0  0  0
    5.7790    2.1490  -61.5490 C   0  0  0  0  0  0  0  0  0  0  0  0
    5.0880    2.1010  -60.1840 C   0  0  0  0  0  0  0  0  0  0  0  0
    5.9160    2.7330  -59.2070 O   0  0  0  0  0  0  0  0  0  0  0  0
   10.3530    3.5080  -58.8480 C   0  0  0  0  0  0  0  0  0  0  0  0
   11.4450    4.4310  -59.2320 C   0  0  0  0  0  0  0  0  0  0  0  0
   11.1470    5.7110  -59.7000 C   0  0  0  0  0  0  0  0  0  0  0  0
   12.1690    6.5660  -60.0560 C   0  0  0  0  0  0  0  0  0  0  0  0
   13.4870    6.1580  -59.9510 C   0  0  0  0  0  0  0  0  0  0  0  0
   13.7880    4.8890  -59.4880 C   0  0  0  0  0  0  0  0  0  0  0  0
   12.7760    4.0260  -59.1220 C   0  0  0  0  0  0  0  0  0  0  0  0
   10.1189    3.1579  -55.4408 H   0  0  0  0  0  0  0  0  0  0  0  0
   11.7162    3.0605  -56.2568 H   0  0  0  0  0  0  0  0  0  0  0  0
   10.8003    4.6058  -56.2568 H   0  0  0  0  0  0  0  0  0  0  0  0
    9.7270    0.2790  -56.1980 H   0  0  0  0  0  0  0  0  0  0  0  0
    6.1727    0.5776  -55.5018 H   0  0  0  0  0  0  0  0  0  0  0  0
    6.6337   -1.0058  -56.2145 H   0  0  0  0  0  0  0  0  0  0  0  0
    4.8720   -1.2818  -54.4765 H   0  0  0  0  0  0  0  0  0  0  0  0
    6.0614   -2.9758  -53.0930 H   0  0  0  0  0  0  0  0  0  0  0  0
    6.5683   -3.0724  -54.8137 H   0  0  0  0  0  0  0  0  0  0  0  0
    8.5357   -3.1861  -53.2911 H   0  0  0  0  0  0  0  0  0  0  0  0
    7.5474   -1.8829  -51.4124 H   0  0  0  0  0  0  0  0  0  0  0  0
    9.1267   -1.1941  -51.9209 H   0  0  0  0  0  0  0  0  0  0  0  0
    7.4339    0.5989  -51.5856 H   0  0  0  0  0  0  0  0  0  0  0  0
    5.4202   -0.7736  -52.1010 H   0  0  0  0  0  0  0  0  0  0  0  0
    5.4666    0.7126  -53.1087 H   0  0  0  0  0  0  0  0  0  0  0  0
    7.6616    1.6716  -53.8197 H   0  0  0  0  0  0  0  0  0  0  0  0
    9.1930    0.8749  -53.3236 H   0  0  0  0  0  0  0  0  0  0  0  0
    9.8329   -1.3270  -54.3141 H   0  0  0  0  0  0  0  0  0  0  0  0
    8.7618   -2.1136  -55.5236 H   0  0  0  0  0  0  0  0  0  0  0  0
    9.3834    4.1050  -61.4063 H   0  0  0  0  0  0  0  0  0  0  0  0
   10.3937    2.6278  -61.5650 H   0  0  0  0  0  0  0  0  0  0  0  0
    8.4086    2.1477  -62.8094 H   0  0  0  0  0  0  0  0  0  0  0  0
    8.1849    1.2990  -61.2422 H   0  0  0  0  0  0  0  0  0  0  0  0
    7.0332    3.5464  -60.4790 H   0  0  0  0  0  0  0  0  0  0  0  0
    6.8898    3.8695  -62.2399 H   0  0  0  0  0  0  0  0  0  0  0  0
    5.0721    2.5215  -62.3050 H   0  0  0  0  0  0  0  0  0  0  0  0
    6.1136    1.1385  -61.8264 H   0  0  0  0  0  0  0  0  0  0  0  0
    4.1238    2.6272  -60.2428 H   0  0  0  0  0  0  0  0  0  0  0  0
    4.9178    1.0529  -59.8967 H   0  0  0  0  0  0  0  0  0  0  0  0
    5.9240    3.6970  -59.2630 H   0  0  0  0  0  0  0  0  0  0  0  0
   10.1000    6.0374  -59.7848 H   0  0  0  0  0  0  0  0  0  0  0  0
   11.9355    7.5757  -60.4247 H   0  0  0  0  0  0  0  0  0  0  0  0
   14.2979    6.8443  -60.2364 H   0  0  0  0  0  0  0  0  0  0  0  0
   14.8372    4.5676  -59.4116 H   0  0  0  0  0  0  0  0  0  0  0  0
   13.0174    3.0214  -58.7445 H   0  0  0  0  0  0  0  0  0  0  0  0
  1  2  1  0
  2  3  1  0
  3  4  1  0
  4  5  2  0
  4  6  1  0
  7  6  1  6
  7  8  1  0
  8  9  1  0
  9 10  1  0
 10 11  1  0
 11 12  1  0
 12 13  1  0
 13 14  1  0
 13 15  1  0
 11 16  1  0
  3 17  2  0
 17 18  1  0
 18 19  1  0
 19 20  1  0
 20 21  1  0
 21 22  1  0
 22 23  1  0
 23 24  1  0
 18 25  1  0
 25 26  1  0
 26 27  2  0
 27 28  1  0
 28 29  2  0
 29 30  1  0
 30 31  2  0
 25  2  2  0
 31 26  1  0
 15  7  1  0
 16  7  1  0
 14  9  1  0
  1 32  1  0
  1 33  1  0
  1 34  1  0
  6 35  1  0
  8 36  1  0
  8 37  1  0
  9 38  1  6
 10 39  1  0
 10 40  1  0
 11 41  1  1
 12 42  1  0
 12 43  1  0
 13 44  1  1
 14 45  1  0
 14 46  1  0
 15 47  1  0
 15 48  1  0
 16 49  1  0
 16 50  1  0
 19 51  1  0
 19 52  1  0
 20 53  1  0
 20 54  1  0
 21 55  1  0
 21 56  1  0
 22 57  1  0
 22 58  1  0
 23 59  1  0
 23 60  1  0
 24 61  1  0
 27 62  1  0
 28 63  1  0
 29 64  1  0
 30 65  1  0
 31 66  1  0
M  END
>  <meeko>  (5) 
{"is_sidechain": [false], "free_energy": -9.415, "intermolecular_energy": -14.167, "internal_energy": -0.322}

$$$$
9JU
     RDKit          3D

 66 70  0  0  0  0  0  0  0  0999 V2000
    6.2090    1.2720  -55.8520 C   0  0  0  0  0  0  0  0  0  0  0  0
    7.7100    1.1540  -55.9230 C   0  0  0  0  0  0  0  0  0  0  0  0
    8.5530    0.4350  -55.0480 C   0  0  0  0  0  0  0  0  0  0  0  0
    8.1280   -0.3560  -53.8750 C   0  0  0  0  0  0  0  0  0  0  0  0
    7.5750    0.1920  -52.9410 O   0  0  0  0  0  0  0  0  0  0  0  0
    8.3560   -1.6840  -53.8390 N   0  0  0  0  0  0  0  0  0  0  0  0
    7.9350   -2.4680  -52.6760 C   0  0  2  0  0  0  0  0  0  0  0  0
    7.7240   -3.9250  -53.0920 C   0  0  0  0  0  0  0  0  0  0  0  0
    7.2850   -4.7440  -51.8760 C   0  0  1  0  0  0  0  0  0  0  0  0
    8.3650   -4.6730  -50.7960 C   0  0  0  0  0  0  0  0  0  0  0  0
    8.5770   -3.2160  -50.3800 C   0  0  2  0  0  0  0  0  0  0  0  0
    7.2670   -2.6490  -49.8290 C   0  0  0  0  0  0  0  0  0  0  0  0
    6.1860   -2.7190  -50.9090 C   0  0  2  0  0  0  0  0  0  0  0  0
    5.9750   -4.1760  -51.3260 C   0  0  0  0  0  0  0  0  0  0  0  0
    6.6250   -1.9000  -52.1240 C   0  0  0  0  0  0  0  0  0  0  0  0
    9.0160   -2.3970  -51.5950 C   0  0  0  0  0  0  0  0  0  0  0  0
    9.7910    0.6050  -55.4690 N   0  0  0  0  0  0  0  0  0  0  0  0
    9.8120    1.3480  -56.5160 N   0  0  0  0  0  0  0  0  0  0  0  0
   11.0200    1.7400  -57.2460 C   0  0  0  0  0  0  0  0  0  0  0  0
   11.3040    3.2230  -57.0050 C   0  0  0  0  0  0  0  0  0  0  0  0
   12.1940    3.7610  -58.1280 C   0  0  0  0  0  0  0  0  0  0  0  0
   11.4080    3.7740  -59.4390 C   0  0  0  0  0  0  0  0  0  0  0  0
   10.9810    5.2070  -59.7650 C   0  0  0  0  0  0  0  0  0  0  0  0
   12.1210    6.0660  -59.7220 O   0  0  0  0  0  0  0  0  0  0  0  0
    8.5420    1.7210  -56.8470 C   0  0  0  0  0  0  0  0  0  0  0  0
    8.1430    2.5790  -57.9850 C   0  0  0  0  0  0  0  0  0  0  0  0
    7.8540    3.9280  -57.7800 C   0  0  0  0  0  0  0  0  0  0  0  0
    7.4830    4.7210  -58.8460 C   0  0  0  0  0  0  0  0  0  0  0  0
    7.3950    4.1810  -60.1160 C   0  0  0  0  0  0  0  0  0  0  0  0
    7.6790    2.8440  -60.3270 C   0  0  0  0  0  0  0  0  0  0  0  0
    8.0580    2.0410  -59.2710 C   0  0  0  0  0  0  0  0  0  0  0  0
    5.8926    1.2969  -54.7988 H   0  0  0  0  0  0  0  0  0  0  0  0
    5.8899    2.1980  -56.3527 H   0  0  0  0  0  0  0  0  0  0  0  0
    5.7491    0.4072  -56.3527 H   0  0  0  0  0  0  0  0  0  0  0  0
    8.7970   -2.1200  -54.5850 H   0  0  0  0  0  0  0  0  0  0  0  0
    6.9464   -3.9758  -53.8684 H   0  0  0  0  0  0  0  0  0  0  0  0
    8.6653   -4.3332  -53.4887 H   0  0  0  0  0  0  0  0  0  0  0  0
    7.1343   -5.7920  -52.1743 H   0  0  0  0  0  0  0  0  0  0  0  0
    8.0485   -5.2613  -49.9221 H   0  0  0  0  0  0  0  0  0  0  0  0
    9.3064   -5.0813  -51.1922 H   0  0  0  0  0  0  0  0  0  0  0  0
    9.3549   -3.1651  -49.6039 H   0  0  0  0  0  0  0  0  0  0  0  0
    6.9512   -3.2384  -48.9556 H   0  0  0  0  0  0  0  0  0  0  0  0
    7.4184   -1.6014  -49.5296 H   0  0  0  0  0  0  0  0  0  0  0  0
    5.2447   -2.3109  -50.5122 H   0  0  0  0  0  0  0  0  0  0  0  0
    5.6579   -4.7651  -50.4528 H   0  0  0  0  0  0  0  0  0  0  0  0
    5.1986   -4.2260  -52.1036 H   0  0  0  0  0  0  0  0  0  0  0  0
    5.8475   -1.9504  -52.9005 H   0  0  0  0  0  0  0  0  0  0  0  0
    6.7769   -0.8525  -51.8246 H   0  0  0  0  0  0  0  0  0  0  0  0
    9.1670   -1.3493  -51.2958 H   0  0  0  0  0  0  0  0  0  0  0  0
    9.9578   -2.8047  -51.9910 H   0  0  0  0  0  0  0  0  0  0  0  0
   11.8724    1.1415  -56.8922 H   0  0  0  0  0  0  0  0  0  0  0  0
   10.8704    1.5660  -58.3218 H   0  0  0  0  0  0  0  0  0  0  0  0
   10.3557    3.7802  -56.9898 H   0  0  0  0  0  0  0  0  0  0  0  0
   11.8170    3.3460  -56.0397 H   0  0  0  0  0  0  0  0  0  0  0  0
   12.5154    4.7841  -57.8830 H   0  0  0  0  0  0  0  0  0  0  0  0
   13.0778    3.1152  -58.2367 H   0  0  0  0  0  0  0  0  0  0  0  0
   12.0421    3.3870  -60.2503 H   0  0  0  0  0  0  0  0  0  0  0  0
   10.5149    3.1401  -59.3368 H   0  0  0  0  0  0  0  0  0  0  0  0
   10.5371    5.2372  -60.7710 H   0  0  0  0  0  0  0  0  0  0  0  0
   10.2396    5.5452  -59.0262 H   0  0  0  0  0  0  0  0  0  0  0  0
   12.4290    6.3540  -60.5920 H   0  0  0  0  0  0  0  0  0  0  0  0
    7.9218    4.3588  -56.7701 H   0  0  0  0  0  0  0  0  0  0  0  0
    7.2566    5.7854  -58.6854 H   0  0  0  0  0  0  0  0  0  0  0  0
    7.0978    4.8178  -60.9623 H   0  0  0  0  0  0  0  0  0  0  0  0
    7.6025    2.4198  -61.3390 H   0  0  0  0  0  0  0  0  0  0  0  0
    8.2926    0.9799  -59.4415 H   0  0  0  0  0  0  0  0  0  0  0  0
  1  2  1  0
  2  3  1  0
  3  4  1  0
  4  5  2  0
  4  6  1  0
  7  6  1  6
  7  8  1  0
  8  9  1  0
  9 10  1  0
 10 11  1  0
 11 12  1  0
 12 13  1  0
 13 14  1  0
 13 15  1  0
 11 16  1  0
  3 17  2  0
 17 18  1  0
 18 19  1  0
 19 20  1  0
 20 21  1  0
 21 22  1  0
 22 23  1  0
 23 24  1  0
 18 25  1  0
 25 26  1  0
 26 27  2  0
 27 28  1  0
 28 29  2  0
 29 30  1  0
 30 31  2  0
 25  2  2  0
 31 26  1  0
 15  7  1  0
 16  7  1  0
 14  9  1  0
  1 32  1  0
  1 33  1  0
  1 34  1  0
  6 35  1  0
  8 36  1  0
  8 37  1  0
  9 38  1  6
 10 39  1  0
 10 40  1  0
 11 41  1  1
 12 42  1  0
 12 43  1  0
 13 44  1  1
 14 45  1  0
 14 46  1  0
 15 47  1  0
 15 48  1  0
 16 49  1  0
 16 50  1  0
 19 51  1  0
 19 52  1  0
 20 53  1  0
 20 54  1  0
 21 55  1  0
 21 56  1  0
 22 57  1  0
 22 58  1  0
 23 59  1  0
 23 60  1  0
 24 61  1  0
 27 62  1  0
 28 63  1  0
 29 64  1  0
 30 65  1  0
 31 66  1  0
M  END
>  <meeko>  (6) 
{"is_sidechain": [false], "free_energy": -9.41, "intermolecular_energy": -13.867, "internal_energy": -0.614}

$$$$
9JU
     RDKit          3D

 66 70  0  0  0  0  0  0  0  0999 V2000
    6.2640    1.2270  -55.9050 C   0  0  0  0  0  0  0  0  0  0  0  0
    7.7690    1.1660  -55.9600 C   0  0  0  0  0  0  0  0  0  0  0  0
    8.6310    0.5040  -55.0600 C   0  0  0  0  0  0  0  0  0  0  0  0
    8.2260   -0.2710  -53.8690 C   0  0  0  0  0  0  0  0  0  0  0  0
    7.6510    0.2820  -52.9520 O   0  0  0  0  0  0  0  0  0  0  0  0
    8.4970   -1.5890  -53.7990 N   0  0  0  0  0  0  0  0  0  0  0  0
    8.0960   -2.3570  -52.6180 C   0  0  2  0  0  0  0  0  0  0  0  0
    7.0100   -1.5950  -51.8580 C   0  0  0  0  0  0  0  0  0  0  0  0
    6.5900   -2.3980  -50.6240 C   0  0  1  0  0  0  0  0  0  0  0  0
    6.0470   -3.7580  -51.0620 C   0  0  0  0  0  0  0  0  0  0  0  0
    7.1340   -4.5220  -51.8230 C   0  0  2  0  0  0  0  0  0  0  0  0
    8.3450   -4.7250  -50.9110 C   0  0  0  0  0  0  0  0  0  0  0  0
    8.8890   -3.3650  -50.4730 C   0  0  2  0  0  0  0  0  0  0  0  0
    7.8030   -2.6010  -49.7130 C   0  0  0  0  0  0  0  0  0  0  0  0
    9.3080   -2.5620  -51.7060 C   0  0  0  0  0  0  0  0  0  0  0  0
    7.5530   -3.7190  -53.0550 C   0  0  0  0  0  0  0  0  0  0  0  0
    9.8660    0.7100  -55.4750 N   0  0  0  0  0  0  0  0  0  0  0  0
    9.8670    1.4260  -56.5420 N   0  0  0  0  0  0  0  0  0  0  0  0
   11.0660    1.8430  -57.2720 C   0  0  0  0  0  0  0  0  0  0  0  0
   11.3670    3.3110  -56.9630 C   0  0  0  0  0  0  0  0  0  0  0  0
   12.2140    3.9070  -58.0900 C   0  0  0  0  0  0  0  0  0  0  0  0
   11.4470    3.8130  -59.4090 C   0  0  0  0  0  0  0  0  0  0  0  0
   11.0950    5.2200  -59.8960 C   0  0  0  0  0  0  0  0  0  0  0  0
   12.1300    6.1290  -59.5170 O   0  0  0  0  0  0  0  0  0  0  0  0
    8.5870    1.7400  -56.8930 C   0  0  0  0  0  0  0  0  0  0  0  0
    8.1650    2.5500  -58.0580 C   0  0  0  0  0  0  0  0  0  0  0  0
    8.0080    1.9510  -59.3080 C   0  0  0  0  0  0  0  0  0  0  0  0
    7.6140    2.7120  -60.3890 C   0  0  0  0  0  0  0  0  0  0  0  0
    7.3760    4.0660  -60.2370 C   0  0  0  0  0  0  0  0  0  0  0  0
    7.5310    4.6660  -58.9990 C   0  0  0  0  0  0  0  0  0  0  0  0
    7.9180    3.9150  -57.9090 C   0  0  0  0  0  0  0  0  0  0  0  0
    5.9357    1.2403  -54.8552 H   0  0  0  0  0  0  0  0  0  0  0  0
    5.9153    2.1400  -56.4098 H   0  0  0  0  0  0  0  0  0  0  0  0
    5.8426    0.3452  -56.4098 H   0  0  0  0  0  0  0  0  0  0  0  0
    8.9560   -2.0290  -54.5310 H   0  0  0  0  0  0  0  0  0  0  0  0
    7.4013   -0.6165  -51.5427 H   0  0  0  0  0  0  0  0  0  0  0  0
    6.1388   -1.4483  -52.5134 H   0  0  0  0  0  0  0  0  0  0  0  0
    5.8079   -1.8508  -50.0774 H   0  0  0  0  0  0  0  0  0  0  0  0
    5.7459   -4.3352  -50.1753 H   0  0  0  0  0  0  0  0  0  0  0  0
    5.1760   -3.6106  -51.7175 H   0  0  0  0  0  0  0  0  0  0  0  0
    6.7433   -5.5006  -52.1387 H   0  0  0  0  0  0  0  0  0  0  0  0
    8.0432   -5.3017  -50.0242 H   0  0  0  0  0  0  0  0  0  0  0  0
    9.1267   -5.2731  -51.4573 H   0  0  0  0  0  0  0  0  0  0  0  0
    9.7600   -3.5132  -49.8177 H   0  0  0  0  0  0  0  0  0  0  0  0
    7.5026   -3.1768  -48.8252 H   0  0  0  0  0  0  0  0  0  0  0  0
    8.1943   -1.6219  -49.3997 H   0  0  0  0  0  0  0  0  0  0  0  0
    9.6992   -1.5835  -51.3907 H   0  0  0  0  0  0  0  0  0  0  0  0
   10.0892   -3.1106  -52.2525 H   0  0  0  0  0  0  0  0  0  0  0  0
    8.3350   -4.2671  -53.6009 H   0  0  0  0  0  0  0  0  0  0  0  0
    6.6815   -3.5724  -53.7099 H   0  0  0  0  0  0  0  0  0  0  0  0
   11.9187    1.2209  -56.9623 H   0  0  0  0  0  0  0  0  0  0  0  0
   10.8976    1.7230  -58.3524 H   0  0  0  0  0  0  0  0  0  0  0  0
   10.4228    3.8691  -56.8797 H   0  0  0  0  0  0  0  0  0  0  0  0
   11.9190    3.3800  -56.0140 H   0  0  0  0  0  0  0  0  0  0  0  0
   12.4312    4.9620  -57.8667 H   0  0  0  0  0  0  0  0  0  0  0  0
   13.1576    3.3479  -58.1742 H   0  0  0  0  0  0  0  0  0  0  0  0
   12.0722    3.3103  -60.1616 H   0  0  0  0  0  0  0  0  0  0  0  0
   10.5229    3.2364  -59.2554 H   0  0  0  0  0  0  0  0  0  0  0  0
   10.9952    5.2144  -60.9914 H   0  0  0  0  0  0  0  0  0  0  0  0
   10.1445    5.5375  -59.4423 H   0  0  0  0  0  0  0  0  0  0  0  0
   12.4800    6.6540  -60.2480 H   0  0  0  0  0  0  0  0  0  0  0  0
    8.1979    0.8746  -59.4314 H   0  0  0  0  0  0  0  0  0  0  0  0
    7.4887    2.2406  -61.3749 H   0  0  0  0  0  0  0  0  0  0  0  0
    7.0625    4.6681  -61.1026 H   0  0  0  0  0  0  0  0  0  0  0  0
    7.3451    5.7441  -58.8845 H   0  0  0  0  0  0  0  0  0  0  0  0
    8.0317    4.3913  -56.9240 H   0  0  0  0  0  0  0  0  0  0  0  0
  1  2  1  0
  2  3  1  0
  3  4  1  0
  4  5  2  0
  4  6  1  0
  7  6  1  6
  7  8  1  0
  8  9  1  0
  9 10  1  0
 10 11  1  0
 11 12  1  0
 12 13  1  0
 13 14  1  0
 13 15  1  0
 11 16  1  0
  3 17  2  0
 17 18  1  0
 18 19  1  0
 19 20  1  0
 20 21  1  0
 21 22  1  0
 22 23  1  0
 23 24  1  0
 18 25  1  0
 25 26  1  0
 26 27  2  0
 27 28  1  0
 28 29  2  0
 29 30  1  0
 30 31  2  0
 25  2  2  0
 31 26  1  0
 15  7  1  0
 16  7  1  0
 14  9  1  0
  1 32  1  0
  1 33  1  0
  1 34  1  0
  6 35  1  0
  8 36  1  0
  8 37  1  0
  9 38  1  1
 10 39  1  0
 10 40  1  0
 11 41  1  6
 12 42  1  0
 12 43  1  0
 13 44  1  1
 14 45  1  0
 14 46  1  0
 15 47  1  0
 15 48  1  0
 16 49  1  0
 16 50  1  0
 19 51  1  0
 19 52  1  0
 20 53  1  0
 20 54  1  0
 21 55  1  0
 21 56  1  0
 22 57  1  0
 22 58  1  0
 23 59  1  0
 23 60  1  0
 24 61  1  0
 27 62  1  0
 28 63  1  0
 29 64  1  0
 30 65  1  0
 31 66  1  0
M  END
>  <meeko>  (7) 
{"is_sidechain": [false], "free_energy": -9.317, "intermolecular_energy": -13.903, "internal_energy": -0.439}

$$$$
9JU
     RDKit          3D

 66 70  0  0  0  0  0  0  0  0999 V2000
   11.1060    0.7190  -56.2840 C   0  0  0  0  0  0  0  0  0  0  0  0
    9.9550    1.6620  -56.5220 C   0  0  0  0  0  0  0  0  0  0  0  0
    8.6330    1.5350  -56.0430 C   0  0  0  0  0  0  0  0  0  0  0  0
    8.1070    0.4390  -55.2030 C   0  0  0  0  0  0  0  0  0  0  0  0
    6.9640    0.0540  -55.3540 O   0  0  0  0  0  0  0  0  0  0  0  0
    8.8940   -0.1310  -54.2690 N   0  0  0  0  0  0  0  0  0  0  0  0
    8.3720   -1.2170  -53.4360 C   0  0  2  0  0  0  0  0  0  0  0  0
    7.5080   -2.1460  -54.2900 C   0  0  0  0  0  0  0  0  0  0  0  0
    6.9630   -3.2810  -53.4200 C   0  0  1  0  0  0  0  0  0  0  0  0
    8.1290   -4.0720  -52.8260 C   0  0  0  0  0  0  0  0  0  0  0  0
    8.9940   -3.1430  -51.9710 C   0  0  2  0  0  0  0  0  0  0  0  0
    8.1460   -2.5570  -50.8400 C   0  0  0  0  0  0  0  0  0  0  0  0
    6.9800   -1.7640  -51.4340 C   0  0  2  0  0  0  0  0  0  0  0  0
    6.1160   -2.6930  -52.2890 C   0  0  0  0  0  0  0  0  0  0  0  0
    7.5250   -0.6300  -52.3040 C   0  0  0  0  0  0  0  0  0  0  0  0
    9.5380   -2.0090  -52.8410 C   0  0  0  0  0  0  0  0  0  0  0  0
    7.9530    2.5730  -56.4890 N   0  0  0  0  0  0  0  0  0  0  0  0
    8.7100    3.3380  -57.1900 N   0  0  0  0  0  0  0  0  0  0  0  0
    8.2810    4.5800  -57.8370 C   0  0  0  0  0  0  0  0  0  0  0  0
    7.2270    4.2650  -58.9000 C   0  0  0  0  0  0  0  0  0  0  0  0
    7.9210    3.8110  -60.1870 C   0  0  0  0  0  0  0  0  0  0  0  0
    7.6040    2.3370  -60.4430 C   0  0  0  0  0  0  0  0  0  0  0  0
    6.0910    2.1580  -60.5910 C   0  0  0  0  0  0  0  0  0  0  0  0
    5.5980    1.3570  -59.5160 O   0  0  0  0  0  0  0  0  0  0  0  0
    9.9700    2.8210  -57.2460 C   0  0  0  0  0  0  0  0  0  0  0  0
   11.1320    3.4020  -57.9570 C   0  0  0  0  0  0  0  0  0  0  0  0
   12.0740    4.1570  -57.2590 C   0  0  0  0  0  0  0  0  0  0  0  0
   13.1540    4.6950  -57.9280 C   0  0  0  0  0  0  0  0  0  0  0  0
   13.3030    4.4880  -59.2880 C   0  0  0  0  0  0  0  0  0  0  0  0
   12.3710    3.7400  -59.9860 C   0  0  0  0  0  0  0  0  0  0  0  0
   11.2910    3.1910  -59.3270 C   0  0  0  0  0  0  0  0  0  0  0  0
   11.2594    0.5934  -55.2020 H   0  0  0  0  0  0  0  0  0  0  0  0
   10.8802   -0.2571  -56.7381 H   0  0  0  0  0  0  0  0  0  0  0  0
   12.0186    1.1324  -56.7381 H   0  0  0  0  0  0  0  0  0  0  0  0
    9.8050    0.1770  -54.1500 H   0  0  0  0  0  0  0  0  0  0  0  0
    6.6693   -1.5766  -54.7171 H   0  0  0  0  0  0  0  0  0  0  0  0
    8.1172   -2.5680  -55.1029 H   0  0  0  0  0  0  0  0  0  0  0  0
    6.3419   -3.9496  -54.0342 H   0  0  0  0  0  0  0  0  0  0  0  0
    7.7375   -4.8874  -52.2000 H   0  0  0  0  0  0  0  0  0  0  0  0
    8.7378   -4.4935  -53.6395 H   0  0  0  0  0  0  0  0  0  0  0  0
    9.8333   -3.7117  -51.5441 H   0  0  0  0  0  0  0  0  0  0  0  0
    7.7538   -3.3731  -50.2154 H   0  0  0  0  0  0  0  0  0  0  0  0
    8.7671   -1.8896  -50.2245 H   0  0  0  0  0  0  0  0  0  0  0  0
    6.3713   -1.3416  -50.6210 H   0  0  0  0  0  0  0  0  0  0  0  0
    5.7238   -3.5080  -51.6630 H   0  0  0  0  0  0  0  0  0  0  0  0
    5.2780   -2.1232  -52.7170 H   0  0  0  0  0  0  0  0  0  0  0  0
    6.6866   -0.0601  -52.7310 H   0  0  0  0  0  0  0  0  0  0  0  0
    8.1467    0.0374  -51.6892 H   0  0  0  0  0  0  0  0  0  0  0  0
   10.1589   -1.3409  -52.2261 H   0  0  0  0  0  0  0  0  0  0  0  0
   10.1469   -2.4310  -53.6541 H   0  0  0  0  0  0  0  0  0  0  0  0
    7.8508    5.2561  -57.0835 H   0  0  0  0  0  0  0  0  0  0  0  0
    9.1473    5.0634  -58.3123 H   0  0  0  0  0  0  0  0  0  0  0  0
    6.5676    3.4632  -58.5364 H   0  0  0  0  0  0  0  0  0  0  0  0
    6.6301    5.1663  -59.1033 H   0  0  0  0  0  0  0  0  0  0  0  0
    7.5598    4.4160  -61.0317 H   0  0  0  0  0  0  0  0  0  0  0  0
    9.0084    3.9400  -60.0829 H   0  0  0  0  0  0  0  0  0  0  0  0
    8.1039    2.0096  -61.3665 H   0  0  0  0  0  0  0  0  0  0  0  0
    7.9634    1.7327  -59.5971 H   0  0  0  0  0  0  0  0  0  0  0  0
    5.6015    3.1428  -60.5686 H   0  0  0  0  0  0  0  0  0  0  0  0
    5.8728    1.6612  -61.5479 H   0  0  0  0  0  0  0  0  0  0  0  0
    5.0100    1.8280  -58.9120 H   0  0  0  0  0  0  0  0  0  0  0  0
   11.9563    4.3231  -56.1780 H   0  0  0  0  0  0  0  0  0  0  0  0
   13.8986    5.2900  -57.3788 H   0  0  0  0  0  0  0  0  0  0  0  0
   14.1657    4.9197  -59.8165 H   0  0  0  0  0  0  0  0  0  0  0  0
   12.4918    3.5831  -61.0680 H   0  0  0  0  0  0  0  0  0  0  0  0
   10.5563    2.5878  -59.8805 H   0  0  0  0  0  0  0  0  0  0  0  0
  1  2  1  0
  2  3  1  0
  3  4  1  0
  4  5  2  0
  4  6  1  0
  7  6  1  6
  7  8  1  0
  8  9  1  0
  9 10  1  0
 10 11  1  0
 11 12  1  0
 12 13  1  0
 13 14  1  0
 13 15  1  0
 11 16  1  0
  3 17  2  0
 17 18  1  0
 18 19  1  0
 19 20  1  0
 20 21  1  0
 21 22  1  0
 22 23  1  0
 23 24  1  0
 18 25  1  0
 25 26  1  0
 26 27  2  0
 27 28  1  0
 28 29  2  0
 29 30  1  0
 30 31  2  0
 25  2  2  0
 31 26  1  0
 15  7  1  0
 16  7  1  0
 14  9  1  0
  1 32  1  0
  1 33  1  0
  1 34  1  0
  6 35  1  0
  8 36  1  0
  8 37  1  0
  9 38  1  6
 10 39  1  0
 10 40  1  0
 11 41  1  1
 12 42  1  0
 12 43  1  0
 13 44  1  1
 14 45  1  0
 14 46  1  0
 15 47  1  0
 15 48  1  0
 16 49  1  0
 16 50  1  0
 19 51  1  0
 19 52  1  0
 20 53  1  0
 20 54  1  0
 21 55  1  0
 21 56  1  0
 22 57  1  0
 22 58  1  0
 23 59  1  0
 23 60  1  0
 24 61  1  0
 27 62  1  0
 28 63  1  0
 29 64  1  0
 30 65  1  0
 31 66  1  0
M  END
>  <meeko>  (8) 
{"is_sidechain": [false], "free_energy": -8.903, "intermolecular_energy": -13.417, "internal_energy": -0.304}

$$$$
9JU
     RDKit          3D

 66 70  0  0  0  0  0  0  0  0999 V2000
   10.1770    0.4580  -55.6540 C   0  0  0  0  0  0  0  0  0  0  0  0
    8.7540    0.8990  -55.8770 C   0  0  0  0  0  0  0  0  0  0  0  0
    7.5830    0.3090  -55.3540 C   0  0  0  0  0  0  0  0  0  0  0  0
    7.5180   -0.8740  -54.4720 C   0  0  0  0  0  0  0  0  0  0  0  0
    7.3330   -1.9780  -54.9480 O   0  0  0  0  0  0  0  0  0  0  0  0
    7.6620   -0.7310  -53.1390 N   0  0  0  0  0  0  0  0  0  0  0  0
    7.5970   -1.9040  -52.2640 C   0  0  2  0  0  0  0  0  0  0  0  0
    8.8480   -2.7600  -52.4660 C   0  0  0  0  0  0  0  0  0  0  0  0
    8.7800   -3.9850  -51.5520 C   0  0  1  0  0  0  0  0  0  0  0  0
    8.7030   -3.5300  -50.0940 C   0  0  0  0  0  0  0  0  0  0  0  0
    7.4520   -2.6730  -49.8920 C   0  0  2  0  0  0  0  0  0  0  0  0
    6.2100   -3.4970  -50.2350 C   0  0  0  0  0  0  0  0  0  0  0  0
    6.2860   -3.9520  -51.6940 C   0  0  2  0  0  0  0  0  0  0  0  0
    7.5380   -4.8090  -51.8960 C   0  0  0  0  0  0  0  0  0  0  0  0
    6.3540   -2.7280  -52.6070 C   0  0  0  0  0  0  0  0  0  0  0  0
    7.5200   -1.4490  -50.8060 C   0  0  0  0  0  0  0  0  0  0  0  0
    6.5580    1.0060  -55.8030 N   0  0  0  0  0  0  0  0  0  0  0  0
    6.9630    1.9720  -56.5460 N   0  0  0  0  0  0  0  0  0  0  0  0
    6.0910    2.9440  -57.2090 C   0  0  0  0  0  0  0  0  0  0  0  0
    6.2850    2.8560  -58.7230 C   0  0  0  0  0  0  0  0  0  0  0  0
    5.6560    1.5620  -59.2440 C   0  0  0  0  0  0  0  0  0  0  0  0
    4.4960    1.9000  -60.1820 C   0  0  0  0  0  0  0  0  0  0  0  0
    4.2880    0.7510  -61.1700 C   0  0  0  0  0  0  0  0  0  0  0  0
    3.9830    1.2810  -62.4610 O   0  0  0  0  0  0  0  0  0  0  0  0
    8.3230    1.9560  -56.6290 C   0  0  0  0  0  0  0  0  0  0  0  0
    9.1720    2.9010  -57.3900 C   0  0  0  0  0  0  0  0  0  0  0  0
    9.7340    2.5140  -58.6070 C   0  0  0  0  0  0  0  0  0  0  0  0
   10.5230    3.4000  -59.3110 C   0  0  0  0  0  0  0  0  0  0  0  0
   10.7590    4.6690  -58.8140 C   0  0  0  0  0  0  0  0  0  0  0  0
   10.2050    5.0580  -57.6070 C   0  0  0  0  0  0  0  0  0  0  0  0
    9.4090    4.1840  -56.8960 C   0  0  0  0  0  0  0  0  0  0  0  0
   10.3767    0.3961  -54.5741 H   0  0  0  0  0  0  0  0  0  0  0  0
   10.3308   -0.5300  -56.1126 H   0  0  0  0  0  0  0  0  0  0  0  0
   10.8626    1.1858  -56.1126 H   0  0  0  0  0  0  0  0  0  0  0  0
    7.8100    0.1500  -52.7600 H   0  0  0  0  0  0  0  0  0  0  0  0
    8.9030   -3.0874  -53.5147 H   0  0  0  0  0  0  0  0  0  0  0  0
    9.7416   -2.1677  -52.2198 H   0  0  0  0  0  0  0  0  0  0  0  0
    9.6800   -4.6008  -51.6962 H   0  0  0  0  0  0  0  0  0  0  0  0
    8.6538   -4.4110  -49.4372 H   0  0  0  0  0  0  0  0  0  0  0  0
    9.5966   -2.9378  -49.8473 H   0  0  0  0  0  0  0  0  0  0  0  0
    7.3969   -2.3449  -48.8435 H   0  0  0  0  0  0  0  0  0  0  0  0
    6.1618   -4.3781  -49.5783 H   0  0  0  0  0  0  0  0  0  0  0  0
    5.3101   -2.8813  -50.0896 H   0  0  0  0  0  0  0  0  0  0  0  0
    5.3922   -4.5439  -51.9405 H   0  0  0  0  0  0  0  0  0  0  0  0
    7.4891   -5.6903  -51.2395 H   0  0  0  0  0  0  0  0  0  0  0  0
    7.5935   -5.1361  -52.9448 H   0  0  0  0  0  0  0  0  0  0  0  0
    6.4091   -3.0554  -53.6557 H   0  0  0  0  0  0  0  0  0  0  0  0
    5.4543   -2.1120  -52.4619 H   0  0  0  0  0  0  0  0  0  0  0  0
    6.6201   -0.8331  -50.6613 H   0  0  0  0  0  0  0  0  0  0  0  0
    8.4137   -0.8569  -50.5594 H   0  0  0  0  0  0  0  0  0  0  0  0
    5.0421    2.7244  -56.9607 H   0  0  0  0  0  0  0  0  0  0  0  0
    6.3455    3.9576  -56.8658 H   0  0  0  0  0  0  0  0  0  0  0  0
    5.8018    3.7185  -59.2052 H   0  0  0  0  0  0  0  0  0  0  0  0
    7.3601    2.8604  -58.9555 H   0  0  0  0  0  0  0  0  0  0  0  0
    6.4128    0.9811  -59.7915 H   0  0  0  0  0  0  0  0  0  0  0  0
    5.2812    0.9696  -58.3963 H   0  0  0  0  0  0  0  0  0  0  0  0
    3.5789    2.0475  -59.5927 H   0  0  0  0  0  0  0  0  0  0  0  0
    4.7284    2.8219  -60.7353 H   0  0  0  0  0  0  0  0  0  0  0  0
    5.2059    0.1477  -61.2290 H   0  0  0  0  0  0  0  0  0  0  0  0
    3.4550    0.1196  -60.8272 H   0  0  0  0  0  0  0  0  0  0  0  0
    4.4280    2.1160  -62.6590 H   0  0  0  0  0  0  0  0  0  0  0  0
    9.5484    1.5051  -59.0041 H   0  0  0  0  0  0  0  0  0  0  0  0
   10.9660    3.0962  -60.2709 H   0  0  0  0  0  0  0  0  0  0  0  0
   11.3889    5.3711  -59.3798 H   0  0  0  0  0  0  0  0  0  0  0  0
   10.3998    6.0666  -57.2136 H   0  0  0  0  0  0  0  0  0  0  0  0
    8.9620    4.4981  -55.9413 H   0  0  0  0  0  0  0  0  0  0  0  0
  1  2  1  0
  2  3  1  0
  3  4  1  0
  4  5  2  0
  4  6  1  0
  7  6  1  6
  7  8  1  0
  8  9  1  0
  9 10  1  0
 10 11  1  0
 11 12  1  0
 12 13  1  0
 13 14  1  0
 13 15  1  0
 11 16  1  0
  3 17  2  0
 17 18  1  0
 18 19  1  0
 19 20  1  0
 20 21  1  0
 21 22  1  0
 22 23  1  0
 23 24  1  0
 18 25  1  0
 25 26  1  0
 26 27  2  0
 27 28  1  0
 28 29  2  0
 29 30  1  0
 30 31  2  0
 25  2  2  0
 31 26  1  0
 15  7  1  0
 16  7  1  0
 14  9  1  0
  1 32  1  0
  1 33  1  0
  1 34  1  0
  6 35  1  0
  8 36  1  0
  8 37  1  0
  9 38  1  1
 10 39  1  0
 10 40  1  0
 11 41  1  1
 12 42  1  0
 12 43  1  0
 13 44  1  6
 14 45  1  0
 14 46  1  0
 15 47  1  0
 15 48  1  0
 16 49  1  0
 16 50  1  0
 19 51  1  0
 19 52  1  0
 20 53  1  0
 20 54  1  0
 21 55  1  0
 21 56  1  0
 22 57  1  0
 22 58  1  0
 23 59  1  0
 23 60  1  0
 24 61  1  0
 27 62  1  0
 28 63  1  0
 29 64  1  0
 30 65  1  0
 31 66  1  0
M  END
>  <meeko>  (9) 
{"is_sidechain": [false], "free_energy": -8.576, "intermolecular_energy": -13.109, "internal_energy": -0.123}

$$$$
