
     RDKit          3D

 23 25  0  0  0  0  0  0  0  0999 V2000
    0.3945   -1.2677   -0.8868 C   0  0  0  0  0  0  0  0  0  0  0  0
    0.6872   -1.1392    0.6373 C   0  0  1  0  0  0  0  0  0  0  0  0
    1.4527    0.1582    0.9070 C   0  0  0  0  0  0  0  0  0  0  0  0
    0.4229    1.2021    0.4498 C   0  0  1  0  0  0  0  0  0  0  0  0
    0.4752    1.2473   -1.0846 C   0  0  0  0  0  0  0  0  0  0  0  0
   -0.3312   -0.0046   -1.4375 C   0  0  2  0  0  0  0  0  0  0  0  0
   -1.5864    0.2714   -0.6065 C   0  0  0  0  0  0  0  0  0  0  0  0
   -0.9663    0.5443    0.7720 C   0  0  1  0  0  0  0  0  0  0  0  0
   -0.6088   -0.8177    1.3851 C   0  0  0  0  0  0  0  0  0  0  0  0
   -0.2282   -2.1525   -1.0651 H   0  0  0  0  0  0  0  0  0  0  0  0
    1.3372   -1.4114   -1.4281 H   0  0  0  0  0  0  0  0  0  0  0  0
    1.1966   -2.0228    1.0303 H   0  0  0  0  0  0  0  0  0  0  0  0
    2.4005    0.2138    0.3621 H   0  0  0  0  0  0  0  0  0  0  0  0
    1.6697    0.2720    1.9760 H   0  0  0  0  0  0  0  0  0  0  0  0
    0.5784    2.1813    0.9089 H   0  0  0  0  0  0  0  0  0  0  0  0
    1.4931    1.2247   -1.4865 H   0  0  0  0  0  0  0  0  0  0  0  0
   -0.0175    2.1518   -1.4615 H   0  0  0  0  0  0  0  0  0  0  0  0
   -0.5397   -0.0883   -2.5073 H   0  0  0  0  0  0  0  0  0  0  0  0
   -2.2907   -0.5666   -0.6089 H   0  0  0  0  0  0  0  0  0  0  0  0
   -2.1149    1.1588   -0.9750 H   0  0  0  0  0  0  0  0  0  0  0  0
   -1.6131    1.1437    1.4172 H   0  0  0  0  0  0  0  0  0  0  0  0
   -1.3834   -1.5776    1.2397 H   0  0  0  0  0  0  0  0  0  0  0  0
   -0.4277   -0.7210    2.4625 H   0  0  0  0  0  0  0  0  0  0  0  0
  1  2  1  0
  2  3  1  0
  3  4  1  0
  4  5  1  0
  5  6  1  0
  6  7  1  0
  7  8  1  0
  8  9  1  0
  6  1  1  0
  9  2  1  0
  8  4  1  0
  1 10  1  0
  1 11  1  0
  2 12  1  1
  3 13  1  0
  3 14  1  0
  4 15  1  1
  5 16  1  0
  5 17  1  0
  6 18  1  6
  7 19  1  0
  7 20  1  0
  8 21  1  1
  9 22  1  0
  9 23  1  0
M  END
>  <_SMILES>  (1) 
C1[C@H]2C[C@H]3C[C@@H]1C[C@H]3C2

$$$$

     RDKit          3D

 26 28  0  0  0  0  0  0  0  0999 V2000
   -0.4846    1.4791    0.8388 C   0  0  0  0  0  0  0  0  0  0  0  0
    0.7079    0.5905    1.2418 C   0  0  1  0  0  0  0  0  0  0  0  0
    0.2019   -0.8274    1.5573 C   0  0  0  0  0  0  0  0  0  0  0  0
   -0.5165   -1.4082    0.3361 C   0  0  1  0  0  0  0  0  0  0  0  0
   -1.6947   -0.5219   -0.0772 C   0  0  0  0  0  0  0  0  0  0  0  0
   -1.1953    0.8970   -0.3982 C   0  0  2  0  0  0  0  0  0  0  0  0
   -0.1972    0.8129   -1.5655 C   0  0  0  0  0  0  0  0  0  0  0  0
    0.9972   -0.0591   -1.1683 C   0  0  1  0  0  0  0  0  0  0  0  0
    1.6995    0.5074    0.0689 C   0  0  0  0  0  0  0  0  0  0  0  0
    0.4674   -1.4266   -0.8091 N   0  0  0  0  0  0  0  0  0  0  0  0
   -0.1353    2.4964    0.6236 H   0  0  0  0  0  0  0  0  0  0  0  0
   -1.1920    1.5545    1.6738 H   0  0  0  0  0  0  0  0  0  0  0  0
    1.2064    1.0121    2.1216 H   0  0  0  0  0  0  0  0  0  0  0  0
    1.0429   -1.4710    1.8437 H   0  0  0  0  0  0  0  0  0  0  0  0
   -0.4830   -0.7982    2.4134 H   0  0  0  0  0  0  0  0  0  0  0  0
   -0.8294   -2.4429    0.5059 H   0  0  0  0  0  0  0  0  0  0  0  0
   -2.4341   -0.4839    0.7320 H   0  0  0  0  0  0  0  0  0  0  0  0
   -2.2012   -0.9485   -0.9519 H   0  0  0  0  0  0  0  0  0  0  0  0
   -2.0410    1.5352   -0.6769 H   0  0  0  0  0  0  0  0  0  0  0  0
    0.1488    1.8182   -1.8349 H   0  0  0  0  0  0  0  0  0  0  0  0
   -0.6911    0.3973   -2.4526 H   0  0  0  0  0  0  0  0  0  0  0  0
    1.6935   -0.1943   -2.0015 H   0  0  0  0  0  0  0  0  0  0  0  0
    2.0999    1.5039   -0.1535 H   0  0  0  0  0  0  0  0  0  0  0  0
    2.5530   -0.1252    0.3430 H   0  0  0  0  0  0  0  0  0  0  0  0
    0.0226   -1.8495   -1.6359 H   0  0  0  0  0  0  0  0  0  0  0  0
    1.2544   -2.0479   -0.5744 H   0  0  0  0  0  0  0  0  0  0  0  0
  1  2  1  0
  2  3  1  0
  3  4  1  0
  4  5  1  0
  5  6  1  0
  6  7  1  0
  7  8  1  0
  8  9  1  0
  8 10  1  0
  6  1  1  0
  9  2  1  0
 10  4  1  0
  1 11  1  0
  1 12  1  0
  2 13  1  1
  3 14  1  0
  3 15  1  0
  4 16  1  1
  5 17  1  0
  5 18  1  0
  6 19  1  6
  7 20  1  0
  7 21  1  0
  8 22  1  6
  9 23  1  0
  9 24  1  0
 10 25  1  0
 10 26  1  0
M  CHG  1  10   1
M  END
>  <_SMILES>  (2) 
C1[C@H]2C[C@H]3C[C@@H]1C[C@@H](C2)[NH2+]3

$$$$

     RDKit          3D

 24 26  0  0  0  0  0  0  0  0999 V2000
    0.3300   -0.5720   -1.4387 C   0  0  0  0  0  0  0  0  0  0  0  0
    1.0559   -0.9831   -0.1421 C   0  0  1  0  0  0  0  0  0  0  0  0
    1.6829    0.2594    0.5060 C   0  0  0  0  0  0  0  0  0  0  0  0
    0.5744    1.2721    0.8122 C   0  0  1  0  0  0  0  0  0  0  0  0
   -0.1211    1.7053   -0.4827 C   0  0  0  0  0  0  0  0  0  0  0  0
   -0.7622    0.4739   -1.1385 C   0  0  2  0  0  0  0  0  0  0  0  0
   -1.7675   -0.1129   -0.1374 C   0  0  0  0  0  0  0  0  0  0  0  0
   -1.0239   -0.4930    1.1474 C   0  0  1  0  0  0  0  0  0  0  0  0
    0.0366   -1.5587    0.8513 C   0  0  0  0  0  0  0  0  0  0  0  0
   -0.3898    0.6757    1.6995 O   0  0  0  0  0  0  0  0  0  0  0  0
   -0.1200   -1.4550   -1.9089 H   0  0  0  0  0  0  0  0  0  0  0  0
    1.0520   -0.1607   -2.1547 H   0  0  0  0  0  0  0  0  0  0  0  0
    1.8298   -1.7259   -0.3633 H   0  0  0  0  0  0  0  0  0  0  0  0
    2.4360    0.7008   -0.1570 H   0  0  0  0  0  0  0  0  0  0  0  0
    2.1874   -0.0307    1.4357 H   0  0  0  0  0  0  0  0  0  0  0  0
    0.9962    2.1456    1.3199 H   0  0  0  0  0  0  0  0  0  0  0  0
   -0.8999    2.4437   -0.2562 H   0  0  0  0  0  0  0  0  0  0  0  0
    0.5949    2.1764   -1.1659 H   0  0  0  0  0  0  0  0  0  0  0  0
   -1.2731    0.7609   -2.0638 H   0  0  0  0  0  0  0  0  0  0  0  0
   -2.2704   -0.9879   -0.5650 H   0  0  0  0  0  0  0  0  0  0  0  0
   -2.5367    0.6361    0.0870 H   0  0  0  0  0  0  0  0  0  0  0  0
   -1.7330   -0.8684    1.8923 H   0  0  0  0  0  0  0  0  0  0  0  0
    0.5506   -1.8382    1.7790 H   0  0  0  0  0  0  0  0  0  0  0  0
   -0.4293   -2.4635    0.4439 H   0  0  0  0  0  0  0  0  0  0  0  0
  1  2  1  0
  2  3  1  0
  3  4  1  0
  4  5  1  0
  5  6  1  0
  6  7  1  0
  7  8  1  0
  8  9  1  0
  8 10  1  0
  6  1  1  0
  9  2  1  0
 10  4  1  0
  1 11  1  0
  1 12  1  0
  2 13  1  6
  3 14  1  0
  3 15  1  0
  4 16  1  1
  5 17  1  0
  5 18  1  0
  6 19  1  6
  7 20  1  0
  7 21  1  0
  8 22  1  1
  9 23  1  0
  9 24  1  0
M  END
>  <_SMILES>  (3) 
C1[C@H]2C[C@H]3C[C@@H]1C[C@@H](C2)O3

$$$$

     RDKit          3D

 26 28  0  0  0  0  0  0  0  0999 V2000
    1.4090   -0.2917   -2.2291 C   0  0  0  0  0  0  0  0  0  0  0  0
    1.1417   -0.1360   -0.7333 C   0  0  1  0  0  0  0  0  0  0  0  0
    0.4574    1.1830   -0.3311 C   0  0  2  0  0  0  0  0  0  0  0  0
    0.3692    1.2484    1.2281 C   0  0  0  0  0  0  0  0  0  0  0  0
   -0.3446   -0.0081    1.8157 C   0  0  1  0  0  0  0  0  0  0  0  0
   -1.7083   -0.1898    1.1461 C   0  0  0  0  0  0  0  0  0  0  0  0
   -1.2827   -0.4109   -0.3135 C   0  0  1  0  0  0  0  0  0  0  0  0
   -0.9512    0.9733   -0.8895 C   0  0  0  0  0  0  0  0  0  0  0  0
    0.1049   -1.1510   -0.2073 C   0  0  2  0  0  0  0  0  0  0  0  0
    0.3399   -1.2787    1.3077 C   0  0  0  0  0  0  0  0  0  0  0  0
    0.4953   -0.3813   -2.8232 H   0  0  0  0  0  0  0  0  0  0  0  0
    1.9938   -1.2006   -2.4089 H   0  0  0  0  0  0  0  0  0  0  0  0
    1.9854    0.5581   -2.6085 H   0  0  0  0  0  0  0  0  0  0  0  0
    2.1083   -0.2348   -0.2235 H   0  0  0  0  0  0  0  0  0  0  0  0
    0.9503    2.0684   -0.7421 H   0  0  0  0  0  0  0  0  0  0  0  0
    1.3795    1.3234    1.6477 H   0  0  0  0  0  0  0  0  0  0  0  0
   -0.1796    2.1504    1.5243 H   0  0  0  0  0  0  0  0  0  0  0  0
   -0.4090    0.0328    2.9061 H   0  0  0  0  0  0  0  0  0  0  0  0
   -2.2257   -1.0744    1.5366 H   0  0  0  0  0  0  0  0  0  0  0  0
   -2.3676    0.6732    1.2835 H   0  0  0  0  0  0  0  0  0  0  0  0
   -2.0356   -0.9446   -0.8985 H   0  0  0  0  0  0  0  0  0  0  0  0
   -0.9623    0.9617   -1.9835 H   0  0  0  0  0  0  0  0  0  0  0  0
   -1.6500    1.7541   -0.5704 H   0  0  0  0  0  0  0  0  0  0  0  0
    0.1376   -2.1173   -0.7175 H   0  0  0  0  0  0  0  0  0  0  0  0
    1.3979   -1.3315    1.5837 H   0  0  0  0  0  0  0  0  0  0  0  0
   -0.1536   -2.1763    1.7001 H   0  0  0  0  0  0  0  0  0  0  0  0
  1  2  1  0
  2  3  1  0
  3  4  1  0
  4  5  1  0
  5  6  1  0
  6  7  1  0
  7  8  1  0
  7  9  1  0
  9 10  1  0
  9  2  1  0
  8  3  1  0
 10  5  1  0
  1 11  1  0
  1 12  1  0
  1 13  1  0
  2 14  1  1
  3 15  1  6
  4 16  1  0
  4 17  1  0
  5 18  1  1
  6 19  1  0
  6 20  1  0
  7 21  1  6
  8 22  1  0
  8 23  1  0
  9 24  1  6
 10 25  1  0
 10 26  1  0
M  END
>  <_SMILES>  (4) 
C[C@H]1[C@@H]2C[C@H]3C[C@@H](C2)[C@@H]1C3

$$$$

     RDKit          3D

 26 28  0  0  0  0  0  0  0  0999 V2000
    2.4628   -0.0693   -0.5529 C   0  0  0  0  0  0  0  0  0  0  0  0
    1.2968   -0.4641    0.3415 C   0  0  1  0  0  0  0  0  0  0  0  0
    0.5578    0.7086    1.0088 C   0  0  1  0  0  0  0  0  0  0  0  0
   -0.2016    1.5772   -0.0427 C   0  0  0  0  0  0  0  0  0  0  0  0
   -1.1435    0.7133   -0.9347 C   0  0  2  0  0  0  0  0  0  0  0  0
   -2.0834   -0.1070   -0.0483 C   0  0  0  0  0  0  0  0  0  0  0  0
   -1.0713   -0.9801    0.7077 C   0  0  2  0  0  0  0  0  0  0  0  0
   -0.4684   -0.0977    1.8136 C   0  0  0  0  0  0  0  0  0  0  0  0
    0.1085   -1.1946   -0.3203 C   0  0  1  0  0  0  0  0  0  0  0  0
   -0.3572   -0.4338   -1.5702 C   0  0  0  0  0  0  0  0  0  0  0  0
    3.2822    0.3261    0.0574 H   0  0  0  0  0  0  0  0  0  0  0  0
    2.8411   -0.9413   -1.0961 H   0  0  0  0  0  0  0  0  0  0  0  0
    2.2121    0.7042   -1.2825 H   0  0  0  0  0  0  0  0  0  0  0  0
    1.7120   -1.1224    1.1187 H   0  0  0  0  0  0  0  0  0  0  0  0
    1.2060    1.3156    1.6468 H   0  0  0  0  0  0  0  0  0  0  0  0
    0.5148    2.1128   -0.6750 H   0  0  0  0  0  0  0  0  0  0  0  0
   -0.7982    2.3343    0.4810 H   0  0  0  0  0  0  0  0  0  0  0  0
   -1.6788    1.3201   -1.6696 H   0  0  0  0  0  0  0  0  0  0  0  0
   -2.7005    0.5153    0.6077 H   0  0  0  0  0  0  0  0  0  0  0  0
   -2.7554   -0.7282   -0.6528 H   0  0  0  0  0  0  0  0  0  0  0  0
   -1.5094   -1.9039    1.0930 H   0  0  0  0  0  0  0  0  0  0  0  0
    0.0215   -0.7139    2.5773 H   0  0  0  0  0  0  0  0  0  0  0  0
   -1.2052    0.5353    2.3186 H   0  0  0  0  0  0  0  0  0  0  0  0
    0.3255   -2.2463   -0.5257 H   0  0  0  0  0  0  0  0  0  0  0  0
    0.4478   -0.0925   -2.2237 H   0  0  0  0  0  0  0  0  0  0  0  0
   -1.0160   -1.0677   -2.1773 H   0  0  0  0  0  0  0  0  0  0  0  0
  1  2  1  0
  2  3  1  0
  3  4  1  0
  4  5  1  0
  5  6  1  0
  6  7  1  0
  7  8  1  0
  7  9  1  0
  9 10  1  0
  9  2  1  0
  8  3  1  0
 10  5  1  0
  1 11  1  0
  1 12  1  0
  1 13  1  0
  2 14  1  1
  3 15  1  1
  4 16  1  0
  4 17  1  0
  5 18  1  6
  6 19  1  0
  6 20  1  0
  7 21  1  1
  8 22  1  0
  8 23  1  0
  9 24  1  6
 10 25  1  0
 10 26  1  0
M  END
>  <_SMILES>  (5) 
C[C@H]1[C@H]2C[C@@H]3C[C@H](C2)[C@H]1C3

$$$$

     RDKit          3D

 26 28  0  0  0  0  0  0  0  0999 V2000
    2.6048    0.4427    0.2407 C   0  0  0  0  0  0  0  0  0  0  0  0
    1.3098   -0.0905   -0.3689 C   0  0  2  0  0  0  0  0  0  0  0  0
    0.3038    0.9915   -0.8019 C   0  0  1  0  0  0  0  0  0  0  0  0
   -0.9018    0.2996   -1.5166 C   0  0  0  0  0  0  0  0  0  0  0  0
   -1.5458   -0.8019   -0.6190 C   0  0  2  0  0  0  0  0  0  0  0  0
   -1.9165   -0.2095    0.7423 C   0  0  0  0  0  0  0  0  0  0  0  0
   -0.5308    0.2048    1.2605 C   0  0  2  0  0  0  0  0  0  0  0  0
   -0.1716    1.5193    0.5528 C   0  0  0  0  0  0  0  0  0  0  0  0
    0.4503   -0.8675    0.6506 C   0  0  1  0  0  0  0  0  0  0  0  0
   -0.4725   -1.7920   -0.1621 C   0  0  0  0  0  0  0  0  0  0  0  0
    3.0888    1.1504   -0.4399 H   0  0  0  0  0  0  0  0  0  0  0  0
    3.3014   -0.3850    0.4145 H   0  0  0  0  0  0  0  0  0  0  0  0
    2.4559    0.9378    1.2043 H   0  0  0  0  0  0  0  0  0  0  0  0
    1.5925   -0.7132   -1.2268 H   0  0  0  0  0  0  0  0  0  0  0  0
    0.7489    1.7691   -1.4289 H   0  0  0  0  0  0  0  0  0  0  0  0
   -0.5596   -0.1499   -2.4564 H   0  0  0  0  0  0  0  0  0  0  0  0
   -1.6581    1.0532   -1.7668 H   0  0  0  0  0  0  0  0  0  0  0  0
   -2.3898   -1.2889   -1.1142 H   0  0  0  0  0  0  0  0  0  0  0  0
   -2.3628   -0.9691    1.3955 H   0  0  0  0  0  0  0  0  0  0  0  0
   -2.6219    0.6240    0.6651 H   0  0  0  0  0  0  0  0  0  0  0  0
   -0.4919    0.2849    2.3495 H   0  0  0  0  0  0  0  0  0  0  0  0
    0.6196    2.0546    1.0862 H   0  0  0  0  0  0  0  0  0  0  0  0
   -1.0186    2.2077    0.4614 H   0  0  0  0  0  0  0  0  0  0  0  0
    1.0367   -1.4129    1.3949 H   0  0  0  0  0  0  0  0  0  0  0  0
    0.0312   -2.2889   -0.9974 H   0  0  0  0  0  0  0  0  0  0  0  0
   -0.9019   -2.5702    0.4807 H   0  0  0  0  0  0  0  0  0  0  0  0
  1  2  1  0
  2  3  1  0
  3  4  1  0
  4  5  1  0
  5  6  1  0
  6  7  1  0
  7  8  1  0
  7  9  1  0
  9 10  1  0
  9  2  1  0
  8  3  1  0
 10  5  1  0
  1 11  1  0
  1 12  1  0
  1 13  1  0
  2 14  1  6
  3 15  1  6
  4 16  1  0
  4 17  1  0
  5 18  1  6
  6 19  1  0
  6 20  1  0
  7 21  1  1
  8 22  1  0
  8 23  1  0
  9 24  1  1
 10 25  1  0
 10 26  1  0
M  END
>  <_SMILES>  (6) 
C[C@@H]1[C@H]2C[C@@H]3C[C@H](C2)[C@H]1C3

$$$$

     RDKit          3D

 26 28  0  0  0  0  0  0  0  0999 V2000
   -2.5078   -0.2716   -0.1139 C   0  0  0  0  0  0  0  0  0  0  0  0
   -1.2809    0.4963    0.3556 C   0  0  2  0  0  0  0  0  0  0  0  0
   -0.3843    1.0465   -0.7668 C   0  0  2  0  0  0  0  0  0  0  0  0
    0.3143   -0.1052   -1.5557 C   0  0  0  0  0  0  0  0  0  0  0  0
    1.0805   -1.0748   -0.6060 C   0  0  1  0  0  0  0  0  0  0  0  0
    2.0503   -0.2787    0.2702 C   0  0  0  0  0  0  0  0  0  0  0  0
    1.0675    0.6080    1.0487 C   0  0  1  0  0  0  0  0  0  0  0  0
    0.6628    1.7516    0.1035 C   0  0  0  0  0  0  0  0  0  0  0  0
   -0.2343   -0.2756    1.1877 C   0  0  2  0  0  0  0  0  0  0  0  0
    0.1426   -1.5887    0.4866 C   0  0  0  0  0  0  0  0  0  0  0  0
   -3.0103   -0.7465    0.7349 H   0  0  0  0  0  0  0  0  0  0  0  0
   -3.2203    0.4164   -0.5823 H   0  0  0  0  0  0  0  0  0  0  0  0
   -2.2839   -1.0442   -0.8532 H   0  0  0  0  0  0  0  0  0  0  0  0
   -1.6537    1.3317    0.9664 H   0  0  0  0  0  0  0  0  0  0  0  0
   -0.9080    1.7375   -1.4333 H   0  0  0  0  0  0  0  0  0  0  0  0
    1.0220    0.3288   -2.2726 H   0  0  0  0  0  0  0  0  0  0  0  0
   -0.4268   -0.6667   -2.1350 H   0  0  0  0  0  0  0  0  0  0  0  0
    1.5732   -1.8803   -1.1568 H   0  0  0  0  0  0  0  0  0  0  0  0
    2.7832    0.2880   -0.3130 H   0  0  0  0  0  0  0  0  0  0  0  0
    2.6003   -0.9386    0.9520 H   0  0  0  0  0  0  0  0  0  0  0  0
    1.4754    0.9652    1.9974 H   0  0  0  0  0  0  0  0  0  0  0  0
    1.4980    2.1546   -0.4785 H   0  0  0  0  0  0  0  0  0  0  0  0
    0.2176    2.5808    0.6666 H   0  0  0  0  0  0  0  0  0  0  0  0
   -0.5522   -0.4284    2.2226 H   0  0  0  0  0  0  0  0  0  0  0  0
   -0.7034   -2.1564    0.0946 H   0  0  0  0  0  0  0  0  0  0  0  0
    0.6781   -2.2495    1.1802 H   0  0  0  0  0  0  0  0  0  0  0  0
  1  2  1  0
  2  3  1  0
  3  4  1  0
  4  5  1  0
  5  6  1  0
  6  7  1  0
  7  8  1  0
  7  9  1  0
  9 10  1  0
  9  2  1  0
  8  3  1  0
 10  5  1  0
  1 11  1  0
  1 12  1  0
  1 13  1  0
  2 14  1  1
  3 15  1  6
  4 16  1  0
  4 17  1  0
  5 18  1  6
  6 19  1  0
  6 20  1  0
  7 21  1  1
  8 22  1  0
  8 23  1  0
  9 24  1  1
 10 25  1  0
 10 26  1  0
M  END
>  <_SMILES>  (7) 
C[C@@H]1[C@@H]2C[C@H]3C[C@@H](C2)[C@@H]1C3

$$$$

     RDKit          3D

 29 31  0  0  0  0  0  0  0  0999 V2000
    2.6682   -0.2687    0.2342 C   0  0  0  0  0  0  0  0  0  0  0  0
    1.3896    0.3160   -0.3699 C   0  0  1  0  0  0  0  0  0  0  0  0
    0.5030   -0.7573   -1.0492 C   0  0  2  0  0  0  0  0  0  0  0  0
   -0.6459   -0.0417   -1.7898 C   0  0  0  0  0  0  0  0  0  0  0  0
   -1.4987    0.7648   -0.7937 C   0  0  1  0  0  0  0  0  0  0  0  0
   -2.0903   -0.1942    0.2531 C   0  0  0  0  0  0  0  0  0  0  0  0
   -0.9573   -0.9135    1.0054 C   0  0  1  0  0  0  0  0  0  0  0  0
   -0.1103   -1.7083   -0.0030 C   0  0  0  0  0  0  0  0  0  0  0  0
   -0.0747    0.1342    1.7050 C   0  0  0  0  0  0  0  0  0  0  0  0
    0.5387    1.0926    0.6657 C   0  0  2  0  0  0  0  0  0  0  0  0
   -0.6103    1.8009   -0.0817 C   0  0  0  0  0  0  0  0  0  0  0  0
    3.2608   -0.7682   -0.5398 H   0  0  0  0  0  0  0  0  0  0  0  0
    2.4751   -0.9979    1.0248 H   0  0  0  0  0  0  0  0  0  0  0  0
    3.2858    0.5283    0.6620 H   0  0  0  0  0  0  0  0  0  0  0  0
    1.7177    1.0259   -1.1425 H   0  0  0  0  0  0  0  0  0  0  0  0
    1.0945   -1.3335   -1.7700 H   0  0  0  0  0  0  0  0  0  0  0  0
   -0.2382    0.6254   -2.5592 H   0  0  0  0  0  0  0  0  0  0  0  0
   -1.2724   -0.7778   -2.3087 H   0  0  0  0  0  0  0  0  0  0  0  0
   -2.3080    1.2751   -1.3274 H   0  0  0  0  0  0  0  0  0  0  0  0
   -2.7411   -0.9290   -0.2366 H   0  0  0  0  0  0  0  0  0  0  0  0
   -2.7161    0.3630    0.9611 H   0  0  0  0  0  0  0  0  0  0  0  0
   -1.3839   -1.5951    1.7496 H   0  0  0  0  0  0  0  0  0  0  0  0
    0.6738   -2.2664    0.5202 H   0  0  0  0  0  0  0  0  0  0  0  0
   -0.7373   -2.4558   -0.5054 H   0  0  0  0  0  0  0  0  0  0  0  0
   -0.6762    0.7045    2.4241 H   0  0  0  0  0  0  0  0  0  0  0  0
    0.7106   -0.3616    2.2859 H   0  0  0  0  0  0  0  0  0  0  0  0
    1.1559    1.8424    1.1741 H   0  0  0  0  0  0  0  0  0  0  0  0
   -1.2112    2.3868    0.6248 H   0  0  0  0  0  0  0  0  0  0  0  0
   -0.2017    2.5091   -0.8131 H   0  0  0  0  0  0  0  0  0  0  0  0
  1  2  1  0
  2  3  1  0
  3  4  1  0
  4  5  1  0
  5  6  1  0
  6  7  1  0
  7  8  1  0
  7  9  1  0
  9 10  1  0
 10 11  1  0
 10  2  1  0
  8  3  1  0
 11  5  1  0
  1 12  1  0
  1 13  1  0
  1 14  1  0
  2 15  1  6
  3 16  1  6
  4 17  1  0
  4 18  1  0
  5 19  1  6
  6 20  1  0
  6 21  1  0
  7 22  1  1
  8 23  1  0
  8 24  1  0
  9 25  1  0
  9 26  1  0
 10 27  1  1
 11 28  1  0
 11 29  1  0
M  END
>  <_SMILES>  (8) 
C[C@H]1[C@@H]2C[C@H]3C[C@@H](C2)C[C@@H]1C3

$$$$

     RDKit          3D

 29 31  0  0  0  0  0  0  0  0999 V2000
    2.6631    0.0938    0.5259 C   0  0  0  0  0  0  0  0  0  0  0  0
    1.1621    0.0409    0.2295 C   0  0  2  0  0  0  0  0  0  0  0  0
    0.3507    0.2057    1.5365 C   0  0  0  0  0  0  0  0  0  0  0  0
   -1.1588    0.1530    1.2424 C   0  0  1  0  0  0  0  0  0  0  0  0
   -1.5247    1.2862    0.2694 C   0  0  0  0  0  0  0  0  0  0  0  0
   -0.7415    1.1266   -1.0444 C   0  0  2  0  0  0  0  0  0  0  0  0
   -1.0866   -0.2311   -1.6785 C   0  0  0  0  0  0  0  0  0  0  0  0
   -0.7185   -1.3719   -0.7152 C   0  0  2  0  0  0  0  0  0  0  0  0
   -1.5018   -1.1999    0.5969 C   0  0  0  0  0  0  0  0  0  0  0  0
    0.7897   -1.3151   -0.4158 C   0  0  0  0  0  0  0  0  0  0  0  0
    0.7668    1.1766   -0.7441 C   0  0  0  0  0  0  0  0  0  0  0  0
    2.9582   -0.7053    1.2148 H   0  0  0  0  0  0  0  0  0  0  0  0
    2.9421    1.0493    0.9836 H   0  0  0  0  0  0  0  0  0  0  0  0
    3.2513   -0.0216   -0.3912 H   0  0  0  0  0  0  0  0  0  0  0  0
    0.5988    1.1597    2.0194 H   0  0  0  0  0  0  0  0  0  0  0  0
    0.6148   -0.5861    2.2494 H   0  0  0  0  0  0  0  0  0  0  0  0
   -1.7213    0.2707    2.1754 H   0  0  0  0  0  0  0  0  0  0  0  0
   -1.2992    2.2585    0.7245 H   0  0  0  0  0  0  0  0  0  0  0  0
   -2.6026    1.2720    0.0666 H   0  0  0  0  0  0  0  0  0  0  0  0
   -1.0079    1.9352   -1.7342 H   0  0  0  0  0  0  0  0  0  0  0  0
   -2.1568   -0.2723   -1.9158 H   0  0  0  0  0  0  0  0  0  0  0  0
   -0.5458   -0.3509   -2.6253 H   0  0  0  0  0  0  0  0  0  0  0  0
   -0.9685   -2.3362   -1.1714 H   0  0  0  0  0  0  0  0  0  0  0  0
   -2.5794   -1.2582    0.4000 H   0  0  0  0  0  0  0  0  0  0  0  0
   -1.2598   -2.0169    1.2877 H   0  0  0  0  0  0  0  0  0  0  0  0
    1.3554   -1.4611   -1.3451 H   0  0  0  0  0  0  0  0  0  0  0  0
    1.0639   -2.1414    0.2528 H   0  0  0  0  0  0  0  0  0  0  0  0
    1.0243    2.1527   -0.3130 H   0  0  0  0  0  0  0  0  0  0  0  0
    1.3320    1.0872   -1.6808 H   0  0  0  0  0  0  0  0  0  0  0  0
  2  1  1  1
  2  3  1  0
  3  4  1  0
  4  5  1  0
  5  6  1  0
  6  7  1  0
  7  8  1  0
  8  9  1  0
  8 10  1  0
  6 11  1  0
 10  2  1  0
 11  2  1  0
  9  4  1  0
  1 12  1  0
  1 13  1  0
  1 14  1  0
  3 15  1  0
  3 16  1  0
  4 17  1  1
  5 18  1  0
  5 19  1  0
  6 20  1  6
  7 21  1  0
  7 22  1  0
  8 23  1  6
  9 24  1  0
  9 25  1  0
 10 26  1  0
 10 27  1  0
 11 28  1  0
 11 29  1  0
M  END
>  <_SMILES>  (9) 
C[C@]12C[C@H]3C[C@H](C[C@H](C3)C1)C2

$$$$

     RDKit          3D

 26 28  0  0  0  0  0  0  0  0999 V2000
    0.2055    0.6278   -1.6383 C   0  0  0  0  0  0  0  0  0  0  0  0
    1.3460    0.1294   -0.7435 C   0  0  1  0  0  0  0  0  0  0  0  0
    1.3830    0.9693    0.5458 C   0  0  0  0  0  0  0  0  0  0  0  0
    0.0413    0.8460    1.2899 C   0  0  1  0  0  0  0  0  0  0  0  0
   -1.0886    1.3386    0.3787 C   0  0  0  0  0  0  0  0  0  0  0  0
   -1.0939    0.4836   -0.8723 N   0  0  0  0  0  0  0  0  0  0  0  0
   -1.3750   -0.9680   -0.5411 C   0  0  0  0  0  0  0  0  0  0  0  0
   -0.2473   -1.4794    0.3627 C   0  0  1  0  0  0  0  0  0  0  0  0
    1.0958   -1.3444   -0.3768 C   0  0  0  0  0  0  0  0  0  0  0  0
   -0.2023   -0.6314    1.6464 C   0  0  0  0  0  0  0  0  0  0  0  0
    0.1096    0.0408   -2.5580 H   0  0  0  0  0  0  0  0  0  0  0  0
    0.3137    1.6853   -1.9023 H   0  0  0  0  0  0  0  0  0  0  0  0
    2.3004    0.2222   -1.2733 H   0  0  0  0  0  0  0  0  0  0  0  0
    1.5809    2.0204    0.3023 H   0  0  0  0  0  0  0  0  0  0  0  0
    2.2031    0.6313    1.1911 H   0  0  0  0  0  0  0  0  0  0  0  0
    0.0687    1.4479    2.2048 H   0  0  0  0  0  0  0  0  0  0  0  0
   -2.0745    1.2403    0.8458 H   0  0  0  0  0  0  0  0  0  0  0  0
   -0.9476    2.3781    0.0636 H   0  0  0  0  0  0  0  0  0  0  0  0
   -1.8542    0.8198   -1.4786 H   0  0  0  0  0  0  0  0  0  0  0  0
   -2.3535   -1.0078   -0.0506 H   0  0  0  0  0  0  0  0  0  0  0  0
   -1.4308   -1.5145   -1.4887 H   0  0  0  0  0  0  0  0  0  0  0  0
   -0.4251   -2.5296    0.6187 H   0  0  0  0  0  0  0  0  0  0  0  0
    1.9114   -1.7184    0.2541 H   0  0  0  0  0  0  0  0  0  0  0  0
    1.0868   -1.9598   -1.2849 H   0  0  0  0  0  0  0  0  0  0  0  0
   -1.1464   -0.7332    2.1956 H   0  0  0  0  0  0  0  0  0  0  0  0
    0.5931   -0.9943    2.3088 H   0  0  0  0  0  0  0  0  0  0  0  0
  1  2  1  0
  2  3  1  0
  3  4  1  0
  4  5  1  0
  5  6  1  0
  6  7  1  0
  7  8  1  0
  8  9  1  0
  8 10  1  0
  6  1  1  0
  9  2  1  0
 10  4  1  0
  1 11  1  0
  1 12  1  0
  2 13  1  6
  3 14  1  0
  3 15  1  0
  4 16  1  1
  5 17  1  0
  5 18  1  0
  6 19  1  0
  7 20  1  0
  7 21  1  0
  8 22  1  1
  9 23  1  0
  9 24  1  0
 10 25  1  0
 10 26  1  0
M  CHG  1   6   1
M  END
>  <_SMILES>  (10) 
C1[C@H]2C[C@H]3C[NH+]1C[C@@H](C2)C3

$$$$

     RDKit          3D

 27 29  0  0  0  0  0  0  0  0999 V2000
    2.5371    0.3812    1.1872 O   0  0  0  0  0  0  0  0  0  0  0  0
    1.2607    0.1842    0.5966 C   0  0  2  0  0  0  0  0  0  0  0  0
    0.4813   -0.8556    1.4203 C   0  0  0  0  0  0  0  0  0  0  0  0
   -0.9063   -1.0865    0.7999 C   0  0  1  0  0  0  0  0  0  0  0  0
   -1.6785    0.2448    0.7816 C   0  0  0  0  0  0  0  0  0  0  0  0
   -0.9100    1.2918   -0.0445 C   0  0  2  0  0  0  0  0  0  0  0  0
   -0.7380    0.7728   -1.4835 C   0  0  0  0  0  0  0  0  0  0  0  0
    0.0390   -0.5561   -1.4793 C   0  0  2  0  0  0  0  0  0  0  0  0
   -0.7355   -1.5913   -0.6441 C   0  0  0  0  0  0  0  0  0  0  0  0
    1.4213   -0.3297   -0.8454 C   0  0  0  0  0  0  0  0  0  0  0  0
    0.4770    1.5090    0.5823 C   0  0  0  0  0  0  0  0  0  0  0  0
    3.0146    1.0400    0.6546 H   0  0  0  0  0  0  0  0  0  0  0  0
    1.0421   -1.7982    1.4662 H   0  0  0  0  0  0  0  0  0  0  0  0
    0.3846   -0.5179    2.4603 H   0  0  0  0  0  0  0  0  0  0  0  0
   -1.4580   -1.8273    1.3891 H   0  0  0  0  0  0  0  0  0  0  0  0
   -2.6776    0.0920    0.3554 H   0  0  0  0  0  0  0  0  0  0  0  0
   -1.8214    0.6085    1.8066 H   0  0  0  0  0  0  0  0  0  0  0  0
   -1.4649    2.2365   -0.0546 H   0  0  0  0  0  0  0  0  0  0  0  0
   -1.7208    0.6298   -1.9493 H   0  0  0  0  0  0  0  0  0  0  0  0
   -0.2040    1.5164   -2.0879 H   0  0  0  0  0  0  0  0  0  0  0  0
    0.1564   -0.9204   -2.5058 H   0  0  0  0  0  0  0  0  0  0  0  0
   -0.1999   -2.5486   -0.6448 H   0  0  0  0  0  0  0  0  0  0  0  0
   -1.7185   -1.7757   -1.0947 H   0  0  0  0  0  0  0  0  0  0  0  0
    2.0016    0.3874   -1.4403 H   0  0  0  0  0  0  0  0  0  0  0  0
    2.0039   -1.2600   -0.8518 H   0  0  0  0  0  0  0  0  0  0  0  0
    0.3803    1.9013    1.6029 H   0  0  0  0  0  0  0  0  0  0  0  0
    1.0338    2.2719    0.0230 H   0  0  0  0  0  0  0  0  0  0  0  0
  2  1  1  1
  2  3  1  0
  3  4  1  0
  4  5  1  0
  5  6  1  0
  6  7  1  0
  7  8  1  0
  8  9  1  0
  8 10  1  0
  6 11  1  0
 10  2  1  0
 11  2  1  0
  9  4  1  0
  1 12  1  0
  3 13  1  0
  3 14  1  0
  4 15  1  1
  5 16  1  0
  5 17  1  0
  6 18  1  6
  7 19  1  0
  7 20  1  0
  8 21  1  6
  9 22  1  0
  9 23  1  0
 10 24  1  0
 10 25  1  0
 11 26  1  0
 11 27  1  0
M  END
>  <_SMILES>  (11) 
O[C@]12C[C@H]3C[C@H](C[C@H](C3)C1)C2

$$$$

     RDKit          3D

 27 29  0  0  0  0  0  0  0  0999 V2000
    2.0606    1.6998    0.6398 O   0  0  0  0  0  0  0  0  0  0  0  0
    1.2112    1.0851   -0.3233 C   0  0  1  0  0  0  0  0  0  0  0  0
    1.4062   -0.4434   -0.2882 C   0  0  2  0  0  0  0  0  0  0  0  0
    0.5302   -1.0787   -1.3829 C   0  0  0  0  0  0  0  0  0  0  0  0
   -0.9518   -0.7422   -1.1336 C   0  0  1  0  0  0  0  0  0  0  0  0
   -1.3690   -1.2935    0.2412 C   0  0  0  0  0  0  0  0  0  0  0  0
   -0.5036   -0.6642    1.3473 C   0  0  1  0  0  0  0  0  0  0  0  0
    0.9746   -0.9996    1.0835 C   0  0  0  0  0  0  0  0  0  0  0  0
   -0.6888    0.8630    1.3260 C   0  0  0  0  0  0  0  0  0  0  0  0
   -0.2663    1.4277   -0.0447 C   0  0  2  0  0  0  0  0  0  0  0  0
   -1.1368    0.7865   -1.1403 C   0  0  0  0  0  0  0  0  0  0  0  0
    1.8957    2.6574    0.6055 H   0  0  0  0  0  0  0  0  0  0  0  0
    1.5076    1.4713   -1.3062 H   0  0  0  0  0  0  0  0  0  0  0  0
    2.4613   -0.6903   -0.4541 H   0  0  0  0  0  0  0  0  0  0  0  0
    0.6708   -2.1665   -1.3914 H   0  0  0  0  0  0  0  0  0  0  0  0
    0.8369   -0.7103   -2.3695 H   0  0  0  0  0  0  0  0  0  0  0  0
   -1.5708   -1.1935   -1.9169 H   0  0  0  0  0  0  0  0  0  0  0  0
   -2.4283   -1.0769    0.4259 H   0  0  0  0  0  0  0  0  0  0  0  0
   -1.2600   -2.3849    0.2558 H   0  0  0  0  0  0  0  0  0  0  0  0
   -0.8051   -1.0606    2.3232 H   0  0  0  0  0  0  0  0  0  0  0  0
    1.6021   -0.5814    1.8797 H   0  0  0  0  0  0  0  0  0  0  0  0
    1.1202   -2.0868    1.1067 H   0  0  0  0  0  0  0  0  0  0  0  0
   -1.7382    1.1140    1.5243 H   0  0  0  0  0  0  0  0  0  0  0  0
   -0.0983    1.3240    2.1268 H   0  0  0  0  0  0  0  0  0  0  0  0
   -0.4051    2.5150   -0.0378 H   0  0  0  0  0  0  0  0  0  0  0  0
   -2.1919    1.0367   -0.9750 H   0  0  0  0  0  0  0  0  0  0  0  0
   -0.8633    1.1925   -2.1219 H   0  0  0  0  0  0  0  0  0  0  0  0
  1  2  1  0
  2  3  1  0
  3  4  1  0
  4  5  1  0
  5  6  1  0
  6  7  1  0
  7  8  1  0
  7  9  1  0
  9 10  1  0
 10 11  1  0
 10  2  1  0
  8  3  1  0
 11  5  1  0
  1 12  1  0
  2 13  1  6
  3 14  1  6
  4 15  1  0
  4 16  1  0
  5 17  1  6
  6 18  1  0
  6 19  1  0
  7 20  1  1
  8 21  1  0
  8 22  1  0
  9 23  1  0
  9 24  1  0
 10 25  1  1
 11 26  1  0
 11 27  1  0
M  END
>  <_SMILES>  (12) 
O[C@H]1[C@@H]2C[C@H]3C[C@@H](C2)C[C@@H]1C3

$$$$

     RDKit          3D

 29 31  0  0  0  0  0  0  0  0999 V2000
   -2.3619   -0.9033   -0.7998 N   0  0  0  0  0  0  0  0  0  0  0  0
   -1.0396   -0.3976   -0.3520 C   0  0  2  0  0  0  0  0  0  0  0  0
   -1.2315    0.9451    0.3736 C   0  0  0  0  0  0  0  0  0  0  0  0
    0.1378    1.4736    0.8400 C   0  0  1  0  0  0  0  0  0  0  0  0
    0.7782    0.4477    1.7926 C   0  0  0  0  0  0  0  0  0  0  0  0
    0.9668   -0.9001    1.0730 C   0  0  2  0  0  0  0  0  0  0  0  0
    1.8743   -0.6950   -0.1536 C   0  0  0  0  0  0  0  0  0  0  0  0
    1.2410    0.3236   -1.1187 C   0  0  2  0  0  0  0  0  0  0  0  0
    1.0507    1.6635   -0.3850 C   0  0  0  0  0  0  0  0  0  0  0  0
   -0.1321   -0.2010   -1.5784 C   0  0  0  0  0  0  0  0  0  0  0  0
   -0.4053   -1.4206    0.6058 C   0  0  0  0  0  0  0  0  0  0  0  0
   -2.8214   -0.2460   -1.4445 H   0  0  0  0  0  0  0  0  0  0  0  0
   -2.2776   -1.8032   -1.2917 H   0  0  0  0  0  0  0  0  0  0  0  0
   -3.0012   -1.0488   -0.0068 H   0  0  0  0  0  0  0  0  0  0  0  0
   -1.8964    0.8252    1.2387 H   0  0  0  0  0  0  0  0  0  0  0  0
   -1.7050    1.6793   -0.2909 H   0  0  0  0  0  0  0  0  0  0  0  0
    0.0087    2.4304    1.3581 H   0  0  0  0  0  0  0  0  0  0  0  0
    0.1451    0.3135    2.6783 H   0  0  0  0  0  0  0  0  0  0  0  0
    1.7470    0.8208    2.1471 H   0  0  0  0  0  0  0  0  0  0  0  0
    1.4247   -1.6242    1.7560 H   0  0  0  0  0  0  0  0  0  0  0  0
    2.8620   -0.3417    0.1673 H   0  0  0  0  0  0  0  0  0  0  0  0
    2.0297   -1.6512   -0.6680 H   0  0  0  0  0  0  0  0  0  0  0  0
    1.8930    0.4660   -1.9876 H   0  0  0  0  0  0  0  0  0  0  0  0
    2.0241    2.0577   -0.0682 H   0  0  0  0  0  0  0  0  0  0  0  0
    0.6135    2.4041   -1.0660 H   0  0  0  0  0  0  0  0  0  0  0  0
   -0.0046   -1.1470   -2.1204 H   0  0  0  0  0  0  0  0  0  0  0  0
   -0.5831    0.5096   -2.2830 H   0  0  0  0  0  0  0  0  0  0  0  0
   -1.0533   -1.5889    1.4756 H   0  0  0  0  0  0  0  0  0  0  0  0
   -0.2834   -2.3916    0.1086 H   0  0  0  0  0  0  0  0  0  0  0  0
  2  1  1  6
  2  3  1  0
  3  4  1  0
  4  5  1  0
  5  6  1  0
  6  7  1  0
  7  8  1  0
  8  9  1  0
  8 10  1  0
  6 11  1  0
 10  2  1  0
 11  2  1  0
  9  4  1  0
  1 12  1  0
  1 13  1  0
  1 14  1  0
  3 15  1  0
  3 16  1  0
  4 17  1  1
  5 18  1  0
  5 19  1  0
  6 20  1  1
  7 21  1  0
  7 22  1  0
  8 23  1  6
  9 24  1  0
  9 25  1  0
 10 26  1  0
 10 27  1  0
 11 28  1  0
 11 29  1  0
M  CHG  1   1   1
M  END
>  <_SMILES>  (13) 
[NH3+][C@]12C[C@H]3C[C@H](C[C@H](C3)C1)C2

$$$$

     RDKit          3D

 29 31  0  0  0  0  0  0  0  0999 V2000
   -1.8769   -0.7764   -0.0275 C   0  0  0  0  0  0  0  0  0  0  0  0
   -1.8035    0.5173    0.7787 C   0  0  0  0  0  0  0  0  0  0  0  0
   -0.4633    1.2451    0.9087 C   0  0  1  0  0  0  0  0  0  0  0  0
    0.5844    0.4246    1.6733 C   0  0  0  0  0  0  0  0  0  0  0  0
    1.3505   -0.5792    0.8066 C   0  0  1  0  0  0  0  0  0  0  0  0
    0.4620   -1.7318    0.3298 C   0  0  0  0  0  0  0  0  0  0  0  0
   -0.6090   -1.3206   -0.6898 C   0  0  2  0  0  0  0  0  0  0  0  0
   -0.0632   -0.3879   -1.7797 C   0  0  0  0  0  0  0  0  0  0  0  0
    0.8377    0.7332   -1.2533 C   0  0  1  0  0  0  0  0  0  0  0  0
    0.0591    1.7685   -0.4362 C   0  0  0  0  0  0  0  0  0  0  0  0
    1.9579    0.1379   -0.3997 C   0  0  0  0  0  0  0  0  0  0  0  0
   -2.2847   -1.5590    0.6274 H   0  0  0  0  0  0  0  0  0  0  0  0
   -2.6414   -0.6456   -0.8059 H   0  0  0  0  0  0  0  0  0  0  0  0
   -2.1786    0.3063    1.7898 H   0  0  0  0  0  0  0  0  0  0  0  0
   -2.5356    1.2196    0.3566 H   0  0  0  0  0  0  0  0  0  0  0  0
   -0.6787    2.1296    1.5258 H   0  0  0  0  0  0  0  0  0  0  0  0
    0.1236   -0.0856    2.5280 H   0  0  0  0  0  0  0  0  0  0  0  0
    1.3150    1.1253    2.1003 H   0  0  0  0  0  0  0  0  0  0  0  0
    2.1624   -1.0022    1.4115 H   0  0  0  0  0  0  0  0  0  0  0  0
    0.0014   -2.2365    1.1880 H   0  0  0  0  0  0  0  0  0  0  0  0
    1.1102   -2.4805   -0.1460 H   0  0  0  0  0  0  0  0  0  0  0  0
   -0.9269   -2.2426   -1.1981 H   0  0  0  0  0  0  0  0  0  0  0  0
    0.5300   -0.9954   -2.4769 H   0  0  0  0  0  0  0  0  0  0  0  0
   -0.8850    0.0320   -2.3726 H   0  0  0  0  0  0  0  0  0  0  0  0
    1.2843    1.2448   -2.1151 H   0  0  0  0  0  0  0  0  0  0  0  0
   -0.7630    2.1829   -1.0326 H   0  0  0  0  0  0  0  0  0  0  0  0
    0.7346    2.6104   -0.2306 H   0  0  0  0  0  0  0  0  0  0  0  0
    2.5560   -0.5631   -0.9952 H   0  0  0  0  0  0  0  0  0  0  0  0
    2.6407    0.9290   -0.0656 H   0  0  0  0  0  0  0  0  0  0  0  0
  1  2  1  0
  2  3  1  0
  3  4  1  0
  4  5  1  0
  5  6  1  0
  6  7  1  0
  7  8  1  0
  8  9  1  0
  9 10  1  0
  9 11  1  0
  7  1  1  0
 10  3  1  0
 11  5  1  0
  1 12  1  0
  1 13  1  0
  2 14  1  0
  2 15  1  0
  3 16  1  1
  4 17  1  0
  4 18  1  0
  5 19  1  1
  6 20  1  0
  6 21  1  0
  7 22  1  6
  8 23  1  0
  8 24  1  0
  9 25  1  6
 10 26  1  0
 10 27  1  0
 11 28  1  0
 11 29  1  0
M  END
>  <_SMILES>  (14) 
C1C[C@H]2C[C@H]3C[C@@H]1C[C@@H](C2)C3

$$$$

     RDKit          3D

 32 34  0  0  0  0  0  0  0  0999 V2000
    3.2575    0.6007    0.0484 C   0  0  0  0  0  0  0  0  0  0  0  0
    2.3227   -0.6022    0.0541 C   0  0  0  0  0  0  0  0  0  0  0  0
    0.8086   -0.2842    0.0203 C   0  0  2  0  0  0  0  0  0  0  0  0
    0.3648    0.5428    1.2539 C   0  0  0  0  0  0  0  0  0  0  0  0
   -1.1538    0.7949    1.2239 C   0  0  1  0  0  0  0  0  0  0  0  0
   -1.5133    1.5650   -0.0576 C   0  0  0  0  0  0  0  0  0  0  0  0
   -1.1076    0.7469   -1.2948 C   0  0  2  0  0  0  0  0  0  0  0  0
   -1.8488   -0.5989   -1.2772 C   0  0  0  0  0  0  0  0  0  0  0  0
   -1.4929   -1.3773   -0.0012 C   0  0  2  0  0  0  0  0  0  0  0  0
   -1.8948   -0.5511    1.2304 C   0  0  0  0  0  0  0  0  0  0  0  0
    0.0236   -1.6254    0.0314 C   0  0  0  0  0  0  0  0  0  0  0  0
    0.4109    0.4950   -1.2594 C   0  0  0  0  0  0  0  0  0  0  0  0
    3.1347    1.2052   -0.8543 H   0  0  0  0  0  0  0  0  0  0  0  0
    3.1021    1.2389    0.9223 H   0  0  0  0  0  0  0  0  0  0  0  0
    4.2978    0.2592    0.0739 H   0  0  0  0  0  0  0  0  0  0  0  0
    2.5775   -1.2333   -0.8072 H   0  0  0  0  0  0  0  0  0  0  0  0
    2.5453   -1.1999    0.9475 H   0  0  0  0  0  0  0  0  0  0  0  0
    0.6334    0.0162    2.1785 H   0  0  0  0  0  0  0  0  0  0  0  0
    0.8817    1.5095    1.2782 H   0  0  0  0  0  0  0  0  0  0  0  0
   -1.4471    1.3817    2.1016 H   0  0  0  0  0  0  0  0  0  0  0  0
   -2.5906    1.7705   -0.0812 H   0  0  0  0  0  0  0  0  0  0  0  0
   -1.0040    2.5365   -0.0667 H   0  0  0  0  0  0  0  0  0  0  0  0
   -1.3681    1.2997   -2.2043 H   0  0  0  0  0  0  0  0  0  0  0  0
   -2.9318   -0.4309   -1.3237 H   0  0  0  0  0  0  0  0  0  0  0  0
   -1.5796   -1.1869   -2.1632 H   0  0  0  0  0  0  0  0  0  0  0  0
   -2.0244   -2.3355    0.0073 H   0  0  0  0  0  0  0  0  0  0  0  0
   -1.6588   -1.1048    2.1474 H   0  0  0  0  0  0  0  0  0  0  0  0
   -2.9787   -0.3823    1.2306 H   0  0  0  0  0  0  0  0  0  0  0  0
    0.3121   -2.2389   -0.8322 H   0  0  0  0  0  0  0  0  0  0  0  0
    0.2798   -2.2054    0.9276 H   0  0  0  0  0  0  0  0  0  0  0  0
    0.9290    1.4604   -1.3015 H   0  0  0  0  0  0  0  0  0  0  0  0
    0.7129   -0.0663   -2.1529 H   0  0  0  0  0  0  0  0  0  0  0  0
  1  2  1  0
  3  2  1  1
  3  4  1  0
  4  5  1  0
  5  6  1  0
  6  7  1  0
  7  8  1  0
  8  9  1  0
  9 10  1  0
  9 11  1  0
  7 12  1  0
 11  3  1  0
 12  3  1  0
 10  5  1  0
  1 13  1  0
  1 14  1  0
  1 15  1  0
  2 16  1  0
  2 17  1  0
  4 18  1  0
  4 19  1  0
  5 20  1  1
  6 21  1  0
  6 22  1  0
  7 23  1  6
  8 24  1  0
  8 25  1  0
  9 26  1  6
 10 27  1  0
 10 28  1  0
 11 29  1  0
 11 30  1  0
 12 31  1  0
 12 32  1  0
M  END
>  <_SMILES>  (15) 
CC[C@]12C[C@H]3C[C@H](C[C@H](C3)C1)C2

$$$$

     RDKit          3D

 30 32  0  0  0  0  0  0  0  0999 V2000
    2.8833    1.5306   -0.9812 O   0  0  0  0  0  0  0  0  0  0  0  0
    2.4024    1.0208    0.2554 C   0  0  0  0  0  0  0  0  0  0  0  0
    0.9875    0.4279    0.1287 C   0  0  2  0  0  0  0  0  0  0  0  0
    0.5084   -0.0574    1.5202 C   0  0  0  0  0  0  0  0  0  0  0  0
   -0.9079   -0.6497    1.4327 C   0  0  1  0  0  0  0  0  0  0  0  0
   -1.8742    0.4261    0.9110 C   0  0  0  0  0  0  0  0  0  0  0  0
   -1.4323    0.8999   -0.4832 C   0  0  2  0  0  0  0  0  0  0  0  0
   -1.4229   -0.2989   -1.4458 C   0  0  0  0  0  0  0  0  0  0  0  0
   -0.4517   -1.3759   -0.9350 C   0  0  2  0  0  0  0  0  0  0  0  0
   -0.8978   -1.8402    0.4606 C   0  0  0  0  0  0  0  0  0  0  0  0
    0.9639   -0.7777   -0.8458 C   0  0  0  0  0  0  0  0  0  0  0  0
   -0.0133    1.4896   -0.3945 C   0  0  0  0  0  0  0  0  0  0  0  0
    3.0707    0.7734   -1.5606 H   0  0  0  0  0  0  0  0  0  0  0  0
    3.1160    0.2725    0.6183 H   0  0  0  0  0  0  0  0  0  0  0  0
    2.4060    1.8498    0.9715 H   0  0  0  0  0  0  0  0  0  0  0  0
    0.5132    0.7766    2.2340 H   0  0  0  0  0  0  0  0  0  0  0  0
    1.1993   -0.8134    1.9154 H   0  0  0  0  0  0  0  0  0  0  0  0
   -1.2297   -0.9856    2.4248 H   0  0  0  0  0  0  0  0  0  0  0  0
   -1.9002    1.2753    1.6048 H   0  0  0  0  0  0  0  0  0  0  0  0
   -2.8931    0.0225    0.8636 H   0  0  0  0  0  0  0  0  0  0  0  0
   -2.1267    1.6635   -0.8510 H   0  0  0  0  0  0  0  0  0  0  0  0
   -2.4333   -0.7169   -1.5336 H   0  0  0  0  0  0  0  0  0  0  0  0
   -1.1257    0.0285   -2.4496 H   0  0  0  0  0  0  0  0  0  0  0  0
   -0.4493   -2.2277   -1.6242 H   0  0  0  0  0  0  0  0  0  0  0  0
   -1.8984   -2.2863    0.4047 H   0  0  0  0  0  0  0  0  0  0  0  0
   -0.2214   -2.6207    0.8301 H   0  0  0  0  0  0  0  0  0  0  0  0
    1.6692   -1.5483   -0.5091 H   0  0  0  0  0  0  0  0  0  0  0  0
    1.2855   -0.4716   -1.8488 H   0  0  0  0  0  0  0  0  0  0  0  0
    0.2918    1.8508   -1.3848 H   0  0  0  0  0  0  0  0  0  0  0  0
   -0.0191    2.3624    0.2711 H   0  0  0  0  0  0  0  0  0  0  0  0
  1  2  1  0
  3  2  1  1
  3  4  1  0
  4  5  1  0
  5  6  1  0
  6  7  1  0
  7  8  1  0
  8  9  1  0
  9 10  1  0
  9 11  1  0
  7 12  1  0
 11  3  1  0
 12  3  1  0
 10  5  1  0
  1 13  1  0
  2 14  1  0
  2 15  1  0
  4 16  1  0
  4 17  1  0
  5 18  1  1
  6 19  1  0
  6 20  1  0
  7 21  1  6
  8 22  1  0
  8 23  1  0
  9 24  1  6
 10 25  1  0
 10 26  1  0
 11 27  1  0
 11 28  1  0
 12 29  1  0
 12 30  1  0
M  END
>  <_SMILES>  (16) 
OC[C@]12C[C@H]3C[C@H](C[C@H](C3)C1)C2

$$$$

     RDKit          3D

 30 32  0  0  0  0  0  0  0  0999 V2000
    3.3303    0.0858   -0.1448 C   0  0  0  0  0  0  0  0  0  0  0  0
    2.2438   -0.1646   -1.0211 O   0  0  0  0  0  0  0  0  0  0  0  0
    0.9277   -0.0791   -0.4683 C   0  0  2  0  0  0  0  0  0  0  0  0
   -0.0375   -0.3954   -1.6368 C   0  0  0  0  0  0  0  0  0  0  0  0
   -1.5005   -0.3372   -1.1752 C   0  0  1  0  0  0  0  0  0  0  0  0
   -1.7135   -1.3659   -0.0531 C   0  0  0  0  0  0  0  0  0  0  0  0
   -0.7797   -1.0558    1.1279 C   0  0  2  0  0  0  0  0  0  0  0  0
   -1.0819    0.3589    1.6536 C   0  0  0  0  0  0  0  0  0  0  0  0
   -0.8685    1.3970    0.5374 C   0  0  2  0  0  0  0  0  0  0  0  0
   -1.8017    1.0718   -0.6399 C   0  0  0  0  0  0  0  0  0  0  0  0
    0.5933    1.3337    0.0614 C   0  0  0  0  0  0  0  0  0  0  0  0
    0.6821   -1.1160    0.6511 C   0  0  0  0  0  0  0  0  0  0  0  0
    3.3627   -0.6416    0.6696 H   0  0  0  0  0  0  0  0  0  0  0  0
    4.2547   -0.0193   -0.7204 H   0  0  0  0  0  0  0  0  0  0  0  0
    3.2995    1.1041    0.2493 H   0  0  0  0  0  0  0  0  0  0  0  0
    0.1284    0.3118   -2.4605 H   0  0  0  0  0  0  0  0  0  0  0  0
    0.1899   -1.3865   -2.0517 H   0  0  0  0  0  0  0  0  0  0  0  0
   -2.1649   -0.5638   -2.0164 H   0  0  0  0  0  0  0  0  0  0  0  0
   -1.5180   -2.3775   -0.4295 H   0  0  0  0  0  0  0  0  0  0  0  0
   -2.7584   -1.3462    0.2799 H   0  0  0  0  0  0  0  0  0  0  0  0
   -0.9381   -1.7888    1.9268 H   0  0  0  0  0  0  0  0  0  0  0  0
   -0.4322    0.5879    2.5072 H   0  0  0  0  0  0  0  0  0  0  0  0
   -2.1154    0.4092    2.0178 H   0  0  0  0  0  0  0  0  0  0  0  0
   -1.0898    2.4003    0.9183 H   0  0  0  0  0  0  0  0  0  0  0  0
   -1.6697    1.8124   -1.4382 H   0  0  0  0  0  0  0  0  0  0  0  0
   -2.8483    1.1342   -0.3172 H   0  0  0  0  0  0  0  0  0  0  0  0
    0.7777    2.0823   -0.7198 H   0  0  0  0  0  0  0  0  0  0  0  0
    1.2531    1.6011    0.8953 H   0  0  0  0  0  0  0  0  0  0  0  0
    1.3448   -0.9293    1.5045 H   0  0  0  0  0  0  0  0  0  0  0  0
    0.9300   -2.1233    0.2927 H   0  0  0  0  0  0  0  0  0  0  0  0
  1  2  1  0
  3  2  1  6
  3  4  1  0
  4  5  1  0
  5  6  1  0
  6  7  1  0
  7  8  1  0
  8  9  1  0
  9 10  1  0
  9 11  1  0
  7 12  1  0
 11  3  1  0
 12  3  1  0
 10  5  1  0
  1 13  1  0
  1 14  1  0
  1 15  1  0
  4 16  1  0
  4 17  1  0
  5 18  1  6
  6 19  1  0
  6 20  1  0
  7 21  1  1
  8 22  1  0
  8 23  1  0
  9 24  1  1
 10 25  1  0
 10 26  1  0
 11 27  1  0
 11 28  1  0
 12 29  1  0
 12 30  1  0
M  END
>  <_SMILES>  (17) 
CO[C@]12C[C@H]3C[C@H](C[C@H](C3)C1)C2

$$$$

     RDKit          3D

 27 29  0  0  0  0  0  0  0  0999 V2000
    2.4149    0.0377   -0.9572 C   0  0  0  0  0  0  0  0  0  0  0  0
    1.0239    0.0367   -0.3215 C   0  0  2  0  0  0  0  0  0  0  0  0
   -0.0530   -0.3426   -1.3700 C   0  0  0  0  0  0  0  0  0  0  0  0
   -1.4585   -0.3459   -0.7369 C   0  0  2  0  0  0  0  0  0  0  0  0
   -1.7618    1.0440   -0.1622 C   0  0  0  0  0  0  0  0  0  0  0  0
   -0.7061    1.3845    0.8937 C   0  0  2  0  0  0  0  0  0  0  0  0
    0.6877    1.4266    0.2583 C   0  0  0  0  0  0  0  0  0  0  0  0
   -0.7300    0.3933    1.9364 O   0  0  0  0  0  0  0  0  0  0  0  0
   -0.4440   -0.9352    1.4636 C   0  0  1  0  0  0  0  0  0  0  0  0
   -1.4917   -1.3470    0.4254 C   0  0  0  0  0  0  0  0  0  0  0  0
    0.9584   -0.9691    0.8470 C   0  0  0  0  0  0  0  0  0  0  0  0
    2.4722    0.7589   -1.7798 H   0  0  0  0  0  0  0  0  0  0  0  0
    3.1847    0.3046   -0.2248 H   0  0  0  0  0  0  0  0  0  0  0  0
    2.6653   -0.9499   -1.3599 H   0  0  0  0  0  0  0  0  0  0  0  0
    0.1619   -1.3340   -1.7893 H   0  0  0  0  0  0  0  0  0  0  0  0
   -0.0303    0.3669   -2.2072 H   0  0  0  0  0  0  0  0  0  0  0  0
   -2.2081   -0.6153   -1.4888 H   0  0  0  0  0  0  0  0  0  0  0  0
   -1.7683    1.7973   -0.9584 H   0  0  0  0  0  0  0  0  0  0  0  0
   -2.7576    1.0380    0.2977 H   0  0  0  0  0  0  0  0  0  0  0  0
   -0.9358    2.3520    1.3517 H   0  0  0  0  0  0  0  0  0  0  0  0
    1.4284    1.6969    1.0217 H   0  0  0  0  0  0  0  0  0  0  0  0
    0.7260    2.1949   -0.5236 H   0  0  0  0  0  0  0  0  0  0  0  0
   -0.4882   -1.6095    2.3251 H   0  0  0  0  0  0  0  0  0  0  0  0
   -2.4888   -1.3408    0.8822 H   0  0  0  0  0  0  0  0  0  0  0  0
   -1.2982   -2.3636    0.0640 H   0  0  0  0  0  0  0  0  0  0  0  0
    1.6989   -0.6969    1.6099 H   0  0  0  0  0  0  0  0  0  0  0  0
    1.1980   -1.9826    0.5029 H   0  0  0  0  0  0  0  0  0  0  0  0
  2  1  1  6
  2  3  1  0
  3  4  1  0
  4  5  1  0
  5  6  1  0
  6  7  1  0
  6  8  1  0
  8  9  1  0
  9 10  1  0
  9 11  1  0
  7  2  1  0
 11  2  1  0
 10  4  1  0
  1 12  1  0
  1 13  1  0
  1 14  1  0
  3 15  1  0
  3 16  1  0
  4 17  1  6
  5 18  1  0
  5 19  1  0
  6 20  1  1
  7 21  1  0
  7 22  1  0
  9 23  1  1
 10 24  1  0
 10 25  1  0
 11 26  1  0
 11 27  1  0
M  END
>  <_SMILES>  (18) 
C[C@]12C[C@@H]3C[C@H](C1)O[C@@H](C3)C2

$$$$

     RDKit          3D

 33 35  0  0  0  0  0  0  0  0999 V2000
    4.3160   -0.0693   -0.4488 C   0  0  0  0  0  0  0  0  0  0  0  0
    2.8989    0.4375   -0.5085 C   0  0  0  0  0  0  0  0  0  0  0  0
    2.6185    1.4960   -1.0586 O   0  0  0  0  0  0  0  0  0  0  0  0
    1.9860   -0.4073    0.0825 N   0  0  0  0  0  0  0  0  0  0  0  0
    0.5373   -0.1781    0.1236 C   0  0  2  0  0  0  0  0  0  0  0  0
   -0.1226   -1.3511    0.8987 C   0  0  0  0  0  0  0  0  0  0  0  0
   -1.6474   -1.1742    0.9753 C   0  0  1  0  0  0  0  0  0  0  0  0
   -1.9660    0.1441    1.6974 C   0  0  0  0  0  0  0  0  0  0  0  0
   -1.3438    1.3235    0.9338 C   0  0  2  0  0  0  0  0  0  0  0  0
   -1.9151    1.3620   -0.4939 C   0  0  0  0  0  0  0  0  0  0  0  0
   -1.6011    0.0460   -1.2259 C   0  0  2  0  0  0  0  0  0  0  0  0
   -2.2215   -1.1262   -0.4493 C   0  0  0  0  0  0  0  0  0  0  0  0
   -0.0754   -0.1422   -1.2984 C   0  0  0  0  0  0  0  0  0  0  0  0
    0.1823    1.1364    0.8635 C   0  0  0  0  0  0  0  0  0  0  0  0
    4.5596   -0.5656   -1.3917 H   0  0  0  0  0  0  0  0  0  0  0  0
    4.4551   -0.7730    0.3767 H   0  0  0  0  0  0  0  0  0  0  0  0
    4.9929    0.7751   -0.2916 H   0  0  0  0  0  0  0  0  0  0  0  0
    2.3226   -1.3048    0.4062 H   0  0  0  0  0  0  0  0  0  0  0  0
    0.2943   -1.4149    1.9127 H   0  0  0  0  0  0  0  0  0  0  0  0
    0.1135   -2.3062    0.4104 H   0  0  0  0  0  0  0  0  0  0  0  0
   -2.0903   -2.0127    1.5243 H   0  0  0  0  0  0  0  0  0  0  0  0
   -3.0521    0.2774    1.7728 H   0  0  0  0  0  0  0  0  0  0  0  0
   -1.5769    0.1140    2.7226 H   0  0  0  0  0  0  0  0  0  0  0  0
   -1.5767    2.2613    1.4503 H   0  0  0  0  0  0  0  0  0  0  0  0
   -3.0001    1.5198   -0.4580 H   0  0  0  0  0  0  0  0  0  0  0  0
   -1.4886    2.2087   -1.0457 H   0  0  0  0  0  0  0  0  0  0  0  0
   -2.0170    0.0785   -2.2391 H   0  0  0  0  0  0  0  0  0  0  0  0
   -3.3120   -1.0148   -0.4105 H   0  0  0  0  0  0  0  0  0  0  0  0
   -2.0163   -2.0704   -0.9686 H   0  0  0  0  0  0  0  0  0  0  0  0
    0.3575    0.6727   -1.8907 H   0  0  0  0  0  0  0  0  0  0  0  0
    0.1613   -1.0705   -1.8348 H   0  0  0  0  0  0  0  0  0  0  0  0
    0.6046    1.1247    1.8769 H   0  0  0  0  0  0  0  0  0  0  0  0
    0.6226    2.0037    0.3581 H   0  0  0  0  0  0  0  0  0  0  0  0
  1  2  1  0
  2  3  2  0
  2  4  1  0
  5  4  1  6
  5  6  1  0
  6  7  1  0
  7  8  1  0
  8  9  1  0
  9 10  1  0
 10 11  1  0
 11 12  1  0
 11 13  1  0
  9 14  1  0
 13  5  1  0
 14  5  1  0
 12  7  1  0
  1 15  1  0
  1 16  1  0
  1 17  1  0
  4 18  1  0
  6 19  1  0
  6 20  1  0
  7 21  1  1
  8 22  1  0
  8 23  1  0
  9 24  1  1
 10 25  1  0
 10 26  1  0
 11 27  1  6
 12 28  1  0
 12 29  1  0
 13 30  1  0
 13 31  1  0
 14 32  1  0
 14 33  1  0
M  END
>  <_SMILES>  (19) 
CC(=O)N[C@]12C[C@H]3C[C@H](C[C@H](C3)C1)C2

$$$$

     RDKit          3D

 36 38  0  0  0  0  0  0  0  0999 V2000
    4.9377   -0.9090   -0.0705 C   0  0  0  0  0  0  0  0  0  0  0  0
    3.8166   -0.0254   -0.5876 C   0  0  0  0  0  0  0  0  0  0  0  0
    2.4614   -0.4229   -0.0319 C   0  0  0  0  0  0  0  0  0  0  0  0
    2.3005   -1.3543    0.7465 O   0  0  0  0  0  0  0  0  0  0  0  0
    1.4450    0.3827   -0.5043 N   0  0  0  0  0  0  0  0  0  0  0  0
    0.0291    0.2449   -0.1473 C   0  0  2  0  0  0  0  0  0  0  0  0
   -0.2004    0.4386    1.3725 C   0  0  0  0  0  0  0  0  0  0  0  0
   -1.6986    0.3396    1.7109 C   0  0  1  0  0  0  0  0  0  0  0  0
   -2.4645    1.4346    0.9521 C   0  0  0  0  0  0  0  0  0  0  0  0
   -2.2723    1.2558   -0.5619 C   0  0  2  0  0  0  0  0  0  0  0  0
   -2.8007   -0.1243   -0.9828 C   0  0  0  0  0  0  0  0  0  0  0  0
   -2.0368   -1.2286   -0.2356 C   0  0  2  0  0  0  0  0  0  0  0  0
   -2.2250   -1.0398    1.2794 C   0  0  0  0  0  0  0  0  0  0  0  0
   -0.5390   -1.1312   -0.5759 C   0  0  0  0  0  0  0  0  0  0  0  0
   -0.7743    1.3446   -0.8938 C   0  0  0  0  0  0  0  0  0  0  0  0
    4.7715   -1.9560   -0.3448 H   0  0  0  0  0  0  0  0  0  0  0  0
    5.8971   -0.5932   -0.4916 H   0  0  0  0  0  0  0  0  0  0  0  0
    5.0088   -0.8556    1.0209 H   0  0  0  0  0  0  0  0  0  0  0  0
    4.0145    1.0157   -0.3092 H   0  0  0  0  0  0  0  0  0  0  0  0
    3.7762   -0.0892   -1.6807 H   0  0  0  0  0  0  0  0  0  0  0  0
    1.6964    1.1242   -1.1454 H   0  0  0  0  0  0  0  0  0  0  0  0
    0.3457   -0.3155    1.9512 H   0  0  0  0  0  0  0  0  0  0  0  0
    0.1912    1.4133    1.6919 H   0  0  0  0  0  0  0  0  0  0  0  0
   -1.8421    0.4690    2.7895 H   0  0  0  0  0  0  0  0  0  0  0  0
   -2.1077    2.4247    1.2613 H   0  0  0  0  0  0  0  0  0  0  0  0
   -3.5314    1.3881    1.2026 H   0  0  0  0  0  0  0  0  0  0  0  0
   -2.8176    2.0399   -1.0989 H   0  0  0  0  0  0  0  0  0  0  0  0
   -3.8734   -0.1974   -0.7653 H   0  0  0  0  0  0  0  0  0  0  0  0
   -2.6858   -0.2558   -2.0658 H   0  0  0  0  0  0  0  0  0  0  0  0
   -2.4199   -2.2103   -0.5360 H   0  0  0  0  0  0  0  0  0  0  0  0
   -3.2871   -1.1320    1.5382 H   0  0  0  0  0  0  0  0  0  0  0  0
   -1.6950   -1.8306    1.8244 H   0  0  0  0  0  0  0  0  0  0  0  0
   -0.3900   -1.2818   -1.6532 H   0  0  0  0  0  0  0  0  0  0  0  0
   -0.0065   -1.9486   -0.0759 H   0  0  0  0  0  0  0  0  0  0  0  0
   -0.3941    2.3388   -0.6229 H   0  0  0  0  0  0  0  0  0  0  0  0
   -0.6296    1.2469   -1.9781 H   0  0  0  0  0  0  0  0  0  0  0  0
  1  2  1  0
  2  3  1  0
  3  4  2  0
  3  5  1  0
  6  5  1  1
  6  7  1  0
  7  8  1  0
  8  9  1  0
  9 10  1  0
 10 11  1  0
 11 12  1  0
 12 13  1  0
 12 14  1  0
 10 15  1  0
 14  6  1  0
 15  6  1  0
 13  8  1  0
  1 16  1  0
  1 17  1  0
  1 18  1  0
  2 19  1  0
  2 20  1  0
  5 21  1  0
  7 22  1  0
  7 23  1  0
  8 24  1  1
  9 25  1  0
  9 26  1  0
 10 27  1  6
 11 28  1  0
 11 29  1  0
 12 30  1  6
 13 31  1  0
 13 32  1  0
 14 33  1  0
 14 34  1  0
 15 35  1  0
 15 36  1  0
M  END
>  <_SMILES>  (20) 
CCC(=O)N[C@]12C[C@H]3C[C@H](C[C@H](C3)C1)C2

$$$$

     RDKit          3D

 32 34  0  0  0  0  0  0  0  0999 V2000
    5.4623    0.6466    0.2488 C   0  0  0  0  0  0  0  0  0  0  0  0
    4.3116    0.4405    0.5270 C   0  0  0  0  0  0  0  0  0  0  0  0
    2.9262    0.1926    0.8614 C   0  0  0  0  0  0  0  0  0  0  0  0
    2.6305   -0.0885    2.0122 O   0  0  0  0  0  0  0  0  0  0  0  0
    2.0566    0.3042   -0.1937 N   0  0  0  0  0  0  0  0  0  0  0  0
    0.6089    0.1021   -0.1143 C   0  0  2  0  0  0  0  0  0  0  0  0
    0.0027    0.3229   -1.5265 C   0  0  0  0  0  0  0  0  0  0  0  0
   -1.5213    0.1244   -1.5103 C   0  0  1  0  0  0  0  0  0  0  0  0
   -1.8383   -1.3057   -1.0460 C   0  0  0  0  0  0  0  0  0  0  0  0
   -1.2697   -1.5381    0.3626 C   0  0  2  0  0  0  0  0  0  0  0  0
   -1.8958   -0.5250    1.3361 C   0  0  0  0  0  0  0  0  0  0  0  0
   -1.5831    0.9104    0.8800 C   0  0  2  0  0  0  0  0  0  0  0  0
   -2.1499    1.1286   -0.5317 C   0  0  0  0  0  0  0  0  0  0  0  0
   -0.0576    1.1123    0.8528 C   0  0  0  0  0  0  0  0  0  0  0  0
    0.2560   -1.3379    0.3351 C   0  0  0  0  0  0  0  0  0  0  0  0
    6.4860    0.8268    0.0161 H   0  0  0  0  0  0  0  0  0  0  0  0
    2.4592    0.5451   -1.0899 H   0  0  0  0  0  0  0  0  0  0  0  0
    0.2401    1.3336   -1.8851 H   0  0  0  0  0  0  0  0  0  0  0  0
    0.4583   -0.3714   -2.2454 H   0  0  0  0  0  0  0  0  0  0  0  0
   -1.9262    0.2850   -2.5157 H   0  0  0  0  0  0  0  0  0  0  0  0
   -1.4098   -2.0317   -1.7479 H   0  0  0  0  0  0  0  0  0  0  0  0
   -2.9233   -1.4672   -1.0437 H   0  0  0  0  0  0  0  0  0  0  0  0
   -1.5018   -2.5576    0.6906 H   0  0  0  0  0  0  0  0  0  0  0  0
   -1.5079   -0.6893    2.3489 H   0  0  0  0  0  0  0  0  0  0  0  0
   -2.9816   -0.6739    1.3831 H   0  0  0  0  0  0  0  0  0  0  0  0
   -2.0373    1.6260    1.5746 H   0  0  0  0  0  0  0  0  0  0  0  0
   -3.2402    1.0088   -0.5205 H   0  0  0  0  0  0  0  0  0  0  0  0
   -1.9456    2.1540   -0.8634 H   0  0  0  0  0  0  0  0  0  0  0  0
    0.3354    0.9984    1.8700 H   0  0  0  0  0  0  0  0  0  0  0  0
    0.1777    2.1399    0.5461 H   0  0  0  0  0  0  0  0  0  0  0  0
    0.7164   -2.0683   -0.3431 H   0  0  0  0  0  0  0  0  0  0  0  0
    0.6613   -1.5474    1.3320 H   0  0  0  0  0  0  0  0  0  0  0  0
  1  2  3  0
  2  3  1  0
  3  4  2  0
  3  5  1  0
  6  5  1  6
  6  7  1  0
  7  8  1  0
  8  9  1  0
  9 10  1  0
 10 11  1  0
 11 12  1  0
 12 13  1  0
 12 14  1  0
 10 15  1  0
 14  6  1  0
 15  6  1  0
 13  8  1  0
  1 16  1  0
  5 17  1  0
  7 18  1  0
  7 19  1  0
  8 20  1  6
  9 21  1  0
  9 22  1  0
 10 23  1  1
 11 24  1  0
 11 25  1  0
 12 26  1  1
 13 27  1  0
 13 28  1  0
 14 29  1  0
 14 30  1  0
 15 31  1  0
 15 32  1  0
M  END
>  <_SMILES>  (21) 
C#CC(=O)N[C@]12C[C@H]3C[C@H](C[C@H](C3)C1)C2

$$$$

     RDKit          3D

 27 29  0  0  0  0  0  0  0  0999 V2000
   -2.6806   -0.4462    2.9693 N   0  0  0  0  0  0  0  0  0  0  0  0
   -1.9078   -0.3175    2.1132 C   0  0  0  0  0  0  0  0  0  0  0  0
   -0.9251   -0.1540    1.0248 C   0  0  2  0  0  0  0  0  0  0  0  0
   -1.5936    0.5044   -0.2043 C   0  0  0  0  0  0  0  0  0  0  0  0
   -0.5718    0.6768   -1.3421 C   0  0  1  0  0  0  0  0  0  0  0  0
    0.5848    1.5646   -0.8530 C   0  0  0  0  0  0  0  0  0  0  0  0
    1.2730    0.9147    0.3591 C   0  0  2  0  0  0  0  0  0  0  0  0
    1.8162   -0.4657   -0.0464 C   0  0  0  0  0  0  0  0  0  0  0  0
    0.6659   -1.3640   -0.5313 C   0  0  2  0  0  0  0  0  0  0  0  0
   -0.0192   -0.7025   -1.7389 C   0  0  0  0  0  0  0  0  0  0  0  0
   -0.3596   -1.5303    0.6040 C   0  0  0  0  0  0  0  0  0  0  0  0
    0.2457    0.7416    1.4918 C   0  0  0  0  0  0  0  0  0  0  0  0
   -2.4369   -0.1061   -0.5545 H   0  0  0  0  0  0  0  0  0  0  0  0
   -2.0136    1.4826    0.0663 H   0  0  0  0  0  0  0  0  0  0  0  0
   -1.0566    1.1438   -2.2066 H   0  0  0  0  0  0  0  0  0  0  0  0
    0.2059    2.5575   -0.5810 H   0  0  0  0  0  0  0  0  0  0  0  0
    1.3114    1.7117   -1.6615 H   0  0  0  0  0  0  0  0  0  0  0  0
    2.0970    1.5505    0.7015 H   0  0  0  0  0  0  0  0  0  0  0  0
    2.5648   -0.3548   -0.8406 H   0  0  0  0  0  0  0  0  0  0  0  0
    2.3235   -0.9340    0.8060 H   0  0  0  0  0  0  0  0  0  0  0  0
    1.0593   -2.3448   -0.8207 H   0  0  0  0  0  0  0  0  0  0  0  0
    0.6967   -0.5958   -2.5632 H   0  0  0  0  0  0  0  0  0  0  0  0
   -0.8327   -1.3411   -2.1045 H   0  0  0  0  0  0  0  0  0  0  0  0
    0.1152   -2.0274    1.4607 H   0  0  0  0  0  0  0  0  0  0  0  0
   -1.1710   -2.1933    0.2746 H   0  0  0  0  0  0  0  0  0  0  0  0
    0.7360    0.3031    2.3714 H   0  0  0  0  0  0  0  0  0  0  0  0
   -0.1269    1.7259    1.8062 H   0  0  0  0  0  0  0  0  0  0  0  0
  1  2  3  0
  3  2  1  1
  3  4  1  0
  4  5  1  0
  5  6  1  0
  6  7  1  0
  7  8  1  0
  8  9  1  0
  9 10  1  0
  9 11  1  0
  7 12  1  0
 11  3  1  0
 12  3  1  0
 10  5  1  0
  4 13  1  0
  4 14  1  0
  5 15  1  6
  6 16  1  0
  6 17  1  0
  7 18  1  1
  8 19  1  0
  8 20  1  0
  9 21  1  6
 10 22  1  0
 10 23  1  0
 11 24  1  0
 11 25  1  0
 12 26  1  0
 12 27  1  0
M  END
>  <_SMILES>  (22) 
N#C[C@]12C[C@H]3C[C@H](C[C@H](C3)C1)C2

$$$$

     RDKit          3D

 30 32  0  0  0  0  0  0  0  0999 V2000
    3.4366   -0.6338   -1.0923 O   0  0  0  0  0  0  0  0  0  0  0  0
    3.4201    0.3380   -0.3533 C   0  0  0  0  0  0  0  0  0  0  0  0
    2.3230    0.8877    0.2586 N   0  0  0  0  0  0  0  0  0  0  0  0
    0.9508    0.3896    0.1258 C   0  0  2  0  0  0  0  0  0  0  0  0
    0.0144    1.2908    0.9752 C   0  0  0  0  0  0  0  0  0  0  0  0
   -1.4447    0.8178    0.8769 C   0  0  1  0  0  0  0  0  0  0  0  0
   -1.8937    0.8706   -0.5917 C   0  0  0  0  0  0  0  0  0  0  0  0
   -0.9957   -0.0362   -1.4479 C   0  0  2  0  0  0  0  0  0  0  0  0
   -1.0897   -1.4806   -0.9275 C   0  0  0  0  0  0  0  0  0  0  0  0
   -0.6411   -1.5440    0.5425 C   0  0  2  0  0  0  0  0  0  0  0  0
   -1.5412   -0.6285    1.3871 C   0  0  0  0  0  0  0  0  0  0  0  0
    0.8169   -1.0626    0.6484 C   0  0  0  0  0  0  0  0  0  0  0  0
    0.4620    0.4461   -1.3432 C   0  0  0  0  0  0  0  0  0  0  0  0
    4.3404    0.8905   -0.0987 H   0  0  0  0  0  0  0  0  0  0  0  0
    2.4821    1.6979    0.8439 H   0  0  0  0  0  0  0  0  0  0  0  0
    0.3353    1.2840    2.0256 H   0  0  0  0  0  0  0  0  0  0  0  0
    0.0883    2.3339    0.6396 H   0  0  0  0  0  0  0  0  0  0  0  0
   -2.0860    1.4672    1.4831 H   0  0  0  0  0  0  0  0  0  0  0  0
   -2.9393    0.5498   -0.6758 H   0  0  0  0  0  0  0  0  0  0  0  0
   -1.8466    1.9022   -0.9617 H   0  0  0  0  0  0  0  0  0  0  0  0
   -1.3224    0.0019   -2.4932 H   0  0  0  0  0  0  0  0  0  0  0  0
   -0.4631   -2.1410   -1.5394 H   0  0  0  0  0  0  0  0  0  0  0  0
   -2.1204   -1.8446   -1.0196 H   0  0  0  0  0  0  0  0  0  0  0  0
   -0.7165   -2.5744    0.9077 H   0  0  0  0  0  0  0  0  0  0  0  0
   -1.2403   -0.6755    2.4410 H   0  0  0  0  0  0  0  0  0  0  0  0
   -2.5807   -0.9751    1.3371 H   0  0  0  0  0  0  0  0  0  0  0  0
    1.1547   -1.1210    1.6914 H   0  0  0  0  0  0  0  0  0  0  0  0
    1.4601   -1.7441    0.0792 H   0  0  0  0  0  0  0  0  0  0  0  0
    1.0916   -0.1772   -1.9893 H   0  0  0  0  0  0  0  0  0  0  0  0
    0.5452    1.4705   -1.7295 H   0  0  0  0  0  0  0  0  0  0  0  0
  1  2  2  0
  2  3  1  0
  4  3  1  6
  4  5  1  0
  5  6  1  0
  6  7  1  0
  7  8  1  0
  8  9  1  0
  9 10  1  0
 10 11  1  0
 10 12  1  0
  8 13  1  0
 12  4  1  0
 13  4  1  0
 11  6  1  0
  2 14  1  0
  3 15  1  0
  5 16  1  0
  5 17  1  0
  6 18  1  1
  7 19  1  0
  7 20  1  0
  8 21  1  6
  9 22  1  0
  9 23  1  0
 10 24  1  1
 11 25  1  0
 11 26  1  0
 12 27  1  0
 12 28  1  0
 13 29  1  0
 13 30  1  0
M  END
>  <_SMILES>  (23) 
O=CN[C@]12C[C@H]3C[C@H](C[C@H](C3)C1)C2

$$$$

     RDKit          3D

 36 38  0  0  0  0  0  0  0  0999 V2000
    4.7165    0.9471   -0.7979 C   0  0  0  0  0  0  0  0  0  0  0  0
    4.0154    0.1266   -0.0034 C   0  0  0  0  0  0  0  0  0  0  0  0
    2.6310    0.3992    0.4847 C   0  0  0  0  0  0  0  0  0  0  0  0
    1.6490   -0.3567   -0.3397 N   0  0  0  0  0  0  0  0  0  0  0  0
    0.1821   -0.2171   -0.0485 C   0  0  2  0  0  0  0  0  0  0  0  0
   -0.1411   -0.6742    1.3875 C   0  0  0  0  0  0  0  0  0  0  0  0
   -1.6598   -0.5793    1.6321 C   0  0  1  0  0  0  0  0  0  0  0  0
   -2.1160    0.8765    1.4248 C   0  0  0  0  0  0  0  0  0  0  0  0
   -1.8049    1.3322   -0.0126 C   0  0  2  0  0  0  0  0  0  0  0  0
   -2.5393    0.4134   -1.0032 C   0  0  0  0  0  0  0  0  0  0  0  0
   -2.0844   -1.0426   -0.8089 C   0  0  2  0  0  0  0  0  0  0  0  0
   -2.3951   -1.4857    0.6306 C   0  0  0  0  0  0  0  0  0  0  0  0
   -0.5674   -1.1318   -1.0465 C   0  0  0  0  0  0  0  0  0  0  0  0
   -0.2861    1.2368   -0.2567 C   0  0  0  0  0  0  0  0  0  0  0  0
    4.3236    1.8921   -1.1644 H   0  0  0  0  0  0  0  0  0  0  0  0
    5.7343    0.6975   -1.0941 H   0  0  0  0  0  0  0  0  0  0  0  0
    4.4961   -0.7866    0.3462 H   0  0  0  0  0  0  0  0  0  0  0  0
    2.3881    1.4627    0.4090 H   0  0  0  0  0  0  0  0  0  0  0  0
    2.5324    0.0761    1.5245 H   0  0  0  0  0  0  0  0  0  0  0  0
    1.9042   -1.3512   -0.2882 H   0  0  0  0  0  0  0  0  0  0  0  0
    1.8192   -0.0910   -1.3193 H   0  0  0  0  0  0  0  0  0  0  0  0
    0.3732   -0.0469    2.1251 H   0  0  0  0  0  0  0  0  0  0  0  0
    0.1988   -1.7048    1.5506 H   0  0  0  0  0  0  0  0  0  0  0  0
   -1.8892   -0.8967    2.6554 H   0  0  0  0  0  0  0  0  0  0  0  0
   -3.1923    0.9617    1.6187 H   0  0  0  0  0  0  0  0  0  0  0  0
   -1.6103    1.5331    2.1434 H   0  0  0  0  0  0  0  0  0  0  0  0
   -2.1367    2.3670   -0.1525 H   0  0  0  0  0  0  0  0  0  0  0  0
   -3.6230    0.4902   -0.8522 H   0  0  0  0  0  0  0  0  0  0  0  0
   -2.3375    0.7350   -2.0323 H   0  0  0  0  0  0  0  0  0  0  0  0
   -2.6095   -1.6924   -1.5179 H   0  0  0  0  0  0  0  0  0  0  0  0
   -2.0897   -2.5292    0.7758 H   0  0  0  0  0  0  0  0  0  0  0  0
   -3.4763   -1.4423    0.8102 H   0  0  0  0  0  0  0  0  0  0  0  0
   -0.2390   -2.1735   -0.9337 H   0  0  0  0  0  0  0  0  0  0  0  0
   -0.3396   -0.8399   -2.0801 H   0  0  0  0  0  0  0  0  0  0  0  0
   -0.0501    1.5769   -1.2730 H   0  0  0  0  0  0  0  0  0  0  0  0
    0.2232    1.9180    0.4351 H   0  0  0  0  0  0  0  0  0  0  0  0
  1  2  2  0
  2  3  1  0
  3  4  1  0
  5  4  1  6
  5  6  1  0
  6  7  1  0
  7  8  1  0
  8  9  1  0
  9 10  1  0
 10 11  1  0
 11 12  1  0
 11 13  1  0
  9 14  1  0
 13  5  1  0
 14  5  1  0
 12  7  1  0
  1 15  1  0
  1 16  1  0
  2 17  1  0
  3 18  1  0
  3 19  1  0
  4 20  1  0
  4 21  1  0
  6 22  1  0
  6 23  1  0
  7 24  1  1
  8 25  1  0
  8 26  1  0
  9 27  1  1
 10 28  1  0
 10 29  1  0
 11 30  1  6
 12 31  1  0
 12 32  1  0
 13 33  1  0
 13 34  1  0
 14 35  1  0
 14 36  1  0
M  CHG  1   4   1
M  END
>  <_SMILES>  (24) 
C=CC[NH2+][C@]12C[C@H]3C[C@H](C[C@H](C3)C1)C2

$$$$

     RDKit          3D

 32 34  0  0  0  0  0  0  0  0999 V2000
    4.3607   -0.4747   -0.5833 C   0  0  0  0  0  0  0  0  0  0  0  0
    3.0381   -0.4994   -0.7564 C   0  0  0  0  0  0  0  0  0  0  0  0
    2.1354    0.3292   -0.1441 N   0  0  0  0  0  0  0  0  0  0  0  0
    0.6803    0.1888   -0.1225 C   0  0  2  0  0  0  0  0  0  0  0  0
    0.0823    1.3904    0.6524 C   0  0  0  0  0  0  0  0  0  0  0  0
   -1.4506    1.2864    0.7126 C   0  0  1  0  0  0  0  0  0  0  0  0
   -2.0119    1.2775   -0.7184 C   0  0  0  0  0  0  0  0  0  0  0  0
   -1.4416    0.0825   -1.4992 C   0  0  2  0  0  0  0  0  0  0  0  0
   -1.8276   -1.2230   -0.7820 C   0  0  0  0  0  0  0  0  0  0  0  0
   -1.2688   -1.2261    0.6516 C   0  0  2  0  0  0  0  0  0  0  0  0
   -1.8399   -0.0224    1.4195 C   0  0  0  0  0  0  0  0  0  0  0  0
    0.2653   -1.1130    0.5984 C   0  0  0  0  0  0  0  0  0  0  0  0
    0.0927    0.1954   -1.5525 C   0  0  0  0  0  0  0  0  0  0  0  0
    4.8351    0.2378    0.0815 H   0  0  0  0  0  0  0  0  0  0  0  0
    4.9994   -1.1716   -1.1152 H   0  0  0  0  0  0  0  0  0  0  0  0
    2.6009   -1.2269   -1.4373 H   0  0  0  0  0  0  0  0  0  0  0  0
    2.5305    0.8920    0.6063 H   0  0  0  0  0  0  0  0  0  0  0  0
    0.4894    1.4267    1.6718 H   0  0  0  0  0  0  0  0  0  0  0  0
    0.3729    2.3342    0.1720 H   0  0  0  0  0  0  0  0  0  0  0  0
   -1.8584    2.1405    1.2646 H   0  0  0  0  0  0  0  0  0  0  0  0
   -1.7556    2.2146   -1.2276 H   0  0  0  0  0  0  0  0  0  0  0  0
   -3.1069    1.2190   -0.6910 H   0  0  0  0  0  0  0  0  0  0  0  0
   -1.8470    0.0790   -2.5172 H   0  0  0  0  0  0  0  0  0  0  0  0
   -1.4383   -2.0850   -1.3376 H   0  0  0  0  0  0  0  0  0  0  0  0
   -2.9194   -1.3269   -0.7576 H   0  0  0  0  0  0  0  0  0  0  0  0
   -1.5531   -2.1557    1.1574 H   0  0  0  0  0  0  0  0  0  0  0  0
   -2.9320   -0.1030    1.4835 H   0  0  0  0  0  0  0  0  0  0  0  0
   -1.4600   -0.0200    2.4485 H   0  0  0  0  0  0  0  0  0  0  0  0
    0.6770   -1.1333    1.6161 H   0  0  0  0  0  0  0  0  0  0  0  0
    0.6770   -1.9894    0.0815 H   0  0  0  0  0  0  0  0  0  0  0  0
    0.3824    1.1142   -2.0790 H   0  0  0  0  0  0  0  0  0  0  0  0
    0.4916   -0.6379   -2.1439 H   0  0  0  0  0  0  0  0  0  0  0  0
  1  2  2  0
  2  3  1  0
  4  3  1  6
  4  5  1  0
  5  6  1  0
  6  7  1  0
  7  8  1  0
  8  9  1  0
  9 10  1  0
 10 11  1  0
 10 12  1  0
  8 13  1  0
 12  4  1  0
 13  4  1  0
 11  6  1  0
  1 14  1  0
  1 15  1  0
  2 16  1  0
  3 17  1  0
  5 18  1  0
  5 19  1  0
  6 20  1  1
  7 21  1  0
  7 22  1  0
  8 23  1  6
  9 24  1  0
  9 25  1  0
 10 26  1  1
 11 27  1  0
 11 28  1  0
 12 29  1  0
 12 30  1  0
 13 31  1  0
 13 32  1  0
M  END
>  <_SMILES>  (25) 
C=CN[C@]12C[C@H]3C[C@H](C[C@H](C3)C1)C2

$$$$

     RDKit          3D

 32 34  0  0  0  0  0  0  0  0999 V2000
    4.3483    0.0364    0.3715 C   0  0  0  0  0  0  0  0  0  0  0  0
    2.8693   -0.0655    0.5826 C   0  0  0  0  0  0  0  0  0  0  0  0
    2.0574    0.2080   -0.3724 N   0  0  0  0  0  0  0  0  0  0  0  0
    0.6131    0.0953   -0.1236 C   0  0  2  0  0  0  0  0  0  0  0  0
   -0.0963    0.4842   -1.4451 C   0  0  0  0  0  0  0  0  0  0  0  0
   -1.6231    0.3972   -1.2868 C   0  0  1  0  0  0  0  0  0  0  0  0
   -2.0089   -1.0415   -0.9068 C   0  0  0  0  0  0  0  0  0  0  0  0
   -1.3232   -1.4392    0.4106 C   0  0  2  0  0  0  0  0  0  0  0  0
   -1.7634   -0.4709    1.5232 C   0  0  0  0  0  0  0  0  0  0  0  0
   -1.3837    0.9741    1.1532 C   0  0  2  0  0  0  0  0  0  0  0  0
   -2.0689    1.3545   -0.1695 C   0  0  0  0  0  0  0  0  0  0  0  0
    0.1430    1.0685    0.9797 C   0  0  0  0  0  0  0  0  0  0  0  0
    0.2036   -1.3499    0.2355 C   0  0  0  0  0  0  0  0  0  0  0  0
    4.8002   -0.9403    0.5622 H   0  0  0  0  0  0  0  0  0  0  0  0
    4.7577    0.7567    1.0844 H   0  0  0  0  0  0  0  0  0  0  0  0
    4.5790    0.3559   -0.6476 H   0  0  0  0  0  0  0  0  0  0  0  0
    2.5412   -0.3828    1.5870 H   0  0  0  0  0  0  0  0  0  0  0  0
    0.2315   -0.1760   -2.2591 H   0  0  0  0  0  0  0  0  0  0  0  0
    0.1895    1.5018   -1.7429 H   0  0  0  0  0  0  0  0  0  0  0  0
   -2.1100    0.6748   -2.2283 H   0  0  0  0  0  0  0  0  0  0  0  0
   -1.7139   -1.7323   -1.7061 H   0  0  0  0  0  0  0  0  0  0  0  0
   -3.0978   -1.1223   -0.8019 H   0  0  0  0  0  0  0  0  0  0  0  0
   -1.6047   -2.4636    0.6789 H   0  0  0  0  0  0  0  0  0  0  0  0
   -1.2901   -0.7511    2.4723 H   0  0  0  0  0  0  0  0  0  0  0  0
   -2.8475   -0.5446    1.6744 H   0  0  0  0  0  0  0  0  0  0  0  0
   -1.7078    1.6566    1.9467 H   0  0  0  0  0  0  0  0  0  0  0  0
   -1.8170    2.3877   -0.4384 H   0  0  0  0  0  0  0  0  0  0  0  0
   -3.1588    1.3125   -0.0527 H   0  0  0  0  0  0  0  0  0  0  0  0
    0.6272    0.8400    1.9369 H   0  0  0  0  0  0  0  0  0  0  0  0
    0.4300    2.0975    0.7269 H   0  0  0  0  0  0  0  0  0  0  0  0
    0.6902   -1.6769    1.1624 H   0  0  0  0  0  0  0  0  0  0  0  0
    0.5337   -2.0447   -0.5476 H   0  0  0  0  0  0  0  0  0  0  0  0
  1  2  1  0
  2  3  2  0
  4  3  1  6
  4  5  1  0
  5  6  1  0
  6  7  1  0
  7  8  1  0
  8  9  1  0
  9 10  1  0
 10 11  1  0
 10 12  1  0
  8 13  1  0
 12  4  1  0
 13  4  1  0
 11  6  1  0
  1 14  1  0
  1 15  1  0
  1 16  1  0
  2 17  1  0
  5 18  1  0
  5 19  1  0
  6 20  1  6
  7 21  1  0
  7 22  1  0
  8 23  1  1
  9 24  1  0
  9 25  1  0
 10 26  1  1
 11 27  1  0
 11 28  1  0
 12 29  1  0
 12 30  1  0
 13 31  1  0
 13 32  1  0
M  END
>  <_SMILES>  (26) 
C/C=N/[C@]12C[C@H]3C[C@H](C[C@H](C3)C1)C2

$$$$

     RDKit          3D

 32 34  0  0  0  0  0  0  0  0999 V2000
    3.4888   -0.5394   -0.3606 C   0  0  0  0  0  0  0  0  0  0  0  0
    3.0086    0.8669   -0.5335 C   0  0  0  0  0  0  0  0  0  0  0  0
    1.8227    1.3459   -0.4603 N   0  0  0  0  0  0  0  0  0  0  0  0
    0.5790    0.6371   -0.1812 C   0  0  2  0  0  0  0  0  0  0  0  0
    0.2375   -0.4053   -1.2655 C   0  0  0  0  0  0  0  0  0  0  0  0
   -1.1294   -1.0496   -0.9705 C   0  0  1  0  0  0  0  0  0  0  0  0
   -1.0958   -1.6982    0.4253 C   0  0  0  0  0  0  0  0  0  0  0  0
   -0.8099   -0.6364    1.5027 C   0  0  2  0  0  0  0  0  0  0  0  0
   -1.8999    0.4457    1.4512 C   0  0  0  0  0  0  0  0  0  0  0  0
   -1.9167    1.1042    0.0631 C   0  0  2  0  0  0  0  0  0  0  0  0
   -2.2165    0.0363   -0.9999 C   0  0  0  0  0  0  0  0  0  0  0  0
   -0.5371    1.7222   -0.2183 C   0  0  0  0  0  0  0  0  0  0  0  0
    0.5597    0.0113    1.2284 C   0  0  0  0  0  0  0  0  0  0  0  0
    3.9979   -0.8431   -1.2798 H   0  0  0  0  0  0  0  0  0  0  0  0
    4.2216   -0.5539    0.4513 H   0  0  0  0  0  0  0  0  0  0  0  0
    2.7068   -1.2582   -0.1395 H   0  0  0  0  0  0  0  0  0  0  0  0
    3.8087    1.5946   -0.7584 H   0  0  0  0  0  0  0  0  0  0  0  0
    0.2226    0.0684   -2.2560 H   0  0  0  0  0  0  0  0  0  0  0  0
    0.9911   -1.1951   -1.3233 H   0  0  0  0  0  0  0  0  0  0  0  0
   -1.3489   -1.8109   -1.7274 H   0  0  0  0  0  0  0  0  0  0  0  0
   -0.3267   -2.4798    0.4565 H   0  0  0  0  0  0  0  0  0  0  0  0
   -2.0558   -2.1876    0.6310 H   0  0  0  0  0  0  0  0  0  0  0  0
   -0.8038   -1.1059    2.4928 H   0  0  0  0  0  0  0  0  0  0  0  0
   -1.7139    1.2025    2.2231 H   0  0  0  0  0  0  0  0  0  0  0  0
   -2.8795    0.0028    1.6690 H   0  0  0  0  0  0  0  0  0  0  0  0
   -2.6862    1.8836    0.0323 H   0  0  0  0  0  0  0  0  0  0  0  0
   -2.2586    0.4980   -1.9940 H   0  0  0  0  0  0  0  0  0  0  0  0
   -3.2004   -0.4122   -0.8152 H   0  0  0  0  0  0  0  0  0  0  0  0
   -0.3254    2.5073    0.5201 H   0  0  0  0  0  0  0  0  0  0  0  0
   -0.5472    2.2204   -1.1972 H   0  0  0  0  0  0  0  0  0  0  0  0
    1.3361   -0.7489    1.3475 H   0  0  0  0  0  0  0  0  0  0  0  0
    0.7707    0.7771    1.9864 H   0  0  0  0  0  0  0  0  0  0  0  0
  1  2  1  0
  2  3  2  0
  4  3  1  6
  4  5  1  0
  5  6  1  0
  6  7  1  0
  7  8  1  0
  8  9  1  0
  9 10  1  0
 10 11  1  0
 10 12  1  0
  8 13  1  0
 12  4  1  0
 13  4  1  0
 11  6  1  0
  1 14  1  0
  1 15  1  0
  1 16  1  0
  2 17  1  0
  5 18  1  0
  5 19  1  0
  6 20  1  6
  7 21  1  0
  7 22  1  0
  8 23  1  1
  9 24  1  0
  9 25  1  0
 10 26  1  1
 11 27  1  0
 11 28  1  0
 12 29  1  0
 12 30  1  0
 13 31  1  0
 13 32  1  0
M  END
>  <_SMILES>  (27) 
C/C=N\[C@]12C[C@H]3C[C@H](C[C@H](C3)C1)C2

$$$$

     RDKit          3D

 34 36  0  0  0  0  0  0  0  0999 V2000
    4.1416   -1.1903   -1.8104 O   0  0  0  0  0  0  0  0  0  0  0  0
    3.6416   -0.2036   -2.3471 C   0  0  0  0  0  0  0  0  0  0  0  0
    2.3028    0.3252   -1.8863 C   0  0  0  0  0  0  0  0  0  0  0  0
    1.7854   -0.5329   -0.7537 N   0  0  0  0  0  0  0  0  0  0  0  0
    0.4694   -0.2185   -0.1163 C   0  0  2  0  0  0  0  0  0  0  0  0
    0.2323   -1.2691    0.9932 C   0  0  0  0  0  0  0  0  0  0  0  0
   -1.1114   -1.0026    1.6931 C   0  0  1  0  0  0  0  0  0  0  0  0
   -1.0862    0.4052    2.3118 C   0  0  0  0  0  0  0  0  0  0  0  0
   -0.8554    1.4594    1.2159 C   0  0  2  0  0  0  0  0  0  0  0  0
   -1.9896    1.3665    0.1789 C   0  0  0  0  0  0  0  0  0  0  0  0
   -2.0207   -0.0380   -0.4510 C   0  0  2  0  0  0  0  0  0  0  0  0
   -2.2439   -1.0825    0.6557 C   0  0  0  0  0  0  0  0  0  0  0  0
   -0.6729   -0.3112   -1.1464 C   0  0  0  0  0  0  0  0  0  0  0  0
    0.4915    1.1852    0.5193 C   0  0  0  0  0  0  0  0  0  0  0  0
    4.1318    0.3361   -3.1745 H   0  0  0  0  0  0  0  0  0  0  0  0
    1.5908    0.2722   -2.7117 H   0  0  0  0  0  0  0  0  0  0  0  0
    2.4257    1.3450   -1.5173 H   0  0  0  0  0  0  0  0  0  0  0  0
    1.7883   -1.5078   -1.0960 H   0  0  0  0  0  0  0  0  0  0  0  0
    2.5289   -0.5562   -0.0366 H   0  0  0  0  0  0  0  0  0  0  0  0
    1.0440   -1.2375    1.7319 H   0  0  0  0  0  0  0  0  0  0  0  0
    0.2313   -2.2819    0.5693 H   0  0  0  0  0  0  0  0  0  0  0  0
   -1.2749   -1.7493    2.4782 H   0  0  0  0  0  0  0  0  0  0  0  0
   -0.2922    0.4691    3.0659 H   0  0  0  0  0  0  0  0  0  0  0  0
   -2.0331    0.6037    2.8287 H   0  0  0  0  0  0  0  0  0  0  0  0
   -0.8432    2.4601    1.6621 H   0  0  0  0  0  0  0  0  0  0  0  0
   -1.8462    2.1237   -0.6016 H   0  0  0  0  0  0  0  0  0  0  0  0
   -2.9525    1.5821    0.6583 H   0  0  0  0  0  0  0  0  0  0  0  0
   -2.8329   -0.0967   -1.1842 H   0  0  0  0  0  0  0  0  0  0  0  0
   -3.2111   -0.9101    1.1436 H   0  0  0  0  0  0  0  0  0  0  0  0
   -2.2821   -2.0881    0.2192 H   0  0  0  0  0  0  0  0  0  0  0  0
   -0.6903   -1.3031   -1.6155 H   0  0  0  0  0  0  0  0  0  0  0  0
   -0.5365    0.4208   -1.9514 H   0  0  0  0  0  0  0  0  0  0  0  0
    1.3099    1.2673    1.2459 H   0  0  0  0  0  0  0  0  0  0  0  0
    0.6597    1.9579   -0.2403 H   0  0  0  0  0  0  0  0  0  0  0  0
  1  2  2  0
  2  3  1  0
  3  4  1  0
  5  4  1  6
  5  6  1  0
  6  7  1  0
  7  8  1  0
  8  9  1  0
  9 10  1  0
 10 11  1  0
 11 12  1  0
 11 13  1  0
  9 14  1  0
 13  5  1  0
 14  5  1  0
 12  7  1  0
  2 15  1  0
  3 16  1  0
  3 17  1  0
  4 18  1  0
  4 19  1  0
  6 20  1  0
  6 21  1  0
  7 22  1  1
  8 23  1  0
  8 24  1  0
  9 25  1  1
 10 26  1  0
 10 27  1  0
 11 28  1  6
 12 29  1  0
 12 30  1  0
 13 31  1  0
 13 32  1  0
 14 33  1  0
 14 34  1  0
M  CHG  1   4   1
M  END
>  <_SMILES>  (28) 
O=CC[NH2+][C@]12C[C@H]3C[C@H](C[C@H](C3)C1)C2

$$$$

     RDKit          3D

 34 36  0  0  0  0  0  0  0  0999 V2000
    4.9743   -0.5217    0.8598 C   0  0  0  0  0  0  0  0  0  0  0  0
    3.9163   -0.2895   -0.0706 O   0  0  0  0  0  0  0  0  0  0  0  0
    2.6821   -0.2850    0.4916 C   0  0  0  0  0  0  0  0  0  0  0  0
    2.4508   -0.4588    1.6771 O   0  0  0  0  0  0  0  0  0  0  0  0
    1.7635   -0.0560   -0.4854 N   0  0  0  0  0  0  0  0  0  0  0  0
    0.3168    0.0260   -0.3007 C   0  0  2  0  0  0  0  0  0  0  0  0
   -0.0717    1.1833    0.6529 C   0  0  0  0  0  0  0  0  0  0  0  0
   -1.6012    1.2784    0.7939 C   0  0  1  0  0  0  0  0  0  0  0  0
   -2.2232    1.5423   -0.5865 C   0  0  0  0  0  0  0  0  0  0  0  0
   -1.8710    0.3969   -1.5485 C   0  0  2  0  0  0  0  0  0  0  0  0
   -2.4141   -0.9259   -0.9855 C   0  0  0  0  0  0  0  0  0  0  0  0
   -1.7931   -1.2040    0.3925 C   0  0  2  0  0  0  0  0  0  0  0  0
   -2.1420   -0.0505    1.3484 C   0  0  0  0  0  0  0  0  0  0  0  0
   -0.2637   -1.2998    0.2514 C   0  0  0  0  0  0  0  0  0  0  0  0
   -0.3426    0.2997   -1.6786 C   0  0  0  0  0  0  0  0  0  0  0  0
    5.0016    0.2694    1.6158 H   0  0  0  0  0  0  0  0  0  0  0  0
    4.8645   -1.5045    1.3290 H   0  0  0  0  0  0  0  0  0  0  0  0
    5.9189   -0.5057    0.3090 H   0  0  0  0  0  0  0  0  0  0  0  0
    2.1588    0.0626   -1.4079 H   0  0  0  0  0  0  0  0  0  0  0  0
    0.3284    2.1336    0.2757 H   0  0  0  0  0  0  0  0  0  0  0  0
    0.3707    1.0368    1.6455 H   0  0  0  0  0  0  0  0  0  0  0  0
   -1.8583    2.0957    1.4769 H   0  0  0  0  0  0  0  0  0  0  0  0
   -3.3126    1.6338   -0.4954 H   0  0  0  0  0  0  0  0  0  0  0  0
   -1.8561    2.4952   -0.9872 H   0  0  0  0  0  0  0  0  0  0  0  0
   -2.3147    0.5901   -2.5315 H   0  0  0  0  0  0  0  0  0  0  0  0
   -3.5067   -0.8770   -0.9013 H   0  0  0  0  0  0  0  0  0  0  0  0
   -2.1843   -1.7489   -1.6733 H   0  0  0  0  0  0  0  0  0  0  0  0
   -2.1863   -2.1459    0.7911 H   0  0  0  0  0  0  0  0  0  0  0  0
   -1.7158   -0.2438    2.3405 H   0  0  0  0  0  0  0  0  0  0  0  0
   -3.2297    0.0129    1.4762 H   0  0  0  0  0  0  0  0  0  0  0  0
    0.1715   -1.5397    1.2290 H   0  0  0  0  0  0  0  0  0  0  0  0
   -0.0015   -2.1328   -0.4140 H   0  0  0  0  0  0  0  0  0  0  0  0
   -0.0817   -0.4980   -2.3870 H   0  0  0  0  0  0  0  0  0  0  0  0
    0.0520    1.2307   -2.1076 H   0  0  0  0  0  0  0  0  0  0  0  0
  1  2  1  0
  2  3  1  0
  3  4  2  0
  3  5  1  0
  6  5  1  6
  6  7  1  0
  7  8  1  0
  8  9  1  0
  9 10  1  0
 10 11  1  0
 11 12  1  0
 12 13  1  0
 12 14  1  0
 10 15  1  0
 14  6  1  0
 15  6  1  0
 13  8  1  0
  1 16  1  0
  1 17  1  0
  1 18  1  0
  5 19  1  0
  7 20  1  0
  7 21  1  0
  8 22  1  1
  9 23  1  0
  9 24  1  0
 10 25  1  6
 11 26  1  0
 11 27  1  0
 12 28  1  1
 13 29  1  0
 13 30  1  0
 14 31  1  0
 14 32  1  0
 15 33  1  0
 15 34  1  0
M  END
>  <_SMILES>  (29) 
COC(=O)N[C@]12C[C@H]3C[C@H](C[C@H](C3)C1)C2

$$$$

     RDKit          3D

 31 33  0  0  0  0  0  0  0  0999 V2000
    4.9122    0.1018   -0.9327 C   0  0  0  0  0  0  0  0  0  0  0  0
    3.8919   -0.1162   -0.0932 C   0  0  0  0  0  0  0  0  0  0  0  0
    2.4958    0.1791   -0.5102 C   0  0  0  0  0  0  0  0  0  0  0  0
    2.2248    0.6510   -1.6055 O   0  0  0  0  0  0  0  0  0  0  0  0
    1.5769   -0.1417    0.4596 N   0  0  0  0  0  0  0  0  0  0  0  0
    0.1444   -0.0211    0.2669 C   0  0  2  0  0  0  0  0  0  0  0  0
   -0.4186   -1.0017   -0.8171 C   0  0  0  0  0  0  0  0  0  0  0  0
   -1.9640   -0.8774   -0.9575 C   0  0  2  0  0  0  0  0  0  0  0  0
   -2.3424    0.5835   -1.2099 C   0  0  0  0  0  0  0  0  0  0  0  0
   -1.8596    1.2386    0.0927 C   0  0  2  0  0  0  0  0  0  0  0  0
   -0.3377    1.4111   -0.0219 C   0  0  0  0  0  0  0  0  0  0  0  0
   -2.0463    0.1239    1.1797 C   0  0  1  0  0  0  0  0  0  0  0  0
   -2.6248   -1.0701    0.4083 C   0  0  0  0  0  0  0  0  0  0  0  0
   -0.6156   -0.2510    1.5868 C   0  0  0  0  0  0  0  0  0  0  0  0
    4.7486    0.4952   -1.9329 H   0  0  0  0  0  0  0  0  0  0  0  0
    5.9339   -0.1076   -0.6363 H   0  0  0  0  0  0  0  0  0  0  0  0
    4.0697   -0.5051    0.9006 H   0  0  0  0  0  0  0  0  0  0  0  0
    1.8965   -0.6097    1.2959 H   0  0  0  0  0  0  0  0  0  0  0  0
    0.0430   -0.7973   -1.7903 H   0  0  0  0  0  0  0  0  0  0  0  0
   -0.1580   -2.0338   -0.5505 H   0  0  0  0  0  0  0  0  0  0  0  0
   -2.3585   -1.5557   -1.7186 H   0  0  0  0  0  0  0  0  0  0  0  0
   -3.4281    0.6947   -1.3183 H   0  0  0  0  0  0  0  0  0  0  0  0
   -1.8695    0.9964   -2.1067 H   0  0  0  0  0  0  0  0  0  0  0  0
   -2.3765    2.1760    0.3121 H   0  0  0  0  0  0  0  0  0  0  0  0
   -0.0260    1.7889   -1.0008 H   0  0  0  0  0  0  0  0  0  0  0  0
    0.0314    2.1157    0.7344 H   0  0  0  0  0  0  0  0  0  0  0  0
   -2.6652    0.4195    2.0302 H   0  0  0  0  0  0  0  0  0  0  0  0
   -2.3889   -2.0379    0.8622 H   0  0  0  0  0  0  0  0  0  0  0  0
   -3.7159   -0.9890    0.3322 H   0  0  0  0  0  0  0  0  0  0  0  0
   -0.5223   -1.2773    1.9589 H   0  0  0  0  0  0  0  0  0  0  0  0
   -0.2514    0.4173    2.3780 H   0  0  0  0  0  0  0  0  0  0  0  0
  1  2  2  0
  2  3  1  0
  3  4  2  0
  3  5  1  0
  6  5  1  1
  6  7  1  0
  7  8  1  0
  8  9  1  0
  9 10  1  0
 10 11  1  0
 10 12  1  0
 12 13  1  0
 12 14  1  0
 11  6  1  0
 14  6  1  0
 13  8  1  0
  1 15  1  0
  1 16  1  0
  2 17  1  0
  5 18  1  0
  7 19  1  0
  7 20  1  0
  8 21  1  6
  9 22  1  0
  9 23  1  0
 10 24  1  1
 11 25  1  0
 11 26  1  0
 12 27  1  1
 13 28  1  0
 13 29  1  0
 14 30  1  0
 14 31  1  0
M  END
>  <_SMILES>  (30) 
C=CC(=O)N[C@]12C[C@@H]3C[C@H](C1)[C@@H](C3)C2

$$$$

     RDKit          3D

 37 39  0  0  0  0  0  0  0  0999 V2000
    5.1835   -0.0422   -0.5652 C   0  0  0  0  0  0  0  0  0  0  0  0
    4.5584    0.4203    0.7378 C   0  0  0  0  0  0  0  0  0  0  0  0
    3.2855    1.0333    0.4870 O   0  0  0  0  0  0  0  0  0  0  0  0
    2.2261    0.1885    0.4331 C   0  0  0  0  0  0  0  0  0  0  0  0
    2.2821   -1.0222    0.5734 O   0  0  0  0  0  0  0  0  0  0  0  0
    1.1048    0.9207    0.1929 N   0  0  0  0  0  0  0  0  0  0  0  0
   -0.2485    0.3923    0.0415 C   0  0  2  0  0  0  0  0  0  0  0  0
   -0.7229   -0.3389    1.3222 C   0  0  0  0  0  0  0  0  0  0  0  0
   -2.1666   -0.8445    1.1537 C   0  0  1  0  0  0  0  0  0  0  0  0
   -3.0963    0.3507    0.8914 C   0  0  0  0  0  0  0  0  0  0  0  0
   -2.6610    1.0833   -0.3874 C   0  0  2  0  0  0  0  0  0  0  0  0
   -2.7252    0.1126   -1.5771 C   0  0  0  0  0  0  0  0  0  0  0  0
   -1.7934   -1.0841   -1.3290 C   0  0  2  0  0  0  0  0  0  0  0  0
   -2.2288   -1.8081   -0.0436 C   0  0  0  0  0  0  0  0  0  0  0  0
   -0.3496   -0.5785   -1.1612 C   0  0  0  0  0  0  0  0  0  0  0  0
   -1.2156    1.5780   -0.2178 C   0  0  0  0  0  0  0  0  0  0  0  0
    4.5666   -0.8067   -1.0478 H   0  0  0  0  0  0  0  0  0  0  0  0
    6.1805   -0.4567   -0.3912 H   0  0  0  0  0  0  0  0  0  0  0  0
    5.2655    0.7921   -1.2695 H   0  0  0  0  0  0  0  0  0  0  0  0
    4.4714   -0.4028    1.4564 H   0  0  0  0  0  0  0  0  0  0  0  0
    5.1943    1.1827    1.1997 H   0  0  0  0  0  0  0  0  0  0  0  0
    1.2703    1.9124    0.0913 H   0  0  0  0  0  0  0  0  0  0  0  0
   -0.6618    0.3356    2.1864 H   0  0  0  0  0  0  0  0  0  0  0  0
   -0.0705   -1.1900    1.5509 H   0  0  0  0  0  0  0  0  0  0  0  0
   -2.4833   -1.3655    2.0642 H   0  0  0  0  0  0  0  0  0  0  0  0
   -4.1324    0.0048    0.7910 H   0  0  0  0  0  0  0  0  0  0  0  0
   -3.0719    1.0392    1.7450 H   0  0  0  0  0  0  0  0  0  0  0  0
   -3.3250    1.9356   -0.5694 H   0  0  0  0  0  0  0  0  0  0  0  0
   -2.4337    0.6298   -2.4995 H   0  0  0  0  0  0  0  0  0  0  0  0
   -3.7549   -0.2374   -1.7201 H   0  0  0  0  0  0  0  0  0  0  0  0
   -1.8458   -1.7748   -2.1780 H   0  0  0  0  0  0  0  0  0  0  0  0
   -1.5794   -2.6734    0.1375 H   0  0  0  0  0  0  0  0  0  0  0  0
   -3.2489   -2.1946   -0.1596 H   0  0  0  0  0  0  0  0  0  0  0  0
    0.3175   -1.4384   -1.0261 H   0  0  0  0  0  0  0  0  0  0  0  0
   -0.0206   -0.0763   -2.0804 H   0  0  0  0  0  0  0  0  0  0  0  0
   -1.1650    2.2949    0.6128 H   0  0  0  0  0  0  0  0  0  0  0  0
   -0.9055    2.1285   -1.1162 H   0  0  0  0  0  0  0  0  0  0  0  0
  1  2  1  0
  2  3  1  0
  3  4  1  0
  4  5  2  0
  4  6  1  0
  7  6  1  1
  7  8  1  0
  8  9  1  0
  9 10  1  0
 10 11  1  0
 11 12  1  0
 12 13  1  0
 13 14  1  0
 13 15  1  0
 11 16  1  0
 15  7  1  0
 16  7  1  0
 14  9  1  0
  1 17  1  0
  1 18  1  0
  1 19  1  0
  2 20  1  0
  2 21  1  0
  6 22  1  0
  8 23  1  0
  8 24  1  0
  9 25  1  1
 10 26  1  0
 10 27  1  0
 11 28  1  6
 12 29  1  0
 12 30  1  0
 13 31  1  6
 14 32  1  0
 14 33  1  0
 15 34  1  0
 15 35  1  0
 16 36  1  0
 16 37  1  0
M  END
>  <_SMILES>  (31) 
CCOC(=O)N[C@]12C[C@H]3C[C@H](C[C@H](C3)C1)C2

$$$$

     RDKit          3D

 34 36  0  0  0  0  0  0  0  0999 V2000
    5.0816    0.4486   -1.1757 C   0  0  0  0  0  0  0  0  0  0  0  0
    3.8886    0.8578   -0.7258 C   0  0  0  0  0  0  0  0  0  0  0  0
    2.8796   -0.1293   -0.2621 C   0  0  0  0  0  0  0  0  0  0  0  0
    3.0965   -1.3332   -0.2340 O   0  0  0  0  0  0  0  0  0  0  0  0
    1.6953    0.4588    0.1134 N   0  0  0  0  0  0  0  0  0  0  0  0
    0.5371   -0.3412    0.4883 C   0  0  1  0  0  0  0  0  0  0  0  0
   -0.4571    0.4528    1.3688 C   0  0  2  0  0  0  0  0  0  0  0  0
   -1.5526   -0.5180    1.8557 C   0  0  0  0  0  0  0  0  0  0  0  0
   -2.3020   -1.1192    0.6516 C   0  0  1  0  0  0  0  0  0  0  0  0
   -2.9517    0.0168   -0.1566 C   0  0  0  0  0  0  0  0  0  0  0  0
   -1.8715    0.9935   -0.6522 C   0  0  1  0  0  0  0  0  0  0  0  0
   -1.1308    1.5799    0.5605 C   0  0  0  0  0  0  0  0  0  0  0  0
   -0.8716    0.2351   -1.5412 C   0  0  0  0  0  0  0  0  0  0  0  0
   -0.2082   -0.9062   -0.7456 C   0  0  2  0  0  0  0  0  0  0  0  0
   -1.3059   -1.8691   -0.2513 C   0  0  0  0  0  0  0  0  0  0  0  0
    5.8259    1.1615   -1.5125 H   0  0  0  0  0  0  0  0  0  0  0  0
    5.3405   -0.6065   -1.2154 H   0  0  0  0  0  0  0  0  0  0  0  0
    3.6448    1.9112   -0.6876 H   0  0  0  0  0  0  0  0  0  0  0  0
    1.5647    1.4448   -0.0596 H   0  0  0  0  0  0  0  0  0  0  0  0
    0.9242   -1.1851    1.0759 H   0  0  0  0  0  0  0  0  0  0  0  0
    0.0634    0.8838    2.2321 H   0  0  0  0  0  0  0  0  0  0  0  0
   -2.2576    0.0105    2.5092 H   0  0  0  0  0  0  0  0  0  0  0  0
   -1.1041   -1.3196    2.4554 H   0  0  0  0  0  0  0  0  0  0  0  0
   -3.0748   -1.8110    1.0047 H   0  0  0  0  0  0  0  0  0  0  0  0
   -3.5028   -0.3973   -1.0099 H   0  0  0  0  0  0  0  0  0  0  0  0
   -3.6817    0.5492    0.4654 H   0  0  0  0  0  0  0  0  0  0  0  0
   -2.3396    1.8008   -1.2263 H   0  0  0  0  0  0  0  0  0  0  0  0
   -1.8377    2.1228    1.2006 H   0  0  0  0  0  0  0  0  0  0  0  0
   -0.3896    2.3150    0.2275 H   0  0  0  0  0  0  0  0  0  0  0  0
   -1.3905   -0.1761   -2.4161 H   0  0  0  0  0  0  0  0  0  0  0  0
   -0.1109    0.9257   -1.9243 H   0  0  0  0  0  0  0  0  0  0  0  0
    0.4849   -1.4487   -1.3989 H   0  0  0  0  0  0  0  0  0  0  0  0
   -1.8332   -2.3067   -1.1080 H   0  0  0  0  0  0  0  0  0  0  0  0
   -0.8533   -2.7016    0.3014 H   0  0  0  0  0  0  0  0  0  0  0  0
  1  2  2  0
  2  3  1  0
  3  4  2  0
  3  5  1  0
  5  6  1  0
  6  7  1  0
  7  8  1  0
  8  9  1  0
  9 10  1  0
 10 11  1  0
 11 12  1  0
 11 13  1  0
 13 14  1  0
 14 15  1  0
 14  6  1  0
 12  7  1  0
 15  9  1  0
  1 16  1  0
  1 17  1  0
  2 18  1  0
  5 19  1  0
  6 20  1  1
  7 21  1  1
  8 22  1  0
  8 23  1  0
  9 24  1  1
 10 25  1  0
 10 26  1  0
 11 27  1  6
 12 28  1  0
 12 29  1  0
 13 30  1  0
 13 31  1  0
 14 32  1  6
 15 33  1  0
 15 34  1  0
M  END
>  <_SMILES>  (32) 
C=CC(=O)N[C@H]1[C@@H]2C[C@H]3C[C@@H](C2)C[C@@H]1C3

$$$$

     RDKit          3D

 36 38  0  0  0  0  0  0  0  0999 V2000
    2.9834   -2.4966   -0.8981 C   0  0  0  0  0  0  0  0  0  0  0  0
    2.2445   -1.4298   -0.5538 C   0  0  0  0  0  0  0  0  0  0  0  0
    0.8878   -1.4244   -0.7953 N   0  0  0  0  0  0  0  0  0  0  0  0
   -0.1230   -0.4606   -0.3634 C   0  0  2  0  0  0  0  0  0  0  0  0
   -0.1891   -0.3574    1.1771 C   0  0  0  0  0  0  0  0  0  0  0  0
   -1.3020    0.6188    1.6002 C   0  0  1  0  0  0  0  0  0  0  0  0
   -1.0220    2.0031    0.9894 C   0  0  0  0  0  0  0  0  0  0  0  0
   -0.9944    1.9111   -0.5465 C   0  0  2  0  0  0  0  0  0  0  0  0
   -2.3489    1.3861   -1.0475 C   0  0  0  0  0  0  0  0  0  0  0  0
   -2.6266   -0.0014   -0.4488 C   0  0  2  0  0  0  0  0  0  0  0  0
   -2.6544    0.1020    1.0843 C   0  0  0  0  0  0  0  0  0  0  0  0
   -1.5044   -0.9645   -0.8682 C   0  0  0  0  0  0  0  0  0  0  0  0
    0.1194    0.9384   -0.9756 C   0  0  0  0  0  0  0  0  0  0  0  0
    2.7482   -0.2992    0.0414 O   0  0  0  0  0  0  0  0  0  0  0  0
    4.1418   -0.2231    0.3037 C   0  0  0  0  0  0  0  0  0  0  0  0
    2.5290   -3.3598   -1.3718 H   0  0  0  0  0  0  0  0  0  0  0  0
    4.0508   -2.5577   -0.7343 H   0  0  0  0  0  0  0  0  0  0  0  0
    0.5222   -2.3216   -1.0973 H   0  0  0  0  0  0  0  0  0  0  0  0
    0.7643   -0.0088    1.5908 H   0  0  0  0  0  0  0  0  0  0  0  0
   -0.3717   -1.3464    1.6175 H   0  0  0  0  0  0  0  0  0  0  0  0
   -1.3290    0.6954    2.6930 H   0  0  0  0  0  0  0  0  0  0  0  0
   -0.0638    2.3888    1.3589 H   0  0  0  0  0  0  0  0  0  0  0  0
   -1.7948    2.7141    1.3066 H   0  0  0  0  0  0  0  0  0  0  0  0
   -0.8026    2.9021   -0.9728 H   0  0  0  0  0  0  0  0  0  0  0  0
   -2.3468    1.3286   -2.1429 H   0  0  0  0  0  0  0  0  0  0  0  0
   -3.1483    2.0827   -0.7667 H   0  0  0  0  0  0  0  0  0  0  0  0
   -3.5905   -0.3748   -0.8120 H   0  0  0  0  0  0  0  0  0  0  0  0
   -2.8725   -0.8797    1.5226 H   0  0  0  0  0  0  0  0  0  0  0  0
   -3.4591    0.7774    1.3999 H   0  0  0  0  0  0  0  0  0  0  0  0
   -1.4934   -1.0672   -1.9617 H   0  0  0  0  0  0  0  0  0  0  0  0
   -1.7119   -1.9665   -0.4687 H   0  0  0  0  0  0  0  0  0  0  0  0
    1.0838    1.3508   -0.6597 H   0  0  0  0  0  0  0  0  0  0  0  0
    0.1579    0.8727   -2.0709 H   0  0  0  0  0  0  0  0  0  0  0  0
    4.3435    0.7468    0.7682 H   0  0  0  0  0  0  0  0  0  0  0  0
    4.7204   -0.2769   -0.6242 H   0  0  0  0  0  0  0  0  0  0  0  0
    4.4524   -1.0022    1.0073 H   0  0  0  0  0  0  0  0  0  0  0  0
  1  2  2  0
  2  3  1  0
  4  3  1  1
  4  5  1  0
  5  6  1  0
  6  7  1  0
  7  8  1  0
  8  9  1  0
  9 10  1  0
 10 11  1  0
 10 12  1  0
  8 13  1  0
  2 14  1  0
 14 15  1  0
 12  4  1  0
 13  4  1  0
 11  6  1  0
  1 16  1  0
  1 17  1  0
  3 18  1  0
  5 19  1  0
  5 20  1  0
  6 21  1  1
  7 22  1  0
  7 23  1  0
  8 24  1  6
  9 25  1  0
  9 26  1  0
 10 27  1  6
 11 28  1  0
 11 29  1  0
 12 30  1  0
 12 31  1  0
 13 32  1  0
 13 33  1  0
 15 34  1  0
 15 35  1  0
 15 36  1  0
M  END
>  <_SMILES>  (33) 
C=C(N[C@]12C[C@H]3C[C@H](C[C@H](C3)C1)C2)OC

$$$$

     RDKit          3D

 36 38  0  0  0  0  0  0  0  0999 V2000
    4.1885    0.5917   -1.2129 C   0  0  0  0  0  0  0  0  0  0  0  0
    3.9347   -0.1169    0.0056 O   0  0  0  0  0  0  0  0  0  0  0  0
    2.6257   -0.2685    0.3581 C   0  0  0  0  0  0  0  0  0  0  0  0
    2.5429   -1.0370    1.6403 C   0  0  0  0  0  0  0  0  0  0  0  0
    1.6890    0.1816   -0.3853 N   0  0  0  0  0  0  0  0  0  0  0  0
    0.2499    0.0919   -0.1683 C   0  0  2  0  0  0  0  0  0  0  0  0
   -0.2533   -1.3468    0.0619 C   0  0  0  0  0  0  0  0  0  0  0  0
   -1.7891   -1.3622    0.1795 C   0  0  1  0  0  0  0  0  0  0  0  0
   -2.2150   -0.4500    1.3444 C   0  0  0  0  0  0  0  0  0  0  0  0
   -1.7496    0.9947    1.0886 C   0  0  2  0  0  0  0  0  0  0  0  0
   -2.3681    1.4994   -0.2249 C   0  0  0  0  0  0  0  0  0  0  0  0
   -1.9310    0.5973   -1.3895 C   0  0  2  0  0  0  0  0  0  0  0  0
   -2.4062   -0.8394   -1.1265 C   0  0  0  0  0  0  0  0  0  0  0  0
   -0.3975    0.6082   -1.4861 C   0  0  0  0  0  0  0  0  0  0  0  0
   -0.2143    1.0231    0.9701 C   0  0  0  0  0  0  0  0  0  0  0  0
    5.2720    0.6440   -1.3512 H   0  0  0  0  0  0  0  0  0  0  0  0
    3.7989    1.6126   -1.1520 H   0  0  0  0  0  0  0  0  0  0  0  0
    3.7574    0.0560   -2.0643 H   0  0  0  0  0  0  0  0  0  0  0  0
    2.4131   -2.0990    1.4160 H   0  0  0  0  0  0  0  0  0  0  0  0
    1.7272   -0.6888    2.2712 H   0  0  0  0  0  0  0  0  0  0  0  0
    3.4682   -0.9164    2.2130 H   0  0  0  0  0  0  0  0  0  0  0  0
    0.0698   -2.0006   -0.7584 H   0  0  0  0  0  0  0  0  0  0  0  0
    0.1591   -1.7756    0.9789 H   0  0  0  0  0  0  0  0  0  0  0  0
   -2.1338   -2.3855    0.3663 H   0  0  0  0  0  0  0  0  0  0  0  0
   -1.7885   -0.8196    2.2851 H   0  0  0  0  0  0  0  0  0  0  0  0
   -3.3058   -0.4756    1.4578 H   0  0  0  0  0  0  0  0  0  0  0  0
   -2.0672    1.6382    1.9167 H   0  0  0  0  0  0  0  0  0  0  0  0
   -3.4622    1.5072   -0.1461 H   0  0  0  0  0  0  0  0  0  0  0  0
   -2.0551    2.5337   -0.4136 H   0  0  0  0  0  0  0  0  0  0  0  0
   -2.3649    0.9653   -2.3259 H   0  0  0  0  0  0  0  0  0  0  0  0
   -2.1196   -1.4887   -1.9629 H   0  0  0  0  0  0  0  0  0  0  0  0
   -3.5008   -0.8672   -1.0622 H   0  0  0  0  0  0  0  0  0  0  0  0
   -0.0744   -0.0124   -2.3329 H   0  0  0  0  0  0  0  0  0  0  0  0
   -0.0482    1.6265   -1.7049 H   0  0  0  0  0  0  0  0  0  0  0  0
    0.2204    0.7290    1.9296 H   0  0  0  0  0  0  0  0  0  0  0  0
    0.1277    2.0499    0.7850 H   0  0  0  0  0  0  0  0  0  0  0  0
  1  2  1  0
  2  3  1  0
  3  4  1  0
  3  5  2  0
  6  5  1  6
  6  7  1  0
  7  8  1  0
  8  9  1  0
  9 10  1  0
 10 11  1  0
 11 12  1  0
 12 13  1  0
 12 14  1  0
 10 15  1  0
 14  6  1  0
 15  6  1  0
 13  8  1  0
  1 16  1  0
  1 17  1  0
  1 18  1  0
  4 19  1  0
  4 20  1  0
  4 21  1  0
  7 22  1  0
  7 23  1  0
  8 24  1  1
  9 25  1  0
  9 26  1  0
 10 27  1  1
 11 28  1  0
 11 29  1  0
 12 30  1  6
 13 31  1  0
 13 32  1  0
 14 33  1  0
 14 34  1  0
 15 35  1  0
 15 36  1  0
M  END
>  <_SMILES>  (34) 
CO/C(C)=N/[C@]12C[C@H]3C[C@H](C[C@H](C3)C1)C2

$$$$

     RDKit          3D

 36 38  0  0  0  0  0  0  0  0999 V2000
    3.2518   -2.3548   -0.3834 C   0  0  0  0  0  0  0  0  0  0  0  0
    2.2047   -1.4083   -0.1337 O   0  0  0  0  0  0  0  0  0  0  0  0
    2.4068   -0.3386    0.6584 C   0  0  0  0  0  0  0  0  0  0  0  0
    3.7613   -0.1574    1.2784 C   0  0  0  0  0  0  0  0  0  0  0  0
    1.4894    0.5237    0.8994 N   0  0  0  0  0  0  0  0  0  0  0  0
    0.1356    0.4396    0.3449 C   0  0  2  0  0  0  0  0  0  0  0  0
   -0.6177   -0.8219    0.8192 C   0  0  0  0  0  0  0  0  0  0  0  0
   -2.0636   -0.8074    0.2896 C   0  0  1  0  0  0  0  0  0  0  0  0
   -2.7931    0.4290    0.8385 C   0  0  0  0  0  0  0  0  0  0  0  0
   -2.0724    1.7074    0.3830 C   0  0  2  0  0  0  0  0  0  0  0  0
   -2.0605    1.7648   -1.1525 C   0  0  0  0  0  0  0  0  0  0  0  0
   -1.3253    0.5389   -1.7168 C   0  0  2  0  0  0  0  0  0  0  0  0
   -2.0401   -0.7415   -1.2482 C   0  0  0  0  0  0  0  0  0  0  0  0
    0.1239    0.5305   -1.1964 C   0  0  0  0  0  0  0  0  0  0  0  0
   -0.6240    1.6781    0.8963 C   0  0  0  0  0  0  0  0  0  0  0  0
    2.8519   -3.1258   -1.0479 H   0  0  0  0  0  0  0  0  0  0  0  0
    3.5658   -2.8340    0.5478 H   0  0  0  0  0  0  0  0  0  0  0  0
    4.0936   -1.8716   -0.8867 H   0  0  0  0  0  0  0  0  0  0  0  0
    4.5215   -0.0485    0.5010 H   0  0  0  0  0  0  0  0  0  0  0  0
    3.9969   -1.0050    1.9266 H   0  0  0  0  0  0  0  0  0  0  0  0
    3.7738    0.7494    1.8915 H   0  0  0  0  0  0  0  0  0  0  0  0
   -0.6191   -0.8743    1.9157 H   0  0  0  0  0  0  0  0  0  0  0  0
   -0.1266   -1.7365    0.4702 H   0  0  0  0  0  0  0  0  0  0  0  0
   -2.5836   -1.7161    0.6130 H   0  0  0  0  0  0  0  0  0  0  0  0
   -2.8280    0.3880    1.9341 H   0  0  0  0  0  0  0  0  0  0  0  0
   -3.8321    0.4384    0.4869 H   0  0  0  0  0  0  0  0  0  0  0  0
   -2.5901    2.5865    0.7824 H   0  0  0  0  0  0  0  0  0  0  0  0
   -1.5682    2.6852   -1.4897 H   0  0  0  0  0  0  0  0  0  0  0  0
   -3.0882    1.7949   -1.5348 H   0  0  0  0  0  0  0  0  0  0  0  0
   -1.3234    0.5818   -2.8117 H   0  0  0  0  0  0  0  0  0  0  0  0
   -1.5304   -1.6244   -1.6531 H   0  0  0  0  0  0  0  0  0  0  0  0
   -3.0655   -0.7594   -1.6375 H   0  0  0  0  0  0  0  0  0  0  0  0
    0.6480    1.4363   -1.5279 H   0  0  0  0  0  0  0  0  0  0  0  0
    0.6540   -0.3130   -1.6513 H   0  0  0  0  0  0  0  0  0  0  0  0
   -0.6199    1.6653    1.9946 H   0  0  0  0  0  0  0  0  0  0  0  0
   -0.1069    2.6008    0.6004 H   0  0  0  0  0  0  0  0  0  0  0  0
  1  2  1  0
  2  3  1  0
  3  4  1  0
  3  5  2  0
  6  5  1  1
  6  7  1  0
  7  8  1  0
  8  9  1  0
  9 10  1  0
 10 11  1  0
 11 12  1  0
 12 13  1  0
 12 14  1  0
 10 15  1  0
 14  6  1  0
 15  6  1  0
 13  8  1  0
  1 16  1  0
  1 17  1  0
  1 18  1  0
  4 19  1  0
  4 20  1  0
  4 21  1  0
  7 22  1  0
  7 23  1  0
  8 24  1  6
  9 25  1  0
  9 26  1  0
 10 27  1  1
 11 28  1  0
 11 29  1  0
 12 30  1  6
 13 31  1  0
 13 32  1  0
 14 33  1  0
 14 34  1  0
 15 35  1  0
 15 36  1  0
M  END
>  <_SMILES>  (35) 
CO/C(C)=N\[C@]12C[C@H]3C[C@H](C[C@H](C3)C1)C2

$$$$

     RDKit          3D

 39 41  0  0  0  0  0  0  0  0999 V2000
    5.6926   -1.0992   -0.5469 C   0  0  0  0  0  0  0  0  0  0  0  0
    4.3472   -0.5999   -1.0476 C   0  0  0  0  0  0  0  0  0  0  0  0
    3.2621   -0.7545    0.0145 C   0  0  0  0  0  0  0  0  0  0  0  0
    1.9088   -0.2610   -0.4662 C   0  0  0  0  0  0  0  0  0  0  0  0
    1.7204    0.2065   -1.5821 O   0  0  0  0  0  0  0  0  0  0  0  0
    0.9286   -0.4016    0.4954 N   0  0  0  0  0  0  0  0  0  0  0  0
   -0.4760   -0.0146    0.3260 C   0  0  2  0  0  0  0  0  0  0  0  0
   -0.6238    1.5035    0.0555 C   0  0  0  0  0  0  0  0  0  0  0  0
   -2.1085    1.8897   -0.0672 C   0  0  1  0  0  0  0  0  0  0  0  0
   -2.7451    1.0941   -1.2196 C   0  0  0  0  0  0  0  0  0  0  0  0
   -2.6378   -0.4155   -0.9437 C   0  0  2  0  0  0  0  0  0  0  0  0
   -3.3587   -0.7426    0.3734 C   0  0  0  0  0  0  0  0  0  0  0  0
   -2.7206    0.0431    1.5295 C   0  0  2  0  0  0  0  0  0  0  0  0
   -2.8325    1.5489    1.2447 C   0  0  0  0  0  0  0  0  0  0  0  0
   -1.2363   -0.3399    1.6406 C   0  0  0  0  0  0  0  0  0  0  0  0
   -1.1536   -0.8040   -0.8219 C   0  0  0  0  0  0  0  0  0  0  0  0
    6.0156   -0.5380    0.3357 H   0  0  0  0  0  0  0  0  0  0  0  0
    5.6432   -2.1599   -0.2810 H   0  0  0  0  0  0  0  0  0  0  0  0
    6.4545   -0.9789   -1.3234 H   0  0  0  0  0  0  0  0  0  0  0  0
    4.0684   -1.1556   -1.9508 H   0  0  0  0  0  0  0  0  0  0  0  0
    4.4379    0.4533   -1.3391 H   0  0  0  0  0  0  0  0  0  0  0  0
    3.1624   -1.8101    0.2938 H   0  0  0  0  0  0  0  0  0  0  0  0
    3.5353   -0.1860    0.9113 H   0  0  0  0  0  0  0  0  0  0  0  0
    1.2002   -0.8019    1.3842 H   0  0  0  0  0  0  0  0  0  0  0  0
   -0.1041    1.7905   -0.8662 H   0  0  0  0  0  0  0  0  0  0  0  0
   -0.1537    2.0783    0.8643 H   0  0  0  0  0  0  0  0  0  0  0  0
   -2.1947    2.9635   -0.2679 H   0  0  0  0  0  0  0  0  0  0  0  0
   -3.7983    1.3791   -1.3332 H   0  0  0  0  0  0  0  0  0  0  0  0
   -2.2454    1.3388   -2.1649 H   0  0  0  0  0  0  0  0  0  0  0  0
   -3.0990   -0.9749   -1.7654 H   0  0  0  0  0  0  0  0  0  0  0  0
   -4.4230   -0.4903    0.2910 H   0  0  0  0  0  0  0  0  0  0  0  0
   -3.3014   -1.8194    0.5748 H   0  0  0  0  0  0  0  0  0  0  0  0
   -3.2356   -0.1951    2.4669 H   0  0  0  0  0  0  0  0  0  0  0  0
   -3.8878    1.8403    1.1772 H   0  0  0  0  0  0  0  0  0  0  0  0
   -2.3966    2.1209    2.0731 H   0  0  0  0  0  0  0  0  0  0  0  0
   -0.7786    0.1953    2.4833 H   0  0  0  0  0  0  0  0  0  0  0  0
   -1.1471   -1.4096    1.8731 H   0  0  0  0  0  0  0  0  0  0  0  0
   -0.6554   -0.6102   -1.7790 H   0  0  0  0  0  0  0  0  0  0  0  0
   -1.0634   -1.8833   -0.6421 H   0  0  0  0  0  0  0  0  0  0  0  0
  1  2  1  0
  2  3  1  0
  3  4  1  0
  4  5  2  0
  4  6  1  0
  7  6  1  1
  7  8  1  0
  8  9  1  0
  9 10  1  0
 10 11  1  0
 11 12  1  0
 12 13  1  0
 13 14  1  0
 13 15  1  0
 11 16  1  0
 15  7  1  0
 16  7  1  0
 14  9  1  0
  1 17  1  0
  1 18  1  0
  1 19  1  0
  2 20  1  0
  2 21  1  0
  3 22  1  0
  3 23  1  0
  6 24  1  0
  8 25  1  0
  8 26  1  0
  9 27  1  6
 10 28  1  0
 10 29  1  0
 11 30  1  6
 12 31  1  0
 12 32  1  0
 13 33  1  1
 14 34  1  0
 14 35  1  0
 15 36  1  0
 15 37  1  0
 16 38  1  0
 16 39  1  0
M  END
>  <_SMILES>  (36) 
CCCC(=O)N[C@]12C[C@H]3C[C@H](C[C@H](C3)C1)C2

$$$$

     RDKit          3D

 42 44  0  0  0  0  0  0  0  0999 V2000
    5.8494   -0.5048    0.7523 C   0  0  0  0  0  0  0  0  0  0  0  0
    5.3626    0.2253   -0.4898 C   0  0  0  0  0  0  0  0  0  0  0  0
    3.9664    0.8306   -0.3336 C   0  0  0  0  0  0  0  0  0  0  0  0
    2.8687   -0.2175   -0.1566 C   0  0  0  0  0  0  0  0  0  0  0  0
    1.4815    0.4013   -0.1234 C   0  0  0  0  0  0  0  0  0  0  0  0
    1.2799    1.6070   -0.1953 O   0  0  0  0  0  0  0  0  0  0  0  0
    0.4876   -0.5484    0.0016 N   0  0  0  0  0  0  0  0  0  0  0  0
   -0.9485   -0.2578    0.0671 C   0  0  2  0  0  0  0  0  0  0  0  0
   -1.3007    0.6164    1.2966 C   0  0  0  0  0  0  0  0  0  0  0  0
   -2.8182    0.8629    1.3690 C   0  0  1  0  0  0  0  0  0  0  0  0
   -3.2784    1.5693    0.0823 C   0  0  0  0  0  0  0  0  0  0  0  0
   -2.9678    0.6932   -1.1433 C   0  0  2  0  0  0  0  0  0  0  0  0
   -3.6952   -0.6530   -1.0016 C   0  0  0  0  0  0  0  0  0  0  0  0
   -3.2322   -1.3671    0.2779 C   0  0  2  0  0  0  0  0  0  0  0  0
   -3.5464   -0.4844    1.4958 C   0  0  0  0  0  0  0  0  0  0  0  0
   -1.7151   -1.6016    0.2034 C   0  0  0  0  0  0  0  0  0  0  0  0
   -1.4504    0.4465   -1.2182 C   0  0  0  0  0  0  0  0  0  0  0  0
    6.8852   -0.8313    0.6140 H   0  0  0  0  0  0  0  0  0  0  0  0
    5.2469   -1.3946    0.9568 H   0  0  0  0  0  0  0  0  0  0  0  0
    5.8144    0.1473    1.6307 H   0  0  0  0  0  0  0  0  0  0  0  0
    6.0679    1.0333   -0.7177 H   0  0  0  0  0  0  0  0  0  0  0  0
    5.3788   -0.4598   -1.3454 H   0  0  0  0  0  0  0  0  0  0  0  0
    3.9572    1.5250    0.5158 H   0  0  0  0  0  0  0  0  0  0  0  0
    3.7511    1.4321   -1.2259 H   0  0  0  0  0  0  0  0  0  0  0  0
    3.0120   -0.7640    0.7820 H   0  0  0  0  0  0  0  0  0  0  0  0
    2.9033   -0.9354   -0.9844 H   0  0  0  0  0  0  0  0  0  0  0  0
    0.7726   -1.5175    0.0623 H   0  0  0  0  0  0  0  0  0  0  0  0
   -0.7849    1.5827    1.2517 H   0  0  0  0  0  0  0  0  0  0  0  0
   -0.9571    0.1278    2.2178 H   0  0  0  0  0  0  0  0  0  0  0  0
   -3.0487    1.4899    2.2375 H   0  0  0  0  0  0  0  0  0  0  0  0
   -2.7752    2.5393   -0.0131 H   0  0  0  0  0  0  0  0  0  0  0  0
   -4.3551    1.7730    0.1327 H   0  0  0  0  0  0  0  0  0  0  0  0
   -3.3042    1.2001   -2.0546 H   0  0  0  0  0  0  0  0  0  0  0  0
   -4.7797   -0.4917   -0.9694 H   0  0  0  0  0  0  0  0  0  0  0  0
   -3.4928   -1.2826   -1.8768 H   0  0  0  0  0  0  0  0  0  0  0  0
   -3.7510   -2.3274    0.3736 H   0  0  0  0  0  0  0  0  0  0  0  0
   -4.6284   -0.3201    1.5706 H   0  0  0  0  0  0  0  0  0  0  0  0
   -3.2371   -0.9926    2.4174 H   0  0  0  0  0  0  0  0  0  0  0  0
   -1.3796   -2.1378    1.1012 H   0  0  0  0  0  0  0  0  0  0  0  0
   -1.4836   -2.2558   -0.6479 H   0  0  0  0  0  0  0  0  0  0  0  0
   -1.2141   -0.1639   -2.0997 H   0  0  0  0  0  0  0  0  0  0  0  0
   -0.9409    1.4061   -1.3646 H   0  0  0  0  0  0  0  0  0  0  0  0
  1  2  1  0
  2  3  1  0
  3  4  1  0
  4  5  1  0
  5  6  2  0
  5  7  1  0
  8  7  1  6
  8  9  1  0
  9 10  1  0
 10 11  1  0
 11 12  1  0
 12 13  1  0
 13 14  1  0
 14 15  1  0
 14 16  1  0
 12 17  1  0
 16  8  1  0
 17  8  1  0
 15 10  1  0
  1 18  1  0
  1 19  1  0
  1 20  1  0
  2 21  1  0
  2 22  1  0
  3 23  1  0
  3 24  1  0
  4 25  1  0
  4 26  1  0
  7 27  1  0
  9 28  1  0
  9 29  1  0
 10 30  1  1
 11 31  1  0
 11 32  1  0
 12 33  1  6
 13 34  1  0
 13 35  1  0
 14 36  1  1
 15 37  1  0
 15 38  1  0
 16 39  1  0
 16 40  1  0
 17 41  1  0
 17 42  1  0
M  END
>  <_SMILES>  (37) 
CCCCC(=O)N[C@]12C[C@H]3C[C@H](C[C@H](C3)C1)C2

$$$$

     RDKit          3D

 37 40  0  0  0  0  0  0  0  0999 V2000
    2.1408   -1.7731    0.4089 O   0  0  0  0  0  0  0  0  0  0  0  0
    2.2948   -0.7349   -0.2149 C   0  0  0  0  0  0  0  0  0  0  0  0
    1.3165    0.1742   -0.5297 N   0  0  0  0  0  0  0  0  0  0  0  0
   -0.0910    0.0590   -0.1420 C   0  0  2  0  0  0  0  0  0  0  0  0
   -0.8546    1.2957   -0.6878 C   0  0  0  0  0  0  0  0  0  0  0  0
   -2.3437    1.2348   -0.3121 C   0  0  1  0  0  0  0  0  0  0  0  0
   -2.9618   -0.0399   -0.9072 C   0  0  0  0  0  0  0  0  0  0  0  0
   -2.2372   -1.2795   -0.3594 C   0  0  2  0  0  0  0  0  0  0  0  0
   -2.3657   -1.3063    1.1732 C   0  0  0  0  0  0  0  0  0  0  0  0
   -1.7487   -0.0339    1.7787 C   0  0  2  0  0  0  0  0  0  0  0  0
   -2.4761    1.1983    1.2184 C   0  0  0  0  0  0  0  0  0  0  0  0
   -0.2593    0.0374    1.3979 C   0  0  0  0  0  0  0  0  0  0  0  0
   -0.7481   -1.2090   -0.7418 C   0  0  0  0  0  0  0  0  0  0  0  0
    3.6369   -0.3710   -0.7384 C   0  0  0  0  0  0  0  0  0  0  0  0
    4.2616    0.9722   -0.4370 C   0  0  0  0  0  0  0  0  0  0  0  0
    4.8034   -0.2641    0.2165 C   0  0  0  0  0  0  0  0  0  0  0  0
    1.5967    0.9807   -1.0717 H   0  0  0  0  0  0  0  0  0  0  0  0
   -0.7508    1.3514   -1.7798 H   0  0  0  0  0  0  0  0  0  0  0  0
   -0.4105    2.2186   -0.2910 H   0  0  0  0  0  0  0  0  0  0  0  0
   -2.8614    2.1160   -0.7070 H   0  0  0  0  0  0  0  0  0  0  0  0
   -4.0293   -0.0897   -0.6596 H   0  0  0  0  0  0  0  0  0  0  0  0
   -2.8896   -0.0164   -2.0015 H   0  0  0  0  0  0  0  0  0  0  0  0
   -2.6842   -2.1856   -0.7835 H   0  0  0  0  0  0  0  0  0  0  0  0
   -1.8636   -2.1945    1.5759 H   0  0  0  0  0  0  0  0  0  0  0  0
   -3.4223   -1.3813    1.4583 H   0  0  0  0  0  0  0  0  0  0  0  0
   -1.8495   -0.0575    2.8696 H   0  0  0  0  0  0  0  0  0  0  0  0
   -3.5353    1.1698    1.5024 H   0  0  0  0  0  0  0  0  0  0  0  0
   -2.0544    2.1127    1.6535 H   0  0  0  0  0  0  0  0  0  0  0  0
    0.1970    0.9329    1.8399 H   0  0  0  0  0  0  0  0  0  0  0  0
    0.2627   -0.8210    1.8369 H   0  0  0  0  0  0  0  0  0  0  0  0
   -0.2454   -2.1163   -0.3864 H   0  0  0  0  0  0  0  0  0  0  0  0
   -0.6426   -1.2078   -1.8346 H   0  0  0  0  0  0  0  0  0  0  0  0
    3.8571   -0.8232   -1.7003 H   0  0  0  0  0  0  0  0  0  0  0  0
    4.8589    1.4384   -1.2119 H   0  0  0  0  0  0  0  0  0  0  0  0
    3.7263    1.6722    0.1949 H   0  0  0  0  0  0  0  0  0  0  0  0
    5.7620   -0.6450   -0.1158 H   0  0  0  0  0  0  0  0  0  0  0  0
    4.6106   -0.4144    1.2735 H   0  0  0  0  0  0  0  0  0  0  0  0
  1  2  2  0
  2  3  1  0
  4  3  1  1
  4  5  1  0
  5  6  1  0
  6  7  1  0
  7  8  1  0
  8  9  1  0
  9 10  1  0
 10 11  1  0
 10 12  1  0
  8 13  1  0
  2 14  1  0
 14 15  1  0
 15 16  1  0
 12  4  1  0
 16 14  1  0
 13  4  1  0
 11  6  1  0
  3 17  1  0
  5 18  1  0
  5 19  1  0
  6 20  1  6
  7 21  1  0
  7 22  1  0
  8 23  1  6
  9 24  1  0
  9 25  1  0
 10 26  1  1
 11 27  1  0
 11 28  1  0
 12 29  1  0
 12 30  1  0
 13 31  1  0
 13 32  1  0
 14 33  1  0
 15 34  1  0
 15 35  1  0
 16 36  1  0
 16 37  1  0
M  END
>  <_SMILES>  (38) 
O=C(N[C@]12C[C@H]3C[C@H](C[C@H](C3)C1)C2)C1CC1

$$$$

     RDKit          3D

 39 41  0  0  0  0  0  0  0  0999 V2000
   -4.0062   -0.7683   -0.5091 C   0  0  0  0  0  0  0  0  0  0  0  0
   -3.5270    0.3345    0.4331 C   0  0  0  0  0  0  0  0  0  0  0  0
   -4.4405    1.5542    0.3280 C   0  0  0  0  0  0  0  0  0  0  0  0
   -2.0758    0.7074    0.1296 C   0  0  0  0  0  0  0  0  0  0  0  0
   -1.7490    1.8027   -0.3130 O   0  0  0  0  0  0  0  0  0  0  0  0
   -1.1831   -0.3093    0.4047 N   0  0  0  0  0  0  0  0  0  0  0  0
    0.2716   -0.2162    0.2397 C   0  0  2  0  0  0  0  0  0  0  0  0
    0.8822    0.8721    1.1568 C   0  0  0  0  0  0  0  0  0  0  0  0
    2.4132    0.9117    1.0041 C   0  0  1  0  0  0  0  0  0  0  0  0
    2.9988   -0.4532    1.3988 C   0  0  0  0  0  0  0  0  0  0  0  0
    2.4264   -1.5525    0.4902 C   0  0  2  0  0  0  0  0  0  0  0  0
    2.7867   -1.2441   -0.9712 C   0  0  0  0  0  0  0  0  0  0  0  0
    2.1993    0.1157   -1.3799 C   0  0  2  0  0  0  0  0  0  0  0  0
    2.7686    1.2112   -0.4623 C   0  0  0  0  0  0  0  0  0  0  0  0
    0.6681    0.0749   -1.2298 C   0  0  0  0  0  0  0  0  0  0  0  0
    0.8967   -1.5815    0.6366 C   0  0  0  0  0  0  0  0  0  0  0  0
   -5.0529   -1.0227   -0.3122 H   0  0  0  0  0  0  0  0  0  0  0  0
   -3.9204   -0.4570   -1.5562 H   0  0  0  0  0  0  0  0  0  0  0  0
   -3.4152   -1.6823   -0.3900 H   0  0  0  0  0  0  0  0  0  0  0  0
   -3.5670   -0.0319    1.4667 H   0  0  0  0  0  0  0  0  0  0  0  0
   -4.4489    1.9617   -0.6890 H   0  0  0  0  0  0  0  0  0  0  0  0
   -4.1058    2.3505    1.0018 H   0  0  0  0  0  0  0  0  0  0  0  0
   -5.4694    1.2950    0.5988 H   0  0  0  0  0  0  0  0  0  0  0  0
   -1.5427   -1.1223    0.8875 H   0  0  0  0  0  0  0  0  0  0  0  0
    0.6162    0.6760    2.2038 H   0  0  0  0  0  0  0  0  0  0  0  0
    0.4734    1.8608    0.9169 H   0  0  0  0  0  0  0  0  0  0  0  0
    2.8280    1.6923    1.6516 H   0  0  0  0  0  0  0  0  0  0  0  0
    2.7637   -0.6730    2.4474 H   0  0  0  0  0  0  0  0  0  0  0  0
    4.0923   -0.4301    1.3158 H   0  0  0  0  0  0  0  0  0  0  0  0
    2.8443   -2.5239    0.7769 H   0  0  0  0  0  0  0  0  0  0  0  0
    2.3990   -2.0327   -1.6278 H   0  0  0  0  0  0  0  0  0  0  0  0
    3.8766   -1.2342   -1.0947 H   0  0  0  0  0  0  0  0  0  0  0  0
    2.4619    0.3328   -2.4214 H   0  0  0  0  0  0  0  0  0  0  0  0
    2.3670    2.1897   -0.7530 H   0  0  0  0  0  0  0  0  0  0  0  0
    3.8580    1.2670   -0.5787 H   0  0  0  0  0  0  0  0  0  0  0  0
    0.2475   -0.6924   -1.8930 H   0  0  0  0  0  0  0  0  0  0  0  0
    0.2541    1.0318   -1.5676 H   0  0  0  0  0  0  0  0  0  0  0  0
    0.6305   -1.8315    1.6725 H   0  0  0  0  0  0  0  0  0  0  0  0
    0.4798   -2.3830    0.0120 H   0  0  0  0  0  0  0  0  0  0  0  0
  1  2  1  0
  2  3  1  0
  2  4  1  0
  4  5  2  0
  4  6  1  0
  7  6  1  6
  7  8  1  0
  8  9  1  0
  9 10  1  0
 10 11  1  0
 11 12  1  0
 12 13  1  0
 13 14  1  0
 13 15  1  0
 11 16  1  0
 15  7  1  0
 16  7  1  0
 14  9  1  0
  1 17  1  0
  1 18  1  0
  1 19  1  0
  2 20  1  0
  3 21  1  0
  3 22  1  0
  3 23  1  0
  6 24  1  0
  8 25  1  0
  8 26  1  0
  9 27  1  1
 10 28  1  0
 10 29  1  0
 11 30  1  1
 12 31  1  0
 12 32  1  0
 13 33  1  6
 14 34  1  0
 14 35  1  0
 15 36  1  0
 15 37  1  0
 16 38  1  0
 16 39  1  0
M  END
>  <_SMILES>  (39) 
CC(C)C(=O)N[C@]12C[C@H]3C[C@H](C[C@H](C3)C1)C2

$$$$

     RDKit          3D

 45 47  0  0  0  0  0  0  0  0999 V2000
    5.5146    0.6028   -1.3999 C   0  0  0  0  0  0  0  0  0  0  0  0
    4.1452    0.3594   -2.0142 C   0  0  0  0  0  0  0  0  0  0  0  0
    3.6649   -1.0883   -1.8872 C   0  0  0  0  0  0  0  0  0  0  0  0
    3.5461   -1.6322   -0.4576 C   0  0  0  0  0  0  0  0  0  0  0  0
    2.6224   -0.8345    0.4624 C   0  0  0  0  0  0  0  0  0  0  0  0
    1.1550   -0.9153    0.0765 C   0  0  0  0  0  0  0  0  0  0  0  0
    0.7149   -1.7212   -0.7335 O   0  0  0  0  0  0  0  0  0  0  0  0
    0.3802   -0.0035    0.7647 N   0  0  0  0  0  0  0  0  0  0  0  0
   -1.0716    0.1442    0.6179 C   0  0  2  0  0  0  0  0  0  0  0  0
   -1.5456    1.2869    1.5570 C   0  0  0  0  0  0  0  0  0  0  0  0
   -3.0648    1.4943    1.4515 C   0  0  1  0  0  0  0  0  0  0  0  0
   -3.4247    1.8550    0.0019 C   0  0  0  0  0  0  0  0  0  0  0  0
   -2.9877    0.7252   -0.9436 C   0  0  2  0  0  0  0  0  0  0  0  0
   -3.6991   -0.5777   -0.5403 C   0  0  0  0  0  0  0  0  0  0  0  0
   -3.3448   -0.9477    0.9102 C   0  0  2  0  0  0  0  0  0  0  0  0
   -3.7796    0.1921    1.8447 C   0  0  0  0  0  0  0  0  0  0  0  0
   -1.8231   -1.1477    1.0249 C   0  0  0  0  0  0  0  0  0  0  0  0
   -1.4657    0.5271   -0.8307 C   0  0  0  0  0  0  0  0  0  0  0  0
    6.2588   -0.0848   -1.8139 H   0  0  0  0  0  0  0  0  0  0  0  0
    5.4946    0.4789   -0.3132 H   0  0  0  0  0  0  0  0  0  0  0  0
    5.8442    1.6253   -1.6104 H   0  0  0  0  0  0  0  0  0  0  0  0
    4.1928    0.6126   -3.0804 H   0  0  0  0  0  0  0  0  0  0  0  0
    3.4157    1.0447   -1.5692 H   0  0  0  0  0  0  0  0  0  0  0  0
    4.3543   -1.7373   -2.4423 H   0  0  0  0  0  0  0  0  0  0  0  0
    2.6967   -1.1753   -2.3938 H   0  0  0  0  0  0  0  0  0  0  0  0
    3.1975   -2.6712   -0.5130 H   0  0  0  0  0  0  0  0  0  0  0  0
    4.5433   -1.6724   -0.0036 H   0  0  0  0  0  0  0  0  0  0  0  0
    2.7053   -1.2424    1.4776 H   0  0  0  0  0  0  0  0  0  0  0  0
    2.9319    0.2146    0.5089 H   0  0  0  0  0  0  0  0  0  0  0  0
    0.8439    0.5854    1.4445 H   0  0  0  0  0  0  0  0  0  0  0  0
   -1.2755    1.0573    2.5965 H   0  0  0  0  0  0  0  0  0  0  0  0
   -1.0264    2.2215    1.3055 H   0  0  0  0  0  0  0  0  0  0  0  0
   -3.3754    2.3034    2.1219 H   0  0  0  0  0  0  0  0  0  0  0  0
   -2.9346    2.7938   -0.2839 H   0  0  0  0  0  0  0  0  0  0  0  0
   -4.5055    2.0206   -0.0860 H   0  0  0  0  0  0  0  0  0  0  0  0
   -3.2500    0.9854   -1.9752 H   0  0  0  0  0  0  0  0  0  0  0  0
   -3.4055   -1.3899   -1.2167 H   0  0  0  0  0  0  0  0  0  0  0  0
   -4.7848   -0.4570   -0.6405 H   0  0  0  0  0  0  0  0  0  0  0  0
   -3.8603   -1.8727    1.1919 H   0  0  0  0  0  0  0  0  0  0  0  0
   -3.5449   -0.0656    2.8848 H   0  0  0  0  0  0  0  0  0  0  0  0
   -4.8665    0.3293    1.7882 H   0  0  0  0  0  0  0  0  0  0  0  0
   -1.5260   -1.9909    0.3905 H   0  0  0  0  0  0  0  0  0  0  0  0
   -1.5597   -1.4294    2.0528 H   0  0  0  0  0  0  0  0  0  0  0  0
   -0.9457    1.4457   -1.1328 H   0  0  0  0  0  0  0  0  0  0  0  0
   -1.1546   -0.2483   -1.5405 H   0  0  0  0  0  0  0  0  0  0  0  0
  1  2  1  0
  2  3  1  0
  3  4  1  0
  4  5  1  0
  5  6  1  0
  6  7  2  0
  6  8  1  0
  9  8  1  6
  9 10  1  0
 10 11  1  0
 11 12  1  0
 12 13  1  0
 13 14  1  0
 14 15  1  0
 15 16  1  0
 15 17  1  0
 13 18  1  0
 17  9  1  0
 18  9  1  0
 16 11  1  0
  1 19  1  0
  1 20  1  0
  1 21  1  0
  2 22  1  0
  2 23  1  0
  3 24  1  0
  3 25  1  0
  4 26  1  0
  4 27  1  0
  5 28  1  0
  5 29  1  0
  8 30  1  0
 10 31  1  0
 10 32  1  0
 11 33  1  1
 12 34  1  0
 12 35  1  0
 13 36  1  6
 14 37  1  0
 14 38  1  0
 15 39  1  1
 16 40  1  0
 16 41  1  0
 17 42  1  0
 17 43  1  0
 18 44  1  0
 18 45  1  0
M  END
>  <_SMILES>  (40) 
CCCCCC(=O)N[C@]12C[C@H]3C[C@H](C[C@H](C3)C1)C2

$$$$

     RDKit          3D

 36 39  0  0  0  0  0  0  0  0999 V2000
    1.7157   -0.9573   -2.1066 O   0  0  0  0  0  0  0  0  0  0  0  0
    2.2115   -0.5676   -1.0540 C   0  0  0  0  0  0  0  0  0  0  0  0
    1.4501   -0.1194    0.0167 N   0  0  0  0  0  0  0  0  0  0  0  0
   -0.0115    0.0109   -0.0024 C   0  0  2  0  0  0  0  0  0  0  0  0
   -0.7145   -1.3452   -0.2666 C   0  0  0  0  0  0  0  0  0  0  0  0
   -2.2442   -1.1803   -0.2249 C   0  0  1  0  0  0  0  0  0  0  0  0
   -2.6635   -0.6725    1.1631 C   0  0  0  0  0  0  0  0  0  0  0  0
   -1.9971    0.6819    1.4480 C   0  0  2  0  0  0  0  0  0  0  0  0
   -2.4298    1.6976    0.3791 C   0  0  0  0  0  0  0  0  0  0  0  0
   -2.0101    1.2040   -1.0145 C   0  0  2  0  0  0  0  0  0  0  0  0
   -2.6718   -0.1569   -1.2909 C   0  0  0  0  0  0  0  0  0  0  0  0
   -0.4802    1.0425   -1.0579 C   0  0  0  0  0  0  0  0  0  0  0  0
   -0.4705    0.5133    1.3944 C   0  0  0  0  0  0  0  0  0  0  0  0
    3.6740   -0.5186   -0.8267 C   0  0  0  0  0  0  0  0  0  0  0  0
    4.3433   -0.5490    0.4539 C   0  0  0  0  0  0  0  0  0  0  0  0
    5.7126   -0.4902    0.3056 C   0  0  0  0  0  0  0  0  0  0  0  0
    6.0707   -0.4093   -1.3598 S   0  0  0  0  0  0  0  0  0  0  0  0
    4.5030   -0.4499   -1.8766 N   0  0  0  0  0  0  0  0  0  0  0  0
    1.9398    0.4105    0.7234 H   0  0  0  0  0  0  0  0  0  0  0  0
   -0.4320   -1.7544   -1.2430 H   0  0  0  0  0  0  0  0  0  0  0  0
   -0.3975   -2.0858    0.4794 H   0  0  0  0  0  0  0  0  0  0  0  0
   -2.7244   -2.1447   -0.4252 H   0  0  0  0  0  0  0  0  0  0  0  0
   -2.3767   -1.4010    1.9314 H   0  0  0  0  0  0  0  0  0  0  0  0
   -3.7547   -0.5714    1.2118 H   0  0  0  0  0  0  0  0  0  0  0  0
   -2.2956    1.0394    2.4399 H   0  0  0  0  0  0  0  0  0  0  0  0
   -1.9748    2.6745    0.5836 H   0  0  0  0  0  0  0  0  0  0  0  0
   -3.5170    1.8391    0.4149 H   0  0  0  0  0  0  0  0  0  0  0  0
   -2.3256    1.9290   -1.7731 H   0  0  0  0  0  0  0  0  0  0  0  0
   -2.3899   -0.5150   -2.2887 H   0  0  0  0  0  0  0  0  0  0  0  0
   -3.7634   -0.0489   -1.2882 H   0  0  0  0  0  0  0  0  0  0  0  0
   -0.1815    0.7338   -2.0666 H   0  0  0  0  0  0  0  0  0  0  0  0
    0.0028    2.0120   -0.8783 H   0  0  0  0  0  0  0  0  0  0  0  0
    0.0132    1.4713    1.6286 H   0  0  0  0  0  0  0  0  0  0  0  0
   -0.1472   -0.1905    2.1732 H   0  0  0  0  0  0  0  0  0  0  0  0
    3.8508   -0.6315    1.4132 H   0  0  0  0  0  0  0  0  0  0  0  0
    6.4862   -0.5004    1.0601 H   0  0  0  0  0  0  0  0  0  0  0  0
  1  2  2  0
  2  3  1  0
  4  3  1  1
  4  5  1  0
  5  6  1  0
  6  7  1  0
  7  8  1  0
  8  9  1  0
  9 10  1  0
 10 11  1  0
 10 12  1  0
  8 13  1  0
  2 14  1  0
 14 15  1  0
 15 16  2  0
 16 17  1  0
 17 18  1  0
 12  4  1  0
 18 14  2  0
 13  4  1  0
 11  6  1  0
  3 19  1  0
  5 20  1  0
  5 21  1  0
  6 22  1  6
  7 23  1  0
  7 24  1  0
  8 25  1  1
  9 26  1  0
  9 27  1  0
 10 28  1  6
 11 29  1  0
 11 30  1  0
 12 31  1  0
 12 32  1  0
 13 33  1  0
 13 34  1  0
 15 35  1  0
 16 36  1  0
M  END
>  <_SMILES>  (41) 
O=C(N[C@]12C[C@H]3C[C@H](C[C@H](C3)C1)C2)c1ccsn1

$$$$

     RDKit          3D

 37 40  0  0  0  0  0  0  0  0999 V2000
    1.9229    0.6429    1.6327 O   0  0  0  0  0  0  0  0  0  0  0  0
    2.1861    0.1275    0.5511 C   0  0  0  0  0  0  0  0  0  0  0  0
    1.2293   -0.2171   -0.3808 N   0  0  0  0  0  0  0  0  0  0  0  0
   -0.2140   -0.0301   -0.2369 C   0  0  2  0  0  0  0  0  0  0  0  0
   -0.5845    1.4653   -0.0765 C   0  0  0  0  0  0  0  0  0  0  0  0
   -2.1107    1.6375    0.0220 C   0  0  1  0  0  0  0  0  0  0  0  0
   -2.7665    1.1000   -1.2596 C   0  0  0  0  0  0  0  0  0  0  0  0
   -2.4329   -0.3897   -1.4344 C   0  0  2  0  0  0  0  0  0  0  0  0
   -2.9577   -1.1748   -0.2222 C   0  0  0  0  0  0  0  0  0  0  0  0
   -2.3030   -0.6507    1.0656 C   0  0  2  0  0  0  0  0  0  0  0  0
   -2.6328    0.8426    1.2310 C   0  0  0  0  0  0  0  0  0  0  0  0
   -0.7770   -0.8245    0.9678 C   0  0  0  0  0  0  0  0  0  0  0  0
   -0.9077   -0.5578   -1.5218 C   0  0  0  0  0  0  0  0  0  0  0  0
    3.5390   -0.1785    0.1295 C   0  0  0  0  0  0  0  0  0  0  0  0
    4.7529    0.0085    0.7633 C   0  0  0  0  0  0  0  0  0  0  0  0
    5.7518   -0.4757   -0.1144 C   0  0  0  0  0  0  0  0  0  0  0  0
    5.0917   -0.9296   -1.2314 C   0  0  0  0  0  0  0  0  0  0  0  0
    3.7514   -0.7561   -1.0980 O   0  0  0  0  0  0  0  0  0  0  0  0
    1.5861   -0.6358   -1.2333 H   0  0  0  0  0  0  0  0  0  0  0  0
   -0.1192    1.8904    0.8206 H   0  0  0  0  0  0  0  0  0  0  0  0
   -0.1974    2.0432   -0.9259 H   0  0  0  0  0  0  0  0  0  0  0  0
   -2.3548    2.6987    0.1442 H   0  0  0  0  0  0  0  0  0  0  0  0
   -3.8537    1.2375   -1.2104 H   0  0  0  0  0  0  0  0  0  0  0  0
   -2.4127    1.6683   -2.1286 H   0  0  0  0  0  0  0  0  0  0  0  0
   -2.9001   -0.7682   -2.3504 H   0  0  0  0  0  0  0  0  0  0  0  0
   -4.0482   -1.0763   -0.1553 H   0  0  0  0  0  0  0  0  0  0  0  0
   -2.7415   -2.2432   -0.3448 H   0  0  0  0  0  0  0  0  0  0  0  0
   -2.6834   -1.2108    1.9271 H   0  0  0  0  0  0  0  0  0  0  0  0
   -2.1820    1.2260    2.1547 H   0  0  0  0  0  0  0  0  0  0  0  0
   -3.7173    0.9773    1.3266 H   0  0  0  0  0  0  0  0  0  0  0  0
   -0.3193   -0.4901    1.9063 H   0  0  0  0  0  0  0  0  0  0  0  0
   -0.5279   -1.8891    0.8674 H   0  0  0  0  0  0  0  0  0  0  0  0
   -0.5267   -0.0236   -2.4026 H   0  0  0  0  0  0  0  0  0  0  0  0
   -0.6606   -1.6168   -1.6761 H   0  0  0  0  0  0  0  0  0  0  0  0
    4.8848    0.4449    1.7445 H   0  0  0  0  0  0  0  0  0  0  0  0
    6.8206   -0.4920    0.0470 H   0  0  0  0  0  0  0  0  0  0  0  0
    5.4152   -1.3802   -2.1597 H   0  0  0  0  0  0  0  0  0  0  0  0
  1  2  2  0
  2  3  1  0
  4  3  1  6
  4  5  1  0
  5  6  1  0
  6  7  1  0
  7  8  1  0
  8  9  1  0
  9 10  1  0
 10 11  1  0
 10 12  1  0
  8 13  1  0
  2 14  1  0
 14 15  2  0
 15 16  1  0
 16 17  2  0
 17 18  1  0
 12  4  1  0
 18 14  1  0
 13  4  1  0
 11  6  1  0
  3 19  1  0
  5 20  1  0
  5 21  1  0
  6 22  1  1
  7 23  1  0
  7 24  1  0
  8 25  1  6
  9 26  1  0
  9 27  1  0
 10 28  1  1
 11 29  1  0
 11 30  1  0
 12 31  1  0
 12 32  1  0
 13 33  1  0
 13 34  1  0
 15 35  1  0
 16 36  1  0
 17 37  1  0
M  END
>  <_SMILES>  (42) 
O=C(N[C@]12C[C@H]3C[C@H](C[C@H](C3)C1)C2)c1ccco1

$$$$

     RDKit          3D

 36 39  0  0  0  0  0  0  0  0999 V2000
    1.7166   -2.2114   -0.2137 O   0  0  0  0  0  0  0  0  0  0  0  0
    2.1715   -1.0727   -0.1390 C   0  0  0  0  0  0  0  0  0  0  0  0
    1.3694    0.0558   -0.1355 N   0  0  0  0  0  0  0  0  0  0  0  0
   -0.0898    0.0777   -0.2168 C   0  0  2  0  0  0  0  0  0  0  0  0
   -0.5611    1.5564   -0.1796 C   0  0  0  0  0  0  0  0  0  0  0  0
   -2.0930    1.6496   -0.2619 C   0  0  1  0  0  0  0  0  0  0  0  0
   -2.5674    1.0042   -1.5733 C   0  0  0  0  0  0  0  0  0  0  0  0
   -2.1335   -0.4693   -1.6198 C   0  0  2  0  0  0  0  0  0  0  0  0
   -2.7450   -1.2162   -0.4221 C   0  0  0  0  0  0  0  0  0  0  0  0
   -2.2753   -0.5777    0.8961 C   0  0  2  0  0  0  0  0  0  0  0  0
   -2.7083    0.8964    0.9279 C   0  0  0  0  0  0  0  0  0  0  0  0
   -0.7407   -0.6593    0.9799 C   0  0  0  0  0  0  0  0  0  0  0  0
   -0.5989   -0.5508   -1.5377 C   0  0  0  0  0  0  0  0  0  0  0  0
    3.5952   -0.7498   -0.0448 C   0  0  0  0  0  0  0  0  0  0  0  0
    4.0431    0.4937    0.0340 N   0  0  0  0  0  0  0  0  0  0  0  0
    5.4228    0.4744    0.1110 C   0  0  0  0  0  0  0  0  0  0  0  0
    6.0050   -0.7748    0.0899 C   0  0  0  0  0  0  0  0  0  0  0  0
    4.7900   -1.9786   -0.0305 S   0  0  0  0  0  0  0  0  0  0  0  0
    1.8766    0.9351   -0.0690 H   0  0  0  0  0  0  0  0  0  0  0  0
   -0.2101    2.0412    0.7413 H   0  0  0  0  0  0  0  0  0  0  0  0
   -0.1114    2.1167   -1.0104 H   0  0  0  0  0  0  0  0  0  0  0  0
   -2.4020    2.7004   -0.2340 H   0  0  0  0  0  0  0  0  0  0  0  0
   -2.1489    1.5455   -2.4307 H   0  0  0  0  0  0  0  0  0  0  0  0
   -3.6590    1.0764   -1.6532 H   0  0  0  0  0  0  0  0  0  0  0  0
   -2.4774   -0.9258   -2.5547 H   0  0  0  0  0  0  0  0  0  0  0  0
   -2.4535   -2.2734   -0.4513 H   0  0  0  0  0  0  0  0  0  0  0  0
   -3.8399   -1.1862   -0.4825 H   0  0  0  0  0  0  0  0  0  0  0  0
   -2.7196   -1.1111    1.7439 H   0  0  0  0  0  0  0  0  0  0  0  0
   -3.8023    0.9667    0.8908 H   0  0  0  0  0  0  0  0  0  0  0  0
   -2.3912    1.3602    1.8700 H   0  0  0  0  0  0  0  0  0  0  0  0
   -0.3945   -0.2224    1.9258 H   0  0  0  0  0  0  0  0  0  0  0  0
   -0.4404   -1.7135    1.0014 H   0  0  0  0  0  0  0  0  0  0  0  0
   -0.2930   -1.6007   -1.6158 H   0  0  0  0  0  0  0  0  0  0  0  0
   -0.1509   -0.0361   -2.3978 H   0  0  0  0  0  0  0  0  0  0  0  0
    5.9634    1.4108    0.1818 H   0  0  0  0  0  0  0  0  0  0  0  0
    7.0535   -1.0316    0.1379 H   0  0  0  0  0  0  0  0  0  0  0  0
  1  2  2  0
  2  3  1  0
  4  3  1  1
  4  5  1  0
  5  6  1  0
  6  7  1  0
  7  8  1  0
  8  9  1  0
  9 10  1  0
 10 11  1  0
 10 12  1  0
  8 13  1  0
  2 14  1  0
 14 15  2  0
 15 16  1  0
 16 17  2  0
 17 18  1  0
 12  4  1  0
 18 14  1  0
 13  4  1  0
 11  6  1  0
  3 19  1  0
  5 20  1  0
  5 21  1  0
  6 22  1  6
  7 23  1  0
  7 24  1  0
  8 25  1  6
  9 26  1  0
  9 27  1  0
 10 28  1  1
 11 29  1  0
 11 30  1  0
 12 31  1  0
 12 32  1  0
 13 33  1  0
 13 34  1  0
 16 35  1  0
 17 36  1  0
M  END
>  <_SMILES>  (43) 
O=C(N[C@]12C[C@H]3C[C@H](C[C@H](C3)C1)C2)c1nccs1

$$$$

     RDKit          3D

 37 40  0  0  0  0  0  0  0  0999 V2000
    1.9910   -1.7716   -0.4129 O   0  0  0  0  0  0  0  0  0  0  0  0
    2.1910   -0.6331   -0.0046 C   0  0  0  0  0  0  0  0  0  0  0  0
    1.2074    0.3048    0.2209 N   0  0  0  0  0  0  0  0  0  0  0  0
   -0.2254    0.1183    0.0187 C   0  0  2  0  0  0  0  0  0  0  0  0
   -0.5561   -0.1998   -1.4606 C   0  0  0  0  0  0  0  0  0  0  0  0
   -2.0757   -0.3444   -1.6565 C   0  0  1  0  0  0  0  0  0  0  0  0
   -2.5967   -1.4773   -0.7558 C   0  0  0  0  0  0  0  0  0  0  0  0
   -2.3054   -1.1565    0.7202 C   0  0  2  0  0  0  0  0  0  0  0  0
   -2.9942    0.1645    1.0973 C   0  0  0  0  0  0  0  0  0  0  0  0
   -2.4715    1.3020    0.2061 C   0  0  2  0  0  0  0  0  0  0  0  0
   -2.7659    0.9720   -1.2657 C   0  0  0  0  0  0  0  0  0  0  0  0
   -0.9524    1.4357    0.3986 C   0  0  0  0  0  0  0  0  0  0  0  0
   -0.7859   -1.0122    0.9167 C   0  0  0  0  0  0  0  0  0  0  0  0
    3.5405   -0.1256    0.2993 C   0  0  0  0  0  0  0  0  0  0  0  0
    4.7658   -0.8303    0.1769 C   0  0  0  0  0  0  0  0  0  0  0  0
    5.7369    0.0555    0.5734 C   0  0  0  0  0  0  0  0  0  0  0  0
    5.0836    1.2043    0.9028 N   0  0  0  0  0  0  0  0  0  0  0  0
    3.7499    1.1317    0.7491 N   0  0  0  0  0  0  0  0  0  0  0  0
    1.5620    1.1967    0.5599 H   0  0  0  0  0  0  0  0  0  0  0  0
   -0.1693    0.5939   -2.1131 H   0  0  0  0  0  0  0  0  0  0  0  0
   -0.0647   -1.1263   -1.7806 H   0  0  0  0  0  0  0  0  0  0  0  0
   -2.2918   -0.5771   -2.7052 H   0  0  0  0  0  0  0  0  0  0  0  0
   -2.1214   -2.4259   -1.0340 H   0  0  0  0  0  0  0  0  0  0  0  0
   -3.6758   -1.6064   -0.9042 H   0  0  0  0  0  0  0  0  0  0  0  0
   -2.6842   -1.9648    1.3557 H   0  0  0  0  0  0  0  0  0  0  0  0
   -2.8058    0.3977    2.1525 H   0  0  0  0  0  0  0  0  0  0  0  0
   -4.0807    0.0670    0.9819 H   0  0  0  0  0  0  0  0  0  0  0  0
   -2.9635    2.2420    0.4797 H   0  0  0  0  0  0  0  0  0  0  0  0
   -3.8484    0.8884   -1.4217 H   0  0  0  0  0  0  0  0  0  0  0  0
   -2.4131    1.7861   -1.9106 H   0  0  0  0  0  0  0  0  0  0  0  0
   -0.7336    1.7002    1.4419 H   0  0  0  0  0  0  0  0  0  0  0  0
   -0.5737    2.2657   -0.2130 H   0  0  0  0  0  0  0  0  0  0  0  0
   -0.3031   -1.9696    0.6871 H   0  0  0  0  0  0  0  0  0  0  0  0
   -0.5640   -0.8017    1.9712 H   0  0  0  0  0  0  0  0  0  0  0  0
    4.8999   -1.8498   -0.1585 H   0  0  0  0  0  0  0  0  0  0  0  0
    6.8115   -0.0291    0.6484 H   0  0  0  0  0  0  0  0  0  0  0  0
    5.4830    2.0750    1.2389 H   0  0  0  0  0  0  0  0  0  0  0  0
  1  2  2  0
  2  3  1  0
  4  3  1  6
  4  5  1  0
  5  6  1  0
  6  7  1  0
  7  8  1  0
  8  9  1  0
  9 10  1  0
 10 11  1  0
 10 12  1  0
  8 13  1  0
  2 14  1  0
 14 15  1  0
 15 16  2  0
 16 17  1  0
 17 18  1  0
 12  4  1  0
 18 14  2  0
 13  4  1  0
 11  6  1  0
  3 19  1  0
  5 20  1  0
  5 21  1  0
  6 22  1  6
  7 23  1  0
  7 24  1  0
  8 25  1  1
  9 26  1  0
  9 27  1  0
 10 28  1  1
 11 29  1  0
 11 30  1  0
 12 31  1  0
 12 32  1  0
 13 33  1  0
 13 34  1  0
 15 35  1  0
 16 36  1  0
 17 37  1  0
M  END
>  <_SMILES>  (44) 
O=C(N[C@]12C[C@H]3C[C@H](C[C@H](C3)C1)C2)c1cc[nH]n1

$$$$

     RDKit          3D

 37 40  0  0  0  0  0  0  0  0999 V2000
    1.8599    1.6380   -0.8811 O   0  0  0  0  0  0  0  0  0  0  0  0
    2.2020    0.6005   -0.3274 C   0  0  0  0  0  0  0  0  0  0  0  0
    1.3055   -0.3275    0.1679 N   0  0  0  0  0  0  0  0  0  0  0  0
   -0.1546   -0.1632    0.1294 C   0  0  2  0  0  0  0  0  0  0  0  0
   -0.6165    1.0522    0.9703 C   0  0  0  0  0  0  0  0  0  0  0  0
   -2.1516    1.1627    0.9633 C   0  0  1  0  0  0  0  0  0  0  0  0
   -2.6423    1.3192   -0.4861 C   0  0  0  0  0  0  0  0  0  0  0  0
   -2.2231    0.0981   -1.3225 C   0  0  2  0  0  0  0  0  0  0  0  0
   -2.8281   -1.1719   -0.7049 C   0  0  0  0  0  0  0  0  0  0  0  0
   -2.3328   -1.3382    0.7396 C   0  0  2  0  0  0  0  0  0  0  0  0
   -2.7560   -0.1147    1.5675 C   0  0  0  0  0  0  0  0  0  0  0  0
   -0.7993   -1.4396    0.7377 C   0  0  0  0  0  0  0  0  0  0  0  0
   -0.6880   -0.0148   -1.3188 C   0  0  0  0  0  0  0  0  0  0  0  0
    3.5862    0.2636   -0.1095 C   0  0  0  0  0  0  0  0  0  0  0  0
    4.6912    1.0939   -0.0844 C   0  0  0  0  0  0  0  0  0  0  0  0
    5.7868    0.2478    0.1556 C   0  0  0  0  0  0  0  0  0  0  0  0
    5.4219   -1.0316    0.2577 N   0  0  0  0  0  0  0  0  0  0  0  0
    4.0950   -0.9967    0.0527 N   0  0  0  0  0  0  0  0  0  0  0  0
    1.6536   -0.9284    0.9013 H   0  0  0  0  0  0  0  0  0  0  0  0
   -0.1889    1.9834    0.5803 H   0  0  0  0  0  0  0  0  0  0  0  0
   -0.2538    0.9568    2.0022 H   0  0  0  0  0  0  0  0  0  0  0  0
   -2.4610    2.0322    1.5541 H   0  0  0  0  0  0  0  0  0  0  0  0
   -3.7340    1.4253   -0.5014 H   0  0  0  0  0  0  0  0  0  0  0  0
   -2.2275    2.2348   -0.9254 H   0  0  0  0  0  0  0  0  0  0  0  0
   -2.5815    0.2144   -2.3514 H   0  0  0  0  0  0  0  0  0  0  0  0
   -2.5480   -2.0490   -1.3012 H   0  0  0  0  0  0  0  0  0  0  0  0
   -3.9233   -1.1121   -0.7215 H   0  0  0  0  0  0  0  0  0  0  0  0
   -2.7633   -2.2465    1.1757 H   0  0  0  0  0  0  0  0  0  0  0  0
   -3.8500   -0.0375    1.5898 H   0  0  0  0  0  0  0  0  0  0  0  0
   -2.4239   -0.2315    2.6064 H   0  0  0  0  0  0  0  0  0  0  0  0
   -0.4863   -2.3267    0.1709 H   0  0  0  0  0  0  0  0  0  0  0  0
   -0.4404   -1.5911    1.7647 H   0  0  0  0  0  0  0  0  0  0  0  0
   -0.3745   -0.8742   -1.9259 H   0  0  0  0  0  0  0  0  0  0  0  0
   -0.2701    0.8729   -1.8063 H   0  0  0  0  0  0  0  0  0  0  0  0
    4.6903    2.1677   -0.2139 H   0  0  0  0  0  0  0  0  0  0  0  0
    6.8325    0.5088    0.2589 H   0  0  0  0  0  0  0  0  0  0  0  0
    3.5938   -1.8775    0.0191 H   0  0  0  0  0  0  0  0  0  0  0  0
  1  2  2  0
  2  3  1  0
  4  3  1  6
  4  5  1  0
  5  6  1  0
  6  7  1  0
  7  8  1  0
  8  9  1  0
  9 10  1  0
 10 11  1  0
 10 12  1  0
  8 13  1  0
  2 14  1  0
 14 15  2  0
 15 16  1  0
 16 17  2  0
 17 18  1  0
 12  4  1  0
 18 14  1  0
 13  4  1  0
 11  6  1  0
  3 19  1  0
  5 20  1  0
  5 21  1  0
  6 22  1  1
  7 23  1  0
  7 24  1  0
  8 25  1  6
  9 26  1  0
  9 27  1  0
 10 28  1  1
 11 29  1  0
 11 30  1  0
 12 31  1  0
 12 32  1  0
 13 33  1  0
 13 34  1  0
 15 35  1  0
 16 36  1  0
 18 37  1  0
M  END
>  <_SMILES>  (45) 
O=C(N[C@]12C[C@H]3C[C@H](C[C@H](C3)C1)C2)c1ccn[nH]1

$$$$

     RDKit          3D

 36 39  0  0  0  0  0  0  0  0999 V2000
    2.0336    0.6950    1.6358 O   0  0  0  0  0  0  0  0  0  0  0  0
    2.3306    0.1940    0.5560 C   0  0  0  0  0  0  0  0  0  0  0  0
    1.3933   -0.1945   -0.3804 N   0  0  0  0  0  0  0  0  0  0  0  0
   -0.0591   -0.0724   -0.2338 C   0  0  2  0  0  0  0  0  0  0  0  0
   -0.5849   -0.8934    0.9699 C   0  0  0  0  0  0  0  0  0  0  0  0
   -2.1172   -0.7883    1.0691 C   0  0  1  0  0  0  0  0  0  0  0  0
   -2.5136    0.6885    1.2368 C   0  0  0  0  0  0  0  0  0  0  0  0
   -2.0291    1.5076    0.0283 C   0  0  2  0  0  0  0  0  0  0  0  0
   -2.6613    0.9426   -1.2534 C   0  0  0  0  0  0  0  0  0  0  0  0
   -2.2610   -0.5303   -1.4303 C   0  0  2  0  0  0  0  0  0  0  0  0
   -2.7488   -1.3397   -0.2187 C   0  0  0  0  0  0  0  0  0  0  0  0
   -0.7298   -0.6293   -1.5190 C   0  0  0  0  0  0  0  0  0  0  0  0
   -0.4968    1.4047   -0.0719 C   0  0  0  0  0  0  0  0  0  0  0  0
    3.6989   -0.0385    0.1589 C   0  0  0  0  0  0  0  0  0  0  0  0
    4.8931    0.2057    0.7986 C   0  0  0  0  0  0  0  0  0  0  0  0
    5.8695   -0.2419   -0.1060 C   0  0  0  0  0  0  0  0  0  0  0  0
    5.3300   -0.7288   -1.2258 N   0  0  0  0  0  0  0  0  0  0  0  0
    3.9606   -0.6002   -1.0580 O   0  0  0  0  0  0  0  0  0  0  0  0
    1.7529   -0.5974   -1.2386 H   0  0  0  0  0  0  0  0  0  0  0  0
   -0.1425   -0.5406    1.9089 H   0  0  0  0  0  0  0  0  0  0  0  0
   -0.2884   -1.9455    0.8674 H   0  0  0  0  0  0  0  0  0  0  0  0
   -2.4712   -1.3660    1.9302 H   0  0  0  0  0  0  0  0  0  0  0  0
   -2.0795    1.0906    2.1604 H   0  0  0  0  0  0  0  0  0  0  0  0
   -3.6029    0.7742    1.3336 H   0  0  0  0  0  0  0  0  0  0  0  0
   -2.3207    2.5566    0.1520 H   0  0  0  0  0  0  0  0  0  0  0  0
   -2.3343    1.5273   -2.1220 H   0  0  0  0  0  0  0  0  0  0  0  0
   -3.7535    1.0309   -1.2031 H   0  0  0  0  0  0  0  0  0  0  0  0
   -2.7114   -0.9283   -2.3464 H   0  0  0  0  0  0  0  0  0  0  0  0
   -3.8426   -1.2904   -0.1508 H   0  0  0  0  0  0  0  0  0  0  0  0
   -2.4849   -2.3971   -0.3429 H   0  0  0  0  0  0  0  0  0  0  0  0
   -0.3742   -0.0774   -2.3995 H   0  0  0  0  0  0  0  0  0  0  0  0
   -0.4355   -1.6759   -1.6749 H   0  0  0  0  0  0  0  0  0  0  0  0
   -0.1370    2.0001   -0.9213 H   0  0  0  0  0  0  0  0  0  0  0  0
   -0.0508    1.8502    0.8250 H   0  0  0  0  0  0  0  0  0  0  0  0
    5.0228    0.6442    1.7769 H   0  0  0  0  0  0  0  0  0  0  0  0
    6.9457   -0.2365   -0.0032 H   0  0  0  0  0  0  0  0  0  0  0  0
  1  2  2  0
  2  3  1  0
  4  3  1  6
  4  5  1  0
  5  6  1  0
  6  7  1  0
  7  8  1  0
  8  9  1  0
  9 10  1  0
 10 11  1  0
 10 12  1  0
  8 13  1  0
  2 14  1  0
 14 15  2  0
 15 16  1  0
 16 17  2  0
 17 18  1  0
 12  4  1  0
 18 14  1  0
 13  4  1  0
 11  6  1  0
  3 19  1  0
  5 20  1  0
  5 21  1  0
  6 22  1  1
  7 23  1  0
  7 24  1  0
  8 25  1  1
  9 26  1  0
  9 27  1  0
 10 28  1  6
 11 29  1  0
 11 30  1  0
 12 31  1  0
 12 32  1  0
 13 33  1  0
 13 34  1  0
 15 35  1  0
 16 36  1  0
M  END
>  <_SMILES>  (46) 
O=C(N[C@]12C[C@H]3C[C@H](C[C@H](C3)C1)C2)c1ccno1

$$$$

     RDKit          3D

 37 40  0  0  0  0  0  0  0  0999 V2000
    1.7906   -1.8853   -0.7784 O   0  0  0  0  0  0  0  0  0  0  0  0
    2.1718   -0.7924   -0.3752 C   0  0  0  0  0  0  0  0  0  0  0  0
    1.3195    0.1963    0.0708 N   0  0  0  0  0  0  0  0  0  0  0  0
   -0.1438    0.0964    0.0787 C   0  0  2  0  0  0  0  0  0  0  0  0
   -0.7179    1.4069    0.6841 C   0  0  0  0  0  0  0  0  0  0  0  0
   -2.2540    1.3744    0.7176 C   0  0  1  0  0  0  0  0  0  0  0  0
   -2.7858    1.2053   -0.7142 C   0  0  0  0  0  0  0  0  0  0  0  0
   -2.2517   -0.1015   -1.3217 C   0  0  2  0  0  0  0  0  0  0  0  0
   -2.7067   -1.2872   -0.4538 C   0  0  0  0  0  0  0  0  0  0  0  0
   -2.1787   -1.1264    0.9820 C   0  0  2  0  0  0  0  0  0  0  0  0
   -2.7140    0.1858    1.5755 C   0  0  0  0  0  0  0  0  0  0  0  0
   -0.6405   -1.0827    0.9536 C   0  0  0  0  0  0  0  0  0  0  0  0
   -0.7136   -0.0567   -1.3532 C   0  0  0  0  0  0  0  0  0  0  0  0
    3.5953   -0.4328   -0.3592 C   0  0  0  0  0  0  0  0  0  0  0  0
    4.2346    0.6843    0.2856 C   0  0  0  0  0  0  0  0  0  0  0  0
    5.5988    0.7088    0.0899 C   0  0  0  0  0  0  0  0  0  0  0  0
    6.1333   -0.6063   -0.8571 S   0  0  0  0  0  0  0  0  0  0  0  0
    4.5434   -1.2142   -1.0008 C   0  0  0  0  0  0  0  0  0  0  0  0
    1.7120    1.1171    0.1960 H   0  0  0  0  0  0  0  0  0  0  0  0
   -0.3810    2.2725    0.0980 H   0  0  0  0  0  0  0  0  0  0  0  0
   -0.3277    1.5553    1.7000 H   0  0  0  0  0  0  0  0  0  0  0  0
   -2.6348    2.3084    1.1455 H   0  0  0  0  0  0  0  0  0  0  0  0
   -3.8827    1.1948   -0.7078 H   0  0  0  0  0  0  0  0  0  0  0  0
   -2.4792    2.0586   -1.3316 H   0  0  0  0  0  0  0  0  0  0  0  0
   -2.6378   -0.2195   -2.3403 H   0  0  0  0  0  0  0  0  0  0  0  0
   -3.8022   -1.3447   -0.4447 H   0  0  0  0  0  0  0  0  0  0  0  0
   -2.3423   -2.2282   -0.8841 H   0  0  0  0  0  0  0  0  0  0  0  0
   -2.5121   -1.9713    1.5950 H   0  0  0  0  0  0  0  0  0  0  0  0
   -2.3557    0.3053    2.6054 H   0  0  0  0  0  0  0  0  0  0  0  0
   -3.8096    0.1576    1.6207 H   0  0  0  0  0  0  0  0  0  0  0  0
   -0.2501   -0.9848    1.9751 H   0  0  0  0  0  0  0  0  0  0  0  0
   -0.2677   -2.0408    0.5741 H   0  0  0  0  0  0  0  0  0  0  0  0
   -0.3772    0.7763   -1.9842 H   0  0  0  0  0  0  0  0  0  0  0  0
   -0.3389   -0.9713   -1.8279 H   0  0  0  0  0  0  0  0  0  0  0  0
    3.7303    1.4341    0.8815 H   0  0  0  0  0  0  0  0  0  0  0  0
    6.3098    1.4330    0.4641 H   0  0  0  0  0  0  0  0  0  0  0  0
    4.3664   -2.1250   -1.5592 H   0  0  0  0  0  0  0  0  0  0  0  0
  1  2  2  0
  2  3  1  0
  4  3  1  6
  4  5  1  0
  5  6  1  0
  6  7  1  0
  7  8  1  0
  8  9  1  0
  9 10  1  0
 10 11  1  0
 10 12  1  0
  8 13  1  0
  2 14  1  0
 14 15  1  0
 15 16  2  0
 16 17  1  0
 17 18  1  0
 12  4  1  0
 18 14  2  0
 13  4  1  0
 11  6  1  0
  3 19  1  0
  5 20  1  0
  5 21  1  0
  6 22  1  1
  7 23  1  0
  7 24  1  0
  8 25  1  6
  9 26  1  0
  9 27  1  0
 10 28  1  1
 11 29  1  0
 11 30  1  0
 12 31  1  0
 12 32  1  0
 13 33  1  0
 13 34  1  0
 15 35  1  0
 16 36  1  0
 18 37  1  0
M  END
>  <_SMILES>  (47) 
O=C(N[C@]12C[C@H]3C[C@H](C[C@H](C3)C1)C2)c1ccsc1

$$$$

     RDKit          3D

 37 40  0  0  0  0  0  0  0  0999 V2000
    1.9432    0.0319   -1.7131 O   0  0  0  0  0  0  0  0  0  0  0  0
    2.1742   -0.0503   -0.5099 C   0  0  0  0  0  0  0  0  0  0  0  0
    1.1692   -0.0701    0.4364 N   0  0  0  0  0  0  0  0  0  0  0  0
   -0.2671    0.0009    0.1612 C   0  0  2  0  0  0  0  0  0  0  0  0
   -0.7463   -1.1943   -0.6999 C   0  0  0  0  0  0  0  0  0  0  0  0
   -2.2665   -1.1216   -0.9286 C   0  0  1  0  0  0  0  0  0  0  0  0
   -2.9875   -1.1697    0.4276 C   0  0  0  0  0  0  0  0  0  0  0  0
   -2.5470    0.0175    1.2980 C   0  0  2  0  0  0  0  0  0  0  0  0
   -2.8931    1.3313    0.5803 C   0  0  0  0  0  0  0  0  0  0  0  0
   -2.1716    1.3943   -0.7751 C   0  0  2  0  0  0  0  0  0  0  0  0
   -2.6092    0.1991   -1.6389 C   0  0  0  0  0  0  0  0  0  0  0  0
   -0.6513    1.3243   -0.5462 C   0  0  0  0  0  0  0  0  0  0  0  0
   -1.0271   -0.0530    1.5145 C   0  0  0  0  0  0  0  0  0  0  0  0
    3.5335   -0.1336    0.0162 C   0  0  0  0  0  0  0  0  0  0  0  0
    4.7039   -0.1327   -0.7226 C   0  0  0  0  0  0  0  0  0  0  0  0
    5.8700   -0.2263    0.0902 C   0  0  0  0  0  0  0  0  0  0  0  0
    5.5571   -0.2962    1.4284 C   0  0  0  0  0  0  0  0  0  0  0  0
    3.8693   -0.2488    1.6953 S   0  0  0  0  0  0  0  0  0  0  0  0
    1.4682   -0.1402    1.4012 H   0  0  0  0  0  0  0  0  0  0  0  0
   -0.2404   -1.2056   -1.6723 H   0  0  0  0  0  0  0  0  0  0  0  0
   -0.4872   -2.1412   -0.2084 H   0  0  0  0  0  0  0  0  0  0  0  0
   -2.5870   -1.9676   -1.5469 H   0  0  0  0  0  0  0  0  0  0  0  0
   -2.7622   -2.1137    0.9388 H   0  0  0  0  0  0  0  0  0  0  0  0
   -4.0735   -1.1409    0.2762 H   0  0  0  0  0  0  0  0  0  0  0  0
   -3.0609   -0.0221    2.2649 H   0  0  0  0  0  0  0  0  0  0  0  0
   -3.9776    1.4028    0.4314 H   0  0  0  0  0  0  0  0  0  0  0  0
   -2.6000    2.1867    1.2012 H   0  0  0  0  0  0  0  0  0  0  0  0
   -2.4249    2.3308   -1.2846 H   0  0  0  0  0  0  0  0  0  0  0  0
   -2.1107    0.2399   -2.6152 H   0  0  0  0  0  0  0  0  0  0  0  0
   -3.6881    0.2515   -1.8301 H   0  0  0  0  0  0  0  0  0  0  0  0
   -0.1416    1.4156   -1.5124 H   0  0  0  0  0  0  0  0  0  0  0  0
   -0.3241    2.1825    0.0555 H   0  0  0  0  0  0  0  0  0  0  0  0
   -0.7068    0.7758    2.1602 H   0  0  0  0  0  0  0  0  0  0  0  0
   -0.7729   -0.9758    2.0533 H   0  0  0  0  0  0  0  0  0  0  0  0
    4.7123   -0.0670   -1.8052 H   0  0  0  0  0  0  0  0  0  0  0  0
    6.8846   -0.2414   -0.2890 H   0  0  0  0  0  0  0  0  0  0  0  0
    6.2392   -0.3729    2.2643 H   0  0  0  0  0  0  0  0  0  0  0  0
  1  2  2  0
  2  3  1  0
  4  3  1  1
  4  5  1  0
  5  6  1  0
  6  7  1  0
  7  8  1  0
  8  9  1  0
  9 10  1  0
 10 11  1  0
 10 12  1  0
  8 13  1  0
  2 14  1  0
 14 15  2  0
 15 16  1  0
 16 17  2  0
 17 18  1  0
 12  4  1  0
 18 14  1  0
 13  4  1  0
 11  6  1  0
  3 19  1  0
  5 20  1  0
  5 21  1  0
  6 22  1  6
  7 23  1  0
  7 24  1  0
  8 25  1  1
  9 26  1  0
  9 27  1  0
 10 28  1  6
 11 29  1  0
 11 30  1  0
 12 31  1  0
 12 32  1  0
 13 33  1  0
 13 34  1  0
 15 35  1  0
 16 36  1  0
 17 37  1  0
M  END
>  <_SMILES>  (48) 
O=C(N[C@]12C[C@H]3C[C@H](C[C@H](C3)C1)C2)c1cccs1

$$$$

     RDKit          3D

 37 40  0  0  0  0  0  0  0  0999 V2000
    1.6723   -1.0766   -1.7885 O   0  0  0  0  0  0  0  0  0  0  0  0
    2.0992   -0.6794   -0.7106 C   0  0  0  0  0  0  0  0  0  0  0  0
    1.3042   -0.1198    0.2669 N   0  0  0  0  0  0  0  0  0  0  0  0
   -0.1449    0.0775    0.1589 C   0  0  2  0  0  0  0  0  0  0  0  0
   -0.8964   -1.2659   -0.0167 C   0  0  0  0  0  0  0  0  0  0  0  0
   -2.4166   -1.0327   -0.0740 C   0  0  1  0  0  0  0  0  0  0  0  0
   -2.8799   -0.3762    1.2358 C   0  0  0  0  0  0  0  0  0  0  0  0
   -2.1660    0.9708    1.4282 C   0  0  2  0  0  0  0  0  0  0  0  0
   -2.4968    1.8959    0.2468 C   0  0  0  0  0  0  0  0  0  0  0  0
   -2.0312    1.2529   -1.0689 C   0  0  2  0  0  0  0  0  0  0  0  0
   -2.7417   -0.0990   -1.2524 C   0  0  0  0  0  0  0  0  0  0  0  0
   -0.5105    1.0226   -1.0129 C   0  0  0  0  0  0  0  0  0  0  0  0
   -0.6481    0.7346    1.4736 C   0  0  0  0  0  0  0  0  0  0  0  0
    3.5125   -0.7695   -0.3703 C   0  0  0  0  0  0  0  0  0  0  0  0
    4.2373   -0.3833    0.7977 C   0  0  0  0  0  0  0  0  0  0  0  0
    5.5554   -0.7049    0.5693 C   0  0  0  0  0  0  0  0  0  0  0  0
    5.7004   -1.2633   -0.6571 O   0  0  0  0  0  0  0  0  0  0  0  0
    4.4666   -1.2998   -1.2190 C   0  0  0  0  0  0  0  0  0  0  0  0
    1.7472    0.1779    1.1224 H   0  0  0  0  0  0  0  0  0  0  0  0
   -0.6533   -1.9450    0.8110 H   0  0  0  0  0  0  0  0  0  0  0  0
   -0.5804   -1.7759   -0.9341 H   0  0  0  0  0  0  0  0  0  0  0  0
   -2.9314   -1.9906   -0.2086 H   0  0  0  0  0  0  0  0  0  0  0  0
   -2.6661   -1.0387    2.0835 H   0  0  0  0  0  0  0  0  0  0  0  0
   -3.9662   -0.2253    1.2158 H   0  0  0  0  0  0  0  0  0  0  0  0
   -2.4968    1.4341    2.3644 H   0  0  0  0  0  0  0  0  0  0  0  0
   -2.0074    2.8681    0.3829 H   0  0  0  0  0  0  0  0  0  0  0  0
   -3.5766    2.0854    0.2100 H   0  0  0  0  0  0  0  0  0  0  0  0
   -2.2731    1.9143   -1.9084 H   0  0  0  0  0  0  0  0  0  0  0  0
   -3.8258    0.0547   -1.3191 H   0  0  0  0  0  0  0  0  0  0  0  0
   -2.4275   -0.5626   -2.1957 H   0  0  0  0  0  0  0  0  0  0  0  0
   -0.1786    0.6069   -1.9714 H   0  0  0  0  0  0  0  0  0  0  0  0
    0.0090    1.9832   -0.8990 H   0  0  0  0  0  0  0  0  0  0  0  0
   -0.1305    1.6889    1.6402 H   0  0  0  0  0  0  0  0  0  0  0  0
   -0.3988    0.0976    2.3329 H   0  0  0  0  0  0  0  0  0  0  0  0
    3.8608    0.0734    1.7010 H   0  0  0  0  0  0  0  0  0  0  0  0
    6.4637   -0.6062    1.1478 H   0  0  0  0  0  0  0  0  0  0  0  0
    4.4159   -1.7241   -2.2132 H   0  0  0  0  0  0  0  0  0  0  0  0
  1  2  2  0
  2  3  1  0
  4  3  1  1
  4  5  1  0
  5  6  1  0
  6  7  1  0
  7  8  1  0
  8  9  1  0
  9 10  1  0
 10 11  1  0
 10 12  1  0
  8 13  1  0
  2 14  1  0
 14 15  1  0
 15 16  2  0
 16 17  1  0
 17 18  1  0
 12  4  1  0
 18 14  2  0
 13  4  1  0
 11  6  1  0
  3 19  1  0
  5 20  1  0
  5 21  1  0
  6 22  1  6
  7 23  1  0
  7 24  1  0
  8 25  1  1
  9 26  1  0
  9 27  1  0
 10 28  1  6
 11 29  1  0
 11 30  1  0
 12 31  1  0
 12 32  1  0
 13 33  1  0
 13 34  1  0
 15 35  1  0
 16 36  1  0
 18 37  1  0
M  END
>  <_SMILES>  (49) 
O=C(N[C@]12C[C@H]3C[C@H](C[C@H](C3)C1)C2)c1ccoc1

$$$$

     RDKit          3D

 32 34  0  0  0  0  0  0  0  0999 V2000
    4.2089    0.6920   -0.0151 C   0  0  0  0  0  0  0  0  0  0  0  0
    2.7901    0.7366   -0.1709 O   0  0  0  0  0  0  0  0  0  0  0  0
    2.1344   -0.3213    0.3866 C   0  0  0  0  0  0  0  0  0  0  0  0
    2.6855   -1.2429    0.9747 O   0  0  0  0  0  0  0  0  0  0  0  0
    0.6263   -0.1998    0.1778 C   0  0  2  0  0  0  0  0  0  0  0  0
    0.2908   -0.1742   -1.3314 C   0  0  0  0  0  0  0  0  0  0  0  0
   -1.2290   -0.0557   -1.5410 C   0  0  1  0  0  0  0  0  0  0  0  0
   -1.9264   -1.2623   -0.8920 C   0  0  0  0  0  0  0  0  0  0  0  0
   -1.6203   -1.2994    0.6141 C   0  0  2  0  0  0  0  0  0  0  0  0
   -2.1238   -0.0021    1.2675 C   0  0  0  0  0  0  0  0  0  0  0  0
   -1.4276    1.2119    0.6313 C   0  0  2  0  0  0  0  0  0  0  0  0
   -1.7319    1.2377   -0.8766 C   0  0  0  0  0  0  0  0  0  0  0  0
    0.0924    1.0921    0.8387 C   0  0  0  0  0  0  0  0  0  0  0  0
   -0.1000   -1.4096    0.8174 C   0  0  0  0  0  0  0  0  0  0  0  0
    4.6301    1.5798   -0.4947 H   0  0  0  0  0  0  0  0  0  0  0  0
    4.6208   -0.1951   -0.5063 H   0  0  0  0  0  0  0  0  0  0  0  0
    4.4789    0.7103    1.0453 H   0  0  0  0  0  0  0  0  0  0  0  0
    0.7919    0.6680   -1.8255 H   0  0  0  0  0  0  0  0  0  0  0  0
    0.6675   -1.0831   -1.8186 H   0  0  0  0  0  0  0  0  0  0  0  0
   -1.4532   -0.0320   -2.6132 H   0  0  0  0  0  0  0  0  0  0  0  0
   -1.5870   -2.1912   -1.3666 H   0  0  0  0  0  0  0  0  0  0  0  0
   -3.0097   -1.2000   -1.0526 H   0  0  0  0  0  0  0  0  0  0  0  0
   -2.1184   -2.1614    1.0716 H   0  0  0  0  0  0  0  0  0  0  0  0
   -1.9264   -0.0246    2.3463 H   0  0  0  0  0  0  0  0  0  0  0  0
   -3.2105    0.0820    1.1443 H   0  0  0  0  0  0  0  0  0  0  0  0
   -1.7924    2.1337    1.0981 H   0  0  0  0  0  0  0  0  0  0  0  0
   -1.2523    2.1082   -1.3407 H   0  0  0  0  0  0  0  0  0  0  0  0
   -2.8116    1.3455   -1.0382 H   0  0  0  0  0  0  0  0  0  0  0  0
    0.5870    1.9763    0.4164 H   0  0  0  0  0  0  0  0  0  0  0  0
    0.3266    1.0934    1.9113 H   0  0  0  0  0  0  0  0  0  0  0  0
    0.1255   -1.4650    1.8906 H   0  0  0  0  0  0  0  0  0  0  0  0
    0.2638   -2.3478    0.3777 H   0  0  0  0  0  0  0  0  0  0  0  0
  1  2  1  0
  2  3  1  0
  3  4  2  0
  5  3  1  6
  5  6  1  0
  6  7  1  0
  7  8  1  0
  8  9  1  0
  9 10  1  0
 10 11  1  0
 11 12  1  0
 11 13  1  0
  9 14  1  0
 13  5  1  0
 14  5  1  0
 12  7  1  0
  1 15  1  0
  1 16  1  0
  1 17  1  0
  6 18  1  0
  6 19  1  0
  7 20  1  6
  8 21  1  0
  8 22  1  0
  9 23  1  1
 10 24  1  0
 10 25  1  0
 11 26  1  1
 12 27  1  0
 12 28  1  0
 13 29  1  0
 13 30  1  0
 14 31  1  0
 14 32  1  0
M  END
>  <_SMILES>  (50) 
COC(=O)[C@]12C[C@H]3C[C@H](C[C@H](C3)C1)C2

$$$$

     RDKit          3D

 36 39  0  0  0  0  0  0  0  0999 V2000
    1.8458   -1.6804    1.1429 O   0  0  0  0  0  0  0  0  0  0  0  0
    2.2330   -0.8437    0.3313 C   0  0  0  0  0  0  0  0  0  0  0  0
    1.3747    0.0290   -0.3188 N   0  0  0  0  0  0  0  0  0  0  0  0
   -0.0762    0.0924   -0.1503 C   0  0  2  0  0  0  0  0  0  0  0  0
   -0.7587   -1.2368   -0.5581 C   0  0  0  0  0  0  0  0  0  0  0  0
   -2.2874   -1.1254   -0.4192 C   0  0  1  0  0  0  0  0  0  0  0  0
   -2.6401   -0.7891    1.0397 C   0  0  0  0  0  0  0  0  0  0  0  0
   -1.9976    0.5485    1.4451 C   0  0  2  0  0  0  0  0  0  0  0  0
   -2.5125    1.6600    0.5171 C   0  0  0  0  0  0  0  0  0  0  0  0
   -2.1551    1.3332   -0.9412 C   0  0  2  0  0  0  0  0  0  0  0  0
   -2.8006   -0.0041   -1.3363 C   0  0  0  0  0  0  0  0  0  0  0  0
   -0.6283    1.2138   -1.0713 C   0  0  0  0  0  0  0  0  0  0  0  0
   -0.4687    0.4383    1.3076 C   0  0  0  0  0  0  0  0  0  0  0  0
    3.6274   -0.6572   -0.0529 C   0  0  0  0  0  0  0  0  0  0  0  0
    4.0737    0.2372   -0.9254 N   0  0  0  0  0  0  0  0  0  0  0  0
    5.4291    0.0211   -0.9421 C   0  0  0  0  0  0  0  0  0  0  0  0
    5.7538   -0.9954   -0.0798 C   0  0  0  0  0  0  0  0  0  0  0  0
    4.6061   -1.4423    0.4999 O   0  0  0  0  0  0  0  0  0  0  0  0
    1.8258    0.6711   -0.9656 H   0  0  0  0  0  0  0  0  0  0  0  0
   -0.4039   -2.0668    0.0642 H   0  0  0  0  0  0  0  0  0  0  0  0
   -0.4953   -1.4946   -1.5923 H   0  0  0  0  0  0  0  0  0  0  0  0
   -2.7535   -2.0758   -0.7024 H   0  0  0  0  0  0  0  0  0  0  0  0
   -2.2907   -1.5892    1.7038 H   0  0  0  0  0  0  0  0  0  0  0  0
   -3.7292   -0.7311    1.1570 H   0  0  0  0  0  0  0  0  0  0  0  0
   -2.2583    0.7842    2.4829 H   0  0  0  0  0  0  0  0  0  0  0  0
   -3.5995    1.7630    0.6227 H   0  0  0  0  0  0  0  0  0  0  0  0
   -2.0721    2.6226    0.8048 H   0  0  0  0  0  0  0  0  0  0  0  0
   -2.5216    2.1292   -1.5989 H   0  0  0  0  0  0  0  0  0  0  0  0
   -2.5675   -0.2388   -2.3821 H   0  0  0  0  0  0  0  0  0  0  0  0
   -3.8925    0.0704   -1.2624 H   0  0  0  0  0  0  0  0  0  0  0  0
   -0.3613    1.0089   -2.1168 H   0  0  0  0  0  0  0  0  0  0  0  0
   -0.1595    2.1744   -0.8188 H   0  0  0  0  0  0  0  0  0  0  0  0
    0.0027    1.3822    1.6116 H   0  0  0  0  0  0  0  0  0  0  0  0
   -0.1024   -0.3252    2.0039 H   0  0  0  0  0  0  0  0  0  0  0  0
    6.0924    0.6027   -1.5674 H   0  0  0  0  0  0  0  0  0  0  0  0
    6.6682   -1.4864    0.2189 H   0  0  0  0  0  0  0  0  0  0  0  0
  1  2  2  0
  2  3  1  0
  4  3  1  1
  4  5  1  0
  5  6  1  0
  6  7  1  0
  7  8  1  0
  8  9  1  0
  9 10  1  0
 10 11  1  0
 10 12  1  0
  8 13  1  0
  2 14  1  0
 14 15  2  0
 15 16  1  0
 16 17  2  0
 17 18  1  0
 12  4  1  0
 18 14  1  0
 13  4  1  0
 11  6  1  0
  3 19  1  0
  5 20  1  0
  5 21  1  0
  6 22  1  6
  7 23  1  0
  7 24  1  0
  8 25  1  1
  9 26  1  0
  9 27  1  0
 10 28  1  6
 11 29  1  0
 11 30  1  0
 12 31  1  0
 12 32  1  0
 13 33  1  0
 13 34  1  0
 16 35  1  0
 17 36  1  0
M  END
>  <_SMILES>  (51) 
O=C(N[C@]12C[C@H]3C[C@H](C[C@H](C3)C1)C2)c1ncco1

$$$$

     RDKit          3D

 36 39  0  0  0  0  0  0  0  0999 V2000
    1.8810    1.4076   -1.5032 O   0  0  0  0  0  0  0  0  0  0  0  0
    2.2797    0.4903   -0.7924 C   0  0  0  0  0  0  0  0  0  0  0  0
    1.4264   -0.2795   -0.0142 N   0  0  0  0  0  0  0  0  0  0  0  0
   -0.0207   -0.0604    0.0989 C   0  0  2  0  0  0  0  0  0  0  0  0
   -0.3439    1.3240    0.7132 C   0  0  0  0  0  0  0  0  0  0  0  0
   -1.8639    1.5029    0.8751 C   0  0  1  0  0  0  0  0  0  0  0  0
   -2.5389    1.3763   -0.5014 C   0  0  0  0  0  0  0  0  0  0  0  0
   -2.2575   -0.0108   -1.1041 C   0  0  2  0  0  0  0  0  0  0  0  0
   -2.7997   -1.0941   -0.1591 C   0  0  0  0  0  0  0  0  0  0  0  0
   -2.1211   -0.9780    1.2142 C   0  0  2  0  0  0  0  0  0  0  0  0
   -2.4078    0.4098    1.8085 C   0  0  0  0  0  0  0  0  0  0  0  0
   -0.6035   -1.1490    1.0423 C   0  0  0  0  0  0  0  0  0  0  0  0
   -0.7380   -0.1923   -1.2688 C   0  0  0  0  0  0  0  0  0  0  0  0
    3.7029    0.1277   -0.6872 C   0  0  0  0  0  0  0  0  0  0  0  0
    4.2970   -1.0442   -0.1371 C   0  0  0  0  0  0  0  0  0  0  0  0
    5.6442   -0.8635   -0.3040 C   0  0  0  0  0  0  0  0  0  0  0  0
    5.8662    0.3247   -0.9096 O   0  0  0  0  0  0  0  0  0  0  0  0
    4.6602    0.9476   -1.1569 N   0  0  0  0  0  0  0  0  0  0  0  0
    1.8481   -0.8763    0.6817 H   0  0  0  0  0  0  0  0  0  0  0  0
    0.0458    2.1327    0.0837 H   0  0  0  0  0  0  0  0  0  0  0  0
    0.1504    1.4289    1.6879 H   0  0  0  0  0  0  0  0  0  0  0  0
   -2.0754    2.4902    1.3009 H   0  0  0  0  0  0  0  0  0  0  0  0
   -3.6208    1.5279   -0.4022 H   0  0  0  0  0  0  0  0  0  0  0  0
   -2.1682    2.1595   -1.1740 H   0  0  0  0  0  0  0  0  0  0  0  0
   -2.7467   -0.0952   -2.0810 H   0  0  0  0  0  0  0  0  0  0  0  0
   -2.6177   -2.0885   -0.5849 H   0  0  0  0  0  0  0  0  0  0  0  0
   -3.8861   -0.9880   -0.0509 H   0  0  0  0  0  0  0  0  0  0  0  0
   -2.5076   -1.7541    1.8842 H   0  0  0  0  0  0  0  0  0  0  0  0
   -1.9437    0.4972    2.7986 H   0  0  0  0  0  0  0  0  0  0  0  0
   -3.4875    0.5411    1.9503 H   0  0  0  0  0  0  0  0  0  0  0  0
   -0.1143   -1.0983    2.0244 H   0  0  0  0  0  0  0  0  0  0  0  0
   -0.3857   -2.1490    0.6437 H   0  0  0  0  0  0  0  0  0  0  0  0
   -0.3701    0.5536   -1.9823 H   0  0  0  0  0  0  0  0  0  0  0  0
   -0.5244   -1.1732   -1.7135 H   0  0  0  0  0  0  0  0  0  0  0  0
    3.8162   -1.9045    0.3012 H   0  0  0  0  0  0  0  0  0  0  0  0
    6.5252   -1.4431   -0.0710 H   0  0  0  0  0  0  0  0  0  0  0  0
  1  2  2  0
  2  3  1  0
  4  3  1  6
  4  5  1  0
  5  6  1  0
  6  7  1  0
  7  8  1  0
  8  9  1  0
  9 10  1  0
 10 11  1  0
 10 12  1  0
  8 13  1  0
  2 14  1  0
 14 15  1  0
 15 16  2  0
 16 17  1  0
 17 18  1  0
 12  4  1  0
 18 14  2  0
 13  4  1  0
 11  6  1  0
  3 19  1  0
  5 20  1  0
  5 21  1  0
  6 22  1  1
  7 23  1  0
  7 24  1  0
  8 25  1  6
  9 26  1  0
  9 27  1  0
 10 28  1  1
 11 29  1  0
 11 30  1  0
 12 31  1  0
 12 32  1  0
 13 33  1  0
 13 34  1  0
 15 35  1  0
 16 36  1  0
M  END
>  <_SMILES>  (52) 
O=C(N[C@]12C[C@H]3C[C@H](C[C@H](C3)C1)C2)c1ccon1

$$$$

     RDKit          3D

 36 39  0  0  0  0  0  0  0  0999 V2000
    1.9646   -0.2192   -2.0141 O   0  0  0  0  0  0  0  0  0  0  0  0
    2.2973   -0.2184   -0.8350 C   0  0  0  0  0  0  0  0  0  0  0  0
    1.4315   -0.1177    0.2298 N   0  0  0  0  0  0  0  0  0  0  0  0
   -0.0213    0.0047    0.1466 C   0  0  2  0  0  0  0  0  0  0  0  0
   -0.5921    0.0894    1.5874 C   0  0  0  0  0  0  0  0  0  0  0  0
   -2.1234    0.2201    1.5667 C   0  0  1  0  0  0  0  0  0  0  0  0
   -2.5103    1.4928    0.7973 C   0  0  0  0  0  0  0  0  0  0  0  0
   -1.9766    1.4186   -0.6419 C   0  0  2  0  0  0  0  0  0  0  0  0
   -2.5746    0.1864   -1.3419 C   0  0  0  0  0  0  0  0  0  0  0  0
   -2.1918   -1.0935   -0.5794 C   0  0  2  0  0  0  0  0  0  0  0  0
   -2.7243   -1.0048    0.8595 C   0  0  0  0  0  0  0  0  0  0  0  0
   -0.6587   -1.2245   -0.5475 C   0  0  0  0  0  0  0  0  0  0  0  0
   -0.4434    1.2885   -0.6100 C   0  0  0  0  0  0  0  0  0  0  0  0
    3.6961   -0.3276   -0.4052 C   0  0  0  0  0  0  0  0  0  0  0  0
    4.7673   -0.4409   -1.2735 C   0  0  0  0  0  0  0  0  0  0  0  0
    6.2356   -0.5450   -0.3968 S   0  0  0  0  0  0  0  0  0  0  0  0
    5.3502   -0.4327    1.0668 C   0  0  0  0  0  0  0  0  0  0  0  0
    4.0447   -0.3237    0.9524 N   0  0  0  0  0  0  0  0  0  0  0  0
    1.8814   -0.1336    1.1420 H   0  0  0  0  0  0  0  0  0  0  0  0
   -0.1549    0.9467    2.1167 H   0  0  0  0  0  0  0  0  0  0  0  0
   -0.3047   -0.8025    2.1603 H   0  0  0  0  0  0  0  0  0  0  0  0
   -2.5039    0.2782    2.5926 H   0  0  0  0  0  0  0  0  0  0  0  0
   -2.1019    2.3761    1.3036 H   0  0  0  0  0  0  0  0  0  0  0  0
   -3.6011    1.6077    0.7872 H   0  0  0  0  0  0  0  0  0  0  0  0
   -2.2582    2.3263   -1.1872 H   0  0  0  0  0  0  0  0  0  0  0  0
   -3.6665    0.2787   -1.3926 H   0  0  0  0  0  0  0  0  0  0  0  0
   -2.2118    0.1296   -2.3756 H   0  0  0  0  0  0  0  0  0  0  0  0
   -2.6260   -1.9660   -1.0804 H   0  0  0  0  0  0  0  0  0  0  0  0
   -3.8188   -0.9329    0.8504 H   0  0  0  0  0  0  0  0  0  0  0  0
   -2.4698   -1.9185    1.4104 H   0  0  0  0  0  0  0  0  0  0  0  0
   -0.3734   -2.1451   -0.0216 H   0  0  0  0  0  0  0  0  0  0  0  0
   -0.2876   -1.3303   -1.5738 H   0  0  0  0  0  0  0  0  0  0  0  0
   -0.0035    2.1720   -0.1290 H   0  0  0  0  0  0  0  0  0  0  0  0
   -0.0641    1.2788   -1.6387 H   0  0  0  0  0  0  0  0  0  0  0  0
    4.7465   -0.4660   -2.3545 H   0  0  0  0  0  0  0  0  0  0  0  0
    5.8475   -0.4514    2.0281 H   0  0  0  0  0  0  0  0  0  0  0  0
  1  2  2  0
  2  3  1  0
  4  3  1  1
  4  5  1  0
  5  6  1  0
  6  7  1  0
  7  8  1  0
  8  9  1  0
  9 10  1  0
 10 11  1  0
 10 12  1  0
  8 13  1  0
  2 14  1  0
 14 15  2  0
 15 16  1  0
 16 17  1  0
 17 18  2  0
 12  4  1  0
 18 14  1  0
 13  4  1  0
 11  6  1  0
  3 19  1  0
  5 20  1  0
  5 21  1  0
  6 22  1  1
  7 23  1  0
  7 24  1  0
  8 25  1  6
  9 26  1  0
  9 27  1  0
 10 28  1  6
 11 29  1  0
 11 30  1  0
 12 31  1  0
 12 32  1  0
 13 33  1  0
 13 34  1  0
 15 35  1  0
 17 36  1  0
M  END
>  <_SMILES>  (53) 
O=C(N[C@]12C[C@H]3C[C@H](C[C@H](C3)C1)C2)c1cscn1

$$$$

     RDKit          3D

 28 30  0  0  0  0  0  0  0  0999 V2000
    3.0455   -0.6818   -1.7833 O   0  0  0  0  0  0  0  0  0  0  0  0
    2.3330   -1.2975   -0.9406 C   0  0  0  0  0  0  0  0  0  0  0  0
    2.5174   -2.4453   -0.4412 O   0  0  0  0  0  0  0  0  0  0  0  0
    1.0652   -0.5516   -0.4518 C   0  0  2  0  0  0  0  0  0  0  0  0
   -0.1726   -1.4125   -0.7887 C   0  0  0  0  0  0  0  0  0  0  0  0
   -1.4523   -0.7416   -0.2572 C   0  0  1  0  0  0  0  0  0  0  0  0
   -1.3412   -0.5810    1.2688 C   0  0  0  0  0  0  0  0  0  0  0  0
   -0.1221    0.2888    1.6208 C   0  0  2  0  0  0  0  0  0  0  0  0
   -0.2812    1.6709    0.9665 C   0  0  0  0  0  0  0  0  0  0  0  0
   -0.3880    1.5212   -0.5599 C   0  0  2  0  0  0  0  0  0  0  0  0
   -1.6046    0.6457   -0.9019 C   0  0  0  0  0  0  0  0  0  0  0  0
    0.8863    0.8427   -1.0902 C   0  0  0  0  0  0  0  0  0  0  0  0
    1.1522   -0.3862    1.0818 C   0  0  0  0  0  0  0  0  0  0  0  0
   -0.2496   -1.5548   -1.8746 H   0  0  0  0  0  0  0  0  0  0  0  0
   -0.0844   -2.4160   -0.3526 H   0  0  0  0  0  0  0  0  0  0  0  0
   -2.3228   -1.3605   -0.5017 H   0  0  0  0  0  0  0  0  0  0  0  0
   -1.2485   -1.5656    1.7434 H   0  0  0  0  0  0  0  0  0  0  0  0
   -2.2555   -0.1217    1.6644 H   0  0  0  0  0  0  0  0  0  0  0  0
   -0.0491    0.4008    2.7083 H   0  0  0  0  0  0  0  0  0  0  0  0
   -1.1765    2.1697    1.3574 H   0  0  0  0  0  0  0  0  0  0  0  0
    0.5750    2.3072    1.2219 H   0  0  0  0  0  0  0  0  0  0  0  0
   -0.5012    2.5085   -1.0214 H   0  0  0  0  0  0  0  0  0  0  0  0
   -2.5238    1.1260   -0.5447 H   0  0  0  0  0  0  0  0  0  0  0  0
   -1.7000    0.5449   -1.9900 H   0  0  0  0  0  0  0  0  0  0  0  0
    0.8284    0.7579   -2.1833 H   0  0  0  0  0  0  0  0  0  0  0  0
    1.7562    1.4766   -0.8735 H   0  0  0  0  0  0  0  0  0  0  0  0
    2.0328    0.2133    1.3477 H   0  0  0  0  0  0  0  0  0  0  0  0
    1.2813   -1.3580    1.5756 H   0  0  0  0  0  0  0  0  0  0  0  0
  1  2  2  0
  2  3  1  0
  4  2  1  6
  4  5  1  0
  5  6  1  0
  6  7  1  0
  7  8  1  0
  8  9  1  0
  9 10  1  0
 10 11  1  0
 10 12  1  0
  8 13  1  0
 12  4  1  0
 13  4  1  0
 11  6  1  0
  5 14  1  0
  5 15  1  0
  6 16  1  1
  7 17  1  0
  7 18  1  0
  8 19  1  1
  9 20  1  0
  9 21  1  0
 10 22  1  6
 11 23  1  0
 11 24  1  0
 12 25  1  0
 12 26  1  0
 13 27  1  0
 13 28  1  0
M  CHG  1   3  -1
M  END
>  <_SMILES>  (54) 
O=C([O-])[C@]12C[C@H]3C[C@H](C[C@H](C3)C1)C2

$$$$
