
     RDKit          3D

 57 61  0  0  0  0  0  0  0  0999 V2000
    8.9350   -3.2990  -50.6840 C   0  0  0  0  0  0  0  0  0  0  0  0
    8.9350   -2.7140  -52.0650 C   0  0  0  0  0  0  0  0  0  0  0  0
    8.0630   -1.6900  -52.3840 C   0  0  0  0  0  0  0  0  0  0  0  0
    8.1060   -1.1920  -53.6720 C   0  0  0  0  0  0  0  0  0  0  0  0
    7.2560   -0.1200  -54.1230 N   0  0  0  0  0  0  0  0  0  0  0  0
    6.3500    0.4030  -53.0960 C   0  0  0  0  0  0  0  0  0  0  0  0
    7.4330    0.4980  -55.3610 C   0  0  0  0  0  0  0  0  0  0  0  0
    6.6400    0.4050  -56.3040 O   0  0  0  0  0  0  0  0  0  0  0  0
    8.6990    1.3080  -55.6080 C   0  0  0  0  0  0  0  0  0  0  0  0
    8.8410    2.1230  -56.9100 C   0  0  2  0  0  0  0  0  0  0  0  0
   10.0930    1.8530  -57.7800 C   0  0  1  0  0  0  0  0  0  0  0  0
    9.7980    2.3950  -59.2000 C   0  0  0  0  0  0  0  0  0  0  0  0
    9.5240    3.9110  -59.1470 C   0  0  2  0  0  0  0  0  0  0  0  0
   10.7750    4.6190  -58.6050 C   0  0  0  0  0  0  0  0  0  0  0  0
   11.0920    4.1000  -57.1930 C   0  0  2  0  0  0  0  0  0  0  0  0
   11.3390    2.5850  -57.2510 C   0  0  0  0  0  0  0  0  0  0  0  0
    9.8960    4.3810  -56.2740 C   0  0  0  0  0  0  0  0  0  0  0  0
    8.6360    3.6560  -56.7860 C   0  0  1  0  0  0  0  0  0  0  0  0
    8.3380    4.1980  -58.2050 C   0  0  0  0  0  0  0  0  0  0  0  0
    8.9960   -1.6760  -54.5640 N   0  0  0  0  0  0  0  0  0  0  0  0
    9.8110   -2.6750  -54.1780 C   0  0  0  0  0  0  0  0  0  0  0  0
   10.7730   -3.2040  -55.1690 C   0  0  0  0  0  0  0  0  0  0  0  0
   11.3640   -4.4760  -55.0160 C   0  0  0  0  0  0  0  0  0  0  0  0
   12.2740   -4.9770  -55.9530 C   0  0  0  0  0  0  0  0  0  0  0  0
   12.6070   -4.2100  -57.0600 C   0  0  0  0  0  0  0  0  0  0  0  0
   13.4790   -4.6900  -57.9580 F   0  0  0  0  0  0  0  0  0  0  0  0
   12.0500   -2.9540  -57.2470 C   0  0  0  0  0  0  0  0  0  0  0  0
   11.1420   -2.4560  -56.3080 C   0  0  0  0  0  0  0  0  0  0  0  0
    9.8130   -3.2170  -52.9500 N   0  0  0  0  0  0  0  0  0  0  0  0
    9.9721   -3.4420  -50.3464 H   0  0  0  0  0  0  0  0  0  0  0  0
    8.4165   -2.6150  -49.9960 H   0  0  0  0  0  0  0  0  0  0  0  0
    8.4165   -4.2690  -50.6967 H   0  0  0  0  0  0  0  0  0  0  0  0
    7.3607   -1.2865  -51.6398 H   0  0  0  0  0  0  0  0  0  0  0  0
    6.7526    0.1706  -52.0991 H   0  0  0  0  0  0  0  0  0  0  0  0
    6.2578    1.4933  -53.2092 H   0  0  0  0  0  0  0  0  0  0  0  0
    5.3598   -0.0624  -53.2092 H   0  0  0  0  0  0  0  0  0  0  0  0
    8.7905    2.0196  -54.7742 H   0  0  0  0  0  0  0  0  0  0  0  0
    9.4816    0.5403  -55.6988 H   0  0  0  0  0  0  0  0  0  0  0  0
    7.9773    1.7014  -57.4450 H   0  0  0  0  0  0  0  0  0  0  0  0
   10.2977    0.7723  -57.7676 H   0  0  0  0  0  0  0  0  0  0  0  0
   10.6661    2.2055  -59.8485 H   0  0  0  0  0  0  0  0  0  0  0  0
    8.9100    1.8844  -59.6009 H   0  0  0  0  0  0  0  0  0  0  0  0
    9.2822    4.2762  -60.1560 H   0  0  0  0  0  0  0  0  0  0  0  0
   11.6275    4.4152  -59.2696 H   0  0  0  0  0  0  0  0  0  0  0  0
   10.5912    5.7027  -58.5625 H   0  0  0  0  0  0  0  0  0  0  0  0
   11.9884    4.6058  -56.8049 H   0  0  0  0  0  0  0  0  0  0  0  0
   12.1884    2.3825  -57.9199 H   0  0  0  0  0  0  0  0  0  0  0  0
   11.5591    2.2224  -56.2361 H   0  0  0  0  0  0  0  0  0  0  0  0
   10.1292    4.0272  -55.2589 H   0  0  0  0  0  0  0  0  0  0  0  0
    9.7028    5.4639  -56.2647 H   0  0  0  0  0  0  0  0  0  0  0  0
    7.8204    3.8364  -56.0703 H   0  0  0  0  0  0  0  0  0  0  0  0
    7.4352    3.7080  -58.5985 H   0  0  0  0  0  0  0  0  0  0  0  0
    8.1817    5.2853  -58.1473 H   0  0  0  0  0  0  0  0  0  0  0  0
   11.1032   -5.0878  -54.1398 H   0  0  0  0  0  0  0  0  0  0  0  0
   12.7222   -5.9718  -55.8131 H   0  0  0  0  0  0  0  0  0  0  0  0
   12.3207   -2.3537  -58.1281 H   0  0  0  0  0  0  0  0  0  0  0  0
   10.7049   -1.4581  -56.4601 H   0  0  0  0  0  0  0  0  0  0  0  0
  1  2  1  0
  2  3  1  0
  3  4  2  0
  4  5  1  0
  5  6  1  0
  5  7  1  0
  7  8  2  0
  7  9  1  0
  9 10  1  0
 10 11  1  0
 11 12  1  0
 12 13  1  0
 13 14  1  0
 14 15  1  0
 15 16  1  0
 15 17  1  0
 17 18  1  0
 18 19  1  0
  4 20  1  0
 20 21  2  0
 21 22  1  0
 22 23  1  0
 23 24  2  0
 24 25  1  0
 25 26  1  0
 25 27  2  0
 27 28  1  0
 21 29  1  0
 29  2  2  0
 18 10  1  0
 28 22  2  0
 16 11  1  0
 19 13  1  0
  1 30  1  0
  1 31  1  0
  1 32  1  0
  3 33  1  0
  6 34  1  0
  6 35  1  0
  6 36  1  0
  9 37  1  0
  9 38  1  0
 10 39  1  1
 11 40  1  1
 12 41  1  0
 12 42  1  0
 13 43  1  1
 14 44  1  0
 14 45  1  0
 15 46  1  6
 16 47  1  0
 16 48  1  0
 17 49  1  0
 17 50  1  0
 18 51  1  6
 19 52  1  0
 19 53  1  0
 23 54  1  0
 24 55  1  0
 27 56  1  0
 28 57  1  0
M  END
>  <meeko>  (1) 
{"is_sidechain": false}

$$$$

     RDKit          3D

 52 56  0  0  0  0  0  0  0  0999 V2000
    6.5250   -2.6170  -53.5790 C   0  0  0  0  0  0  0  0  0  0  0  0
    7.4610   -2.7980  -52.4900 N   0  0  0  0  0  0  0  0  0  0  0  0
    7.0650   -3.0500  -51.1970 C   0  0  0  0  0  0  0  0  0  0  0  0
    8.1880   -3.1670  -50.4160 C   0  0  0  0  0  0  0  0  0  0  0  0
    9.2990   -2.9800  -51.2660 C   0  0  0  0  0  0  0  0  0  0  0  0
    8.8450   -2.7490  -52.5620 C   0  0  0  0  0  0  0  0  0  0  0  0
    9.6430   -2.5050  -53.7640 C   0  0  0  0  0  0  0  0  0  0  0  0
   10.2930   -3.5300  -54.3160 N   0  0  0  0  0  0  0  0  0  0  0  0
   11.0050   -3.2390  -55.4140 C   0  0  0  0  0  0  0  0  0  0  0  0
   11.9480   -4.6680  -56.2340 Br  0  0  0  0  0  0  0  0  0  0  0  0
   11.0900   -1.9850  -55.9700 C   0  0  0  0  0  0  0  0  0  0  0  0
   10.3830   -1.0020  -55.3220 C   0  0  0  0  0  0  0  0  0  0  0  0
   10.3410    0.3350  -55.7270 N   0  0  0  0  0  0  0  0  0  0  0  0
    9.2360    1.1360  -55.9070 C   0  0  0  0  0  0  0  0  0  0  0  0
    8.0730    0.7990  -55.7170 O   0  0  0  0  0  0  0  0  0  0  0  0
    9.6270    2.5400  -56.3540 C   0  0  0  0  0  0  0  0  0  0  0  0
    9.3610    2.8080  -57.8480 C   0  0  2  0  0  0  0  0  0  0  0  0
   10.5880    2.5300  -58.7590 C   0  0  1  0  0  0  0  0  0  0  0  0
   10.1410    2.6630  -60.2300 C   0  0  0  0  0  0  0  0  0  0  0  0
    9.6260    4.0870  -60.5030 C   0  0  2  0  0  0  0  0  0  0  0  0
   10.7550    5.0950  -60.2220 C   0  0  0  0  0  0  0  0  0  0  0  0
   11.2080    4.9780  -58.7570 C   0  0  2  0  0  0  0  0  0  0  0  0
   11.7150    3.5480  -58.5020 C   0  0  0  0  0  0  0  0  0  0  0  0
   10.0130    5.2700  -57.8340 C   0  0  0  0  0  0  0  0  0  0  0  0
    8.8780    4.2620  -58.0980 C   0  0  1  0  0  0  0  0  0  0  0  0
    8.4400    4.3890  -59.5710 C   0  0  0  0  0  0  0  0  0  0  0  0
    9.6550   -1.2420  -54.2200 N   0  0  0  0  0  0  0  0  0  0  0  0
    5.5217   -2.4230  -53.1718 H   0  0  0  0  0  0  0  0  0  0  0  0
    6.8415   -1.7634  -54.1964 H   0  0  0  0  0  0  0  0  0  0  0  0
    6.5004   -3.5270  -54.1964 H   0  0  0  0  0  0  0  0  0  0  0  0
    6.0258   -3.1421  -50.8483 H   0  0  0  0  0  0  0  0  0  0  0  0
    8.2164   -3.3680  -49.3349 H   0  0  0  0  0  0  0  0  0  0  0  0
   10.3536   -3.0116  -50.9549 H   0  0  0  0  0  0  0  0  0  0  0  0
   11.6843   -1.7823  -56.8732 H   0  0  0  0  0  0  0  0  0  0  0  0
   11.2630    0.7160  -55.8960 H   0  0  0  0  0  0  0  0  0  0  0  0
    9.0507    3.2665  -55.7623 H   0  0  0  0  0  0  0  0  0  0  0  0
   10.7112    2.6386  -56.1965 H   0  0  0  0  0  0  0  0  0  0  0  0
    8.5670    2.0965  -58.1186 H   0  0  0  0  0  0  0  0  0  0  0  0
   10.9672    1.5207  -58.5411 H   0  0  0  0  0  0  0  0  0  0  0  0
   10.9958    2.4532  -60.8898 H   0  0  0  0  0  0  0  0  0  0  0  0
    9.3307    1.9451  -60.4249 H   0  0  0  0  0  0  0  0  0  0  0  0
    9.3034    4.1677  -61.5515 H   0  0  0  0  0  0  0  0  0  0  0  0
   11.6066    4.8831  -60.8852 H   0  0  0  0  0  0  0  0  0  0  0  0
   10.3849    6.1143  -60.4065 H   0  0  0  0  0  0  0  0  0  0  0  0
   12.0139    5.6987  -58.5542 H   0  0  0  0  0  0  0  0  0  0  0  0
   12.5574    3.3355  -59.1767 H   0  0  0  0  0  0  0  0  0  0  0  0
   12.0420    3.4646  -57.4550 H   0  0  0  0  0  0  0  0  0  0  0  0
   10.3352    5.1880  -56.7855 H   0  0  0  0  0  0  0  0  0  0  0  0
    9.6442    6.2866  -58.0351 H   0  0  0  0  0  0  0  0  0  0  0  0
    8.0426    4.4808  -57.4167 H   0  0  0  0  0  0  0  0  0  0  0  0
    7.6281    3.6745  -59.7721 H   0  0  0  0  0  0  0  0  0  0  0  0
    8.0895    5.4153  -59.7552 H   0  0  0  0  0  0  0  0  0  0  0  0
  1  2  1  0
  2  3  1  0
  3  4  2  0
  4  5  1  0
  5  6  2  0
  6  7  1  0
  7  8  2  0
  8  9  1  0
  9 10  1  0
  9 11  2  0
 11 12  1  0
 12 13  1  0
 13 14  1  0
 14 15  2  0
 14 16  1  0
 16 17  1  0
 17 18  1  0
 18 19  1  0
 19 20  1  0
 20 21  1  0
 21 22  1  0
 22 23  1  0
 22 24  1  0
 24 25  1  0
 25 26  1  0
 12 27  2  0
  6  2  1  0
 27  7  1  0
 25 17  1  0
 23 18  1  0
 26 20  1  0
  1 28  1  0
  1 29  1  0
  1 30  1  0
  3 31  1  0
  4 32  1  0
  5 33  1  0
 11 34  1  0
 13 35  1  0
 16 36  1  0
 16 37  1  0
 17 38  1  1
 18 39  1  1
 19 40  1  0
 19 41  1  0
 20 42  1  1
 21 43  1  0
 21 44  1  0
 22 45  1  6
 23 46  1  0
 23 47  1  0
 24 48  1  0
 24 49  1  0
 25 50  1  6
 26 51  1  0
 26 52  1  0
M  END
>  <meeko>  (2) 
{"is_sidechain": false}

$$$$

     RDKit          3D

 52 56  0  0  0  0  0  0  0  0999 V2000
    6.3540   -0.8940  -54.9370 O   0  0  0  0  0  0  0  0  0  0  0  0
    7.2260   -0.3050  -54.3080 C   0  0  0  0  0  0  0  0  0  0  0  0
    7.5430   -0.7050  -52.8760 C   0  0  0  0  0  0  0  0  0  0  0  0
    7.0780   -2.1360  -52.5480 C   0  0  2  0  0  0  0  0  0  0  0  0
    6.6270   -2.2740  -51.0700 C   0  0  1  0  0  0  0  0  0  0  0  0
    5.9940   -3.6670  -50.8780 C   0  0  0  0  0  0  0  0  0  0  0  0
    7.0230   -4.7660  -51.1920 C   0  0  2  0  0  0  0  0  0  0  0  0
    8.2230   -4.6180  -50.2400 C   0  0  0  0  0  0  0  0  0  0  0  0
    8.8710   -3.2350  -50.4240 C   0  0  2  0  0  0  0  0  0  0  0  0
    7.8280   -2.1480  -50.1140 C   0  0  0  0  0  0  0  0  0  0  0  0
    9.3460   -3.0920  -51.8800 C   0  0  0  0  0  0  0  0  0  0  0  0
    8.1500   -3.2200  -52.8440 C   0  0  1  0  0  0  0  0  0  0  0  0
    7.5090   -4.6090  -52.6440 C   0  0  0  0  0  0  0  0  0  0  0  0
    7.9910    0.7490  -54.7450 N   0  0  0  0  0  0  0  0  0  0  0  0
    7.9360    1.3290  -56.0050 C   0  0  0  0  0  0  0  0  0  0  0  0
    6.7220    1.6840  -56.3860 N   0  0  0  0  0  0  0  0  0  0  0  0
    6.6960    2.2080  -57.6000 C   0  0  0  0  0  0  0  0  0  0  0  0
    5.1560    2.6690  -58.1790 Cl  0  0  0  0  0  0  0  0  0  0  0  0
    7.7090    2.4100  -58.4290 N   0  0  0  0  0  0  0  0  0  0  0  0
    8.8820    2.0560  -57.9300 C   0  0  0  0  0  0  0  0  0  0  0  0
    9.9830    2.2470  -58.7640 N   0  0  0  0  0  0  0  0  0  0  0  0
   10.8470    3.3540  -58.8330 C   0  0  0  0  0  0  0  0  0  0  0  0
   10.5750    4.3820  -59.7480 C   0  0  0  0  0  0  0  0  0  0  0  0
    9.4650    4.3120  -60.5010 F   0  0  0  0  0  0  0  0  0  0  0  0
   11.4240    5.4730  -59.9090 C   0  0  0  0  0  0  0  0  0  0  0  0
   12.5760    5.5440  -59.1400 C   0  0  0  0  0  0  0  0  0  0  0  0
   13.4000    6.5890  -59.2850 F   0  0  0  0  0  0  0  0  0  0  0  0
   12.8810    4.5560  -58.2150 C   0  0  0  0  0  0  0  0  0  0  0  0
   12.0160    3.4740  -58.0660 C   0  0  0  0  0  0  0  0  0  0  0  0
   12.2940    2.5770  -57.1060 F   0  0  0  0  0  0  0  0  0  0  0  0
    9.0250    1.4930  -56.7380 N   0  0  0  0  0  0  0  0  0  0  0  0
    8.6309   -0.6440  -52.7251 H   0  0  0  0  0  0  0  0  0  0  0  0
    7.0036   -0.0165  -52.2089 H   0  0  0  0  0  0  0  0  0  0  0  0
    6.2226   -2.3095  -53.2175 H   0  0  0  0  0  0  0  0  0  0  0  0
    5.9065   -1.4743  -50.8435 H   0  0  0  0  0  0  0  0  0  0  0  0
    5.6564   -3.7722  -49.8364 H   0  0  0  0  0  0  0  0  0  0  0  0
    5.1389   -3.7700  -51.5622 H   0  0  0  0  0  0  0  0  0  0  0  0
    6.5607   -5.7555  -51.0613 H   0  0  0  0  0  0  0  0  0  0  0  0
    7.8790   -4.7240  -49.2006 H   0  0  0  0  0  0  0  0  0  0  0  0
    8.9642   -5.3981  -50.4682 H   0  0  0  0  0  0  0  0  0  0  0  0
    9.7295   -3.1272  -49.7448 H   0  0  0  0  0  0  0  0  0  0  0  0
    7.4803   -2.2635  -49.0768 H   0  0  0  0  0  0  0  0  0  0  0  0
    8.2904   -1.1589  -50.2475 H   0  0  0  0  0  0  0  0  0  0  0  0
    9.8169   -2.1069  -52.0137 H   0  0  0  0  0  0  0  0  0  0  0  0
   10.0724   -3.8880  -52.1009 H   0  0  0  0  0  0  0  0  0  0  0  0
    8.5098   -3.0899  -53.8753 H   0  0  0  0  0  0  0  0  0  0  0  0
    6.6535   -4.7162  -53.3271 H   0  0  0  0  0  0  0  0  0  0  0  0
    8.2593   -5.3846  -52.8572 H   0  0  0  0  0  0  0  0  0  0  0  0
    8.6500    1.1920  -54.1240 H   0  0  0  0  0  0  0  0  0  0  0  0
   10.3740    1.3580  -59.0460 H   0  0  0  0  0  0  0  0  0  0  0  0
   11.1854    6.2654  -60.6337 H   0  0  0  0  0  0  0  0  0  0  0  0
   13.7947    4.6261  -57.6066 H   0  0  0  0  0  0  0  0  0  0  0  0
  1  2  2  0
  2  3  1  0
  3  4  1  0
  4  5  1  0
  5  6  1  0
  6  7  1  0
  7  8  1  0
  8  9  1  0
  9 10  1  0
  9 11  1  0
 11 12  1  0
 12 13  1  0
  2 14  1  0
 14 15  1  0
 15 16  1  0
 16 17  2  0
 17 18  1  0
 17 19  1  0
 19 20  2  0
 20 21  1  0
 21 22  1  0
 22 23  2  0
 23 24  1  0
 23 25  1  0
 25 26  2  0
 26 27  1  0
 26 28  1  0
 28 29  2  0
 29 30  1  0
 20 31  1  0
 12  4  1  0
 31 15  2  0
 10  5  1  0
 29 22  1  0
 13  7  1  0
  3 32  1  0
  3 33  1  0
  4 34  1  1
  5 35  1  6
  6 36  1  0
  6 37  1  0
  7 38  1  1
  8 39  1  0
  8 40  1  0
  9 41  1  6
 10 42  1  0
 10 43  1  0
 11 44  1  0
 11 45  1  0
 12 46  1  1
 13 47  1  0
 13 48  1  0
 14 49  1  0
 21 50  1  0
 25 51  1  0
 28 52  1  0
M  END
>  <meeko>  (3) 
{"is_sidechain": false}

$$$$

     RDKit          3D

 52 56  0  0  0  0  0  0  0  0999 V2000
    5.9290   -0.7870  -54.5160 O   0  0  0  0  0  0  0  0  0  0  0  0
    6.8120   -0.3600  -53.7820 C   0  0  0  0  0  0  0  0  0  0  0  0
    6.9590   -0.7910  -52.3280 C   0  0  0  0  0  0  0  0  0  0  0  0
    6.7150   -2.2960  -52.1050 C   0  0  2  0  0  0  0  0  0  0  0  0
    6.4650   -2.6730  -50.6200 C   0  0  1  0  0  0  0  0  0  0  0  0
    6.0620   -4.1620  -50.5550 C   0  0  0  0  0  0  0  0  0  0  0  0
    7.1940   -5.0440  -51.1110 C   0  0  2  0  0  0  0  0  0  0  0  0
    8.4640   -4.8240  -50.2710 C   0  0  0  0  0  0  0  0  0  0  0  0
    8.8810   -3.3450  -50.3280 C   0  0  2  0  0  0  0  0  0  0  0  0
    7.7380   -2.4800  -49.7720 C   0  0  0  0  0  0  0  0  0  0  0  0
    9.1560   -2.9540  -51.7910 C   0  0  0  0  0  0  0  0  0  0  0  0
    7.8890   -3.1590  -52.6430 C   0  0  1  0  0  0  0  0  0  0  0  0
    7.4820   -4.6440  -52.5680 C   0  0  0  0  0  0  0  0  0  0  0  0
    7.8160    0.5290  -54.1460 N   0  0  0  0  0  0  0  0  0  0  0  0
    8.0160    1.1680  -55.3400 C   0  0  0  0  0  0  0  0  0  0  0  0
    7.1450    0.9470  -56.3660 N   0  0  0  0  0  0  0  0  0  0  0  0
    7.4110    1.5910  -57.4470 C   0  0  0  0  0  0  0  0  0  0  0  0
    6.4180    1.4170  -58.8180 Cl  0  0  0  0  0  0  0  0  0  0  0  0
    8.4580    2.4270  -57.5740 N   0  0  0  0  0  0  0  0  0  0  0  0
    9.3080    2.6210  -56.5370 C   0  0  0  0  0  0  0  0  0  0  0  0
   10.3560    3.3760  -56.4910 N   0  0  0  0  0  0  0  0  0  0  0  0
   10.7450    4.1230  -57.6160 C   0  0  0  0  0  0  0  0  0  0  0  0
    9.9890    5.2220  -58.0390 C   0  0  0  0  0  0  0  0  0  0  0  0
    8.8470    5.5340  -57.4070 F   0  0  0  0  0  0  0  0  0  0  0  0
   10.3800    6.0040  -59.1220 C   0  0  0  0  0  0  0  0  0  0  0  0
   11.5520    5.6870  -59.7940 C   0  0  0  0  0  0  0  0  0  0  0  0
   11.9350    6.4300  -60.8390 F   0  0  0  0  0  0  0  0  0  0  0  0
   12.3330    4.6060  -59.4050 C   0  0  0  0  0  0  0  0  0  0  0  0
   11.9250    3.8380  -58.3170 C   0  0  0  0  0  0  0  0  0  0  0  0
   12.6730    2.7810  -57.9650 F   0  0  0  0  0  0  0  0  0  0  0  0
    9.0460    1.9490  -55.3750 N   0  0  0  0  0  0  0  0  0  0  0  0
    7.9795   -0.5507  -51.9952 H   0  0  0  0  0  0  0  0  0  0  0  0
    6.1939   -0.2504  -51.7515 H   0  0  0  0  0  0  0  0  0  0  0  0
    5.7977   -2.5131  -52.6720 H   0  0  0  0  0  0  0  0  0  0  0  0
    5.6727   -2.0219  -50.2221 H   0  0  0  0  0  0  0  0  0  0  0  0
    5.8654   -4.4398  -49.5090 H   0  0  0  0  0  0  0  0  0  0  0  0
    5.1569   -4.3155  -51.1610 H   0  0  0  0  0  0  0  0  0  0  0  0
    6.8938   -6.1013  -51.0677 H   0  0  0  0  0  0  0  0  0  0  0  0
    8.2639   -5.1063  -49.2269 H   0  0  0  0  0  0  0  0  0  0  0  0
    9.2771   -5.4448  -50.6754 H   0  0  0  0  0  0  0  0  0  0  0  0
    9.7895   -3.1872  -49.7282 H   0  0  0  0  0  0  0  0  0  0  0  0
    7.5309   -2.7754  -48.7328 H   0  0  0  0  0  0  0  0  0  0  0  0
    8.0373   -1.4221  -49.8085 H   0  0  0  0  0  0  0  0  0  0  0  0
    9.4560   -1.8966  -51.8344 H   0  0  0  0  0  0  0  0  0  0  0  0
    9.9619   -3.5893  -52.1872 H   0  0  0  0  0  0  0  0  0  0  0  0
    8.1047   -2.8589  -53.6791 H   0  0  0  0  0  0  0  0  0  0  0  0
    6.5780   -4.8038  -53.1740 H   0  0  0  0  0  0  0  0  0  0  0  0
    8.3068   -5.2616  -52.9530 H   0  0  0  0  0  0  0  0  0  0  0  0
    8.5120    0.7770  -53.4590 H   0  0  0  0  0  0  0  0  0  0  0  0
    8.6100    2.8840  -58.4560 H   0  0  0  0  0  0  0  0  0  0  0  0
    9.7687    6.8611  -59.4407 H   0  0  0  0  0  0  0  0  0  0  0  0
   13.2581    4.3607  -59.9471 H   0  0  0  0  0  0  0  0  0  0  0  0
  1  2  2  0
  2  3  1  0
  3  4  1  0
  4  5  1  0
  5  6  1  0
  6  7  1  0
  7  8  1  0
  8  9  1  0
  9 10  1  0
  9 11  1  0
 11 12  1  0
 12 13  1  0
  2 14  1  0
 14 15  1  0
 15 16  1  0
 16 17  2  0
 17 18  1  0
 17 19  1  0
 19 20  1  0
 20 21  2  0
 21 22  1  0
 22 23  2  0
 23 24  1  0
 23 25  1  0
 25 26  2  0
 26 27  1  0
 26 28  1  0
 28 29  2  0
 29 30  1  0
 20 31  1  0
 12  4  1  0
 31 15  2  0
 10  5  1  0
 29 22  1  0
 13  7  1  0
  3 32  1  0
  3 33  1  0
  4 34  1  1
  5 35  1  6
  6 36  1  0
  6 37  1  0
  7 38  1  1
  8 39  1  0
  8 40  1  0
  9 41  1  6
 10 42  1  0
 10 43  1  0
 11 44  1  0
 11 45  1  0
 12 46  1  1
 13 47  1  0
 13 48  1  0
 14 49  1  0
 19 50  1  0
 25 51  1  0
 28 52  1  0
M  END
>  <meeko>  (4) 
{"is_sidechain": false}

$$$$

     RDKit          3D

 52 56  0  0  0  0  0  0  0  0999 V2000
    7.2660    2.7570  -56.6880 O   0  0  0  0  0  0  0  0  0  0  0  0
    6.4040    1.8890  -56.7750 C   0  0  0  0  0  0  0  0  0  0  0  0
    6.0710    0.9930  -55.5990 C   0  0  0  0  0  0  0  0  0  0  0  0
    7.0220   -0.1710  -55.2670 C   0  0  2  0  0  0  0  0  0  0  0  0
    6.3660   -1.3360  -54.4780 C   0  0  1  0  0  0  0  0  0  0  0  0
    7.2790   -2.5760  -54.6230 C   0  0  0  0  0  0  0  0  0  0  0  0
    8.6730   -2.2810  -54.0370 C   0  0  2  0  0  0  0  0  0  0  0  0
    8.5200   -1.9560  -52.5430 C   0  0  0  0  0  0  0  0  0  0  0  0
    7.6160   -0.7250  -52.3700 C   0  0  2  0  0  0  0  0  0  0  0  0
    6.2350   -1.0120  -52.9800 C   0  0  0  0  0  0  0  0  0  0  0  0
    8.2550    0.4670  -53.0980 C   0  0  0  0  0  0  0  0  0  0  0  0
    8.3830    0.1740  -54.6090 C   0  0  1  0  0  0  0  0  0  0  0  0
    9.2970   -1.0680  -54.7570 C   0  0  0  0  0  0  0  0  0  0  0  0
    5.6010    1.6510  -57.8780 N   0  0  0  0  0  0  0  0  0  0  0  0
    5.8600    2.0190  -59.1700 C   0  0  0  0  0  0  0  0  0  0  0  0
    4.8800    1.5990  -60.0310 N   0  0  0  0  0  0  0  0  0  0  0  0
    5.0840    1.9250  -61.2640 C   0  0  0  0  0  0  0  0  0  0  0  0
    3.9510    1.4800  -62.4540 Cl  0  0  0  0  0  0  0  0  0  0  0  0
    6.1660    2.6010  -61.6850 N   0  0  0  0  0  0  0  0  0  0  0  0
    7.1330    2.9500  -60.8120 C   0  0  0  0  0  0  0  0  0  0  0  0
    8.2240    3.5290  -61.2120 N   0  0  0  0  0  0  0  0  0  0  0  0
    9.1870    3.8290  -60.2230 C   0  0  0  0  0  0  0  0  0  0  0  0
   10.3150    3.0190  -60.0490 C   0  0  0  0  0  0  0  0  0  0  0  0
   10.4870    1.9310  -60.8180 F   0  0  0  0  0  0  0  0  0  0  0  0
   11.2800    3.3130  -59.0890 C   0  0  0  0  0  0  0  0  0  0  0  0
   11.1130    4.4340  -58.2870 C   0  0  0  0  0  0  0  0  0  0  0  0
   12.0340    4.7220  -57.3580 F   0  0  0  0  0  0  0  0  0  0  0  0
   10.0030    5.2570  -58.4230 C   0  0  0  0  0  0  0  0  0  0  0  0
    9.0480    4.9460  -59.3860 C   0  0  0  0  0  0  0  0  0  0  0  0
    7.9790    5.7490  -59.5110 F   0  0  0  0  0  0  0  0  0  0  0  0
    6.9300    2.6590  -59.4940 N   0  0  0  0  0  0  0  0  0  0  0  0
    6.0199    1.6345  -54.7069 H   0  0  0  0  0  0  0  0  0  0  0  0
    5.1346    0.4979  -55.8958 H   0  0  0  0  0  0  0  0  0  0  0  0
    7.2544   -0.4972  -56.2915 H   0  0  0  0  0  0  0  0  0  0  0  0
    5.3577   -1.5092  -54.8822 H   0  0  0  0  0  0  0  0  0  0  0  0
    6.8299   -3.4231  -54.0838 H   0  0  0  0  0  0  0  0  0  0  0  0
    7.3828   -2.8229  -55.6899 H   0  0  0  0  0  0  0  0  0  0  0  0
    9.3245   -3.1569  -54.1729 H   0  0  0  0  0  0  0  0  0  0  0  0
    8.0693   -2.8160  -52.0261 H   0  0  0  0  0  0  0  0  0  0  0  0
    9.5101   -1.7438  -52.1133 H   0  0  0  0  0  0  0  0  0  0  0  0
    7.5012   -0.4949  -51.3005 H   0  0  0  0  0  0  0  0  0  0  0  0
    5.7815   -1.8700  -52.4621 H   0  0  0  0  0  0  0  0  0  0  0  0
    5.6013   -0.1206  -52.8623 H   0  0  0  0  0  0  0  0  0  0  0  0
    7.6262    1.3581  -52.9542 H   0  0  0  0  0  0  0  0  0  0  0  0
    9.2591    0.6398  -52.6833 H   0  0  0  0  0  0  0  0  0  0  0  0
    8.7820    1.0724  -55.1026 H   0  0  0  0  0  0  0  0  0  0  0  0
    9.4194   -1.3033  -55.8246 H   0  0  0  0  0  0  0  0  0  0  0  0
   10.2754   -0.8481  -54.3049 H   0  0  0  0  0  0  0  0  0  0  0  0
    4.8050    1.0420  -57.7890 H   0  0  0  0  0  0  0  0  0  0  0  0
    6.3170    2.7990  -62.6610 H   0  0  0  0  0  0  0  0  0  0  0  0
   12.1617    2.6665  -58.9679 H   0  0  0  0  0  0  0  0  0  0  0  0
    9.8805    6.1408  -57.7797 H   0  0  0  0  0  0  0  0  0  0  0  0
  1  2  2  0
  2  3  1  0
  3  4  1  0
  4  5  1  0
  5  6  1  0
  6  7  1  0
  7  8  1  0
  8  9  1  0
  9 10  1  0
  9 11  1  0
 11 12  1  0
 12 13  1  0
  2 14  1  0
 14 15  1  0
 15 16  1  0
 16 17  2  0
 17 18  1  0
 17 19  1  0
 19 20  1  0
 20 21  2  0
 21 22  1  0
 22 23  2  0
 23 24  1  0
 23 25  1  0
 25 26  2  0
 26 27  1  0
 26 28  1  0
 28 29  2  0
 29 30  1  0
 20 31  1  0
 12  4  1  0
 31 15  2  0
 10  5  1  0
 29 22  1  0
 13  7  1  0
  3 32  1  0
  3 33  1  0
  4 34  1  1
  5 35  1  1
  6 36  1  0
  6 37  1  0
  7 38  1  6
  8 39  1  0
  8 40  1  0
  9 41  1  6
 10 42  1  0
 10 43  1  0
 11 44  1  0
 11 45  1  0
 12 46  1  1
 13 47  1  0
 13 48  1  0
 14 49  1  0
 19 50  1  0
 25 51  1  0
 28 52  1  0
M  END
>  <meeko>  (5) 
{"is_sidechain": false}

$$$$

     RDKit          3D

 52 56  0  0  0  0  0  0  0  0999 V2000
    8.5280    0.4170  -53.5560 O   0  0  0  0  0  0  0  0  0  0  0  0
    7.4740   -0.1040  -53.9120 C   0  0  0  0  0  0  0  0  0  0  0  0
    6.7330   -1.1100  -53.0560 C   0  0  0  0  0  0  0  0  0  0  0  0
    7.6400   -1.6910  -51.9570 C   0  0  2  0  0  0  0  0  0  0  0  0
    8.5990   -2.8070  -52.4510 C   0  0  1  0  0  0  0  0  0  0  0  0
    9.5590   -3.1740  -51.3010 C   0  0  0  0  0  0  0  0  0  0  0  0
    8.7650   -3.6970  -50.0910 C   0  0  2  0  0  0  0  0  0  0  0  0
    7.9740   -4.9470  -50.5100 C   0  0  0  0  0  0  0  0  0  0  0  0
    7.0070   -4.5970  -51.6550 C   0  0  2  0  0  0  0  0  0  0  0  0
    7.8170   -4.0720  -52.8520 C   0  0  0  0  0  0  0  0  0  0  0  0
    6.0350   -3.5060  -51.1740 C   0  0  0  0  0  0  0  0  0  0  0  0
    6.8140   -2.2420  -50.7630 C   0  0  1  0  0  0  0  0  0  0  0  0
    7.7820   -2.6120  -49.6210 C   0  0  0  0  0  0  0  0  0  0  0  0
    6.8770    0.1480  -55.1310 N   0  0  0  0  0  0  0  0  0  0  0  0
    7.3600    0.9900  -56.0950 C   0  0  0  0  0  0  0  0  0  0  0  0
    6.6650    1.0890  -57.1790 N   0  0  0  0  0  0  0  0  0  0  0  0
    7.1860    1.9440  -58.1220 C   0  0  0  0  0  0  0  0  0  0  0  0
    6.2650    2.0810  -59.5620 Cl  0  0  0  0  0  0  0  0  0  0  0  0
    8.2710    2.6400  -58.0400 N   0  0  0  0  0  0  0  0  0  0  0  0
    8.9850    2.5130  -56.8810 C   0  0  0  0  0  0  0  0  0  0  0  0
   10.0920    3.1660  -56.6970 N   0  0  0  0  0  0  0  0  0  0  0  0
   10.5420    4.0150  -57.7270 C   0  0  0  0  0  0  0  0  0  0  0  0
   11.7280    3.7440  -58.4210 C   0  0  0  0  0  0  0  0  0  0  0  0
   12.4460    2.6490  -58.1240 F   0  0  0  0  0  0  0  0  0  0  0  0
   12.1880    4.5850  -59.4300 C   0  0  0  0  0  0  0  0  0  0  0  0
   11.4540    5.7210  -59.7460 C   0  0  0  0  0  0  0  0  0  0  0  0
   11.8900    6.5370  -60.7150 F   0  0  0  0  0  0  0  0  0  0  0  0
   10.2780    6.0270  -59.0750 C   0  0  0  0  0  0  0  0  0  0  0  0
    9.8340    5.1740  -58.0690 C   0  0  0  0  0  0  0  0  0  0  0  0
    8.6950    5.4800  -57.4260 F   0  0  0  0  0  0  0  0  0  0  0  0
    8.5040    1.6830  -55.9290 N   0  0  0  0  0  0  0  0  0  0  0  0
    5.8727   -0.6129  -52.5839 H   0  0  0  0  0  0  0  0  0  0  0  0
    6.4013   -1.9358  -53.7025 H   0  0  0  0  0  0  0  0  0  0  0  0
    8.2562   -0.8388  -51.6344 H   0  0  0  0  0  0  0  0  0  0  0  0
    9.1484   -2.4355  -53.3285 H   0  0  0  0  0  0  0  0  0  0  0  0
   10.2546   -3.9542  -51.6436 H   0  0  0  0  0  0  0  0  0  0  0  0
   10.1192   -2.2760  -51.0012 H   0  0  0  0  0  0  0  0  0  0  0  0
    9.4569   -3.9492  -49.2739 H   0  0  0  0  0  0  0  0  0  0  0  0
    8.6741   -5.7247  -50.8491 H   0  0  0  0  0  0  0  0  0  0  0  0
    7.3968   -5.3152  -49.6490 H   0  0  0  0  0  0  0  0  0  0  0  0
    6.4396   -5.4898  -51.9567 H   0  0  0  0  0  0  0  0  0  0  0  0
    8.5244   -4.8477  -53.1804 H   0  0  0  0  0  0  0  0  0  0  0  0
    7.1265   -3.8226  -53.6711 H   0  0  0  0  0  0  0  0  0  0  0  0
    5.3390   -3.2551  -51.9880 H   0  0  0  0  0  0  0  0  0  0  0  0
    5.4763   -3.8816  -50.3041 H   0  0  0  0  0  0  0  0  0  0  0  0
    6.0991   -1.4707  -50.4404 H   0  0  0  0  0  0  0  0  0  0  0  0
    8.3456   -1.7173  -49.3178 H   0  0  0  0  0  0  0  0  0  0  0  0
    7.2025   -2.9965  -48.7687 H   0  0  0  0  0  0  0  0  0  0  0  0
    6.0160   -0.3210  -55.3750 H   0  0  0  0  0  0  0  0  0  0  0  0
   13.1186    4.3536  -59.9689 H   0  0  0  0  0  0  0  0  0  0  0  0
    9.7058    6.9299  -59.3345 H   0  0  0  0  0  0  0  0  0  0  0  0
    9.0360    1.5840  -55.0690 H   0  0  0  0  0  0  0  0  0  0  0  0
  1  2  2  0
  2  3  1  0
  3  4  1  0
  4  5  1  0
  5  6  1  0
  6  7  1  0
  7  8  1  0
  8  9  1  0
  9 10  1  0
  9 11  1  0
 11 12  1  0
 12 13  1  0
  2 14  1  0
 14 15  1  0
 15 16  2  0
 16 17  1  0
 17 18  1  0
 17 19  2  0
 19 20  1  0
 20 21  2  0
 21 22  1  0
 22 23  2  0
 23 24  1  0
 23 25  1  0
 25 26  2  0
 26 27  1  0
 26 28  1  0
 28 29  2  0
 29 30  1  0
 20 31  1  0
 12  4  1  0
 31 15  1  0
 10  5  1  0
 29 22  1  0
 13  7  1  0
  3 32  1  0
  3 33  1  0
  4 34  1  6
  5 35  1  1
  6 36  1  0
  6 37  1  0
  7 38  1  6
  8 39  1  0
  8 40  1  0
  9 41  1  1
 10 42  1  0
 10 43  1  0
 11 44  1  0
 11 45  1  0
 12 46  1  6
 13 47  1  0
 13 48  1  0
 14 49  1  0
 25 50  1  0
 28 51  1  0
 31 52  1  0
M  END
>  <meeko>  (6) 
{"is_sidechain": false}

$$$$

     RDKit          3D

 52 56  0  0  0  0  0  0  0  0999 V2000
    7.8970    2.1360  -56.9600 O   0  0  0  0  0  0  0  0  0  0  0  0
    6.8090    1.5710  -56.8780 C   0  0  0  0  0  0  0  0  0  0  0  0
    6.2670    0.9340  -55.6100 C   0  0  0  0  0  0  0  0  0  0  0  0
    6.9310   -0.4140  -55.2750 C   0  0  2  0  0  0  0  0  0  0  0  0
    6.0710   -1.2550  -54.2930 C   0  0  1  0  0  0  0  0  0  0  0  0
    6.6970   -2.6590  -54.1700 C   0  0  0  0  0  0  0  0  0  0  0  0
    8.1290   -2.5550  -53.6170 C   0  0  2  0  0  0  0  0  0  0  0  0
    8.0840   -1.8970  -52.2280 C   0  0  0  0  0  0  0  0  0  0  0  0
    7.4670   -0.4920  -52.3320 C   0  0  2  0  0  0  0  0  0  0  0  0
    6.0400   -0.6070  -52.8960 C   0  0  0  0  0  0  0  0  0  0  0  0
    8.3250    0.3620  -53.2800 C   0  0  0  0  0  0  0  0  0  0  0  0
    8.3610   -0.2750  -54.6840 C   0  0  1  0  0  0  0  0  0  0  0  0
    8.9770   -1.6840  -54.5620 C   0  0  0  0  0  0  0  0  0  0  0  0
    5.9590    1.4270  -57.9590 N   0  0  0  0  0  0  0  0  0  0  0  0
    6.1910    1.9150  -59.2180 C   0  0  0  0  0  0  0  0  0  0  0  0
    5.2810    1.7000  -60.1060 N   0  0  0  0  0  0  0  0  0  0  0  0
    5.5670    2.2130  -61.3510 C   0  0  0  0  0  0  0  0  0  0  0  0
    4.3620    1.9270  -62.5390 Cl  0  0  0  0  0  0  0  0  0  0  0  0
    6.6200    2.8690  -61.7070 N   0  0  0  0  0  0  0  0  0  0  0  0
    7.5660    3.0850  -60.7470 C   0  0  0  0  0  0  0  0  0  0  0  0
    8.6020    3.7490  -61.1470 N   0  0  0  0  0  0  0  0  0  0  0  0
    9.6330    4.0290  -60.2330 C   0  0  0  0  0  0  0  0  0  0  0  0
    9.5740    5.1460  -59.3890 C   0  0  0  0  0  0  0  0  0  0  0  0
    8.4960    5.9440  -59.4090 F   0  0  0  0  0  0  0  0  0  0  0  0
   10.6020    5.4420  -58.4990 C   0  0  0  0  0  0  0  0  0  0  0  0
   11.7150    4.6110  -58.4550 C   0  0  0  0  0  0  0  0  0  0  0  0
   12.7080    4.8870  -57.6010 F   0  0  0  0  0  0  0  0  0  0  0  0
   11.8110    3.4970  -59.2770 C   0  0  0  0  0  0  0  0  0  0  0  0
   10.7720    3.2160  -60.1600 C   0  0  0  0  0  0  0  0  0  0  0  0
   10.8700    2.1270  -60.9350 F   0  0  0  0  0  0  0  0  0  0  0  0
    7.3210    2.5900  -59.5090 N   0  0  0  0  0  0  0  0  0  0  0  0
    6.4373    1.6253  -54.7715 H   0  0  0  0  0  0  0  0  0  0  0  0
    5.1971    0.7386  -55.7747 H   0  0  0  0  0  0  0  0  0  0  0  0
    7.0097   -0.9297  -56.2434 H   0  0  0  0  0  0  0  0  0  0  0  0
    5.0431   -1.3118  -54.6806 H   0  0  0  0  0  0  0  0  0  0  0  0
    6.0875   -3.2702  -53.4881 H   0  0  0  0  0  0  0  0  0  0  0  0
    6.7294   -3.1263  -55.1653 H   0  0  0  0  0  0  0  0  0  0  0  0
    8.5726   -3.5587  -53.5413 H   0  0  0  0  0  0  0  0  0  0  0  0
    7.4736   -2.5139  -51.5521 H   0  0  0  0  0  0  0  0  0  0  0  0
    9.1077   -1.8139  -51.8342 H   0  0  0  0  0  0  0  0  0  0  0  0
    7.4325   -0.0221  -51.3380 H   0  0  0  0  0  0  0  0  0  0  0  0
    5.4315   -1.2270  -52.2213 H   0  0  0  0  0  0  0  0  0  0  0  0
    5.6037    0.3995  -52.9767 H   0  0  0  0  0  0  0  0  0  0  0  0
    7.8941    1.3717  -53.3499 H   0  0  0  0  0  0  0  0  0  0  0  0
    9.3499    0.4180  -52.8846 H   0  0  0  0  0  0  0  0  0  0  0  0
    8.9554    0.3689  -55.3489 H   0  0  0  0  0  0  0  0  0  0  0  0
    9.0106   -2.1532  -55.5563 H   0  0  0  0  0  0  0  0  0  0  0  0
    9.9945   -1.5967  -54.1533 H   0  0  0  0  0  0  0  0  0  0  0  0
    5.0790    0.9420  -57.8470 H   0  0  0  0  0  0  0  0  0  0  0  0
   10.5346    6.3204  -57.8403 H   0  0  0  0  0  0  0  0  0  0  0  0
   12.6958    2.8450  -59.2315 H   0  0  0  0  0  0  0  0  0  0  0  0
    7.9970    2.7230  -58.7650 H   0  0  0  0  0  0  0  0  0  0  0  0
  1  2  2  0
  2  3  1  0
  3  4  1  0
  4  5  1  0
  5  6  1  0
  6  7  1  0
  7  8  1  0
  8  9  1  0
  9 10  1  0
  9 11  1  0
 11 12  1  0
 12 13  1  0
  2 14  1  0
 14 15  1  0
 15 16  2  0
 16 17  1  0
 17 18  1  0
 17 19  2  0
 19 20  1  0
 20 21  2  0
 21 22  1  0
 22 23  2  0
 23 24  1  0
 23 25  1  0
 25 26  2  0
 26 27  1  0
 26 28  1  0
 28 29  2  0
 29 30  1  0
 20 31  1  0
 12  4  1  0
 31 15  1  0
 10  5  1  0
 29 22  1  0
 13  7  1  0
  3 32  1  0
  3 33  1  0
  4 34  1  1
  5 35  1  1
  6 36  1  0
  6 37  1  0
  7 38  1  6
  8 39  1  0
  8 40  1  0
  9 41  1  6
 10 42  1  0
 10 43  1  0
 11 44  1  0
 11 45  1  0
 12 46  1  1
 13 47  1  0
 13 48  1  0
 14 49  1  0
 25 50  1  0
 28 51  1  0
 31 52  1  0
M  END
>  <meeko>  (7) 
{"is_sidechain": false}

$$$$

     RDKit          3D

 52 56  0  0  0  0  0  0  0  0999 V2000
    7.4940   -0.3200  -54.6410 O   0  0  0  0  0  0  0  0  0  0  0  0
    8.5800   -0.8930  -54.6900 C   0  0  0  0  0  0  0  0  0  0  0  0
    8.8810   -2.2260  -54.0270 C   0  0  0  0  0  0  0  0  0  0  0  0
    8.7120   -2.1950  -52.4960 C   0  0  2  0  0  0  0  0  0  0  0  0
    8.9200   -3.5970  -51.8620 C   0  0  1  0  0  0  0  0  0  0  0  0
    8.9370   -3.4460  -50.3280 C   0  0  0  0  0  0  0  0  0  0  0  0
    7.5970   -2.8690  -49.8370 C   0  0  2  0  0  0  0  0  0  0  0  0
    6.4620   -3.8250  -50.2390 C   0  0  0  0  0  0  0  0  0  0  0  0
    6.4260   -3.9830  -51.7690 C   0  0  2  0  0  0  0  0  0  0  0  0
    7.7720   -4.5510  -52.2490 C   0  0  0  0  0  0  0  0  0  0  0  0
    6.1930   -2.6050  -52.4090 C   0  0  0  0  0  0  0  0  0  0  0  0
    7.3360   -1.6430  -52.0330 C   0  0  1  0  0  0  0  0  0  0  0  0
    7.3610   -1.4980  -50.4950 C   0  0  0  0  0  0  0  0  0  0  0  0
    9.6750   -0.3600  -55.3450 N   0  0  0  0  0  0  0  0  0  0  0  0
    9.6900    0.8230  -56.0310 C   0  0  0  0  0  0  0  0  0  0  0  0
   10.8050    1.1550  -56.5900 N   0  0  0  0  0  0  0  0  0  0  0  0
   10.7880    2.3550  -57.2750 C   0  0  0  0  0  0  0  0  0  0  0  0
   11.9160    2.6650  -57.8290 N   0  0  0  0  0  0  0  0  0  0  0  0
   12.0000    3.8700  -58.5510 C   0  0  0  0  0  0  0  0  0  0  0  0
   12.7850    4.9350  -58.0900 C   0  0  0  0  0  0  0  0  0  0  0  0
   13.4540    4.8270  -56.9310 F   0  0  0  0  0  0  0  0  0  0  0  0
   12.8870    6.1260  -58.8050 C   0  0  0  0  0  0  0  0  0  0  0  0
   12.1990    6.2520  -60.0050 C   0  0  0  0  0  0  0  0  0  0  0  0
   12.2930    7.3920  -60.6990 F   0  0  0  0  0  0  0  0  0  0  0  0
   11.4180    5.2150  -60.4970 C   0  0  0  0  0  0  0  0  0  0  0  0
   11.3270    4.0330  -59.7680 C   0  0  0  0  0  0  0  0  0  0  0  0
   10.5660    3.0390  -60.2530 F   0  0  0  0  0  0  0  0  0  0  0  0
    9.7000    3.1970  -57.3980 N   0  0  0  0  0  0  0  0  0  0  0  0
    8.6430    2.7670  -56.8010 C   0  0  0  0  0  0  0  0  0  0  0  0
    7.2090    3.6830  -56.8510 Cl  0  0  0  0  0  0  0  0  0  0  0  0
    8.5930    1.6060  -56.1180 N   0  0  0  0  0  0  0  0  0  0  0  0
    8.1977   -2.9833  -54.4388 H   0  0  0  0  0  0  0  0  0  0  0  0
    9.9348   -2.4634  -54.2345 H   0  0  0  0  0  0  0  0  0  0  0  0
    9.4935   -1.5043  -52.1464 H   0  0  0  0  0  0  0  0  0  0  0  0
    9.8688   -4.0151  -52.2293 H   0  0  0  0  0  0  0  0  0  0  0  0
    9.0990   -4.4317  -49.8674 H   0  0  0  0  0  0  0  0  0  0  0  0
    9.7492   -2.7610  -50.0432 H   0  0  0  0  0  0  0  0  0  0  0  0
    7.6199   -2.7542  -48.7432 H   0  0  0  0  0  0  0  0  0  0  0  0
    6.6317   -4.8078  -49.7749 H   0  0  0  0  0  0  0  0  0  0  0  0
    5.5023   -3.4116  -49.8954 H   0  0  0  0  0  0  0  0  0  0  0  0
    5.6145   -4.6671  -52.0579 H   0  0  0  0  0  0  0  0  0  0  0  0
    7.9406   -5.5317  -51.7802 H   0  0  0  0  0  0  0  0  0  0  0  0
    7.7471   -4.6578  -53.3435 H   0  0  0  0  0  0  0  0  0  0  0  0
    6.1552   -2.7143  -53.5029 H   0  0  0  0  0  0  0  0  0  0  0  0
    5.2420   -2.1940  -52.0393 H   0  0  0  0  0  0  0  0  0  0  0  0
    7.1612   -0.6762  -52.5277 H   0  0  0  0  0  0  0  0  0  0  0  0
    8.1717   -0.8124  -50.2076 H   0  0  0  0  0  0  0  0  0  0  0  0
    6.3940   -1.0982  -50.1559 H   0  0  0  0  0  0  0  0  0  0  0  0
   10.5540   -0.8600  -55.3530 H   0  0  0  0  0  0  0  0  0  0  0  0
   13.5031    6.9543  -58.4250 H   0  0  0  0  0  0  0  0  0  0  0  0
   10.8789    5.3260  -61.4494 H   0  0  0  0  0  0  0  0  0  0  0  0
    7.7360    1.3110  -55.6610 H   0  0  0  0  0  0  0  0  0  0  0  0
  1  2  2  0
  2  3  1  0
  3  4  1  0
  4  5  1  0
  5  6  1  0
  6  7  1  0
  7  8  1  0
  8  9  1  0
  9 10  1  0
  9 11  1  0
 11 12  1  0
 12 13  1  0
  2 14  1  0
 14 15  1  0
 15 16  2  0
 16 17  1  0
 17 18  2  0
 18 19  1  0
 19 20  2  0
 20 21  1  0
 20 22  1  0
 22 23  2  0
 23 24  1  0
 23 25  1  0
 25 26  2  0
 26 27  1  0
 17 28  1  0
 28 29  2  0
 29 30  1  0
 29 31  1  0
 12  4  1  0
 31 15  1  0
 10  5  1  0
 26 19  1  0
 13  7  1  0
  3 32  1  0
  3 33  1  0
  4 34  1  6
  5 35  1  1
  6 36  1  0
  6 37  1  0
  7 38  1  6
  8 39  1  0
  8 40  1  0
  9 41  1  6
 10 42  1  0
 10 43  1  0
 11 44  1  0
 11 45  1  0
 12 46  1  1
 13 47  1  0
 13 48  1  0
 14 49  1  0
 22 50  1  0
 25 51  1  0
 31 52  1  0
M  END
>  <meeko>  (8) 
{"is_sidechain": false}

$$$$

     RDKit          3D

 52 56  0  0  0  0  0  0  0  0999 V2000
    6.0110    0.1440  -55.0110 O   0  0  0  0  0  0  0  0  0  0  0  0
    7.2320    0.2980  -54.9980 C   0  0  0  0  0  0  0  0  0  0  0  0
    8.1380   -0.4390  -54.0320 C   0  0  0  0  0  0  0  0  0  0  0  0
    8.8570   -1.6280  -54.6930 C   0  0  2  0  0  0  0  0  0  0  0  0
    8.7440   -2.9500  -53.8860 C   0  0  1  0  0  0  0  0  0  0  0  0
    9.3470   -4.0920  -54.7320 C   0  0  0  0  0  0  0  0  0  0  0  0
   10.8310   -3.8090  -55.0260 C   0  0  2  0  0  0  0  0  0  0  0  0
   11.5960   -3.7020  -53.6960 C   0  0  0  0  0  0  0  0  0  0  0  0
   11.0100   -2.5640  -52.8430 C   0  0  2  0  0  0  0  0  0  0  0  0
    9.5270   -2.8590  -52.5630 C   0  0  0  0  0  0  0  0  0  0  0  0
   11.1340   -1.2400  -53.6180 C   0  0  0  0  0  0  0  0  0  0  0  0
   10.3590   -1.3280  -54.9460 C   0  0  1  0  0  0  0  0  0  0  0  0
   10.9550   -2.4760  -55.7860 C   0  0  0  0  0  0  0  0  0  0  0  0
    7.8920    1.1490  -55.8600 N   0  0  0  0  0  0  0  0  0  0  0  0
    7.3010    1.8990  -56.8390 C   0  0  0  0  0  0  0  0  0  0  0  0
    8.0810    2.6340  -57.5590 N   0  0  0  0  0  0  0  0  0  0  0  0
    7.4440    3.3780  -58.5430 C   0  0  0  0  0  0  0  0  0  0  0  0
    8.1390    4.1440  -59.3230 N   0  0  0  0  0  0  0  0  0  0  0  0
    9.5340    4.2000  -59.1480 C   0  0  0  0  0  0  0  0  0  0  0  0
   10.1130    5.0990  -58.2450 C   0  0  0  0  0  0  0  0  0  0  0  0
    9.3370    5.9030  -57.5020 F   0  0  0  0  0  0  0  0  0  0  0  0
   11.4940    5.1790  -58.0820 C   0  0  0  0  0  0  0  0  0  0  0  0
   12.3100    4.3480  -58.8370 C   0  0  0  0  0  0  0  0  0  0  0  0
   13.6380    4.4140  -58.6830 F   0  0  0  0  0  0  0  0  0  0  0  0
   11.7730    3.4480  -59.7460 C   0  0  0  0  0  0  0  0  0  0  0  0
   10.3900    3.3820  -59.8970 C   0  0  0  0  0  0  0  0  0  0  0  0
    9.8850    2.5020  -60.7740 F   0  0  0  0  0  0  0  0  0  0  0  0
    6.0910    3.3890  -58.7930 N   0  0  0  0  0  0  0  0  0  0  0  0
    5.4110    2.6200  -58.0160 C   0  0  0  0  0  0  0  0  0  0  0  0
    3.7210    2.5120  -58.1850 Cl  0  0  0  0  0  0  0  0  0  0  0  0
    5.9660    1.8690  -57.0430 N   0  0  0  0  0  0  0  0  0  0  0  0
    8.8939    0.2634  -53.6509 H   0  0  0  0  0  0  0  0  0  0  0  0
    7.5107   -0.8357  -53.2202 H   0  0  0  0  0  0  0  0  0  0  0  0
    8.3358   -1.7678  -55.6516 H   0  0  0  0  0  0  0  0  0  0  0  0
    7.6840   -3.1362  -53.6585 H   0  0  0  0  0  0  0  0  0  0  0  0
    9.2603   -5.0388  -54.1788 H   0  0  0  0  0  0  0  0  0  0  0  0
    8.7995   -4.1615  -55.6835 H   0  0  0  0  0  0  0  0  0  0  0  0
   11.2497   -4.6236  -55.6352 H   0  0  0  0  0  0  0  0  0  0  0  0
   11.5076   -4.6513  -53.1474 H   0  0  0  0  0  0  0  0  0  0  0  0
   12.6549   -3.4891  -53.9043 H   0  0  0  0  0  0  0  0  0  0  0  0
   11.5563   -2.4864  -51.8914 H   0  0  0  0  0  0  0  0  0  0  0  0
    9.4420   -3.8141  -52.0240 H   0  0  0  0  0  0  0  0  0  0  0  0
    9.1080   -2.0451  -51.9531 H   0  0  0  0  0  0  0  0  0  0  0  0
   10.7206   -0.4223  -53.0093 H   0  0  0  0  0  0  0  0  0  0  0  0
   12.1954   -1.0475  -53.8333 H   0  0  0  0  0  0  0  0  0  0  0  0
   10.4441   -0.3654  -55.4715 H   0  0  0  0  0  0  0  0  0  0  0  0
   10.4113   -2.5491  -56.7394 H   0  0  0  0  0  0  0  0  0  0  0  0
   12.0183   -2.2680  -55.9758 H   0  0  0  0  0  0  0  0  0  0  0  0
    8.8960    1.2490  -55.7980 H   0  0  0  0  0  0  0  0  0  0  0  0
   11.9313    5.8901  -57.3657 H   0  0  0  0  0  0  0  0  0  0  0  0
   12.4304    2.7955  -60.3393 H   0  0  0  0  0  0  0  0  0  0  0  0
    5.3850    1.2800  -56.4540 H   0  0  0  0  0  0  0  0  0  0  0  0
  1  2  2  0
  2  3  1  0
  3  4  1  0
  4  5  1  0
  5  6  1  0
  6  7  1  0
  7  8  1  0
  8  9  1  0
  9 10  1  0
  9 11  1  0
 11 12  1  0
 12 13  1  0
  2 14  1  0
 14 15  1  0
 15 16  2  0
 16 17  1  0
 17 18  2  0
 18 19  1  0
 19 20  2  0
 20 21  1  0
 20 22  1  0
 22 23  2  0
 23 24  1  0
 23 25  1  0
 25 26  2  0
 26 27  1  0
 17 28  1  0
 28 29  2  0
 29 30  1  0
 29 31  1  0
 12  4  1  0
 31 15  1  0
 10  5  1  0
 26 19  1  0
 13  7  1  0
  3 32  1  0
  3 33  1  0
  4 34  1  1
  5 35  1  6
  6 36  1  0
  6 37  1  0
  7 38  1  1
  8 39  1  0
  8 40  1  0
  9 41  1  6
 10 42  1  0
 10 43  1  0
 11 44  1  0
 11 45  1  0
 12 46  1  1
 13 47  1  0
 13 48  1  0
 14 49  1  0
 22 50  1  0
 25 51  1  0
 31 52  1  0
M  END
>  <meeko>  (9) 
{"is_sidechain": false}

$$$$

     RDKit          3D

 52 56  0  0  0  0  0  0  0  0999 V2000
    9.7340   -0.4060  -55.3910 O   0  0  0  0  0  0  0  0  0  0  0  0
   10.7710   -0.3690  -56.0420 C   0  0  0  0  0  0  0  0  0  0  0  0
   11.7720   -1.5190  -56.0630 C   0  0  0  0  0  0  0  0  0  0  0  0
   11.2640   -2.7630  -56.8160 C   0  0  2  0  0  0  0  0  0  0  0  0
   10.7840   -3.9060  -55.8790 C   0  0  1  0  0  0  0  0  0  0  0  0
   10.1430   -5.0100  -56.7460 C   0  0  0  0  0  0  0  0  0  0  0  0
   11.1760   -5.5750  -57.7370 C   0  0  2  0  0  0  0  0  0  0  0  0
   12.3570   -6.1700  -56.9520 C   0  0  0  0  0  0  0  0  0  0  0  0
   13.0110   -5.0800  -56.0840 C   0  0  2  0  0  0  0  0  0  0  0  0
   11.9640   -4.5250  -55.1040 C   0  0  0  0  0  0  0  0  0  0  0  0
   13.5130   -3.9460  -56.9940 C   0  0  0  0  0  0  0  0  0  0  0  0
   12.3390   -3.3340  -57.7800 C   0  0  1  0  0  0  0  0  0  0  0  0
   11.6920   -4.4410  -58.6390 C   0  0  0  0  0  0  0  0  0  0  0  0
   11.1790    0.6690  -56.8510 N   0  0  0  0  0  0  0  0  0  0  0  0
   10.5310    1.8770  -57.1030 C   0  0  0  0  0  0  0  0  0  0  0  0
   10.8050    3.0670  -56.4470 C   0  0  0  0  0  0  0  0  0  0  0  0
   10.0850    4.2100  -56.7940 C   0  0  0  0  0  0  0  0  0  0  0  0
    9.1070    4.1340  -57.7800 C   0  0  0  0  0  0  0  0  0  0  0  0
    8.2570    5.5700  -58.2140 Cl  0  0  0  0  0  0  0  0  0  0  0  0
    8.8770    2.8980  -58.3890 C   0  0  0  0  0  0  0  0  0  0  0  0
    7.8780    2.6840  -59.4430 C   0  0  0  0  0  0  0  0  0  0  0  0
    6.5860    2.2520  -59.0890 C   0  0  0  0  0  0  0  0  0  0  0  0
    5.6070    2.0280  -60.0590 C   0  0  0  0  0  0  0  0  0  0  0  0
    5.8990    2.2390  -61.4040 C   0  0  0  0  0  0  0  0  0  0  0  0
    7.1680    2.6790  -61.7770 C   0  0  0  0  0  0  0  0  0  0  0  0
    8.1500    2.9050  -60.8060 C   0  0  0  0  0  0  0  0  0  0  0  0
    9.6920    3.4760  -61.3490 Cl  0  0  0  0  0  0  0  0  0  0  0  0
    9.5900    1.7810  -58.0670 N   0  0  0  0  0  0  0  0  0  0  0  0
   12.6938   -1.1692  -56.5508 H   0  0  0  0  0  0  0  0  0  0  0  0
   11.9406   -1.8199  -55.0185 H   0  0  0  0  0  0  0  0  0  0  0  0
   10.3965   -2.4034  -57.3888 H   0  0  0  0  0  0  0  0  0  0  0  0
   10.0656   -3.4902  -55.1573 H   0  0  0  0  0  0  0  0  0  0  0  0
    9.7833   -5.8203  -56.0948 H   0  0  0  0  0  0  0  0  0  0  0  0
    9.3023   -4.5802  -57.3103 H   0  0  0  0  0  0  0  0  0  0  0  0
   10.7062   -6.3549  -58.3543 H   0  0  0  0  0  0  0  0  0  0  0  0
   11.9930   -6.9819  -56.3051 H   0  0  0  0  0  0  0  0  0  0  0  0
   13.1009   -6.5640  -57.6601 H   0  0  0  0  0  0  0  0  0  0  0  0
   13.8565   -5.5031  -55.5218 H   0  0  0  0  0  0  0  0  0  0  0  0
   11.5923   -5.3422  -54.4683 H   0  0  0  0  0  0  0  0  0  0  0  0
   12.4316   -3.7477  -54.4818 H   0  0  0  0  0  0  0  0  0  0  0  0
   13.9826   -3.1660  -56.3767 H   0  0  0  0  0  0  0  0  0  0  0  0
   14.2459   -4.3550  -57.7051 H   0  0  0  0  0  0  0  0  0  0  0  0
   12.7210   -2.5164  -58.4090 H   0  0  0  0  0  0  0  0  0  0  0  0
   10.8510   -4.0163  -59.2068 H   0  0  0  0  0  0  0  0  0  0  0  0
   12.4445   -4.8457  -59.3318 H   0  0  0  0  0  0  0  0  0  0  0  0
   12.0530    0.5920  -57.3540 H   0  0  0  0  0  0  0  0  0  0  0  0
   11.5778    3.1092  -55.6654 H   0  0  0  0  0  0  0  0  0  0  0  0
   10.2895    5.1664  -56.2906 H   0  0  0  0  0  0  0  0  0  0  0  0
    6.3431    2.0879  -58.0288 H   0  0  0  0  0  0  0  0  0  0  0  0
    4.6053    1.6849  -59.7607 H   0  0  0  0  0  0  0  0  0  0  0  0
    5.1304    2.0590  -62.1701 H   0  0  0  0  0  0  0  0  0  0  0  0
    7.3984    2.8493  -62.8390 H   0  0  0  0  0  0  0  0  0  0  0  0
  1  2  2  0
  2  3  1  0
  3  4  1  0
  4  5  1  0
  5  6  1  0
  6  7  1  0
  7  8  1  0
  8  9  1  0
  9 10  1  0
  9 11  1  0
 11 12  1  0
 12 13  1  0
  2 14  1  0
 14 15  1  0
 15 16  2  0
 16 17  1  0
 17 18  2  0
 18 19  1  0
 18 20  1  0
 20 21  1  0
 21 22  2  0
 22 23  1  0
 23 24  2  0
 24 25  1  0
 25 26  2  0
 26 27  1  0
 20 28  2  0
 12  4  1  0
 28 15  1  0
 10  5  1  0
 26 21  1  0
 13  7  1  0
  3 29  1  0
  3 30  1  0
  4 31  1  1
  5 32  1  6
  6 33  1  0
  6 34  1  0
  7 35  1  1
  8 36  1  0
  8 37  1  0
  9 38  1  6
 10 39  1  0
 10 40  1  0
 11 41  1  0
 11 42  1  0
 12 43  1  1
 13 44  1  0
 13 45  1  0
 14 46  1  0
 16 47  1  0
 17 48  1  0
 22 49  1  0
 23 50  1  0
 24 51  1  0
 25 52  1  0
M  END
>  <meeko>  (10) 
{"is_sidechain": false}

$$$$

     RDKit          3D

 43 46  0  0  0  0  0  0  0  0999 V2000
    9.2310    0.5670  -55.5680 O   0  0  0  0  0  0  0  0  0  0  0  0
   10.2310    0.6450  -56.2600 C   0  0  0  0  0  0  0  0  0  0  0  0
   11.2220   -0.2760  -56.4660 N   0  0  0  0  0  0  0  0  0  0  0  0
   11.2900   -1.5400  -55.9190 C   0  0  0  0  0  0  0  0  0  0  0  0
   11.1140   -1.7420  -54.6110 N   0  0  0  0  0  0  0  0  0  0  0  0
   11.1930   -3.0080  -54.1690 C   0  0  0  0  0  0  0  0  0  0  0  0
   11.4410   -4.0790  -54.9880 C   0  0  0  0  0  0  0  0  0  0  0  0
   11.6160   -3.7890  -56.3300 C   0  0  0  0  0  0  0  0  0  0  0  0
   11.8740   -4.9310  -57.3000 C   0  0  0  0  0  0  0  0  0  0  0  0
   11.1740   -4.7920  -58.4620 F   0  0  0  0  0  0  0  0  0  0  0  0
   11.5000   -6.1420  -56.7910 F   0  0  0  0  0  0  0  0  0  0  0  0
   13.1800   -5.0700  -57.6610 F   0  0  0  0  0  0  0  0  0  0  0  0
   11.5330   -2.5170  -56.8030 N   0  0  0  0  0  0  0  0  0  0  0  0
   10.5010    1.9340  -57.0460 C   0  0  0  0  0  0  0  0  0  0  0  0
   11.5810    2.4930  -56.8720 O   0  0  0  0  0  0  0  0  0  0  0  0
    9.3920    2.4310  -57.9650 C   0  0  2  0  0  0  0  0  0  0  0  0
    9.9220    3.2680  -59.1520 C   0  0  1  0  0  0  0  0  0  0  0  0
    8.7560    3.5060  -60.1330 C   0  0  0  0  0  0  0  0  0  0  0  0
    7.6210    4.2730  -59.4320 C   0  0  2  0  0  0  0  0  0  0  0  0
    8.1610    5.6320  -58.9560 C   0  0  0  0  0  0  0  0  0  0  0  0
    9.3210    5.4190  -57.9680 C   0  0  2  0  0  0  0  0  0  0  0  0
   10.4450    4.6330  -58.6610 C   0  0  0  0  0  0  0  0  0  0  0  0
    8.8120    4.6130  -56.7650 C   0  0  0  0  0  0  0  0  0  0  0  0
    8.2930    3.2360  -57.2250 C   0  0  1  0  0  0  0  0  0  0  0  0
    7.1290    3.4690  -58.2130 C   0  0  0  0  0  0  0  0  0  0  0  0
   12.0040   -0.0140  -57.0510 H   0  0  0  0  0  0  0  0  0  0  0  0
   11.0514   -3.1950  -53.0943 H   0  0  0  0  0  0  0  0  0  0  0  0
   11.4975   -5.1074  -54.6017 H   0  0  0  0  0  0  0  0  0  0  0  0
    8.9379    1.5092  -58.3576 H   0  0  0  0  0  0  0  0  0  0  0  0
   10.7462    2.7275  -59.6403 H   0  0  0  0  0  0  0  0  0  0  0  0
    9.1164    4.0935  -60.9903 H   0  0  0  0  0  0  0  0  0  0  0  0
    8.3731    2.5344  -60.4785 H   0  0  0  0  0  0  0  0  0  0  0  0
    6.7857    4.4212  -60.1323 H   0  0  0  0  0  0  0  0  0  0  0  0
    8.5213    6.2050  -59.8231 H   0  0  0  0  0  0  0  0  0  0  0  0
    7.3545    6.1855  -58.4529 H   0  0  0  0  0  0  0  0  0  0  0  0
    9.7052    6.3935  -57.6323 H   0  0  0  0  0  0  0  0  0  0  0  0
   10.8141    5.2106  -59.5213 H   0  0  0  0  0  0  0  0  0  0  0  0
   11.2596    4.4652  -57.9411 H   0  0  0  0  0  0  0  0  0  0  0  0
    9.6351    4.4701  -56.0494 H   0  0  0  0  0  0  0  0  0  0  0  0
    7.9889    5.1644  -56.2871 H   0  0  0  0  0  0  0  0  0  0  0  0
    7.9768    2.6675  -56.3380 H   0  0  0  0  0  0  0  0  0  0  0  0
    6.7392    2.4976  -58.5513 H   0  0  0  0  0  0  0  0  0  0  0  0
    6.3343    4.0354  -57.7055 H   0  0  0  0  0  0  0  0  0  0  0  0
  1  2  2  0
  2  3  1  0
  3  4  1  0
  4  5  2  0
  5  6  1  0
  6  7  2  0
  7  8  1  0
  8  9  1  0
  9 10  1  0
  9 11  1  0
  9 12  1  0
  8 13  2  0
  2 14  1  0
 14 15  2  0
 14 16  1  0
 16 17  1  0
 17 18  1  0
 18 19  1  0
 19 20  1  0
 20 21  1  0
 21 22  1  0
 21 23  1  0
 23 24  1  0
 24 25  1  0
 13  4  1  0
 24 16  1  0
 22 17  1  0
 25 19  1  0
  3 26  1  0
  6 27  1  0
  7 28  1  0
 16 29  1  1
 17 30  1  1
 18 31  1  0
 18 32  1  0
 19 33  1  1
 20 34  1  0
 20 35  1  0
 21 36  1  6
 22 37  1  0
 22 38  1  0
 23 39  1  0
 23 40  1  0
 24 41  1  6
 25 42  1  0
 25 43  1  0
M  END
>  <meeko>  (11) 
{"is_sidechain": false}

$$$$

     RDKit          3D

 40 41  0  0  0  0  0  0  0  0999 V2000
   12.8040    7.5460  -60.6580 C   0  0  0  0  0  0  0  0  0  0  0  0
   12.2910    6.3620  -60.0610 O   0  0  0  0  0  0  0  0  0  0  0  0
   13.2760    5.7030  -59.2680 C   0  0  0  0  0  0  0  0  0  0  0  0
   12.9680    4.2110  -59.2180 C   0  0  0  0  0  0  0  0  0  0  0  0
   12.4800    3.7720  -57.8390 C   0  0  0  0  0  0  0  0  0  0  0  0
   10.9660    3.8280  -57.7190 C   0  0  0  0  0  0  0  0  0  0  0  0
   10.3550    4.8810  -57.5760 O   0  0  0  0  0  0  0  0  0  0  0  0
   10.4040    2.5750  -57.8130 N   0  0  0  0  0  0  0  0  0  0  0  0
    9.0520    2.2240  -57.7530 C   0  0  0  0  0  0  0  0  0  0  0  0
    8.4100    1.8290  -56.6010 C   0  0  0  0  0  0  0  0  0  0  0  0
    7.0710    1.5210  -56.7220 C   0  0  0  0  0  0  0  0  0  0  0  0
    6.2860    1.0800  -55.5230 C   0  0  0  0  0  0  0  0  0  0  0  0
    6.4170    1.5970  -57.8970 N   0  0  0  0  0  0  0  0  0  0  0  0
    7.1230    1.9810  -58.9710 C   0  0  0  0  0  0  0  0  0  0  0  0
    6.4320    2.0870  -60.2650 C   0  0  0  0  0  0  0  0  0  0  0  0
    5.1530    1.5190  -60.4490 C   0  0  0  0  0  0  0  0  0  0  0  0
    4.4890    1.6090  -61.6760 C   0  0  0  0  0  0  0  0  0  0  0  0
    2.9320    0.8970  -61.8570 Cl  0  0  0  0  0  0  0  0  0  0  0  0
    5.0770    2.2660  -62.7510 C   0  0  0  0  0  0  0  0  0  0  0  0
    6.3350    2.8400  -62.5940 C   0  0  0  0  0  0  0  0  0  0  0  0
    6.9970    2.7490  -61.3660 C   0  0  0  0  0  0  0  0  0  0  0  0
    8.1950    3.3480  -61.2750 F   0  0  0  0  0  0  0  0  0  0  0  0
    8.4280    2.3100  -58.9400 N   0  0  0  0  0  0  0  0  0  0  0  0
   13.1094    8.2509  -59.8707 H   0  0  0  0  0  0  0  0  0  0  0  0
   13.6739    7.2945  -61.2826 H   0  0  0  0  0  0  0  0  0  0  0  0
   12.0256    8.0086  -61.2826 H   0  0  0  0  0  0  0  0  0  0  0  0
   14.2699    5.8582  -59.7131 H   0  0  0  0  0  0  0  0  0  0  0  0
   13.2642    6.1157  -58.2484 H   0  0  0  0  0  0  0  0  0  0  0  0
   12.1874    3.9847  -59.9593 H   0  0  0  0  0  0  0  0  0  0  0  0
   13.8973    3.6653  -59.4385 H   0  0  0  0  0  0  0  0  0  0  0  0
   12.8113    2.7387  -57.6588 H   0  0  0  0  0  0  0  0  0  0  0  0
   12.9026    4.4643  -57.0960 H   0  0  0  0  0  0  0  0  0  0  0  0
   11.0080    1.7720  -57.9290 H   0  0  0  0  0  0  0  0  0  0  0  0
    8.9359    1.7627  -55.6372 H   0  0  0  0  0  0  0  0  0  0  0  0
    6.8171    1.3783  -54.6070 H   0  0  0  0  0  0  0  0  0  0  0  0
    5.2926    1.5521  -55.5412 H   0  0  0  0  0  0  0  0  0  0  0  0
    6.1724   -0.0140  -55.5412 H   0  0  0  0  0  0  0  0  0  0  0  0
    4.6695    0.9956  -59.6110 H   0  0  0  0  0  0  0  0  0  0  0  0
    4.5531    2.3314  -63.7160 H   0  0  0  0  0  0  0  0  0  0  0  0
    6.8086    3.3655  -63.4364 H   0  0  0  0  0  0  0  0  0  0  0  0
  1  2  1  0
  2  3  1  0
  3  4  1  0
  4  5  1  0
  5  6  1  0
  6  7  2  0
  6  8  1  0
  8  9  1  0
  9 10  2  0
 10 11  1  0
 11 12  1  0
 11 13  2  0
 13 14  1  0
 14 15  1  0
 15 16  1  0
 16 17  2  0
 17 18  1  0
 17 19  1  0
 19 20  2  0
 20 21  1  0
 21 22  1  0
 14 23  2  0
 23  9  1  0
 21 15  2  0
  1 24  1  0
  1 25  1  0
  1 26  1  0
  3 27  1  0
  3 28  1  0
  4 29  1  0
  4 30  1  0
  5 31  1  0
  5 32  1  0
  8 33  1  0
 10 34  1  0
 12 35  1  0
 12 36  1  0
 12 37  1  0
 16 38  1  0
 19 39  1  0
 20 40  1  0
M  END
>  <meeko>  (12) 
{"is_sidechain": false}

$$$$

     RDKit          3D

 43 47  0  0  0  0  0  0  0  0999 V2000
    9.3230    0.3590  -55.5340 O   0  0  0  0  0  0  0  0  0  0  0  0
   10.3690    0.4740  -56.1620 C   0  0  0  0  0  0  0  0  0  0  0  0
   10.7020    1.7720  -56.8740 C   0  0  0  0  0  0  0  0  0  0  0  0
    9.5480    2.2610  -57.7700 C   0  0  1  0  0  0  0  0  0  0  0  0
    8.5890    3.2000  -56.9930 C   0  0  2  0  0  0  0  0  0  0  0  0
    7.4010    3.5800  -57.9070 C   0  0  0  0  0  0  0  0  0  0  0  0
    7.8990    4.3040  -59.1740 C   0  0  1  0  0  0  0  0  0  0  0  0
    8.6900    5.5600  -58.7870 C   0  0  0  0  0  0  0  0  0  0  0  0
    9.8650    5.1490  -57.8920 C   0  0  1  0  0  0  0  0  0  0  0  0
    9.3270    4.4970  -56.6150 C   0  0  0  0  0  0  0  0  0  0  0  0
   10.7230    4.2220  -58.5950 O   0  0  0  0  0  0  0  0  0  0  0  0
   10.0350    3.0270  -59.0170 C   0  0  2  0  0  0  0  0  0  0  0  0
    8.8590    3.3840  -59.9310 C   0  0  0  0  0  0  0  0  0  0  0  0
   11.3400   -0.4870  -56.3570 N   0  0  0  0  0  0  0  0  0  0  0  0
   11.3080   -1.7670  -55.8320 C   0  0  0  0  0  0  0  0  0  0  0  0
   11.0520   -2.0810  -54.5570 N   0  0  0  0  0  0  0  0  0  0  0  0
   11.1300   -3.4590  -54.4720 O   0  0  0  0  0  0  0  0  0  0  0  0
   11.4300   -3.9720  -55.6930 C   0  0  0  0  0  0  0  0  0  0  0  0
   11.5900   -5.3200  -56.0020 C   0  0  0  0  0  0  0  0  0  0  0  0
   11.8980   -5.6150  -57.3340 C   0  0  0  0  0  0  0  0  0  0  0  0
   12.0310   -4.6020  -58.2890 C   0  0  0  0  0  0  0  0  0  0  0  0
   11.8630   -3.2540  -57.9410 C   0  0  0  0  0  0  0  0  0  0  0  0
   11.5560   -2.9390  -56.6040 C   0  0  0  0  0  0  0  0  0  0  0  0
   10.9159    2.5440  -56.1202 H   0  0  0  0  0  0  0  0  0  0  0  0
   11.5736    1.5875  -57.5192 H   0  0  0  0  0  0  0  0  0  0  0  0
    9.0276    1.3461  -58.0896 H   0  0  0  0  0  0  0  0  0  0  0  0
    8.2367    2.6838  -56.0878 H   0  0  0  0  0  0  0  0  0  0  0  0
    6.8644    2.6658  -58.2007 H   0  0  0  0  0  0  0  0  0  0  0  0
    6.7307    4.2546  -57.3542 H   0  0  0  0  0  0  0  0  0  0  0  0
    7.0275    4.5718  -59.7895 H   0  0  0  0  0  0  0  0  0  0  0  0
    9.0710    6.0510  -59.6946 H   0  0  0  0  0  0  0  0  0  0  0  0
    8.0366    6.2609  -58.2468 H   0  0  0  0  0  0  0  0  0  0  0  0
   10.4508    6.0418  -57.6280 H   0  0  0  0  0  0  0  0  0  0  0  0
   10.1627    4.2632  -55.9390 H   0  0  0  0  0  0  0  0  0  0  0  0
    8.6360    5.1855  -56.1065 H   0  0  0  0  0  0  0  0  0  0  0  0
   10.7225    2.3863  -59.5888 H   0  0  0  0  0  0  0  0  0  0  0  0
    9.2327    3.8993  -60.8281 H   0  0  0  0  0  0  0  0  0  0  0  0
    8.3326    2.4667  -60.2336 H   0  0  0  0  0  0  0  0  0  0  0  0
   12.1030   -0.2830  -56.9900 H   0  0  0  0  0  0  0  0  0  0  0  0
   11.4805   -6.1078  -55.2422 H   0  0  0  0  0  0  0  0  0  0  0  0
   12.0382   -6.6634  -57.6361 H   0  0  0  0  0  0  0  0  0  0  0  0
   12.2711   -4.8668  -59.3293 H   0  0  0  0  0  0  0  0  0  0  0  0
   11.9687   -2.4608  -58.6958 H   0  0  0  0  0  0  0  0  0  0  0  0
  1  2  2  0
  2  3  1  0
  3  4  1  0
  4  5  1  0
  5  6  1  0
  6  7  1  0
  7  8  1  0
  8  9  1  0
  9 10  1  0
  9 11  1  0
 11 12  1  0
 12 13  1  0
  2 14  1  0
 14 15  1  0
 15 16  2  0
 16 17  1  0
 17 18  1  0
 18 19  2  0
 19 20  1  0
 20 21  2  0
 21 22  1  0
 22 23  2  0
 12  4  1  0
 23 15  1  0
 10  5  1  0
 23 18  1  0
 13  7  1  0
  3 24  1  0
  3 25  1  0
  4 26  1  6
  5 27  1  1
  6 28  1  0
  6 29  1  0
  7 30  1  6
  8 31  1  0
  8 32  1  0
  9 33  1  1
 10 34  1  0
 10 35  1  0
 12 36  1  6
 13 37  1  0
 13 38  1  0
 14 39  1  0
 19 40  1  0
 20 41  1  0
 21 42  1  0
 22 43  1  0
M  END
>  <meeko>  (13) 
{"is_sidechain": false}

$$$$

     RDKit          3D

 72 77  0  0  0  0  0  0  0  0999 V2000
    5.8190    0.3450  -53.8920 C   0  0  0  0  0  0  0  0  0  0  0  0
    7.1630    0.1510  -54.5320 C   0  0  0  0  0  0  0  0  0  0  0  0
    7.6360    1.2030  -55.2370 N   0  0  0  0  0  0  0  0  0  0  0  0
    8.8410    1.0580  -55.8160 C   0  0  0  0  0  0  0  0  0  0  0  0
    9.3720    2.2170  -56.5140 C   0  0  0  0  0  0  0  0  0  0  0  0
   10.3990    2.9480  -56.1210 N   0  0  0  0  0  0  0  0  0  0  0  0
   10.5620    3.9750  -57.0040 N   0  0  0  0  0  0  0  0  0  0  0  0
    9.6360    3.8840  -57.9430 C   0  0  0  0  0  0  0  0  0  0  0  0
    9.5750    4.8100  -59.1510 C   0  0  0  0  0  0  0  0  0  0  0  0
   10.8550    5.6860  -59.1650 C   0  0  0  0  0  0  0  0  0  0  0  0
    9.5420    4.0600  -60.4930 C   0  0  0  0  0  0  0  0  0  0  0  0
    8.3690    5.7560  -59.0440 C   0  0  0  0  0  0  0  0  0  0  0  0
    8.8190    2.8000  -57.6420 N   0  0  0  0  0  0  0  0  0  0  0  0
    7.5860    2.4500  -58.2260 C   0  0  0  0  0  0  0  0  0  0  0  0
    7.5620    1.5590  -59.3030 C   0  0  0  0  0  0  0  0  0  0  0  0
    6.3380    1.2300  -59.8870 C   0  0  0  0  0  0  0  0  0  0  0  0
    5.1650    1.7950  -59.3940 C   0  0  0  0  0  0  0  0  0  0  0  0
    3.9930    1.4790  -59.9610 F   0  0  0  0  0  0  0  0  0  0  0  0
    5.1910    2.6870  -58.3260 C   0  0  0  0  0  0  0  0  0  0  0  0
    6.4080    3.0260  -57.7390 C   0  0  0  0  0  0  0  0  0  0  0  0
    9.6020   -0.0440  -55.7560 N   0  0  0  0  0  0  0  0  0  0  0  0
    9.1160   -1.0780  -55.0500 C   0  0  0  0  0  0  0  0  0  0  0  0
    9.8720   -2.2620  -54.9310 N   0  0  0  0  0  0  0  0  0  0  0  0
   10.9860   -2.4430  -54.1370 C   0  0  0  0  0  0  0  0  0  0  0  0
   11.5280   -1.6040  -53.4280 O   0  0  0  0  0  0  0  0  0  0  0  0
   11.5210   -3.8620  -54.2100 C   0  0  0  0  0  0  0  0  0  0  0  0
   11.4340   -4.6420  -55.5360 C   0  0  2  0  0  0  0  0  0  0  0  0
   12.6150   -5.6190  -55.7810 C   0  0  1  0  0  0  0  0  0  0  0  0
   12.1780   -6.6250  -56.8690 C   0  0  0  0  0  0  0  0  0  0  0  0
   11.8450   -5.8840  -58.1770 C   0  0  2  0  0  0  0  0  0  0  0  0
   13.1060   -5.1530  -58.6630 C   0  0  0  0  0  0  0  0  0  0  0  0
   13.5620   -4.1420  -57.5980 C   0  0  2  0  0  0  0  0  0  0  0  0
   13.8670   -4.8800  -56.2850 C   0  0  0  0  0  0  0  0  0  0  0  0
   12.4340   -3.1270  -57.3580 C   0  0  0  0  0  0  0  0  0  0  0  0
   11.1690   -3.8400  -56.8350 C   0  0  1  0  0  0  0  0  0  0  0  0
   10.7300   -4.8510  -57.9230 C   0  0  0  0  0  0  0  0  0  0  0  0
    7.8800   -1.0280  -54.4060 C   0  0  0  0  0  0  0  0  0  0  0  0
    7.2780   -2.3760  -53.5050 Cl  0  0  0  0  0  0  0  0  0  0  0  0
    5.9283    0.3292  -52.7976 H   0  0  0  0  0  0  0  0  0  0  0  0
    5.4002    1.3129  -54.2047 H   0  0  0  0  0  0  0  0  0  0  0  0
    5.1436   -0.4650  -54.2047 H   0  0  0  0  0  0  0  0  0  0  0  0
   11.1653    5.8984  -58.1313 H   0  0  0  0  0  0  0  0  0  0  0  0
   11.6610    5.1492  -59.6868 H   0  0  0  0  0  0  0  0  0  0  0  0
   10.6465    6.6316  -59.6868 H   0  0  0  0  0  0  0  0  0  0  0  0
    9.4943    2.9769  -60.3067 H   0  0  0  0  0  0  0  0  0  0  0  0
    8.6567    4.3728  -61.0662 H   0  0  0  0  0  0  0  0  0  0  0  0
   10.4513    4.2938  -61.0662 H   0  0  0  0  0  0  0  0  0  0  0  0
    8.1380    5.9372  -57.9839 H   0  0  0  0  0  0  0  0  0  0  0  0
    8.6071    6.7107  -59.5358 H   0  0  0  0  0  0  0  0  0  0  0  0
    7.4985    5.2974  -59.5358 H   0  0  0  0  0  0  0  0  0  0  0  0
    8.4965    1.1226  -59.6854 H   0  0  0  0  0  0  0  0  0  0  0  0
    6.3002    0.5277  -60.7328 H   0  0  0  0  0  0  0  0  0  0  0  0
    4.2546    3.1224  -57.9470 H   0  0  0  0  0  0  0  0  0  0  0  0
    6.4422    3.7387  -56.9018 H   0  0  0  0  0  0  0  0  0  0  0  0
    9.5670   -3.0330  -55.5120 H   0  0  0  0  0  0  0  0  0  0  0  0
   12.5853   -3.8164  -53.9356 H   0  0  0  0  0  0  0  0  0  0  0  0
   10.8544   -4.4226  -53.5382 H   0  0  0  0  0  0  0  0  0  0  0  0
   10.5097   -5.2060  -55.3420 H   0  0  0  0  0  0  0  0  0  0  0  0
   12.8647   -6.1167  -54.8324 H   0  0  0  0  0  0  0  0  0  0  0  0
   12.9950   -7.3381  -57.0535 H   0  0  0  0  0  0  0  0  0  0  0  0
   11.2821   -7.1610  -56.5226 H   0  0  0  0  0  0  0  0  0  0  0  0
   11.5048   -6.6055  -58.9345 H   0  0  0  0  0  0  0  0  0  0  0  0
   13.9079   -5.8850  -58.8393 H   0  0  0  0  0  0  0  0  0  0  0  0
   12.8803   -4.6199  -59.5983 H   0  0  0  0  0  0  0  0  0  0  0  0
   14.4679   -3.6228  -57.9441 H   0  0  0  0  0  0  0  0  0  0  0  0
   14.6729   -5.6086  -56.4576 H   0  0  0  0  0  0  0  0  0  0  0  0
   14.1769   -4.1457  -55.5269 H   0  0  0  0  0  0  0  0  0  0  0  0
   12.7653   -2.3861  -56.6155 H   0  0  0  0  0  0  0  0  0  0  0  0
   12.1947   -2.6289  -58.3091 H   0  0  0  0  0  0  0  0  0  0  0  0
   10.4074   -3.0770  -56.6164 H   0  0  0  0  0  0  0  0  0  0  0  0
    9.8217   -5.3730  -57.5875 H   0  0  0  0  0  0  0  0  0  0  0  0
   10.5291   -4.3056  -58.8569 H   0  0  0  0  0  0  0  0  0  0  0  0
  1  2  1  0
  2  3  2  0
  3  4  1  0
  4  5  1  0
  5  6  2  0
  6  7  1  0
  7  8  2  0
  8  9  1  0
  9 10  1  0
  9 11  1  0
  9 12  1  0
  8 13  1  0
 13 14  1  0
 14 15  1  0
 15 16  2  0
 16 17  1  0
 17 18  1  0
 17 19  2  0
 19 20  1  0
  4 21  2  0
 21 22  1  0
 22 23  1  0
 23 24  1  0
 24 25  2  0
 24 26  1  0
 26 27  1  0
 27 28  1  0
 28 29  1  0
 29 30  1  0
 30 31  1  0
 31 32  1  0
 32 33  1  0
 32 34  1  0
 34 35  1  0
 35 36  1  0
 22 37  2  0
 37 38  1  0
 37  2  1  0
 13  5  1  0
 20 14  2  0
 35 27  1  0
 33 28  1  0
 36 30  1  0
  1 39  1  0
  1 40  1  0
  1 41  1  0
 10 42  1  0
 10 43  1  0
 10 44  1  0
 11 45  1  0
 11 46  1  0
 11 47  1  0
 12 48  1  0
 12 49  1  0
 12 50  1  0
 15 51  1  0
 16 52  1  0
 19 53  1  0
 20 54  1  0
 23 55  1  0
 26 56  1  0
 26 57  1  0
 27 58  1  6
 28 59  1  6
 29 60  1  0
 29 61  1  0
 30 62  1  1
 31 63  1  0
 31 64  1  0
 32 65  1  1
 33 66  1  0
 33 67  1  0
 34 68  1  0
 34 69  1  0
 35 70  1  6
 36 71  1  0
 36 72  1  0
M  END
>  <meeko>  (14) 
{"is_sidechain": false}

$$$$

     RDKit          3D

 51 55  0  0  0  0  0  0  0  0999 V2000
   11.5100   -4.3610  -55.9620 C   0  0  0  0  0  0  0  0  0  0  0  0
   10.7660   -3.2330  -55.3130 C   0  0  0  0  0  0  0  0  0  0  0  0
   10.8650   -1.9540  -55.8190 C   0  0  0  0  0  0  0  0  0  0  0  0
   10.1480   -0.9830  -55.1640 C   0  0  0  0  0  0  0  0  0  0  0  0
   10.1290    0.3650  -55.5290 N   0  0  0  0  0  0  0  0  0  0  0  0
    9.0420    1.1720  -55.7730 C   0  0  0  0  0  0  0  0  0  0  0  0
    7.8700    0.8270  -55.6540 O   0  0  0  0  0  0  0  0  0  0  0  0
    9.4400    2.6030  -56.1670 C   0  0  2  0  0  0  0  0  0  0  0  0
    8.2700    3.4240  -56.7660 C   0  0  1  0  0  0  0  0  0  0  0  0
    8.7270    4.8930  -56.8910 C   0  0  0  0  0  0  0  0  0  0  0  0
    9.9480    4.9920  -57.8250 C   0  0  2  0  0  0  0  0  0  0  0  0
    9.5660    4.4600  -59.2150 C   0  0  0  0  0  0  0  0  0  0  0  0
    9.1090    2.9960  -59.1100 C   0  0  2  0  0  0  0  0  0  0  0  0
    7.8940    2.9160  -58.1740 C   0  0  0  0  0  0  0  0  0  0  0  0
   10.2490    2.1430  -58.5290 C   0  0  0  0  0  0  0  0  0  0  0  0
   10.6480    2.6640  -57.1350 C   0  0  1  0  0  0  0  0  0  0  0  0
   11.0950    4.1350  -57.2610 C   0  0  0  0  0  0  0  0  0  0  0  0
    9.3900   -1.2430  -54.0870 N   0  0  0  0  0  0  0  0  0  0  0  0
    9.3430   -2.5120  -53.6520 C   0  0  0  0  0  0  0  0  0  0  0  0
    8.5180   -2.8300  -52.4720 C   0  0  0  0  0  0  0  0  0  0  0  0
    9.0960   -2.9340  -51.1890 C   0  0  0  0  0  0  0  0  0  0  0  0
    8.3330   -3.2360  -50.0540 C   0  0  0  0  0  0  0  0  0  0  0  0
    6.9630   -3.4420  -50.1730 C   0  0  0  0  0  0  0  0  0  0  0  0
    6.3630   -3.3460  -51.4240 C   0  0  0  0  0  0  0  0  0  0  0  0
    7.1320   -3.0440  -52.5520 C   0  0  0  0  0  0  0  0  0  0  0  0
    6.4790   -2.9660  -53.7220 F   0  0  0  0  0  0  0  0  0  0  0  0
   10.0120   -3.5270  -54.2360 N   0  0  0  0  0  0  0  0  0  0  0  0
   11.9392   -5.0117  -55.1859 H   0  0  0  0  0  0  0  0  0  0  0  0
   10.8186   -4.9440  -56.5882 H   0  0  0  0  0  0  0  0  0  0  0  0
   12.3181   -3.9550  -56.5882 H   0  0  0  0  0  0  0  0  0  0  0  0
   11.4841   -1.7242  -56.6987 H   0  0  0  0  0  0  0  0  0  0  0  0
   11.0630    0.7550  -55.5740 H   0  0  0  0  0  0  0  0  0  0  0  0
    9.7363    3.0611  -55.2118 H   0  0  0  0  0  0  0  0  0  0  0  0
    7.3943    3.3233  -56.1079 H   0  0  0  0  0  0  0  0  0  0  0  0
    7.9043    5.4958  -57.3031 H   0  0  0  0  0  0  0  0  0  0  0  0
    9.0051    5.2686  -55.8952 H   0  0  0  0  0  0  0  0  0  0  0  0
   10.2690    6.0415  -57.8990 H   0  0  0  0  0  0  0  0  0  0  0  0
    8.7470    5.0688  -59.6256 H   0  0  0  0  0  0  0  0  0  0  0  0
   10.4423    4.5182  -59.8774 H   0  0  0  0  0  0  0  0  0  0  0  0
    8.8401    2.6206  -60.1084 H   0  0  0  0  0  0  0  0  0  0  0  0
    7.0818    3.5373  -58.5793 H   0  0  0  0  0  0  0  0  0  0  0  0
    7.5659    1.8686  -58.1013 H   0  0  0  0  0  0  0  0  0  0  0  0
    9.9141    1.0987  -58.4442 H   0  0  0  0  0  0  0  0  0  0  0  0
   11.1201    2.2056  -59.1978 H   0  0  0  0  0  0  0  0  0  0  0  0
   11.4623    2.0376  -56.7418 H   0  0  0  0  0  0  0  0  0  0  0  0
   11.3785    4.5150  -56.2684 H   0  0  0  0  0  0  0  0  0  0  0  0
   11.9552    4.1917  -57.9443 H   0  0  0  0  0  0  0  0  0  0  0  0
   10.1784   -2.7731  -51.0769 H   0  0  0  0  0  0  0  0  0  0  0  0
    8.8172   -3.3102  -49.0691 H   0  0  0  0  0  0  0  0  0  0  0  0
    6.3587   -3.6790  -49.2849 H   0  0  0  0  0  0  0  0  0  0  0  0
    5.2799   -3.5082  -51.5264 H   0  0  0  0  0  0  0  0  0  0  0  0
  1  2  1  0
  2  3  1  0
  3  4  2  0
  4  5  1  0
  5  6  1  0
  6  7  2  0
  6  8  1  0
  8  9  1  0
  9 10  1  0
 10 11  1  0
 11 12  1  0
 12 13  1  0
 13 14  1  0
 13 15  1  0
 15 16  1  0
 16 17  1  0
  4 18  1  0
 18 19  2  0
 19 20  1  0
 20 21  2  0
 21 22  1  0
 22 23  2  0
 23 24  1  0
 24 25  2  0
 25 26  1  0
 19 27  1  0
 27  2  2  0
 16  8  1  0
 25 20  1  0
 14  9  1  0
 17 11  1  0
  1 28  1  0
  1 29  1  0
  1 30  1  0
  3 31  1  0
  5 32  1  0
  8 33  1  6
  9 34  1  6
 10 35  1  0
 10 36  1  0
 11 37  1  1
 12 38  1  0
 12 39  1  0
 13 40  1  1
 14 41  1  0
 14 42  1  0
 15 43  1  0
 15 44  1  0
 16 45  1  6
 17 46  1  0
 17 47  1  0
 21 48  1  0
 22 49  1  0
 23 50  1  0
 24 51  1  0
M  END
>  <meeko>  (15) 
{"is_sidechain": false}

$$$$

     RDKit          3D

 53 57  0  0  0  0  0  0  0  0999 V2000
    7.7820   -1.4760  -52.0840 C   0  0  0  0  0  0  0  0  0  0  0  0
    8.5390   -1.1570  -53.3350 C   0  0  0  0  0  0  0  0  0  0  0  0
    8.3140    0.0250  -53.9110 N   0  0  0  0  0  0  0  0  0  0  0  0
    8.9920    0.2470  -55.0330 C   0  0  0  0  0  0  0  0  0  0  0  0
    8.7420    1.4860  -55.6080 N   0  0  0  0  0  0  0  0  0  0  0  0
    7.7070    1.7850  -56.4630 C   0  0  0  0  0  0  0  0  0  0  0  0
    6.8530    1.0090  -56.8710 O   0  0  0  0  0  0  0  0  0  0  0  0
    7.7530    3.2480  -56.8940 C   0  0  0  0  0  0  0  0  0  0  0  0
    9.0690    3.6440  -57.5910 C   0  0  2  0  0  0  0  0  0  0  0  0
    8.9080    4.9360  -58.4360 C   0  0  1  0  0  0  0  0  0  0  0  0
   10.3010    5.3770  -58.9300 C   0  0  0  0  0  0  0  0  0  0  0  0
   10.9250    4.2800  -59.8080 C   0  0  2  0  0  0  0  0  0  0  0  0
   10.0130    4.0290  -61.0220 C   0  0  0  0  0  0  0  0  0  0  0  0
    8.6200    3.5820  -60.5480 C   0  0  2  0  0  0  0  0  0  0  0  0
    8.0110    4.6820  -59.6630 C   0  0  0  0  0  0  0  0  0  0  0  0
    8.7600    2.2870  -59.7320 C   0  0  0  0  0  0  0  0  0  0  0  0
    9.6540    2.5280  -58.5000 C   0  0  1  0  0  0  0  0  0  0  0  0
   11.0450    2.9800  -58.9910 C   0  0  0  0  0  0  0  0  0  0  0  0
    9.8340   -0.6090  -55.5850 N   0  0  0  0  0  0  0  0  0  0  0  0
    9.9880   -1.7660  -54.9460 C   0  0  0  0  0  0  0  0  0  0  0  0
   10.9180   -2.7540  -55.5340 C   0  0  0  0  0  0  0  0  0  0  0  0
   11.1890   -3.9840  -54.8980 C   0  0  0  0  0  0  0  0  0  0  0  0
   12.0690   -4.9170  -55.4570 C   0  0  0  0  0  0  0  0  0  0  0  0
   12.6940   -4.6320  -56.6630 C   0  0  0  0  0  0  0  0  0  0  0  0
   13.5370   -5.5250  -57.1980 F   0  0  0  0  0  0  0  0  0  0  0  0
   12.4550   -3.4340  -57.3200 C   0  0  0  0  0  0  0  0  0  0  0  0
   11.5750   -2.5030  -56.7590 C   0  0  0  0  0  0  0  0  0  0  0  0
    9.3580   -2.0910  -53.8150 N   0  0  0  0  0  0  0  0  0  0  0  0
    8.3954   -1.2175  -51.2083 H   0  0  0  0  0  0  0  0  0  0  0  0
    6.8483   -0.8948  -52.0621 H   0  0  0  0  0  0  0  0  0  0  0  0
    7.5459   -2.5501  -52.0621 H   0  0  0  0  0  0  0  0  0  0  0  0
    9.4100    2.1910  -55.3420 H   0  0  0  0  0  0  0  0  0  0  0  0
    6.9215    3.4318  -57.5903 H   0  0  0  0  0  0  0  0  0  0  0  0
    7.6756    3.8562  -55.9807 H   0  0  0  0  0  0  0  0  0  0  0  0
    9.7764    3.8179  -56.7668 H   0  0  0  0  0  0  0  0  0  0  0  0
    8.4439    5.7131  -57.8109 H   0  0  0  0  0  0  0  0  0  0  0  0
   10.2020    6.3010  -59.5186 H   0  0  0  0  0  0  0  0  0  0  0  0
   10.9509    5.5535  -58.0602 H   0  0  0  0  0  0  0  0  0  0  0  0
   11.9220    4.5981  -60.1467 H   0  0  0  0  0  0  0  0  0  0  0  0
    9.9192    4.9568  -61.6055 H   0  0  0  0  0  0  0  0  0  0  0  0
   10.4531    3.2385  -61.6477 H   0  0  0  0  0  0  0  0  0  0  0  0
    7.9672    3.4043  -61.4153 H   0  0  0  0  0  0  0  0  0  0  0  0
    7.9224    5.6102  -60.2466 H   0  0  0  0  0  0  0  0  0  0  0  0
    7.0175    4.3574  -59.3200 H   0  0  0  0  0  0  0  0  0  0  0  0
    7.7645    1.9576  -59.3996 H   0  0  0  0  0  0  0  0  0  0  0  0
    9.2204    1.5129  -60.3635 H   0  0  0  0  0  0  0  0  0  0  0  0
    9.7140    1.5958  -57.9192 H   0  0  0  0  0  0  0  0  0  0  0  0
   11.6973    3.1555  -58.1228 H   0  0  0  0  0  0  0  0  0  0  0  0
   11.4729    2.1933  -59.6297 H   0  0  0  0  0  0  0  0  0  0  0  0
   10.6974   -4.2145  -53.9413 H   0  0  0  0  0  0  0  0  0  0  0  0
   12.2643   -5.8703  -54.9440 H   0  0  0  0  0  0  0  0  0  0  0  0
   12.9543   -3.2176  -58.2760 H   0  0  0  0  0  0  0  0  0  0  0  0
   11.3903   -1.5539  -57.2835 H   0  0  0  0  0  0  0  0  0  0  0  0
  1  2  1  0
  2  3  1  0
  3  4  2  0
  4  5  1  0
  5  6  1  0
  6  7  2  0
  6  8  1  0
  8  9  1  0
  9 10  1  0
 10 11  1  0
 11 12  1  0
 12 13  1  0
 13 14  1  0
 14 15  1  0
 14 16  1  0
 16 17  1  0
 17 18  1  0
  4 19  1  0
 19 20  2  0
 20 21  1  0
 21 22  1  0
 22 23  2  0
 23 24  1  0
 24 25  1  0
 24 26  2  0
 26 27  1  0
 20 28  1  0
 28  2  2  0
 17  9  1  0
 27 21  2  0
 15 10  1  0
 18 12  1  0
  1 29  1  0
  1 30  1  0
  1 31  1  0
  5 32  1  0
  8 33  1  0
  8 34  1  0
  9 35  1  6
 10 36  1  6
 11 37  1  0
 11 38  1  0
 12 39  1  1
 13 40  1  0
 13 41  1  0
 14 42  1  1
 15 43  1  0
 15 44  1  0
 16 45  1  0
 16 46  1  0
 17 47  1  6
 18 48  1  0
 18 49  1  0
 22 50  1  0
 23 51  1  0
 26 52  1  0
 27 53  1  0
M  END
>  <meeko>  (16) 
{"is_sidechain": false}

$$$$

     RDKit          3D

 54 58  0  0  0  0  0  0  0  0999 V2000
   11.7750   -4.9460  -56.2910 C   0  0  0  0  0  0  0  0  0  0  0  0
   11.2380   -3.6370  -55.7930 C   0  0  0  0  0  0  0  0  0  0  0  0
   11.5310   -2.4680  -56.4650 C   0  0  0  0  0  0  0  0  0  0  0  0
   10.9980   -1.3170  -55.9390 C   0  0  0  0  0  0  0  0  0  0  0  0
   11.1920   -0.0390  -56.4650 N   0  0  0  0  0  0  0  0  0  0  0  0
   10.3580    1.0490  -56.3890 C   0  0  0  0  0  0  0  0  0  0  0  0
    9.2730    1.0870  -55.8170 O   0  0  0  0  0  0  0  0  0  0  0  0
   10.8940    2.2590  -57.1330 C   0  0  0  0  0  0  0  0  0  0  0  0
    9.9690    2.6720  -58.2930 C   0  0  2  0  0  0  0  0  0  0  0  0
   10.4900    3.8730  -59.1300 C   0  0  1  0  0  0  0  0  0  0  0  0
    9.5590    4.0660  -60.3450 C   0  0  0  0  0  0  0  0  0  0  0  0
    8.1260    4.3690  -59.8750 C   0  0  2  0  0  0  0  0  0  0  0  0
    8.1350    5.6560  -59.0320 C   0  0  0  0  0  0  0  0  0  0  0  0
    9.0550    5.4780  -57.8110 C   0  0  2  0  0  0  0  0  0  0  0  0
   10.4810    5.1710  -58.2990 C   0  0  0  0  0  0  0  0  0  0  0  0
    8.5390    4.3040  -56.9610 C   0  0  0  0  0  0  0  0  0  0  0  0
    8.5390    3.0050  -57.7900 C   0  0  1  0  0  0  0  0  0  0  0  0
    7.6180    3.2040  -59.0120 C   0  0  0  0  0  0  0  0  0  0  0  0
   10.2310   -1.3140  -54.8390 N   0  0  0  0  0  0  0  0  0  0  0  0
   10.0010   -2.4850  -54.2350 C   0  0  0  0  0  0  0  0  0  0  0  0
    9.1730   -2.4860  -53.0100 C   0  0  0  0  0  0  0  0  0  0  0  0
    9.6880   -3.0510  -51.8240 C   0  0  0  0  0  0  0  0  0  0  0  0
    8.9250   -3.0640  -50.6690 C   0  0  0  0  0  0  0  0  0  0  0  0
    7.6820   -2.5550  -50.5960 N   0  0  0  0  0  0  0  0  0  0  0  0
    7.1860   -2.0110  -51.7300 C   0  0  0  0  0  0  0  0  0  0  0  0
    7.8700   -1.9480  -52.9420 C   0  0  0  0  0  0  0  0  0  0  0  0
    7.1920   -1.3250  -54.0410 C   0  0  0  0  0  0  0  0  0  0  0  0
    6.6080   -0.8140  -54.9050 N   0  0  0  0  0  0  0  0  0  0  0  0
   10.4790   -3.6610  -54.6780 N   0  0  0  0  0  0  0  0  0  0  0  0
   12.0370   -5.5845  -55.4345 H   0  0  0  0  0  0  0  0  0  0  0  0
   11.0100   -5.4476  -56.9019 H   0  0  0  0  0  0  0  0  0  0  0  0
   12.6719   -4.7658  -56.9019 H   0  0  0  0  0  0  0  0  0  0  0  0
   12.1558   -2.4587  -57.3703 H   0  0  0  0  0  0  0  0  0  0  0  0
   12.0540    0.0300  -56.9940 H   0  0  0  0  0  0  0  0  0  0  0  0
   10.9805    3.1002  -56.4295 H   0  0  0  0  0  0  0  0  0  0  0  0
   11.8749    1.9946  -57.5549 H   0  0  0  0  0  0  0  0  0  0  0  0
    9.9512    1.7916  -58.9523 H   0  0  0  0  0  0  0  0  0  0  0  0
   11.5217    3.6607  -59.4471 H   0  0  0  0  0  0  0  0  0  0  0  0
    9.9263    4.9049  -60.9543 H   0  0  0  0  0  0  0  0  0  0  0  0
    9.5526    3.1421  -60.9419 H   0  0  0  0  0  0  0  0  0  0  0  0
    7.4680    4.4978  -60.7470 H   0  0  0  0  0  0  0  0  0  0  0  0
    8.5021    6.4914  -59.6462 H   0  0  0  0  0  0  0  0  0  0  0  0
    7.1127    5.8688  -58.6863 H   0  0  0  0  0  0  0  0  0  0  0  0
    9.0615    6.3965  -57.2058 H   0  0  0  0  0  0  0  0  0  0  0  0
   10.8393    6.0039  -58.9218 H   0  0  0  0  0  0  0  0  0  0  0  0
   11.1397    5.0442  -57.4272 H   0  0  0  0  0  0  0  0  0  0  0  0
    9.1916    4.1756  -56.0848 H   0  0  0  0  0  0  0  0  0  0  0  0
    7.5110    4.5216  -56.6356 H   0  0  0  0  0  0  0  0  0  0  0  0
    8.1843    2.1773  -57.1583 H   0  0  0  0  0  0  0  0  0  0  0  0
    7.6086    2.2832  -59.6137 H   0  0  0  0  0  0  0  0  0  0  0  0
    6.6010    3.4338  -58.6614 H   0  0  0  0  0  0  0  0  0  0  0  0
   10.6997   -3.4828  -51.8172 H   0  0  0  0  0  0  0  0  0  0  0  0
    9.3579   -3.5142  -49.7635 H   0  0  0  0  0  0  0  0  0  0  0  0
    6.1711   -1.5885  -51.6930 H   0  0  0  0  0  0  0  0  0  0  0  0
  1  2  1  0
  2  3  1  0
  3  4  2  0
  4  5  1  0
  5  6  1  0
  6  7  2  0
  6  8  1  0
  8  9  1  0
  9 10  1  0
 10 11  1  0
 11 12  1  0
 12 13  1  0
 13 14  1  0
 14 15  1  0
 14 16  1  0
 16 17  1  0
 17 18  1  0
  4 19  1  0
 19 20  2  0
 20 21  1  0
 21 22  2  0
 22 23  1  0
 23 24  2  0
 24 25  1  0
 25 26  2  0
 26 27  1  0
 27 28  3  0
 20 29  1  0
 29  2  2  0
 17  9  1  0
 26 21  1  0
 15 10  1  0
 18 12  1  0
  1 30  1  0
  1 31  1  0
  1 32  1  0
  3 33  1  0
  5 34  1  0
  8 35  1  0
  8 36  1  0
  9 37  1  1
 10 38  1  1
 11 39  1  0
 11 40  1  0
 12 41  1  1
 13 42  1  0
 13 43  1  0
 14 44  1  6
 15 45  1  0
 15 46  1  0
 16 47  1  0
 16 48  1  0
 17 49  1  6
 18 50  1  0
 18 51  1  0
 22 52  1  0
 23 53  1  0
 25 54  1  0
M  END
>  <meeko>  (17) 
{"is_sidechain": false}

$$$$

     RDKit          3D

 48 51  0  0  0  0  0  0  0  0999 V2000
   11.5150   -2.4130  -56.6250 C   0  0  0  0  0  0  0  0  0  0  0  0
   10.9530   -3.3380  -55.1750 S   0  0  0  0  0  0  0  0  0  0  0  0
    9.8320   -2.1580  -54.4610 C   0  0  0  0  0  0  0  0  0  0  0  0
    9.2230   -2.4520  -53.3030 N   0  0  0  0  0  0  0  0  0  0  0  0
    8.3840   -1.5240  -52.8040 C   0  0  0  0  0  0  0  0  0  0  0  0
    7.6970   -1.8410  -51.5100 C   0  0  0  0  0  0  0  0  0  0  0  0
    8.1500   -0.3220  -53.4380 C   0  0  0  0  0  0  0  0  0  0  0  0
    8.8230   -0.1130  -54.6210 C   0  0  0  0  0  0  0  0  0  0  0  0
    8.7070    1.0440  -55.3950 N   0  0  0  0  0  0  0  0  0  0  0  0
    7.6580    1.4310  -56.2000 C   0  0  0  0  0  0  0  0  0  0  0  0
    6.6290    0.7950  -56.3900 O   0  0  0  0  0  0  0  0  0  0  0  0
    7.9370    2.7690  -56.8760 C   0  0  0  0  0  0  0  0  0  0  0  0
    8.1450    2.6560  -58.4000 C   0  0  2  0  0  0  0  0  0  0  0  0
    9.6120    2.2980  -58.7590 C   0  0  1  0  0  0  0  0  0  0  0  0
    9.6910    2.0050  -60.2710 C   0  0  0  0  0  0  0  0  0  0  0  0
    9.2690    3.2470  -61.0740 C   0  0  2  0  0  0  0  0  0  0  0  0
   10.2160    4.4100  -60.7340 C   0  0  0  0  0  0  0  0  0  0  0  0
   10.1450    4.7210  -59.2280 C   0  0  2  0  0  0  0  0  0  0  0  0
   10.5590    3.4700  -58.4350 C   0  0  0  0  0  0  0  0  0  0  0  0
    8.7020    5.1050  -58.8640 C   0  0  0  0  0  0  0  0  0  0  0  0
    7.7450    3.9390  -59.1790 C   0  0  1  0  0  0  0  0  0  0  0  0
    7.8310    3.6380  -60.6900 C   0  0  0  0  0  0  0  0  0  0  0  0
    9.6650   -1.0160  -55.1450 N   0  0  0  0  0  0  0  0  0  0  0  0
   12.0604   -1.5153  -56.2985 H   0  0  0  0  0  0  0  0  0  0  0  0
   12.1807   -3.0470  -57.2290 H   0  0  0  0  0  0  0  0  0  0  0  0
   10.6455   -2.1143  -57.2290 H   0  0  0  0  0  0  0  0  0  0  0  0
    8.3419   -1.5434  -50.6700 H   0  0  0  0  0  0  0  0  0  0  0  0
    6.7462   -1.2906  -51.4552 H   0  0  0  0  0  0  0  0  0  0  0  0
    7.4988   -2.9216  -51.4552 H   0  0  0  0  0  0  0  0  0  0  0  0
    7.4629    0.4292  -53.0213 H   0  0  0  0  0  0  0  0  0  0  0  0
    9.5220    1.6390  -55.3210 H   0  0  0  0  0  0  0  0  0  0  0  0
    7.0840    3.4380  -56.6896 H   0  0  0  0  0  0  0  0  0  0  0  0
    8.8731    3.1584  -56.4494 H   0  0  0  0  0  0  0  0  0  0  0  0
    7.4726    1.8427  -58.7106 H   0  0  0  0  0  0  0  0  0  0  0  0
    9.9179    1.4213  -58.1692 H   0  0  0  0  0  0  0  0  0  0  0  0
   10.7239    1.7347  -60.5355 H   0  0  0  0  0  0  0  0  0  0  0  0
    9.0125    1.1734  -60.5120 H   0  0  0  0  0  0  0  0  0  0  0  0
    9.3170    3.0271  -62.1507 H   0  0  0  0  0  0  0  0  0  0  0  0
   11.2462    4.1313  -61.0006 H   0  0  0  0  0  0  0  0  0  0  0  0
    9.9128    5.3016  -61.3024 H   0  0  0  0  0  0  0  0  0  0  0  0
   10.8222    5.5524  -58.9828 H   0  0  0  0  0  0  0  0  0  0  0  0
   11.5880    3.1916  -58.7064 H   0  0  0  0  0  0  0  0  0  0  0  0
   10.5017    3.6914  -57.3590 H   0  0  0  0  0  0  0  0  0  0  0  0
    8.6482    5.3393  -57.7906 H   0  0  0  0  0  0  0  0  0  0  0  0
    8.4044    5.9833  -59.4557 H   0  0  0  0  0  0  0  0  0  0  0  0
    6.7261    4.2273  -58.8810 H   0  0  0  0  0  0  0  0  0  0  0  0
    7.1515    2.8082  -60.9343 H   0  0  0  0  0  0  0  0  0  0  0  0
    7.5421    4.5384  -61.2519 H   0  0  0  0  0  0  0  0  0  0  0  0
  1  2  1  0
  2  3  1  0
  3  4  1  0
  4  5  2  0
  5  6  1  0
  5  7  1  0
  7  8  2  0
  8  9  1  0
  9 10  1  0
 10 11  2  0
 10 12  1  0
 12 13  1  0
 13 14  1  0
 14 15  1  0
 15 16  1  0
 16 17  1  0
 17 18  1  0
 18 19  1  0
 18 20  1  0
 20 21  1  0
 21 22  1  0
  8 23  1  0
 23  3  2  0
 21 13  1  0
 19 14  1  0
 22 16  1  0
  1 24  1  0
  1 25  1  0
  1 26  1  0
  6 27  1  0
  6 28  1  0
  6 29  1  0
  7 30  1  0
  9 31  1  0
 12 32  1  0
 12 33  1  0
 13 34  1  1
 14 35  1  6
 15 36  1  0
 15 37  1  0
 16 38  1  1
 17 39  1  0
 17 40  1  0
 18 41  1  1
 19 42  1  0
 19 43  1  0
 20 44  1  0
 20 45  1  0
 21 46  1  6
 22 47  1  0
 22 48  1  0
M  END
>  <meeko>  (18) 
{"is_sidechain": false}

$$$$

     RDKit          3D

 54 58  0  0  0  0  0  0  0  0999 V2000
    9.8230   -0.7900  -55.3210 O   0  0  0  0  0  0  0  0  0  0  0  0
    8.9500   -0.5260  -54.5010 C   0  0  0  0  0  0  0  0  0  0  0  0
    7.9520    0.4040  -54.6900 N   0  0  0  0  0  0  0  0  0  0  0  0
    7.6910    1.1740  -55.8270 C   0  0  0  0  0  0  0  0  0  0  0  0
    6.4540    1.2900  -56.4140 C   0  0  0  0  0  0  0  0  0  0  0  0
    6.3710    2.0980  -57.5330 C   0  0  0  0  0  0  0  0  0  0  0  0
    5.0250    2.2560  -58.2210 C   0  0  0  0  0  0  0  0  0  0  0  0
    4.8880    1.4240  -59.2940 F   0  0  0  0  0  0  0  0  0  0  0  0
    4.8300    3.5170  -58.7030 F   0  0  0  0  0  0  0  0  0  0  0  0
    3.9550    1.9980  -57.4150 F   0  0  0  0  0  0  0  0  0  0  0  0
    7.4550    2.7470  -58.0280 N   0  0  0  0  0  0  0  0  0  0  0  0
    8.6230    2.5780  -57.3870 C   0  0  0  0  0  0  0  0  0  0  0  0
    9.8100    3.2830  -57.9150 C   0  0  0  0  0  0  0  0  0  0  0  0
    9.6870    4.3950  -58.7700 C   0  0  0  0  0  0  0  0  0  0  0  0
   10.8110    5.0640  -59.2700 C   0  0  0  0  0  0  0  0  0  0  0  0
   12.1020    4.6390  -58.9360 C   0  0  0  0  0  0  0  0  0  0  0  0
   13.3140    5.3720  -59.4560 C   0  0  0  0  0  0  0  0  0  0  0  0
   13.0320    6.1990  -60.5030 F   0  0  0  0  0  0  0  0  0  0  0  0
   13.9080    6.1570  -58.5140 F   0  0  0  0  0  0  0  0  0  0  0  0
   14.2820    4.5240  -59.9000 F   0  0  0  0  0  0  0  0  0  0  0  0
   12.2440    3.5400  -58.0800 C   0  0  0  0  0  0  0  0  0  0  0  0
   11.1160    2.8750  -57.5830 C   0  0  0  0  0  0  0  0  0  0  0  0
    8.7780    1.8090  -56.2950 N   0  0  0  0  0  0  0  0  0  0  0  0
    8.9000   -1.1800  -53.1120 C   0  0  2  0  0  0  0  0  0  0  0  0
    9.5900   -2.5680  -53.0610 C   0  0  1  0  0  0  0  0  0  0  0  0
    9.6880   -3.0040  -51.5840 C   0  0  0  0  0  0  0  0  0  0  0  0
    8.2800   -3.1120  -50.9680 C   0  0  2  0  0  0  0  0  0  0  0  0
    7.4650   -4.1540  -51.7520 C   0  0  0  0  0  0  0  0  0  0  0  0
    7.3570   -3.7360  -53.2280 C   0  0  2  0  0  0  0  0  0  0  0  0
    8.7690   -3.6290  -53.8210 C   0  0  0  0  0  0  0  0  0  0  0  0
    6.6670   -2.3660  -53.3220 C   0  0  0  0  0  0  0  0  0  0  0  0
    7.4660   -1.3070  -52.5390 C   0  0  1  0  0  0  0  0  0  0  0  0
    7.5710   -1.7510  -51.0650 C   0  0  0  0  0  0  0  0  0  0  0  0
    7.3250    0.6180  -53.9280 H   0  0  0  0  0  0  0  0  0  0  0  0
    5.5735    0.7661  -56.0136 H   0  0  0  0  0  0  0  0  0  0  0  0
    8.6836    4.7467  -59.0520 H   0  0  0  0  0  0  0  0  0  0  0  0
   10.6779    5.9324  -59.9320 H   0  0  0  0  0  0  0  0  0  0  0  0
   13.2495    3.1962  -57.7956 H   0  0  0  0  0  0  0  0  0  0  0  0
   11.2540    2.0114  -56.9158 H   0  0  0  0  0  0  0  0  0  0  0  0
    9.4668   -0.4827  -52.4775 H   0  0  0  0  0  0  0  0  0  0  0  0
   10.5820   -2.4858  -53.5292 H   0  0  0  0  0  0  0  0  0  0  0  0
   10.1862   -3.9830  -51.5262 H   0  0  0  0  0  0  0  0  0  0  0  0
   10.2681   -2.2545  -51.0257 H   0  0  0  0  0  0  0  0  0  0  0  0
    8.3637   -3.4130  -49.9133 H   0  0  0  0  0  0  0  0  0  0  0  0
    7.9646   -5.1318  -51.6860 H   0  0  0  0  0  0  0  0  0  0  0  0
    6.4551   -4.2209  -51.3211 H   0  0  0  0  0  0  0  0  0  0  0  0
    6.7707   -4.4830  -53.7832 H   0  0  0  0  0  0  0  0  0  0  0  0
    9.2718   -4.6040  -53.7391 H   0  0  0  0  0  0  0  0  0  0  0  0
    8.6917   -3.3322  -54.8774 H   0  0  0  0  0  0  0  0  0  0  0  0
    6.6030   -2.0642  -54.3778 H   0  0  0  0  0  0  0  0  0  0  0  0
    5.6587   -2.4441  -52.8892 H   0  0  0  0  0  0  0  0  0  0  0  0
    6.9512   -0.3385  -52.6227 H   0  0  0  0  0  0  0  0  0  0  0  0
    8.1448   -1.0016  -50.5001 H   0  0  0  0  0  0  0  0  0  0  0  0
    6.5583   -1.8439  -50.6458 H   0  0  0  0  0  0  0  0  0  0  0  0
  1  2  2  0
  2  3  1  0
  3  4  1  0
  4  5  2  0
  5  6  1  0
  6  7  1  0
  7  8  1  0
  7  9  1  0
  7 10  1  0
  6 11  2  0
 11 12  1  0
 12 13  1  0
 13 14  1  0
 14 15  2  0
 15 16  1  0
 16 17  1  0
 17 18  1  0
 17 19  1  0
 17 20  1  0
 16 21  2  0
 21 22  1  0
 12 23  2  0
  2 24  1  0
 24 25  1  0
 25 26  1  0
 26 27  1  0
 27 28  1  0
 28 29  1  0
 29 30  1  0
 29 31  1  0
 31 32  1  0
 32 33  1  0
 23  4  1  0
 32 24  1  0
 22 13  2  0
 30 25  1  0
 33 27  1  0
  3 34  1  0
  5 35  1  0
 14 36  1  0
 15 37  1  0
 21 38  1  0
 22 39  1  0
 24 40  1  6
 25 41  1  1
 26 42  1  0
 26 43  1  0
 27 44  1  6
 28 45  1  0
 28 46  1  0
 29 47  1  1
 30 48  1  0
 30 49  1  0
 31 50  1  0
 31 51  1  0
 32 52  1  6
 33 53  1  0
 33 54  1  0
M  END
>  <meeko>  (19) 
{"is_sidechain": false}

$$$$

     RDKit          3D

 51 55  0  0  0  0  0  0  0  0999 V2000
    7.8820   -1.7750  -51.9500 C   0  0  0  0  0  0  0  0  0  0  0  0
    8.5600   -1.3250  -53.2090 C   0  0  0  0  0  0  0  0  0  0  0  0
    8.3400   -0.0550  -53.7050 C   0  0  0  0  0  0  0  0  0  0  0  0
    9.0060    0.2690  -54.8640 C   0  0  0  0  0  0  0  0  0  0  0  0
    8.9060    1.5070  -55.5100 N   0  0  0  0  0  0  0  0  0  0  0  0
    8.0080    1.8940  -56.4710 C   0  0  0  0  0  0  0  0  0  0  0  0
    7.1110    1.2100  -56.9500 O   0  0  0  0  0  0  0  0  0  0  0  0
    8.2210    3.3270  -56.9250 C   0  0  0  0  0  0  0  0  0  0  0  0
    9.7050    3.5740  -57.1870 C   0  0  1  0  0  0  0  0  0  0  0  0
   10.3900    2.7130  -58.2580 C   0  0  1  0  0  0  0  0  0  0  0  0
    9.8120    2.9960  -59.6830 C   0  0  0  0  0  0  0  0  0  0  0  0
    9.8470    4.5150  -60.0350 C   0  0  2  0  0  0  0  0  0  0  0  0
   11.2670    5.0530  -59.8580 C   0  0  0  0  0  0  0  0  0  0  0  0
   11.4880    4.8040  -58.3660 C   0  0  2  0  0  0  0  0  0  0  0  0
   11.7920    3.3170  -58.1690 C   0  0  0  0  0  0  0  0  0  0  0  0
   10.0290    4.9680  -57.7510 N   0  0  1  0  0  0  0  0  0  0  0  0
    9.1580    5.3190  -58.9440 C   0  0  0  0  0  0  0  0  0  0  0  0
    9.8270   -0.5810  -55.5000 N   0  0  0  0  0  0  0  0  0  0  0  0
    9.9860   -1.8000  -54.9500 C   0  0  0  0  0  0  0  0  0  0  0  0
   10.8850   -2.7570  -55.6280 C   0  0  0  0  0  0  0  0  0  0  0  0
   11.5170   -2.4380  -56.8490 C   0  0  0  0  0  0  0  0  0  0  0  0
   12.3690   -3.3450  -57.4900 C   0  0  0  0  0  0  0  0  0  0  0  0
   12.6020   -4.5880  -56.9180 C   0  0  0  0  0  0  0  0  0  0  0  0
   13.4170   -5.4550  -57.5320 F   0  0  0  0  0  0  0  0  0  0  0  0
   12.0000   -4.9400  -55.7190 C   0  0  0  0  0  0  0  0  0  0  0  0
   11.1500   -4.0310  -55.0810 C   0  0  0  0  0  0  0  0  0  0  0  0
    9.3770   -2.2030  -53.8210 N   0  0  0  0  0  0  0  0  0  0  0  0
    8.4419   -1.4034  -51.0791 H   0  0  0  0  0  0  0  0  0  0  0  0
    6.8566   -1.3776  -51.9235 H   0  0  0  0  0  0  0  0  0  0  0  0
    7.8500   -2.8742  -51.9235 H   0  0  0  0  0  0  0  0  0  0  0  0
    7.6699    0.6573  -53.2015 H   0  0  0  0  0  0  0  0  0  0  0  0
    9.6170    2.1490  -55.1800 H   0  0  0  0  0  0  0  0  0  0  0  0
    7.6528    3.5049  -57.8499 H   0  0  0  0  0  0  0  0  0  0  0  0
    7.8734    4.0119  -56.1375 H   0  0  0  0  0  0  0  0  0  0  0  0
   10.0644    3.3644  -56.1687 H   0  0  0  0  0  0  0  0  0  0  0  0
   10.2935    1.6274  -58.1093 H   0  0  0  0  0  0  0  0  0  0  0  0
   10.4094    2.4455  -60.4246 H   0  0  0  0  0  0  0  0  0  0  0  0
    8.7622    2.6677  -59.6959 H   0  0  0  0  0  0  0  0  0  0  0  0
    9.4156    4.6037  -61.0430 H   0  0  0  0  0  0  0  0  0  0  0  0
   11.9898    4.4959  -60.4722 H   0  0  0  0  0  0  0  0  0  0  0  0
   11.3975    6.1004  -60.1676 H   0  0  0  0  0  0  0  0  0  0  0  0
   12.2747    5.4477  -57.9456 H   0  0  0  0  0  0  0  0  0  0  0  0
   12.4483    2.9311  -58.9629 H   0  0  0  0  0  0  0  0  0  0  0  0
   12.3251    3.0850  -57.2352 H   0  0  0  0  0  0  0  0  0  0  0  0
   10.0100    5.6950  -57.0210 H   0  0  0  0  0  0  0  0  0  0  0  0
    8.1172    4.9950  -58.7964 H   0  0  0  0  0  0  0  0  0  0  0  0
    9.0756    6.3963  -59.1507 H   0  0  0  0  0  0  0  0  0  0  0  0
   11.3360   -1.4545  -57.3072 H   0  0  0  0  0  0  0  0  0  0  0  0
   12.8509   -3.0743  -58.4411 H   0  0  0  0  0  0  0  0  0  0  0  0
   12.1899   -5.9274  -55.2730 H   0  0  0  0  0  0  0  0  0  0  0  0
   10.6765   -4.3157  -54.1299 H   0  0  0  0  0  0  0  0  0  0  0  0
  1  2  1  0
  2  3  1  0
  3  4  2  0
  4  5  1  0
  5  6  1  0
  6  7  2  0
  6  8  1  0
  8  9  1  0
  9 10  1  0
 10 11  1  0
 11 12  1  0
 12 13  1  0
 13 14  1  0
 14 15  1  0
 14 16  1  0
 16 17  1  0
  4 18  1  0
 18 19  2  0
 19 20  1  0
 20 21  1  0
 21 22  2  0
 22 23  1  0
 23 24  1  0
 23 25  2  0
 25 26  1  0
 19 27  1  0
 27  2  2  0
 16  9  1  0
 26 20  2  0
 15 10  1  0
 17 12  1  0
  1 28  1  0
  1 29  1  0
  1 30  1  0
  3 31  1  0
  5 32  1  0
  8 33  1  0
  8 34  1  0
  9 35  1  1
 10 36  1  1
 11 37  1  0
 11 38  1  0
 12 39  1  6
 13 40  1  0
 13 41  1  0
 14 42  1  1
 15 43  1  0
 15 44  1  0
 16 45  1  1
 17 46  1  0
 17 47  1  0
 21 48  1  0
 22 49  1  0
 25 50  1  0
 26 51  1  0
M  CHG  1  16   1
M  END
>  <meeko>  (20) 
{"is_sidechain": false}

$$$$

     RDKit          3D

 51 55  0  0  0  0  0  0  0  0999 V2000
    7.9680   -1.7960  -51.9050 C   0  0  0  0  0  0  0  0  0  0  0  0
    8.6120   -1.3680  -53.1890 C   0  0  0  0  0  0  0  0  0  0  0  0
    8.3570   -0.1180  -53.7160 C   0  0  0  0  0  0  0  0  0  0  0  0
    8.9920    0.1840  -54.9000 C   0  0  0  0  0  0  0  0  0  0  0  0
    8.8550    1.4000  -55.5790 N   0  0  0  0  0  0  0  0  0  0  0  0
    7.8760    1.7780  -56.4600 C   0  0  0  0  0  0  0  0  0  0  0  0
    6.8970    1.1170  -56.7990 O   0  0  0  0  0  0  0  0  0  0  0  0
    8.0710    3.1890  -56.9830 C   0  0  0  0  0  0  0  0  0  0  0  0
    8.4440    3.1710  -58.4630 C   0  0  2  0  0  0  0  0  0  0  0  0
    9.6920    2.3760  -58.8600 C   0  0  2  0  0  0  0  0  0  0  0  0
   10.9930    3.0390  -58.3030 C   0  0  0  0  0  0  0  0  0  0  0  0
   11.0970    4.5450  -58.7040 C   0  0  1  0  0  0  0  0  0  0  0  0
   10.9550    4.6930  -60.2180 C   0  0  0  0  0  0  0  0  0  0  0  0
    9.5450    4.1390  -60.4340 C   0  0  1  0  0  0  0  0  0  0  0  0
    9.6290    2.6090  -60.3730 C   0  0  0  0  0  0  0  0  0  0  0  0
    8.8020    4.5150  -59.0920 N   0  0  2  0  0  0  0  0  0  0  0  0
    9.8330    5.2780  -58.2850 C   0  0  0  0  0  0  0  0  0  0  0  0
    9.8140   -0.6690  -55.5280 N   0  0  0  0  0  0  0  0  0  0  0  0
   10.0090   -1.8690  -54.9470 C   0  0  0  0  0  0  0  0  0  0  0  0
   10.9110   -2.8280  -55.6180 C   0  0  0  0  0  0  0  0  0  0  0  0
   11.5340   -2.5130  -56.8450 C   0  0  0  0  0  0  0  0  0  0  0  0
   12.3890   -3.4170  -57.4850 C   0  0  0  0  0  0  0  0  0  0  0  0
   12.6340   -4.6540  -56.9050 C   0  0  0  0  0  0  0  0  0  0  0  0
   13.4510   -5.5210  -57.5150 F   0  0  0  0  0  0  0  0  0  0  0  0
   12.0430   -5.0020  -55.6990 C   0  0  0  0  0  0  0  0  0  0  0  0
   11.1880   -4.0950  -55.0630 C   0  0  0  0  0  0  0  0  0  0  0  0
    9.4340   -2.2470  -53.7920 N   0  0  0  0  0  0  0  0  0  0  0  0
    8.5504   -1.4090  -51.0559 H   0  0  0  0  0  0  0  0  0  0  0  0
    6.9434   -1.3986  -51.8584 H   0  0  0  0  0  0  0  0  0  0  0  0
    7.9376   -2.8946  -51.8584 H   0  0  0  0  0  0  0  0  0  0  0  0
    7.6847    0.5964  -53.2184 H   0  0  0  0  0  0  0  0  0  0  0  0
    9.6100    2.0350  -55.3450 H   0  0  0  0  0  0  0  0  0  0  0  0
    7.1362    3.7542  -56.8534 H   0  0  0  0  0  0  0  0  0  0  0  0
    8.8870    3.6647  -56.4192 H   0  0  0  0  0  0  0  0  0  0  0  0
    7.4982    2.7322  -58.8137 H   0  0  0  0  0  0  0  0  0  0  0  0
    9.7141    1.3346  -58.5063 H   0  0  0  0  0  0  0  0  0  0  0  0
   10.9893    2.9626  -57.2057 H   0  0  0  0  0  0  0  0  0  0  0  0
   11.8562    2.5110  -58.7344 H   0  0  0  0  0  0  0  0  0  0  0  0
   12.0385    4.9108  -58.2684 H   0  0  0  0  0  0  0  0  0  0  0  0
   11.0278    5.7454  -60.5297 H   0  0  0  0  0  0  0  0  0  0  0  0
   11.7370    4.1823  -60.7991 H   0  0  0  0  0  0  0  0  0  0  0  0
    9.0871    4.4990  -61.3671 H   0  0  0  0  0  0  0  0  0  0  0  0
    8.7395    2.1382  -60.8169 H   0  0  0  0  0  0  0  0  0  0  0  0
   10.4737    2.1800  -60.9320 H   0  0  0  0  0  0  0  0  0  0  0  0
    7.9390    5.0740  -59.2250 H   0  0  0  0  0  0  0  0  0  0  0  0
    9.8659    6.3409  -58.5665 H   0  0  0  0  0  0  0  0  0  0  0  0
    9.6485    5.2979  -57.2008 H   0  0  0  0  0  0  0  0  0  0  0  0
   11.3428   -1.5340  -57.3088 H   0  0  0  0  0  0  0  0  0  0  0  0
   12.8635   -3.1494  -58.4406 H   0  0  0  0  0  0  0  0  0  0  0  0
   12.2451   -5.9838  -55.2460 H   0  0  0  0  0  0  0  0  0  0  0  0
   10.7209   -4.3766  -54.1078 H   0  0  0  0  0  0  0  0  0  0  0  0
  1  2  1  0
  2  3  1  0
  3  4  2  0
  4  5  1  0
  5  6  1  0
  6  7  2  0
  6  8  1  0
  8  9  1  0
  9 10  1  0
 10 11  1  0
 11 12  1  0
 12 13  1  0
 13 14  1  0
 14 15  1  0
 14 16  1  0
 16 17  1  0
  4 18  1  0
 18 19  2  0
 19 20  1  0
 20 21  1  0
 21 22  2  0
 22 23  1  0
 23 24  1  0
 23 25  2  0
 25 26  1  0
 19 27  1  0
 27  2  2  0
 16  9  1  0
 26 20  2  0
 15 10  1  0
 17 12  1  0
  1 28  1  0
  1 29  1  0
  1 30  1  0
  3 31  1  0
  5 32  1  0
  8 33  1  0
  8 34  1  0
  9 35  1  6
 10 36  1  6
 11 37  1  0
 11 38  1  0
 12 39  1  1
 13 40  1  0
 13 41  1  0
 14 42  1  6
 15 43  1  0
 15 44  1  0
 16 45  1  6
 17 46  1  0
 17 47  1  0
 21 48  1  0
 22 49  1  0
 25 50  1  0
 26 51  1  0
M  CHG  1  16   1
M  END
>  <meeko>  (21) 
{"is_sidechain": false}

$$$$

     RDKit          3D

 51 55  0  0  0  0  0  0  0  0999 V2000
    7.9870   -1.8920  -51.8660 C   0  0  0  0  0  0  0  0  0  0  0  0
    8.6110   -1.4320  -53.1500 C   0  0  0  0  0  0  0  0  0  0  0  0
    8.3240   -0.1820  -53.6580 C   0  0  0  0  0  0  0  0  0  0  0  0
    8.9430    0.1520  -54.8400 C   0  0  0  0  0  0  0  0  0  0  0  0
    8.7750    1.3740  -55.5010 N   0  0  0  0  0  0  0  0  0  0  0  0
    7.7410    1.7690  -56.3080 C   0  0  0  0  0  0  0  0  0  0  0  0
    6.7680    1.0970  -56.6440 O   0  0  0  0  0  0  0  0  0  0  0  0
    7.9210    3.1660  -56.8720 C   0  0  0  0  0  0  0  0  0  0  0  0
    8.6270    3.1070  -58.2330 C   0  0  1  0  0  0  0  0  0  0  0  0
    8.0430    3.9890  -59.3450 C   0  0  2  0  0  0  0  0  0  0  0  0
    8.8410    3.7260  -60.6680 C   0  0  0  0  0  0  0  0  0  0  0  0
   10.3780    3.9300  -60.4650 C   0  0  1  0  0  0  0  0  0  0  0  0
   10.6440    5.3180  -59.8830 C   0  0  0  0  0  0  0  0  0  0  0  0
    9.8950    5.2240  -58.5530 C   0  0  1  0  0  0  0  0  0  0  0  0
    8.4010    5.3870  -58.8390 C   0  0  0  0  0  0  0  0  0  0  0  0
   10.0330    3.7110  -58.1720 N   0  0  2  0  0  0  0  0  0  0  0  0
   10.8590    3.0900  -59.2890 C   0  0  0  0  0  0  0  0  0  0  0  0
    9.7830   -0.6720  -55.4840 N   0  0  0  0  0  0  0  0  0  0  0  0
   10.0090   -1.8750  -54.9210 C   0  0  0  0  0  0  0  0  0  0  0  0
   10.9310   -2.8040  -55.6100 C   0  0  0  0  0  0  0  0  0  0  0  0
   11.2310   -4.0770  -55.0780 C   0  0  0  0  0  0  0  0  0  0  0  0
   12.1020   -4.9540  -55.7320 C   0  0  0  0  0  0  0  0  0  0  0  0
   12.6900   -4.5710  -56.9290 C   0  0  0  0  0  0  0  0  0  0  0  0
   13.5230   -5.4100  -57.5540 F   0  0  0  0  0  0  0  0  0  0  0  0
   12.4210   -3.3290  -57.4850 C   0  0  0  0  0  0  0  0  0  0  0  0
   11.5490   -2.4540  -56.8290 C   0  0  0  0  0  0  0  0  0  0  0  0
    9.4480   -2.2840  -53.7700 N   0  0  0  0  0  0  0  0  0  0  0  0
    8.5491   -1.4776  -51.0161 H   0  0  0  0  0  0  0  0  0  0  0  0
    6.9442   -1.5449  -51.8201 H   0  0  0  0  0  0  0  0  0  0  0  0
    8.0101   -2.9908  -51.8201 H   0  0  0  0  0  0  0  0  0  0  0  0
    7.6382    0.5092  -53.1462 H   0  0  0  0  0  0  0  0  0  0  0  0
    9.5580    1.9930  -55.3260 H   0  0  0  0  0  0  0  0  0  0  0  0
    6.9345    3.6368  -56.9956 H   0  0  0  0  0  0  0  0  0  0  0  0
    8.5366    3.7549  -56.1762 H   0  0  0  0  0  0  0  0  0  0  0  0
    8.5443    2.0316  -58.4489 H   0  0  0  0  0  0  0  0  0  0  0  0
    6.9739    3.8257  -59.5460 H   0  0  0  0  0  0  0  0  0  0  0  0
    8.6585    2.6917  -60.9950 H   0  0  0  0  0  0  0  0  0  0  0  0
    8.4962    4.4450  -61.4258 H   0  0  0  0  0  0  0  0  0  0  0  0
   10.8464    3.7151  -61.4368 H   0  0  0  0  0  0  0  0  0  0  0  0
   11.7192    5.4928  -59.7299 H   0  0  0  0  0  0  0  0  0  0  0  0
   10.3223    6.1495  -60.5272 H   0  0  0  0  0  0  0  0  0  0  0  0
   10.2583    5.9511  -57.8118 H   0  0  0  0  0  0  0  0  0  0  0  0
    7.8411    5.6416  -57.9270 H   0  0  0  0  0  0  0  0  0  0  0  0
    8.1612    6.1977  -59.5427 H   0  0  0  0  0  0  0  0  0  0  0  0
   10.4780    3.5190  -57.2540 H   0  0  0  0  0  0  0  0  0  0  0  0
   11.9385    3.2102  -59.1149 H   0  0  0  0  0  0  0  0  0  0  0  0
   10.7343    2.0039  -59.4112 H   0  0  0  0  0  0  0  0  0  0  0  0
   10.7695   -4.3856  -54.1284 H   0  0  0  0  0  0  0  0  0  0  0  0
   12.3198   -5.9419  -55.3000 H   0  0  0  0  0  0  0  0  0  0  0  0
   12.8902   -3.0343  -58.4352 H   0  0  0  0  0  0  0  0  0  0  0  0
   11.3402   -1.4699  -57.2740 H   0  0  0  0  0  0  0  0  0  0  0  0
  1  2  1  0
  2  3  1  0
  3  4  2  0
  4  5  1  0
  5  6  1  0
  6  7  2  0
  6  8  1  0
  8  9  1  0
  9 10  1  0
 10 11  1  0
 11 12  1  0
 12 13  1  0
 13 14  1  0
 14 15  1  0
 14 16  1  0
 16 17  1  0
  4 18  1  0
 18 19  2  0
 19 20  1  0
 20 21  1  0
 21 22  2  0
 22 23  1  0
 23 24  1  0
 23 25  2  0
 25 26  1  0
 19 27  1  0
 27  2  2  0
 16  9  1  0
 26 20  2  0
 15 10  1  0
 17 12  1  0
  1 28  1  0
  1 29  1  0
  1 30  1  0
  3 31  1  0
  5 32  1  0
  8 33  1  0
  8 34  1  0
  9 35  1  6
 10 36  1  6
 11 37  1  0
 11 38  1  0
 12 39  1  6
 13 40  1  0
 13 41  1  0
 14 42  1  1
 15 43  1  0
 15 44  1  0
 16 45  1  1
 17 46  1  0
 17 47  1  0
 21 48  1  0
 22 49  1  0
 25 50  1  0
 26 51  1  0
M  CHG  1  16   1
M  END
>  <meeko>  (22) 
{"is_sidechain": false}

$$$$

     RDKit          3D

 51 55  0  0  0  0  0  0  0  0999 V2000
    7.7610   -1.6950  -52.1930 C   0  0  0  0  0  0  0  0  0  0  0  0
    8.5560   -1.2700  -53.3910 C   0  0  0  0  0  0  0  0  0  0  0  0
    8.4610    0.0210  -53.8690 C   0  0  0  0  0  0  0  0  0  0  0  0
    9.2280    0.3200  -54.9720 C   0  0  0  0  0  0  0  0  0  0  0  0
    9.2600    1.5730  -55.5950 N   0  0  0  0  0  0  0  0  0  0  0  0
    8.3520    2.1060  -56.4770 C   0  0  0  0  0  0  0  0  0  0  0  0
    7.3240    1.5740  -56.8780 O   0  0  0  0  0  0  0  0  0  0  0  0
    8.7360    3.4990  -56.9340 C   0  0  0  0  0  0  0  0  0  0  0  0
    9.4190    3.4330  -58.3040 C   0  0  2  0  0  0  0  0  0  0  0  0
    9.2960    4.6460  -59.2390 C   0  0  1  0  0  0  0  0  0  0  0  0
   10.1230    4.3610  -60.5390 C   0  0  0  0  0  0  0  0  0  0  0  0
    9.6870    3.0240  -61.2190 C   0  0  2  0  0  0  0  0  0  0  0  0
    8.1810    3.0410  -61.4720 C   0  0  0  0  0  0  0  0  0  0  0  0
    7.6470    3.1640  -60.0440 C   0  0  2  0  0  0  0  0  0  0  0  0
    7.8120    4.6140  -59.5930 C   0  0  0  0  0  0  0  0  0  0  0  0
    8.7180    2.3810  -59.1880 N   0  0  1  0  0  0  0  0  0  0  0  0
    9.7400    1.8850  -60.2080 C   0  0  0  0  0  0  0  0  0  0  0  0
   10.0310   -0.5740  -55.5700 N   0  0  0  0  0  0  0  0  0  0  0  0
   10.0660   -1.8120  -55.0390 C   0  0  0  0  0  0  0  0  0  0  0  0
   10.9440   -2.8170  -55.6760 C   0  0  0  0  0  0  0  0  0  0  0  0
   11.1870   -4.0710  -55.0770 C   0  0  0  0  0  0  0  0  0  0  0  0
   12.0180   -5.0210  -55.6810 C   0  0  0  0  0  0  0  0  0  0  0  0
   12.6210   -4.7290  -56.8960 C   0  0  0  0  0  0  0  0  0  0  0  0
   13.4170   -5.6370  -57.4750 F   0  0  0  0  0  0  0  0  0  0  0  0
   12.4080   -3.5070  -57.5180 C   0  0  0  0  0  0  0  0  0  0  0  0
   11.5770   -2.5600  -56.9110 C   0  0  0  0  0  0  0  0  0  0  0  0
    9.3520   -2.1910  -53.9640 N   0  0  0  0  0  0  0  0  0  0  0  0
    8.2974   -1.4083  -51.2765 H   0  0  0  0  0  0  0  0  0  0  0  0
    6.7777   -1.2022  -52.2118 H   0  0  0  0  0  0  0  0  0  0  0  0
    7.6246   -2.7863  -52.2118 H   0  0  0  0  0  0  0  0  0  0  0  0
    7.8088    0.7693  -53.3950 H   0  0  0  0  0  0  0  0  0  0  0  0
   10.0770    2.1000  -55.3130 H   0  0  0  0  0  0  0  0  0  0  0  0
    7.8312    4.1202  -57.0079 H   0  0  0  0  0  0  0  0  0  0  0  0
    9.4325    3.9384  -56.2048 H   0  0  0  0  0  0  0  0  0  0  0  0
   10.4633    3.2726  -57.9977 H   0  0  0  0  0  0  0  0  0  0  0  0
    9.6447    5.5950  -58.8057 H   0  0  0  0  0  0  0  0  0  0  0  0
    9.9695    5.1881  -61.2477 H   0  0  0  0  0  0  0  0  0  0  0  0
   11.1832    4.2737  -60.2590 H   0  0  0  0  0  0  0  0  0  0  0  0
   10.3265    2.9102  -62.1067 H   0  0  0  0  0  0  0  0  0  0  0  0
    7.8848    3.9016  -62.0897 H   0  0  0  0  0  0  0  0  0  0  0  0
    7.8038    2.1673  -62.0237 H   0  0  0  0  0  0  0  0  0  0  0  0
    6.6053    2.8218  -59.9557 H   0  0  0  0  0  0  0  0  0  0  0  0
    7.5757    5.3181  -60.4044 H   0  0  0  0  0  0  0  0  0  0  0  0
    7.1446    4.9101  -58.7702 H   0  0  0  0  0  0  0  0  0  0  0  0
    8.3130    1.5990  -58.6570 H   0  0  0  0  0  0  0  0  0  0  0  0
   10.7410    1.7806  -59.7640 H   0  0  0  0  0  0  0  0  0  0  0  0
    9.5302    0.8886  -60.6242 H   0  0  0  0  0  0  0  0  0  0  0  0
   10.7124   -4.3073  -54.1132 H   0  0  0  0  0  0  0  0  0  0  0  0
   12.1920   -5.9928  -55.1958 H   0  0  0  0  0  0  0  0  0  0  0  0
   12.8894   -3.2847  -58.4818 H   0  0  0  0  0  0  0  0  0  0  0  0
   11.4129   -1.5923  -57.4077 H   0  0  0  0  0  0  0  0  0  0  0  0
  1  2  1  0
  2  3  1  0
  3  4  2  0
  4  5  1  0
  5  6  1  0
  6  7  2  0
  6  8  1  0
  8  9  1  0
  9 10  1  0
 10 11  1  0
 11 12  1  0
 12 13  1  0
 13 14  1  0
 14 15  1  0
 14 16  1  0
 16 17  1  0
  4 18  1  0
 18 19  2  0
 19 20  1  0
 20 21  1  0
 21 22  2  0
 22 23  1  0
 23 24  1  0
 23 25  2  0
 25 26  1  0
 19 27  1  0
 27  2  2  0
 16  9  1  0
 26 20  2  0
 15 10  1  0
 17 12  1  0
  1 28  1  0
  1 29  1  0
  1 30  1  0
  3 31  1  0
  5 32  1  0
  8 33  1  0
  8 34  1  0
  9 35  1  1
 10 36  1  1
 11 37  1  0
 11 38  1  0
 12 39  1  6
 13 40  1  0
 13 41  1  0
 14 42  1  6
 15 43  1  0
 15 44  1  0
 16 45  1  1
 17 46  1  0
 17 47  1  0
 21 48  1  0
 22 49  1  0
 25 50  1  0
 26 51  1  0
M  CHG  1  16   1
M  END
>  <meeko>  (23) 
{"is_sidechain": false}

$$$$

     RDKit          3D

 40 43  0  0  0  0  0  0  0  0999 V2000
    5.8500    2.9770  -58.5520 C   0  0  0  0  0  0  0  0  0  0  0  0
    7.2010    2.7320  -57.9550 C   0  0  0  0  0  0  0  0  0  0  0  0
    8.2450    3.4200  -58.4660 N   0  0  0  0  0  0  0  0  0  0  0  0
    9.4610    3.1950  -57.9310 C   0  0  0  0  0  0  0  0  0  0  0  0
   10.6270    3.9280  -58.4550 C   0  0  0  0  0  0  0  0  0  0  0  0
   10.4550    5.0100  -59.3510 C   0  0  0  0  0  0  0  0  0  0  0  0
   11.5450    5.7200  -59.8640 C   0  0  0  0  0  0  0  0  0  0  0  0
   12.8310    5.3600  -59.4900 C   0  0  0  0  0  0  0  0  0  0  0  0
   13.8770    6.0380  -59.9790 F   0  0  0  0  0  0  0  0  0  0  0  0
   13.0450    4.3080  -58.6140 C   0  0  0  0  0  0  0  0  0  0  0  0
   11.9500    3.6050  -58.1070 C   0  0  0  0  0  0  0  0  0  0  0  0
   12.2190    2.6010  -57.2580 F   0  0  0  0  0  0  0  0  0  0  0  0
    9.6820    2.3330  -56.9220 N   0  0  0  0  0  0  0  0  0  0  0  0
    8.6320    1.6660  -56.4230 C   0  0  0  0  0  0  0  0  0  0  0  0
    8.7970    0.7480  -55.3690 N   0  0  0  0  0  0  0  0  0  0  0  0
    9.7580   -0.2400  -55.3220 C   0  0  0  0  0  0  0  0  0  0  0  0
   10.6470   -0.4480  -56.1390 O   0  0  0  0  0  0  0  0  0  0  0  0
    9.7040   -1.1050  -54.1100 C   0  0  0  0  0  0  0  0  0  0  0  0
   10.8030   -1.9060  -53.7240 C   0  0  0  0  0  0  0  0  0  0  0  0
   10.7280   -2.7100  -52.5810 C   0  0  0  0  0  0  0  0  0  0  0  0
    9.5570   -2.6810  -51.8530 C   0  0  0  0  0  0  0  0  0  0  0  0
    8.4930   -1.8900  -52.2180 C   0  0  0  0  0  0  0  0  0  0  0  0
    8.5340   -1.0860  -53.3360 C   0  0  0  0  0  0  0  0  0  0  0  0
    7.4440   -2.0070  -51.3610 O   0  0  0  0  0  0  0  0  0  0  0  0
    7.9730   -2.9510  -50.4070 C   0  0  0  0  0  0  0  0  0  0  0  0
    9.3110   -3.3910  -50.7200 O   0  0  0  0  0  0  0  0  0  0  0  0
    7.3550    1.8350  -56.9210 C   0  0  0  0  0  0  0  0  0  0  0  0
    6.3140    1.1530  -56.4180 F   0  0  0  0  0  0  0  0  0  0  0  0
    5.1123    3.1108  -57.7471 H   0  0  0  0  0  0  0  0  0  0  0  0
    5.8828    3.8838  -59.1737 H   0  0  0  0  0  0  0  0  0  0  0  0
    5.5623    2.1164  -59.1737 H   0  0  0  0  0  0  0  0  0  0  0  0
    9.4374    5.3000  -59.6517 H   0  0  0  0  0  0  0  0  0  0  0  0
   11.3837    6.5575  -60.5587 H   0  0  0  0  0  0  0  0  0  0  0  0
   14.0678    4.0292  -58.3206 H   0  0  0  0  0  0  0  0  0  0  0  0
    8.1980    0.8920  -54.5680 H   0  0  0  0  0  0  0  0  0  0  0  0
   11.7235   -1.8973  -54.3262 H   0  0  0  0  0  0  0  0  0  0  0  0
   11.5736   -3.3430  -52.2739 H   0  0  0  0  0  0  0  0  0  0  0  0
    7.6791   -0.4512  -53.6122 H   0  0  0  0  0  0  0  0  0  0  0  0
    7.9851   -2.4753  -49.4153 H   0  0  0  0  0  0  0  0  0  0  0  0
    7.3240   -3.8387  -50.4335 H   0  0  0  0  0  0  0  0  0  0  0  0
  1  2  1  0
  2  3  2  0
  3  4  1  0
  4  5  1  0
  5  6  1  0
  6  7  2  0
  7  8  1  0
  8  9  1  0
  8 10  2  0
 10 11  1  0
 11 12  1  0
  4 13  2  0
 13 14  1  0
 14 15  1  0
 15 16  1  0
 16 17  2  0
 16 18  1  0
 18 19  1  0
 19 20  2  0
 20 21  1  0
 21 22  2  0
 22 23  1  0
 22 24  1  0
 24 25  1  0
 25 26  1  0
 14 27  2  0
 27 28  1  0
 27  2  1  0
 11  5  2  0
 23 18  2  0
 26 21  1  0
  1 29  1  0
  1 30  1  0
  1 31  1  0
  6 32  1  0
  7 33  1  0
 10 34  1  0
 15 35  1  0
 19 36  1  0
 20 37  1  0
 23 38  1  0
 25 39  1  0
 25 40  1  0
M  END
>  <meeko>  (24) 
{"is_sidechain": false}

$$$$

     RDKit          3D

 36 38  0  0  0  0  0  0  0  0999 V2000
    7.8030   -3.8880  -52.6890 O   0  0  0  0  0  0  0  0  0  0  0  0
    8.3900   -3.2410  -51.8220 C   0  0  0  0  0  0  0  0  0  0  0  0
    9.3060   -2.2310  -52.0850 N   0  0  0  0  0  0  0  0  0  0  0  0
    9.7320   -1.7470  -53.3230 C   0  0  0  0  0  0  0  0  0  0  0  0
   10.8740   -2.1660  -53.9640 C   0  0  0  0  0  0  0  0  0  0  0  0
   11.1350   -1.5740  -55.1760 C   0  0  0  0  0  0  0  0  0  0  0  0
   10.3480   -0.6340  -55.7320 N   0  0  0  0  0  0  0  0  0  0  0  0
    9.2520   -0.2930  -55.0340 C   0  0  0  0  0  0  0  0  0  0  0  0
    8.3330    0.7050  -55.6240 C   0  0  0  0  0  0  0  0  0  0  0  0
    6.9470    0.4920  -55.5140 C   0  0  0  0  0  0  0  0  0  0  0  0
    6.0640    1.3850  -56.0890 C   0  0  0  0  0  0  0  0  0  0  0  0
    6.4560    2.4780  -56.7690 N   0  0  0  0  0  0  0  0  0  0  0  0
    7.7820    2.7050  -56.8780 C   0  0  0  0  0  0  0  0  0  0  0  0
    8.7610    1.8700  -56.3110 C   0  0  0  0  0  0  0  0  0  0  0  0
   10.2290    2.2080  -56.4880 C   0  0  0  0  0  0  0  0  0  0  0  0
   10.4980    3.6490  -56.9230 C   0  0  0  0  0  0  0  0  0  0  0  0
    9.5940    4.0040  -58.0540 N   0  0  0  0  0  0  0  0  0  0  0  0
    8.1590    3.9590  -57.6290 C   0  0  0  0  0  0  0  0  0  0  0  0
    8.9110   -0.8180  -53.8420 N   0  0  0  0  0  0  0  0  0  0  0  0
    8.1830   -3.4810  -50.3130 C   0  0  0  0  0  0  0  0  0  0  0  0
    7.2360   -4.4240  -50.0590 F   0  0  0  0  0  0  0  0  0  0  0  0
    9.3310   -3.9230  -49.7170 F   0  0  0  0  0  0  0  0  0  0  0  0
    7.8170   -2.3540  -49.6490 F   0  0  0  0  0  0  0  0  0  0  0  0
    9.7440   -1.7670  -51.2940 H   0  0  0  0  0  0  0  0  0  0  0  0
   11.5385   -2.9291  -53.5325 H   0  0  0  0  0  0  0  0  0  0  0  0
   12.0374   -1.8855  -55.7225 H   0  0  0  0  0  0  0  0  0  0  0  0
    6.5665   -0.3853  -54.9703 H   0  0  0  0  0  0  0  0  0  0  0  0
    4.9858    1.1930  -55.9858 H   0  0  0  0  0  0  0  0  0  0  0  0
   10.7393    2.0374  -55.5286 H   0  0  0  0  0  0  0  0  0  0  0  0
   10.6047    1.5615  -57.2948 H   0  0  0  0  0  0  0  0  0  0  0  0
   10.3117    4.3279  -56.0778 H   0  0  0  0  0  0  0  0  0  0  0  0
   11.5449    3.7448  -57.2466 H   0  0  0  0  0  0  0  0  0  0  0  0
    9.7240    3.3450  -58.8330 H   0  0  0  0  0  0  0  0  0  0  0  0
    9.8110    4.9380  -58.4190 H   0  0  0  0  0  0  0  0  0  0  0  0
    7.9632    4.8242  -56.9785 H   0  0  0  0  0  0  0  0  0  0  0  0
    7.5536    3.9751  -58.5473 H   0  0  0  0  0  0  0  0  0  0  0  0
  1  2  2  0
  2  3  1  0
  3  4  1  0
  4  5  1  0
  5  6  2  0
  6  7  1  0
  7  8  2  0
  8  9  1  0
  9 10  2  0
 10 11  1  0
 11 12  2  0
 12 13  1  0
 13 14  2  0
 14 15  1  0
 15 16  1  0
 16 17  1  0
 17 18  1  0
  8 19  1  0
  2 20  1  0
 20 21  1  0
 20 22  1  0
 20 23  1  0
 19  4  2  0
 14  9  1  0
 18 13  1  0
  3 24  1  0
  5 25  1  0
  6 26  1  0
 10 27  1  0
 11 28  1  0
 15 29  1  0
 15 30  1  0
 16 31  1  0
 16 32  1  0
 17 33  1  0
 17 34  1  0
 18 35  1  0
 18 36  1  0
M  CHG  1  17   1
M  END
>  <meeko>  (25) 
{"is_sidechain": false}

$$$$

     RDKit          3D

 39 41  0  0  0  0  0  0  0  0999 V2000
    5.4000    1.8700  -56.8430 C   0  0  0  0  0  0  0  0  0  0  0  0
    6.8070    1.5430  -56.4420 C   0  0  0  0  0  0  0  0  0  0  0  0
    7.0500    0.6990  -55.3790 C   0  0  0  0  0  0  0  0  0  0  0  0
    8.3700    0.4550  -55.0820 C   0  0  0  0  0  0  0  0  0  0  0  0
    8.8000   -0.3720  -54.0410 N   0  0  0  0  0  0  0  0  0  0  0  0
    9.4120   -1.6030  -54.1260 C   0  0  0  0  0  0  0  0  0  0  0  0
    9.6970   -2.1950  -55.1640 O   0  0  0  0  0  0  0  0  0  0  0  0
    9.7610   -2.1980  -52.7700 C   0  0  0  0  0  0  0  0  0  0  0  0
    8.5850   -2.8150  -52.0670 C   0  0  0  0  0  0  0  0  0  0  0  0
    8.3990   -2.6680  -50.6890 C   0  0  0  0  0  0  0  0  0  0  0  0
    7.3040   -3.2650  -50.0730 C   0  0  0  0  0  0  0  0  0  0  0  0
    6.4250   -3.9910  -50.8580 C   0  0  0  0  0  0  0  0  0  0  0  0
    6.5670   -4.1500  -52.1920 N   0  0  0  0  0  0  0  0  0  0  0  0
    7.6350   -3.5530  -52.7650 C   0  0  0  0  0  0  0  0  0  0  0  0
    9.3850    0.9970  -55.7770 N   0  0  0  0  0  0  0  0  0  0  0  0
    9.0590    1.8040  -56.8050 C   0  0  0  0  0  0  0  0  0  0  0  0
   10.1650    2.4160  -57.5590 C   0  0  0  0  0  0  0  0  0  0  0  0
   11.3130    2.9010  -56.8930 C   0  0  0  0  0  0  0  0  0  0  0  0
   12.3700    3.4910  -57.5950 C   0  0  0  0  0  0  0  0  0  0  0  0
   12.2950    3.6010  -58.9760 C   0  0  0  0  0  0  0  0  0  0  0  0
   13.3060    4.1640  -59.6490 F   0  0  0  0  0  0  0  0  0  0  0  0
   11.1900    3.1310  -59.6670 C   0  0  0  0  0  0  0  0  0  0  0  0
   10.1410    2.5450  -58.9590 C   0  0  0  0  0  0  0  0  0  0  0  0
    9.1070    2.0790  -59.6760 F   0  0  0  0  0  0  0  0  0  0  0  0
    7.7990    2.1050  -57.1580 N   0  0  0  0  0  0  0  0  0  0  0  0
    4.7857    2.0128  -55.9418 H   0  0  0  0  0  0  0  0  0  0  0  0
    5.3943    2.7934  -57.4407 H   0  0  0  0  0  0  0  0  0  0  0  0
    4.9876    1.0438  -57.4407 H   0  0  0  0  0  0  0  0  0  0  0  0
    6.2320    0.2455  -54.8000 H   0  0  0  0  0  0  0  0  0  0  0  0
    8.5600   -0.0000  -53.1310 H   0  0  0  0  0  0  0  0  0  0  0  0
   10.5260   -2.9747  -52.9168 H   0  0  0  0  0  0  0  0  0  0  0  0
   10.1208   -1.3734  -52.1371 H   0  0  0  0  0  0  0  0  0  0  0  0
    9.1158   -2.0826  -50.0944 H   0  0  0  0  0  0  0  0  0  0  0  0
    7.1408   -3.1628  -48.9900 H   0  0  0  0  0  0  0  0  0  0  0  0
    5.5620   -4.4653  -50.3679 H   0  0  0  0  0  0  0  0  0  0  0  0
    7.7612   -3.6573  -53.8528 H   0  0  0  0  0  0  0  0  0  0  0  0
   11.3772    2.8128  -55.7984 H   0  0  0  0  0  0  0  0  0  0  0  0
   13.2533    3.8646  -57.0562 H   0  0  0  0  0  0  0  0  0  0  0  0
   11.1406    3.2191  -60.7624 H   0  0  0  0  0  0  0  0  0  0  0  0
  1  2  1  0
  2  3  1  0
  3  4  2  0
  4  5  1  0
  5  6  1  0
  6  7  2  0
  6  8  1  0
  8  9  1  0
  9 10  1  0
 10 11  2  0
 11 12  1  0
 12 13  2  0
 13 14  1  0
  4 15  1  0
 15 16  2  0
 16 17  1  0
 17 18  1  0
 18 19  2  0
 19 20  1  0
 20 21  1  0
 20 22  2  0
 22 23  1  0
 23 24  1  0
 16 25  1  0
 25  2  2  0
 14  9  2  0
 23 17  2  0
  1 26  1  0
  1 27  1  0
  1 28  1  0
  3 29  1  0
  5 30  1  0
  8 31  1  0
  8 32  1  0
 10 33  1  0
 11 34  1  0
 12 35  1  0
 14 36  1  0
 18 37  1  0
 19 38  1  0
 22 39  1  0
M  END
>  <meeko>  (26) 
{"is_sidechain": false}

$$$$

     RDKit          3D

 54 58  0  0  0  0  0  0  0  0999 V2000
    9.6110    3.7610  -56.8950 C   0  0  0  0  0  0  0  0  0  0  0  0
    8.4030    2.9060  -57.1410 C   0  0  0  0  0  0  0  0  0  0  0  0
    8.1500    1.9810  -56.1870 N   0  0  0  0  0  0  0  0  0  0  0  0
    7.0970    1.1800  -56.3450 C   0  0  0  0  0  0  0  0  0  0  0  0
    6.7690    0.2060  -55.4170 N   0  0  0  0  0  0  0  0  0  0  0  0
    7.4900   -0.1240  -54.2980 C   0  0  0  0  0  0  0  0  0  0  0  0
    8.5430    0.3780  -53.9230 O   0  0  0  0  0  0  0  0  0  0  0  0
    6.8490   -1.2490  -53.5020 C   0  0  0  0  0  0  0  0  0  0  0  0
    7.7000   -1.6740  -52.2910 C   0  0  2  0  0  0  0  0  0  0  0  0
    8.7000   -2.8030  -52.6530 C   0  0  1  0  0  0  0  0  0  0  0  0
    9.6430   -3.0280  -51.4520 C   0  0  0  0  0  0  0  0  0  0  0  0
    8.8340   -3.4530  -50.2150 C   0  0  2  0  0  0  0  0  0  0  0  0
    8.0880   -4.7620  -50.5260 C   0  0  0  0  0  0  0  0  0  0  0  0
    7.1380   -4.5530  -51.7180 C   0  0  2  0  0  0  0  0  0  0  0  0
    7.9600   -4.1220  -52.9450 C   0  0  0  0  0  0  0  0  0  0  0  0
    6.1240   -3.4520  -51.3660 C   0  0  0  0  0  0  0  0  0  0  0  0
    6.8560   -2.1300  -51.0690 C   0  0  1  0  0  0  0  0  0  0  0  0
    7.8090   -2.3570  -49.8750 C   0  0  0  0  0  0  0  0  0  0  0  0
    6.2710    1.2290  -57.3970 N   0  0  0  0  0  0  0  0  0  0  0  0
    6.5220    2.1700  -58.3430 C   0  0  0  0  0  0  0  0  0  0  0  0
    5.5520    2.1510  -59.4440 C   0  0  0  0  0  0  0  0  0  0  0  0
    5.9780    1.9560  -60.7710 C   0  0  0  0  0  0  0  0  0  0  0  0
    5.0530    1.9290  -61.8170 C   0  0  0  0  0  0  0  0  0  0  0  0
    3.6990    2.0880  -61.5440 C   0  0  0  0  0  0  0  0  0  0  0  0
    2.8160    2.0600  -62.5500 F   0  0  0  0  0  0  0  0  0  0  0  0
    3.2480    2.2700  -60.2450 C   0  0  0  0  0  0  0  0  0  0  0  0
    4.1760    2.2950  -59.2080 C   0  0  0  0  0  0  0  0  0  0  0  0
    3.7240    2.4600  -57.9550 F   0  0  0  0  0  0  0  0  0  0  0  0
    7.6040    3.0400  -58.2660 C   0  0  0  0  0  0  0  0  0  0  0  0
    8.0050    4.2910  -59.6340 Br  0  0  0  0  0  0  0  0  0  0  0  0
    9.7674    3.8717  -55.8118 H   0  0  0  0  0  0  0  0  0  0  0  0
   10.4945    3.2860  -57.3464 H   0  0  0  0  0  0  0  0  0  0  0  0
    9.4568    4.7522  -57.3464 H   0  0  0  0  0  0  0  0  0  0  0  0
    5.9040   -0.2650  -55.6290 H   0  0  0  0  0  0  0  0  0  0  0  0
    5.8665   -0.9105  -53.1413 H   0  0  0  0  0  0  0  0  0  0  0  0
    6.7574   -2.1196  -54.1681 H   0  0  0  0  0  0  0  0  0  0  0  0
    8.2502   -0.7649  -52.0066 H   0  0  0  0  0  0  0  0  0  0  0  0
    9.2614   -2.5037  -53.5504 H   0  0  0  0  0  0  0  0  0  0  0  0
   10.3673   -3.8174  -51.7014 H   0  0  0  0  0  0  0  0  0  0  0  0
   10.1724   -2.0896  -51.2301 H   0  0  0  0  0  0  0  0  0  0  0  0
    9.5126   -3.6026  -49.3623 H   0  0  0  0  0  0  0  0  0  0  0  0
    8.8172   -5.5473  -50.7742 H   0  0  0  0  0  0  0  0  0  0  0  0
    7.5025   -5.0632  -49.6448 H   0  0  0  0  0  0  0  0  0  0  0  0
    6.6031   -5.4877  -51.9420 H   0  0  0  0  0  0  0  0  0  0  0  0
    8.6943   -4.9054  -53.1838 H   0  0  0  0  0  0  0  0  0  0  0  0
    7.2809   -3.9715  -53.7971 H   0  0  0  0  0  0  0  0  0  0  0  0
    5.4383   -3.3052  -52.2135 H   0  0  0  0  0  0  0  0  0  0  0  0
    5.5581   -3.7573  -50.4735 H   0  0  0  0  0  0  0  0  0  0  0  0
    6.1094   -1.3541  -50.8441 H   0  0  0  0  0  0  0  0  0  0  0  0
    8.3397   -1.4201  -49.6503 H   0  0  0  0  0  0  0  0  0  0  0  0
    7.2208   -2.6739  -49.0011 H   0  0  0  0  0  0  0  0  0  0  0  0
    7.0486    1.8237  -60.9862 H   0  0  0  0  0  0  0  0  0  0  0  0
    5.3942    1.7826  -62.8524 H   0  0  0  0  0  0  0  0  0  0  0  0
    2.1747    2.3925  -60.0378 H   0  0  0  0  0  0  0  0  0  0  0  0
  1  2  1  0
  2  3  2  0
  3  4  1  0
  4  5  1  0
  5  6  1  0
  6  7  2  0
  6  8  1  0
  8  9  1  0
  9 10  1  0
 10 11  1  0
 11 12  1  0
 12 13  1  0
 13 14  1  0
 14 15  1  0
 14 16  1  0
 16 17  1  0
 17 18  1  0
  4 19  2  0
 19 20  1  0
 20 21  1  0
 21 22  1  0
 22 23  2  0
 23 24  1  0
 24 25  1  0
 24 26  2  0
 26 27  1  0
 27 28  1  0
 20 29  2  0
 29 30  1  0
 29  2  1  0
 17  9  1  0
 27 21  2  0
 15 10  1  0
 18 12  1  0
  1 31  1  0
  1 32  1  0
  1 33  1  0
  5 34  1  0
  8 35  1  0
  8 36  1  0
  9 37  1  6
 10 38  1  1
 11 39  1  0
 11 40  1  0
 12 41  1  6
 13 42  1  0
 13 43  1  0
 14 44  1  1
 15 45  1  0
 15 46  1  0
 16 47  1  0
 16 48  1  0
 17 49  1  6
 18 50  1  0
 18 51  1  0
 22 52  1  0
 23 53  1  0
 26 54  1  0
M  END
>  <meeko>  (27) 
{"is_sidechain": false}

$$$$

     RDKit          3D

 57 61  0  0  0  0  0  0  0  0999 V2000
   12.9260    4.1160  -57.5850 C   0  0  0  0  0  0  0  0  0  0  0  0
   11.6550    3.5490  -58.1440 C   0  0  0  0  0  0  0  0  0  0  0  0
   11.3680    3.6660  -59.5070 C   0  0  0  0  0  0  0  0  0  0  0  0
   10.1740    3.1600  -60.0290 C   0  0  0  0  0  0  0  0  0  0  0  0
    9.8570    3.3090  -61.4880 C   0  0  0  0  0  0  0  0  0  0  0  0
    9.2470    2.5620  -59.1610 C   0  0  0  0  0  0  0  0  0  0  0  0
    9.4910    2.4380  -57.7790 C   0  0  0  0  0  0  0  0  0  0  0  0
    8.5060    1.8050  -56.8770 C   0  0  0  0  0  0  0  0  0  0  0  0
    7.2070    2.0280  -57.1080 N   0  0  0  0  0  0  0  0  0  0  0  0
    6.3540    1.4310  -56.2650 C   0  0  0  0  0  0  0  0  0  0  0  0
    5.0460    1.6370  -56.4760 F   0  0  0  0  0  0  0  0  0  0  0  0
    6.7230    0.6330  -55.2150 C   0  0  0  0  0  0  0  0  0  0  0  0
    8.0720    0.4650  -55.0570 C   0  0  0  0  0  0  0  0  0  0  0  0
    8.6540   -0.3130  -54.0520 N   0  0  0  0  0  0  0  0  0  0  0  0
    9.4310   -1.4400  -54.1960 C   0  0  0  0  0  0  0  0  0  0  0  0
    9.7310   -1.9730  -55.2590 O   0  0  0  0  0  0  0  0  0  0  0  0
    9.8970   -2.0110  -52.8700 C   0  0  0  0  0  0  0  0  0  0  0  0
    9.1140   -3.1730  -52.2310 C   0  0  2  0  0  0  0  0  0  0  0  0
    7.7400   -3.5420  -52.8460 C   0  0  1  0  0  0  0  0  0  0  0  0
    7.3630   -4.9510  -52.3240 C   0  0  0  0  0  0  0  0  0  0  0  0
    7.2510   -4.9400  -50.7860 C   0  0  2  0  0  0  0  0  0  0  0  0
    6.1540   -3.9490  -50.3670 C   0  0  0  0  0  0  0  0  0  0  0  0
    6.5050   -2.5410  -50.8760 C   0  0  2  0  0  0  0  0  0  0  0  0
    6.6170   -2.5790  -52.4070 C   0  0  0  0  0  0  0  0  0  0  0  0
    7.8510   -2.1030  -50.2790 C   0  0  0  0  0  0  0  0  0  0  0  0
    8.9660   -3.0810  -50.6890 C   0  0  1  0  0  0  0  0  0  0  0  0
    8.5880   -4.4860  -50.1670 C   0  0  0  0  0  0  0  0  0  0  0  0
    8.9740    1.0390  -55.8710 N   0  0  0  0  0  0  0  0  0  0  0  0
   10.7120    2.9480  -57.2960 C   0  0  0  0  0  0  0  0  0  0  0  0
   12.8837    4.0971  -56.4860 H   0  0  0  0  0  0  0  0  0  0  0  0
   13.7791    3.5131  -57.9295 H   0  0  0  0  0  0  0  0  0  0  0  0
   13.0473    5.1536  -57.9295 H   0  0  0  0  0  0  0  0  0  0  0  0
   12.0883    4.1608  -60.1750 H   0  0  0  0  0  0  0  0  0  0  0  0
    8.8669    3.7744  -61.6024 H   0  0  0  0  0  0  0  0  0  0  0  0
   10.6179    3.9438  -61.9656 H   0  0  0  0  0  0  0  0  0  0  0  0
    9.8538    2.3181  -61.9656 H   0  0  0  0  0  0  0  0  0  0  0  0
    8.3015    2.1786  -59.5722 H   0  0  0  0  0  0  0  0  0  0  0  0
    5.9879    0.1609  -54.5466 H   0  0  0  0  0  0  0  0  0  0  0  0
    8.4640    0.0440  -53.1250 H   0  0  0  0  0  0  0  0  0  0  0  0
   10.9289   -2.3625  -53.0173 H   0  0  0  0  0  0  0  0  0  0  0  0
    9.7512   -1.1802  -52.1639 H   0  0  0  0  0  0  0  0  0  0  0  0
    9.7927   -3.9984  -52.4918 H   0  0  0  0  0  0  0  0  0  0  0  0
    7.8310   -3.4910  -53.9410 H   0  0  0  0  0  0  0  0  0  0  0  0
    6.3970   -5.2515  -52.7560 H   0  0  0  0  0  0  0  0  0  0  0  0
    8.1466   -5.6638  -52.6205 H   0  0  0  0  0  0  0  0  0  0  0  0
    7.0055   -5.9531  -50.4348 H   0  0  0  0  0  0  0  0  0  0  0  0
    5.1924   -4.2644  -50.7981 H   0  0  0  0  0  0  0  0  0  0  0  0
    6.0791   -3.9313  -49.2697 H   0  0  0  0  0  0  0  0  0  0  0  0
    5.7221   -1.8294  -50.5747 H   0  0  0  0  0  0  0  0  0  0  0  0
    5.6613   -2.9210  -52.8310 H   0  0  0  0  0  0  0  0  0  0  0  0
    6.8546   -1.5683  -52.7703 H   0  0  0  0  0  0  0  0  0  0  0  0
    8.0994   -1.0963  -50.6461 H   0  0  0  0  0  0  0  0  0  0  0  0
    7.7686   -2.0969  -49.1821 H   0  0  0  0  0  0  0  0  0  0  0  0
    9.9150   -2.7197  -50.2660 H   0  0  0  0  0  0  0  0  0  0  0  0
    9.3775   -5.2008  -50.4422 H   0  0  0  0  0  0  0  0  0  0  0  0
    8.4829   -4.4469  -49.0727 H   0  0  0  0  0  0  0  0  0  0  0  0
   10.9332    2.8729  -56.2211 H   0  0  0  0  0  0  0  0  0  0  0  0
  1  2  1  0
  2  3  1  0
  3  4  2  0
  4  5  1  0
  4  6  1  0
  6  7  2  0
  7  8  1  0
  8  9  2  0
  9 10  1  0
 10 11  1  0
 10 12  2  0
 12 13  1  0
 13 14  1  0
 14 15  1  0
 15 16  2  0
 15 17  1  0
 17 18  1  0
 18 19  1  0
 19 20  1  0
 20 21  1  0
 21 22  1  0
 22 23  1  0
 23 24  1  0
 23 25  1  0
 25 26  1  0
 26 27  1  0
 13 28  2  0
  7 29  1  0
 29  2  2  0
 28  8  1  0
 26 18  1  0
 24 19  1  0
 27 21  1  0
  1 30  1  0
  1 31  1  0
  1 32  1  0
  3 33  1  0
  5 34  1  0
  5 35  1  0
  5 36  1  0
  6 37  1  0
 12 38  1  0
 14 39  1  0
 17 40  1  0
 17 41  1  0
 18 42  1  6
 19 43  1  1
 20 44  1  0
 20 45  1  0
 21 46  1  6
 22 47  1  0
 22 48  1  0
 23 49  1  1
 24 50  1  0
 24 51  1  0
 25 52  1  0
 25 53  1  0
 26 54  1  6
 27 55  1  0
 27 56  1  0
 29 57  1  0
M  END
>  <meeko>  (28) 
{"is_sidechain": false}

$$$$

     RDKit          3D

 49 53  0  0  0  0  0  0  0  0999 V2000
   11.1170   -1.9360  -54.9280 C   0  0  0  0  0  0  0  0  0  0  0  0
    9.7740   -1.5950  -54.5370 N   0  0  0  0  0  0  0  0  0  0  0  0
    9.1490   -0.3590  -54.7130 C   0  0  0  0  0  0  0  0  0  0  0  0
    9.5170    0.3990  -55.7800 N   0  0  0  0  0  0  0  0  0  0  0  0
    8.8290    1.6430  -56.0850 C   0  0  0  0  0  0  0  0  0  0  0  0
    9.8290    2.7700  -56.3640 C   0  0  0  0  0  0  0  0  0  0  0  0
    9.7910    3.4330  -57.7670 C   0  0  2  0  0  0  0  0  0  0  0  0
    9.4020    4.9330  -57.6820 C   0  0  0  0  0  0  0  0  0  0  0  0
    9.2880    5.5490  -59.0890 C   0  0  1  0  0  0  0  0  0  0  0  0
   10.6390    5.4180  -59.8110 C   0  0  0  0  0  0  0  0  0  0  0  0
   11.0270    3.9350  -59.9340 C   0  0  2  0  0  0  0  0  0  0  0  0
    9.9440    3.1920  -60.7310 C   0  0  0  0  0  0  0  0  0  0  0  0
    8.5900    3.3170  -60.0160 C   0  0  2  0  0  0  0  0  0  0  0  0
    8.2120    4.8010  -59.8890 C   0  0  0  0  0  0  0  0  0  0  0  0
    8.7050    2.7050  -58.6110 C   0  0  0  0  0  0  0  0  0  0  0  0
   11.1380    3.3250  -58.5240 C   0  0  0  0  0  0  0  0  0  0  0  0
    8.2600   -0.0420  -53.7870 N   0  0  0  0  0  0  0  0  0  0  0  0
    8.3660   -1.1260  -52.9890 N   0  0  0  0  0  0  0  0  0  0  0  0
    7.8130   -1.4100  -51.8170 N   0  0  0  0  0  0  0  0  0  0  0  0
    8.4570   -2.5740  -51.5180 C   0  0  0  0  0  0  0  0  0  0  0  0
    8.1970   -3.3580  -50.2500 C   0  0  0  0  0  0  0  0  0  0  0  0
    7.4080   -4.4470  -50.4640 F   0  0  0  0  0  0  0  0  0  0  0  0
    9.3440   -3.8240  -49.6810 F   0  0  0  0  0  0  0  0  0  0  0  0
    7.5790   -2.6070  -49.2960 F   0  0  0  0  0  0  0  0  0  0  0  0
    9.4030   -2.9880  -52.4790 N   0  0  0  0  0  0  0  0  0  0  0  0
    9.2780   -2.0510  -53.3720 C   0  0  0  0  0  0  0  0  0  0  0  0
   11.7320   -2.0922  -54.0295 H   0  0  0  0  0  0  0  0  0  0  0  0
   11.1015   -2.8587  -55.5266 H   0  0  0  0  0  0  0  0  0  0  0  0
   11.5436   -1.1177  -55.5266 H   0  0  0  0  0  0  0  0  0  0  0  0
    9.7670   -0.1370  -56.6030 H   0  0  0  0  0  0  0  0  0  0  0  0
    8.1962    1.4957  -56.9727 H   0  0  0  0  0  0  0  0  0  0  0  0
    8.2156    1.9260  -55.2168 H   0  0  0  0  0  0  0  0  0  0  0  0
    9.6491    3.5611  -55.6211 H   0  0  0  0  0  0  0  0  0  0  0  0
   10.8161    2.2876  -56.3095 H   0  0  0  0  0  0  0  0  0  0  0  0
    8.4339    5.0259  -57.1681 H   0  0  0  0  0  0  0  0  0  0  0  0
   10.1843    5.4691  -57.1247 H   0  0  0  0  0  0  0  0  0  0  0  0
    9.0129    6.6107  -59.0048 H   0  0  0  0  0  0  0  0  0  0  0  0
   10.5594    5.8584  -60.8158 H   0  0  0  0  0  0  0  0  0  0  0  0
   11.4108    5.9468  -59.2324 H   0  0  0  0  0  0  0  0  0  0  0  0
   11.9921    3.8427  -60.4536 H   0  0  0  0  0  0  0  0  0  0  0  0
    9.8669    3.6297  -61.7372 H   0  0  0  0  0  0  0  0  0  0  0  0
   10.2162    2.1290  -60.8077 H   0  0  0  0  0  0  0  0  0  0  0  0
    7.8177    2.7883  -60.5940 H   0  0  0  0  0  0  0  0  0  0  0  0
    8.1305    5.2436  -60.8927 H   0  0  0  0  0  0  0  0  0  0  0  0
    7.2482    4.8852  -59.3655 H   0  0  0  0  0  0  0  0  0  0  0  0
    7.7347    2.7937  -58.1005 H   0  0  0  0  0  0  0  0  0  0  0  0
    8.9941    1.6487  -58.7139 H   0  0  0  0  0  0  0  0  0  0  0  0
   11.4179    2.2648  -58.6114 H   0  0  0  0  0  0  0  0  0  0  0  0
   11.9030    3.8794  -57.9606 H   0  0  0  0  0  0  0  0  0  0  0  0
  1  2  1  0
  2  3  1  0
  3  4  1  0
  4  5  1  0
  5  6  1  0
  7  6  1  1
  7  8  1  0
  8  9  1  0
  9 10  1  0
 10 11  1  0
 11 12  1  0
 12 13  1  0
 13 14  1  0
 13 15  1  0
 11 16  1  0
  3 17  2  0
 17 18  1  0
 18 19  1  0
 19 20  2  0
 20 21  1  0
 21 22  1  0
 21 23  1  0
 21 24  1  0
 20 25  1  0
 25 26  2  0
 26  2  1  0
 15  7  1  0
 26 18  1  0
 16  7  1  0
 14  9  1  0
  1 27  1  0
  1 28  1  0
  1 29  1  0
  4 30  1  0
  5 31  1  0
  5 32  1  0
  6 33  1  0
  6 34  1  0
  8 35  1  0
  8 36  1  0
  9 37  1  1
 10 38  1  0
 10 39  1  0
 11 40  1  6
 12 41  1  0
 12 42  1  0
 13 43  1  6
 14 44  1  0
 14 45  1  0
 15 46  1  0
 15 47  1  0
 16 48  1  0
 16 49  1  0
M  END
>  <meeko>  (29) 
{"is_sidechain": false}

$$$$

     RDKit          3D

 49 53  0  0  0  0  0  0  0  0999 V2000
    5.9130   -0.0610  -54.3100 C   0  0  0  0  0  0  0  0  0  0  0  0
    7.2010   -0.7040  -54.2900 N   0  0  0  0  0  0  0  0  0  0  0  0
    8.3630   -0.1760  -54.8840 C   0  0  0  0  0  0  0  0  0  0  0  0
    8.3670    0.8110  -55.7090 N   0  0  0  0  0  0  0  0  0  0  0  0
    9.6670    1.2400  -56.2290 C   0  0  0  0  0  0  0  0  0  0  0  0
    9.7000    2.7700  -56.2060 C   0  0  0  0  0  0  0  0  0  0  0  0
    9.3030    3.4770  -57.5250 C   0  0  2  0  0  0  0  0  0  0  0  0
    7.7810    3.7550  -57.5980 C   0  0  0  0  0  0  0  0  0  0  0  0
    7.4080    4.4040  -58.9430 C   0  0  1  0  0  0  0  0  0  0  0  0
    8.1710    5.7300  -59.0950 C   0  0  0  0  0  0  0  0  0  0  0  0
    9.6870    5.4720  -59.0560 C   0  0  2  0  0  0  0  0  0  0  0  0
   10.0680    4.5240  -60.2030 C   0  0  0  0  0  0  0  0  0  0  0  0
    9.3120    3.1940  -60.0580 C   0  0  2  0  0  0  0  0  0  0  0  0
    7.7990    3.4600  -60.0910 C   0  0  0  0  0  0  0  0  0  0  0  0
    9.6810    2.5480  -58.7130 C   0  0  0  0  0  0  0  0  0  0  0  0
   10.0550    4.8200  -57.7090 C   0  0  0  0  0  0  0  0  0  0  0  0
    9.4730   -0.8660  -54.3470 N   0  0  0  0  0  0  0  0  0  0  0  0
    8.9040   -1.6110  -53.3700 N   0  0  0  0  0  0  0  0  0  0  0  0
    9.4560   -2.2110  -52.3310 N   0  0  0  0  0  0  0  0  0  0  0  0
    8.3330   -2.5940  -51.6550 C   0  0  0  0  0  0  0  0  0  0  0  0
    8.3670   -3.3960  -50.3700 C   0  0  0  0  0  0  0  0  0  0  0  0
    9.6380   -3.7050  -49.9910 F   0  0  0  0  0  0  0  0  0  0  0  0
    7.6990   -4.5760  -50.4710 F   0  0  0  0  0  0  0  0  0  0  0  0
    7.8010   -2.7210  -49.3320 F   0  0  0  0  0  0  0  0  0  0  0  0
    7.1270   -2.1370  -52.2300 N   0  0  0  0  0  0  0  0  0  0  0  0
    7.5650   -1.5130  -53.2840 C   0  0  0  0  0  0  0  0  0  0  0  0
    5.5721    0.1092  -53.2781 H   0  0  0  0  0  0  0  0  0  0  0  0
    5.9926    0.9031  -54.8336 H   0  0  0  0  0  0  0  0  0  0  0  0
    5.1903   -0.7040  -54.8336 H   0  0  0  0  0  0  0  0  0  0  0  0
   10.4733    0.8391  -55.5972 H   0  0  0  0  0  0  0  0  0  0  0  0
    9.8116    0.8685  -57.2542 H   0  0  0  0  0  0  0  0  0  0  0  0
    9.0088    3.1098  -55.4207 H   0  0  0  0  0  0  0  0  0  0  0  0
   10.7511    3.0415  -56.0286 H   0  0  0  0  0  0  0  0  0  0  0  0
    7.2355    2.8057  -57.4920 H   0  0  0  0  0  0  0  0  0  0  0  0
    7.5092    4.4454  -56.7859 H   0  0  0  0  0  0  0  0  0  0  0  0
    6.3248    4.5931  -58.9735 H   0  0  0  0  0  0  0  0  0  0  0  0
    7.9052    6.1952  -60.0557 H   0  0  0  0  0  0  0  0  0  0  0  0
    7.8975    6.4010  -58.2674 H   0  0  0  0  0  0  0  0  0  0  0  0
   10.2300    6.4221  -59.1671 H   0  0  0  0  0  0  0  0  0  0  0  0
    9.8043    4.9901  -61.1638 H   0  0  0  0  0  0  0  0  0  0  0  0
   11.1502    4.3302  -60.1672 H   0  0  0  0  0  0  0  0  0  0  0  0
    9.5868    2.5214  -60.8839 H   0  0  0  0  0  0  0  0  0  0  0  0
    7.5312    3.9239  -61.0518 H   0  0  0  0  0  0  0  0  0  0  0  0
    7.2615    2.5073  -59.9751 H   0  0  0  0  0  0  0  0  0  0  0  0
    9.1398    1.5958  -58.6111 H   0  0  0  0  0  0  0  0  0  0  0  0
   10.7677    2.3785  -58.6926 H   0  0  0  0  0  0  0  0  0  0  0  0
   11.1387    4.6333  -57.6827 H   0  0  0  0  0  0  0  0  0  0  0  0
    9.7645    5.5015  -56.8959 H   0  0  0  0  0  0  0  0  0  0  0  0
   10.1920   -0.2570  -53.9830 H   0  0  0  0  0  0  0  0  0  0  0  0
  1  2  1  0
  2  3  1  0
  3  4  2  0
  4  5  1  0
  5  6  1  0
  7  6  1  1
  7  8  1  0
  8  9  1  0
  9 10  1  0
 10 11  1  0
 11 12  1  0
 12 13  1  0
 13 14  1  0
 13 15  1  0
 11 16  1  0
  3 17  1  0
 17 18  1  0
 18 19  1  0
 19 20  2  0
 20 21  1  0
 21 22  1  0
 21 23  1  0
 21 24  1  0
 20 25  1  0
 25 26  2  0
 26  2  1  0
 15  7  1  0
 26 18  1  0
 16  7  1  0
 14  9  1  0
  1 27  1  0
  1 28  1  0
  1 29  1  0
  5 30  1  0
  5 31  1  0
  6 32  1  0
  6 33  1  0
  8 34  1  0
  8 35  1  0
  9 36  1  1
 10 37  1  0
 10 38  1  0
 11 39  1  6
 12 40  1  0
 12 41  1  0
 13 42  1  6
 14 43  1  0
 14 44  1  0
 15 45  1  0
 15 46  1  0
 16 47  1  0
 16 48  1  0
 17 49  1  0
M  END
>  <meeko>  (30) 
{"is_sidechain": false}

$$$$

     RDKit          3D

 49 53  0  0  0  0  0  0  0  0999 V2000
   10.8950   -1.6030  -55.1280 C   0  0  0  0  0  0  0  0  0  0  0  0
    9.6070   -1.2380  -54.6060 N   0  0  0  0  0  0  0  0  0  0  0  0
    8.8750   -0.0440  -54.8050 C   0  0  0  0  0  0  0  0  0  0  0  0
    9.0050    0.9810  -55.5590 N   0  0  0  0  0  0  0  0  0  0  0  0
   10.0590    1.1300  -56.5450 C   0  0  0  0  0  0  0  0  0  0  0  0
   10.5100    2.5890  -56.6590 C   0  0  0  0  0  0  0  0  0  0  0  0
   10.1870    3.3400  -57.9790 C   0  0  2  0  0  0  0  0  0  0  0  0
    9.8320    4.8120  -57.6200 C   0  0  0  0  0  0  0  0  0  0  0  0
    9.4830    5.6210  -58.8780 C   0  0  1  0  0  0  0  0  0  0  0  0
   10.6890    5.6160  -59.8300 C   0  0  0  0  0  0  0  0  0  0  0  0
   11.0350    4.1730  -60.2270 C   0  0  2  0  0  0  0  0  0  0  0  0
    9.8220    3.5330  -60.9220 C   0  0  0  0  0  0  0  0  0  0  0  0
    8.6140    3.5280  -59.9710 C   0  0  2  0  0  0  0  0  0  0  0  0
    8.2770    4.9740  -59.5760 C   0  0  0  0  0  0  0  0  0  0  0  0
    8.9650    2.7210  -58.7070 C   0  0  0  0  0  0  0  0  0  0  0  0
   11.3810    3.3610  -58.9640 C   0  0  0  0  0  0  0  0  0  0  0  0
    7.8110   -0.0480  -53.8750 N   0  0  0  0  0  0  0  0  0  0  0  0
    8.1130   -1.0840  -53.0750 N   0  0  0  0  0  0  0  0  0  0  0  0
    7.6370   -1.4320  -51.8950 N   0  0  0  0  0  0  0  0  0  0  0  0
    8.4390   -2.5030  -51.6260 C   0  0  0  0  0  0  0  0  0  0  0  0
    8.3120   -3.3440  -50.3730 C   0  0  0  0  0  0  0  0  0  0  0  0
    7.6600   -4.5170  -50.6020 F   0  0  0  0  0  0  0  0  0  0  0  0
    7.6240   -2.6990  -49.3910 F   0  0  0  0  0  0  0  0  0  0  0  0
    9.5200   -3.6750  -49.8400 F   0  0  0  0  0  0  0  0  0  0  0  0
    9.4280   -2.7480  -52.6050 N   0  0  0  0  0  0  0  0  0  0  0  0
    9.1670   -1.8130  -53.4720 C   0  0  0  0  0  0  0  0  0  0  0  0
   11.5862   -1.7989  -54.2950 H   0  0  0  0  0  0  0  0  0  0  0  0
   10.7976   -2.5089  -55.7443 H   0  0  0  0  0  0  0  0  0  0  0  0
   11.2873   -0.7807  -55.7443 H   0  0  0  0  0  0  0  0  0  0  0  0
   10.9184    0.5112  -56.2475 H   0  0  0  0  0  0  0  0  0  0  0  0
    9.6690    0.8091  -57.5222 H   0  0  0  0  0  0  0  0  0  0  0  0
   10.0337    3.1458  -55.8385 H   0  0  0  0  0  0  0  0  0  0  0  0
   11.6086    2.5454  -56.6240 H   0  0  0  0  0  0  0  0  0  0  0  0
    8.9682    4.8170  -56.9389 H   0  0  0  0  0  0  0  0  0  0  0  0
   10.7069    5.2744  -57.1397 H   0  0  0  0  0  0  0  0  0  0  0  0
    9.2357    6.6563  -58.6006 H   0  0  0  0  0  0  0  0  0  0  0  0
   10.4433    6.1939  -60.7331 H   0  0  0  0  0  0  0  0  0  0  0  0
   11.5532    6.0693  -59.3225 H   0  0  0  0  0  0  0  0  0  0  0  0
   11.8969    4.1772  -60.9104 H   0  0  0  0  0  0  0  0  0  0  0  0
    9.5728    4.1102  -61.8246 H   0  0  0  0  0  0  0  0  0  0  0  0
   10.0687    2.4972  -61.1982 H   0  0  0  0  0  0  0  0  0  0  0  0
    7.7483    3.0697  -60.4715 H   0  0  0  0  0  0  0  0  0  0  0  0
    8.0265    5.5497  -60.4792 H   0  0  0  0  0  0  0  0  0  0  0  0
    7.4194    4.9703  -58.8871 H   0  0  0  0  0  0  0  0  0  0  0  0
    8.1008    2.7231  -58.0264 H   0  0  0  0  0  0  0  0  0  0  0  0
    9.2161    1.6922  -59.0044 H   0  0  0  0  0  0  0  0  0  0  0  0
   11.6265    2.3290  -59.2549 H   0  0  0  0  0  0  0  0  0  0  0  0
   12.2404    3.8335  -58.4658 H   0  0  0  0  0  0  0  0  0  0  0  0
    7.6920    0.8360  -53.4030 H   0  0  0  0  0  0  0  0  0  0  0  0
  1  2  1  0
  2  3  1  0
  3  4  2  0
  4  5  1  0
  5  6  1  0
  7  6  1  1
  7  8  1  0
  8  9  1  0
  9 10  1  0
 10 11  1  0
 11 12  1  0
 12 13  1  0
 13 14  1  0
 13 15  1  0
 11 16  1  0
  3 17  1  0
 17 18  1  0
 18 19  1  0
 19 20  2  0
 20 21  1  0
 21 22  1  0
 21 23  1  0
 21 24  1  0
 20 25  1  0
 25 26  2  0
 26  2  1  0
 15  7  1  0
 26 18  1  0
 16  7  1  0
 14  9  1  0
  1 27  1  0
  1 28  1  0
  1 29  1  0
  5 30  1  0
  5 31  1  0
  6 32  1  0
  6 33  1  0
  8 34  1  0
  8 35  1  0
  9 36  1  1
 10 37  1  0
 10 38  1  0
 11 39  1  6
 12 40  1  0
 12 41  1  0
 13 42  1  6
 14 43  1  0
 14 44  1  0
 15 45  1  0
 15 46  1  0
 16 47  1  0
 16 48  1  0
 17 49  1  0
M  END
>  <meeko>  (31) 
{"is_sidechain": false}

$$$$

     RDKit          3D

 50 54  0  0  0  0  0  0  0  0999 V2000
    6.3320    0.1390  -53.4920 C   0  0  0  0  0  0  0  0  0  0  0  0
    7.6690   -0.5060  -53.6370 C   0  0  0  0  0  0  0  0  0  0  0  0
    8.6160   -0.2490  -54.5940 C   0  0  0  0  0  0  0  0  0  0  0  0
    8.5000    0.6220  -55.6540 N   0  0  0  0  0  0  0  0  0  0  0  0
    9.3080    1.8350  -55.7720 C   0  0  0  0  0  0  0  0  0  0  0  0
   10.1450    1.7540  -57.0530 C   0  0  0  0  0  0  0  0  0  0  0  0
    9.8850    2.8640  -58.1010 C   0  0  2  0  0  0  0  0  0  0  0  0
    8.7840    2.3670  -59.0780 C   0  0  0  0  0  0  0  0  0  0  0  0
    8.4760    3.4260  -60.1490 C   0  0  1  0  0  0  0  0  0  0  0  0
    7.9940    4.7120  -59.4610 C   0  0  0  0  0  0  0  0  0  0  0  0
    9.0820    5.2400  -58.5130 C   0  0  2  0  0  0  0  0  0  0  0  0
   10.3600    5.5300  -59.3190 C   0  0  0  0  0  0  0  0  0  0  0  0
   10.8520    4.2450  -60.0040 C   0  0  2  0  0  0  0  0  0  0  0  0
    9.7570    3.7220  -60.9460 C   0  0  0  0  0  0  0  0  0  0  0  0
   11.1550    3.1830  -58.9320 C   0  0  0  0  0  0  0  0  0  0  0  0
    9.3890    4.1760  -57.4440 C   0  0  0  0  0  0  0  0  0  0  0  0
    9.8150   -0.9720  -54.3520 N   0  0  0  0  0  0  0  0  0  0  0  0
   10.4410   -1.7580  -55.4050 C   0  0  0  0  0  0  0  0  0  0  0  0
    9.4860   -1.7100  -53.2280 N   0  0  0  0  0  0  0  0  0  0  0  0
   10.0690   -2.5720  -52.3670 C   0  0  0  0  0  0  0  0  0  0  0  0
    9.1800   -2.8990  -51.4420 N   0  0  0  0  0  0  0  0  0  0  0  0
    8.0050   -2.1840  -51.6970 N   0  0  0  0  0  0  0  0  0  0  0  0
    8.2370   -1.4680  -52.7670 C   0  0  0  0  0  0  0  0  0  0  0  0
    6.0941    0.2538  -52.4242 H   0  0  0  0  0  0  0  0  0  0  0  0
    6.3482    1.1284  -53.9724 H   0  0  0  0  0  0  0  0  0  0  0  0
    5.5677   -0.4895  -53.9724 H   0  0  0  0  0  0  0  0  0  0  0  0
    7.5160    0.8100  -55.8300 H   0  0  0  0  0  0  0  0  0  0  0  0
    8.6487    2.7144  -55.8172 H   0  0  0  0  0  0  0  0  0  0  0  0
    9.9716    1.9259  -54.8995 H   0  0  0  0  0  0  0  0  0  0  0  0
   11.2059    1.8027  -56.7663 H   0  0  0  0  0  0  0  0  0  0  0  0
    9.8550    0.8110  -57.5394 H   0  0  0  0  0  0  0  0  0  0  0  0
    9.1302    1.4469  -59.5715 H   0  0  0  0  0  0  0  0  0  0  0  0
    7.8666    2.1749  -58.5023 H   0  0  0  0  0  0  0  0  0  0  0  0
    7.6945    3.0559  -60.8289 H   0  0  0  0  0  0  0  0  0  0  0  0
    7.7749    5.4733  -60.2241 H   0  0  0  0  0  0  0  0  0  0  0  0
    7.0852    4.4927  -58.8813 H   0  0  0  0  0  0  0  0  0  0  0  0
    8.7311    6.1622  -58.0267 H   0  0  0  0  0  0  0  0  0  0  0  0
   10.1438    6.2906  -60.0837 H   0  0  0  0  0  0  0  0  0  0  0  0
   11.1412    5.8979  -58.6375 H   0  0  0  0  0  0  0  0  0  0  0  0
   11.7641    4.4571  -60.5811 H   0  0  0  0  0  0  0  0  0  0  0  0
    9.5422    4.4815  -61.7122 H   0  0  0  0  0  0  0  0  0  0  0  0
   10.1057    2.7960  -61.4265 H   0  0  0  0  0  0  0  0  0  0  0  0
   11.5050    2.2634  -59.4237 H   0  0  0  0  0  0  0  0  0  0  0  0
   11.9303    3.5739  -58.2566 H   0  0  0  0  0  0  0  0  0  0  0  0
   10.1683    4.5580  -56.7682 H   0  0  0  0  0  0  0  0  0  0  0  0
    8.4669    3.9631  -56.8832 H   0  0  0  0  0  0  0  0  0  0  0  0
   11.0661   -2.5429  -54.9543 H   0  0  0  0  0  0  0  0  0  0  0  0
    9.6624   -2.2221  -56.0283 H   0  0  0  0  0  0  0  0  0  0  0  0
   11.0675   -1.1030  -56.0283 H   0  0  0  0  0  0  0  0  0  0  0  0
   11.1043   -2.9392  -52.4244 H   0  0  0  0  0  0  0  0  0  0  0  0
  1  2  1  0
  2  3  2  0
  3  4  1  0
  4  5  1  0
  5  6  1  0
  7  6  1  1
  7  8  1  0
  8  9  1  0
  9 10  1  0
 10 11  1  0
 11 12  1  0
 12 13  1  0
 13 14  1  0
 13 15  1  0
 11 16  1  0
  3 17  1  0
 17 18  1  0
 17 19  1  0
 19 20  1  0
 20 21  2  0
 21 22  1  0
 22 23  2  0
 23  2  1  0
 15  7  1  0
 23 19  1  0
 16  7  1  0
 14  9  1  0
  1 24  1  0
  1 25  1  0
  1 26  1  0
  4 27  1  0
  5 28  1  0
  5 29  1  0
  6 30  1  0
  6 31  1  0
  8 32  1  0
  8 33  1  0
  9 34  1  6
 10 35  1  0
 10 36  1  0
 11 37  1  1
 12 38  1  0
 12 39  1  0
 13 40  1  6
 14 41  1  0
 14 42  1  0
 15 43  1  0
 15 44  1  0
 16 45  1  0
 16 46  1  0
 18 47  1  0
 18 48  1  0
 18 49  1  0
 20 50  1  0
M  END
>  <meeko>  (32) 
{"is_sidechain": false}

$$$$

     RDKit          3D

 50 54  0  0  0  0  0  0  0  0999 V2000
   10.7680   -1.4790  -54.9700 C   0  0  0  0  0  0  0  0  0  0  0  0
    9.5090   -1.3060  -54.2240 C   0  0  0  0  0  0  0  0  0  0  0  0
    8.5580   -0.1120  -54.1790 C   0  0  0  0  0  0  0  0  0  0  0  0
    8.4650    0.9010  -54.9600 N   0  0  0  0  0  0  0  0  0  0  0  0
    9.2800    1.1210  -56.1380 C   0  0  0  0  0  0  0  0  0  0  0  0
    9.6420    2.6030  -56.2770 C   0  0  0  0  0  0  0  0  0  0  0  0
    9.2170    3.3220  -57.5860 C   0  0  2  0  0  0  0  0  0  0  0  0
    9.9260    4.7060  -57.6260 C   0  0  0  0  0  0  0  0  0  0  0  0
    9.5660    5.4770  -58.9050 C   0  0  1  0  0  0  0  0  0  0  0  0
   10.0060    4.6570  -60.1270 C   0  0  0  0  0  0  0  0  0  0  0  0
    9.2940    3.2970  -60.1300 C   0  0  2  0  0  0  0  0  0  0  0  0
    7.7730    3.5220  -60.1750 C   0  0  0  0  0  0  0  0  0  0  0  0
    7.3250    4.3360  -58.9500 C   0  0  2  0  0  0  0  0  0  0  0  0
    8.0450    5.6930  -58.9520 C   0  0  0  0  0  0  0  0  0  0  0  0
    7.6890    3.5620  -57.6700 C   0  0  0  0  0  0  0  0  0  0  0  0
    9.6540    2.5270  -58.8450 C   0  0  0  0  0  0  0  0  0  0  0  0
    7.6860   -0.2560  -53.0740 N   0  0  0  0  0  0  0  0  0  0  0  0
    6.3360    0.2720  -53.1280 C   0  0  0  0  0  0  0  0  0  0  0  0
    7.8740   -1.5340  -52.6620 N   0  0  0  0  0  0  0  0  0  0  0  0
    7.8330   -2.1180  -51.4250 C   0  0  0  0  0  0  0  0  0  0  0  0
    8.7050   -3.0940  -51.2530 N   0  0  0  0  0  0  0  0  0  0  0  0
    9.4040   -3.1420  -52.4880 N   0  0  0  0  0  0  0  0  0  0  0  0
    9.0050   -2.0670  -53.2420 C   0  0  0  0  0  0  0  0  0  0  0  0
   11.6014   -1.5935  -54.2612 H   0  0  0  0  0  0  0  0  0  0  0  0
   10.6989   -2.3761  -55.6028 H   0  0  0  0  0  0  0  0  0  0  0  0
   10.9435   -0.5965  -55.6028 H   0  0  0  0  0  0  0  0  0  0  0  0
   10.2039    0.5300  -56.0534 H   0  0  0  0  0  0  0  0  0  0  0  0
    8.7090    0.8117  -57.0259 H   0  0  0  0  0  0  0  0  0  0  0  0
    9.1713    3.1378  -55.4389 H   0  0  0  0  0  0  0  0  0  0  0  0
   10.7417    2.6244  -56.2883 H   0  0  0  0  0  0  0  0  0  0  0  0
    9.6127    5.2952  -56.7515 H   0  0  0  0  0  0  0  0  0  0  0  0
   11.0135    4.5411  -57.6127 H   0  0  0  0  0  0  0  0  0  0  0  0
   10.0763    6.4514  -58.9120 H   0  0  0  0  0  0  0  0  0  0  0  0
    9.7487    5.2050  -61.0454 H   0  0  0  0  0  0  0  0  0  0  0  0
   11.0931    4.4956  -60.0814 H   0  0  0  0  0  0  0  0  0  0  0  0
    9.6114    2.7169  -61.0090 H   0  0  0  0  0  0  0  0  0  0  0  0
    7.5130    4.0711  -61.0920 H   0  0  0  0  0  0  0  0  0  0  0  0
    7.2635    2.5471  -60.1665 H   0  0  0  0  0  0  0  0  0  0  0  0
    6.2377    4.4984  -58.9865 H   0  0  0  0  0  0  0  0  0  0  0  0
    7.7828    6.2439  -59.8673 H   0  0  0  0  0  0  0  0  0  0  0  0
    7.7333    6.2702  -58.0690 H   0  0  0  0  0  0  0  0  0  0  0  0
    7.3669    4.1433  -56.7935 H   0  0  0  0  0  0  0  0  0  0  0  0
    7.1804    2.5869  -57.6918 H   0  0  0  0  0  0  0  0  0  0  0  0
    9.1421    1.5534  -58.8525 H   0  0  0  0  0  0  0  0  0  0  0  0
   10.7444    2.3858  -58.8122 H   0  0  0  0  0  0  0  0  0  0  0  0
    5.9588    0.4195  -52.1053 H   0  0  0  0  0  0  0  0  0  0  0  0
    6.3399    1.2349  -53.6598 H   0  0  0  0  0  0  0  0  0  0  0  0
    5.6856   -0.4380  -53.6598 H   0  0  0  0  0  0  0  0  0  0  0  0
    7.1317   -1.8005  -50.6393 H   0  0  0  0  0  0  0  0  0  0  0  0
   10.4010   -3.3410  -52.4580 H   0  0  0  0  0  0  0  0  0  0  0  0
  1  2  1  0
  2  3  1  0
  3  4  2  0
  4  5  1  0
  5  6  1  0
  7  6  1  1
  7  8  1  0
  8  9  1  0
  9 10  1  0
 10 11  1  0
 11 12  1  0
 12 13  1  0
 13 14  1  0
 13 15  1  0
 11 16  1  0
  3 17  1  0
 17 18  1  0
 17 19  1  0
 19 20  1  0
 20 21  2  0
 21 22  1  0
 22 23  1  0
 23  2  2  0
 15  7  1  0
 23 19  1  0
 16  7  1  0
 14  9  1  0
  1 24  1  0
  1 25  1  0
  1 26  1  0
  5 27  1  0
  5 28  1  0
  6 29  1  0
  6 30  1  0
  8 31  1  0
  8 32  1  0
  9 33  1  1
 10 34  1  0
 10 35  1  0
 11 36  1  6
 12 37  1  0
 12 38  1  0
 13 39  1  6
 14 40  1  0
 14 41  1  0
 15 42  1  0
 15 43  1  0
 16 44  1  0
 16 45  1  0
 18 46  1  0
 18 47  1  0
 18 48  1  0
 20 49  1  0
 22 50  1  0
M  END
>  <meeko>  (33) 
{"is_sidechain": false}

$$$$

     RDKit          3D

 50 54  0  0  0  0  0  0  0  0999 V2000
    6.4150    0.3180  -53.1350 C   0  0  0  0  0  0  0  0  0  0  0  0
    7.5910   -0.5380  -53.3620 C   0  0  0  0  0  0  0  0  0  0  0  0
    8.7130   -0.2430  -54.3500 C   0  0  0  0  0  0  0  0  0  0  0  0
    8.5360    0.7470  -55.1490 N   0  0  0  0  0  0  0  0  0  0  0  0
    9.5460    1.1980  -56.0900 C   0  0  0  0  0  0  0  0  0  0  0  0
    9.6260    2.7270  -56.1670 C   0  0  0  0  0  0  0  0  0  0  0  0
    9.3020    3.3980  -57.5300 C   0  0  2  0  0  0  0  0  0  0  0  0
    9.6760    2.5100  -58.7430 C   0  0  0  0  0  0  0  0  0  0  0  0
    9.2700    3.1870  -60.0650 C   0  0  1  0  0  0  0  0  0  0  0  0
    7.7530    3.4280  -60.0730 C   0  0  0  0  0  0  0  0  0  0  0  0
    7.3630    4.3370  -58.8980 C   0  0  2  0  0  0  0  0  0  0  0  0
    8.1000    5.6790  -59.0190 C   0  0  0  0  0  0  0  0  0  0  0  0
    9.6180    5.4460  -59.0070 C   0  0  2  0  0  0  0  0  0  0  0  0
    9.9990    4.5350  -60.1850 C   0  0  0  0  0  0  0  0  0  0  0  0
   10.0210    4.7630  -57.6870 C   0  0  0  0  0  0  0  0  0  0  0  0
    7.7680    3.6580  -57.5810 C   0  0  0  0  0  0  0  0  0  0  0  0
    9.7810   -1.1520  -54.1480 N   0  0  0  0  0  0  0  0  0  0  0  0
   10.5330   -1.7280  -55.2470 C   0  0  0  0  0  0  0  0  0  0  0  0
    9.2800   -2.0320  -53.2320 N   0  0  0  0  0  0  0  0  0  0  0  0
    9.8440   -2.7400  -52.2060 C   0  0  0  0  0  0  0  0  0  0  0  0
    9.0360   -2.9530  -51.1850 N   0  0  0  0  0  0  0  0  0  0  0  0
    7.8300   -2.3050  -51.5670 N   0  0  0  0  0  0  0  0  0  0  0  0
    8.0760   -1.6040  -52.7190 C   0  0  0  0  0  0  0  0  0  0  0  0
    6.2514    0.4371  -52.0538 H   0  0  0  0  0  0  0  0  0  0  0  0
    6.5860    1.3044  -53.5908 H   0  0  0  0  0  0  0  0  0  0  0  0
    5.5289   -0.1479  -53.5908 H   0  0  0  0  0  0  0  0  0  0  0  0
   10.5244    0.8078  -55.7731 H   0  0  0  0  0  0  0  0  0  0  0  0
    9.2689    0.8243  -57.0868 H   0  0  0  0  0  0  0  0  0  0  0  0
    8.9206    3.1309  -55.4258 H   0  0  0  0  0  0  0  0  0  0  0  0
   10.6858    2.9599  -55.9867 H   0  0  0  0  0  0  0  0  0  0  0  0
   10.7629    2.3407  -58.7440 H   0  0  0  0  0  0  0  0  0  0  0  0
    9.1385    1.5540  -58.6579 H   0  0  0  0  0  0  0  0  0  0  0  0
    9.5424    2.5387  -60.9109 H   0  0  0  0  0  0  0  0  0  0  0  0
    7.4651    3.9104  -61.0187 H   0  0  0  0  0  0  0  0  0  0  0  0
    7.2322    2.4642  -59.9742 H   0  0  0  0  0  0  0  0  0  0  0  0
    6.2770    4.5113  -58.9128 H   0  0  0  0  0  0  0  0  0  0  0  0
    7.8138    6.1684  -59.9617 H   0  0  0  0  0  0  0  0  0  0  0  0
    7.8258    6.3202  -58.1683 H   0  0  0  0  0  0  0  0  0  0  0  0
   10.1399    6.4101  -59.0975 H   0  0  0  0  0  0  0  0  0  0  0  0
    9.7122    5.0213  -61.1291 H   0  0  0  0  0  0  0  0  0  0  0  0
   11.0850    4.3606  -60.1697 H   0  0  0  0  0  0  0  0  0  0  0  0
   11.1088    4.5999  -57.6830 H   0  0  0  0  0  0  0  0  0  0  0  0
    9.7278    5.4137  -56.8500 H   0  0  0  0  0  0  0  0  0  0  0  0
    7.4863    4.3090  -56.7403 H   0  0  0  0  0  0  0  0  0  0  0  0
    7.2484    2.6908  -57.5137 H   0  0  0  0  0  0  0  0  0  0  0  0
   11.3467   -2.3512  -54.8476 H   0  0  0  0  0  0  0  0  0  0  0  0
    9.8651   -2.3477  -55.8633 H   0  0  0  0  0  0  0  0  0  0  0  0
   10.9574   -0.9217  -55.8633 H   0  0  0  0  0  0  0  0  0  0  0  0
   10.8828   -3.1009  -52.2303 H   0  0  0  0  0  0  0  0  0  0  0  0
    7.2960   -1.8280  -50.8450 H   0  0  0  0  0  0  0  0  0  0  0  0
  1  2  1  0
  2  3  1  0
  3  4  2  0
  4  5  1  0
  5  6  1  0
  7  6  1  1
  7  8  1  0
  8  9  1  0
  9 10  1  0
 10 11  1  0
 11 12  1  0
 12 13  1  0
 13 14  1  0
 13 15  1  0
 11 16  1  0
  3 17  1  0
 17 18  1  0
 17 19  1  0
 19 20  1  0
 20 21  2  0
 21 22  1  0
 22 23  1  0
 23  2  2  0
 15  7  1  0
 23 19  1  0
 16  7  1  0
 14  9  1  0
  1 24  1  0
  1 25  1  0
  1 26  1  0
  5 27  1  0
  5 28  1  0
  6 29  1  0
  6 30  1  0
  8 31  1  0
  8 32  1  0
  9 33  1  6
 10 34  1  0
 10 35  1  0
 11 36  1  1
 12 37  1  0
 12 38  1  0
 13 39  1  6
 14 40  1  0
 14 41  1  0
 15 42  1  0
 15 43  1  0
 16 44  1  0
 16 45  1  0
 18 46  1  0
 18 47  1  0
 18 48  1  0
 20 49  1  0
 22 50  1  0
M  END
>  <meeko>  (34) 
{"is_sidechain": false}

$$$$

     RDKit          3D

 49 53  0  0  0  0  0  0  0  0999 V2000
    4.8390    2.6540  -58.7630 C   0  0  0  0  0  0  0  0  0  0  0  0
    5.6660    1.5500  -59.4080 C   0  0  0  0  0  0  0  0  0  0  0  0
    5.5560    1.5660  -60.8520 N   0  0  0  0  0  0  0  0  0  0  0  0
    6.1420    2.4740  -61.7290 C   0  0  0  0  0  0  0  0  0  0  0  0
    7.3200    3.0840  -61.4380 N   0  0  0  0  0  0  0  0  0  0  0  0
    8.5300    2.2880  -61.2460 C   0  0  0  0  0  0  0  0  0  0  0  0
    9.7350    3.2300  -61.1540 C   0  0  0  0  0  0  0  0  0  0  0  0
   10.2590    3.5200  -59.7270 C   0  0  2  0  0  0  0  0  0  0  0  0
    9.5460    2.5560  -58.7370 C   0  0  0  0  0  0  0  0  0  0  0  0
   10.0240    2.7920  -57.2960 C   0  0  1  0  0  0  0  0  0  0  0  0
   11.5410    2.5520  -57.2230 C   0  0  0  0  0  0  0  0  0  0  0  0
   12.2710    3.5150  -58.1710 C   0  0  2  0  0  0  0  0  0  0  0  0
   11.9540    4.9630  -57.7630 C   0  0  0  0  0  0  0  0  0  0  0  0
   10.4400    5.2140  -57.8400 C   0  0  2  0  0  0  0  0  0  0  0  0
    9.7170    4.2430  -56.8940 C   0  0  0  0  0  0  0  0  0  0  0  0
    9.9600    4.9740  -59.2840 C   0  0  0  0  0  0  0  0  0  0  0  0
   11.7860    3.2790  -59.6130 C   0  0  0  0  0  0  0  0  0  0  0  0
    5.4590    2.7070  -62.8390 N   0  0  0  0  0  0  0  0  0  0  0  0
    4.3810    1.8990  -62.6200 N   0  0  0  0  0  0  0  0  0  0  0  0
    3.2100    1.5960  -63.2230 C   0  0  0  0  0  0  0  0  0  0  0  0
    2.5310    0.7760  -62.4320 N   0  0  0  0  0  0  0  0  0  0  0  0
    3.2890    0.5520  -61.2740 N   0  0  0  0  0  0  0  0  0  0  0  0
    4.3960    1.2220  -61.4430 C   0  0  0  0  0  0  0  0  0  0  0  0
    4.9032    2.5682  -57.6682 H   0  0  0  0  0  0  0  0  0  0  0  0
    5.2270    3.6341  -59.0774 H   0  0  0  0  0  0  0  0  0  0  0  0
    3.7894    2.5572  -59.0774 H   0  0  0  0  0  0  0  0  0  0  0  0
    6.7214    1.6879  -59.1302 H   0  0  0  0  0  0  0  0  0  0  0  0
    5.2840    0.5834  -59.0478 H   0  0  0  0  0  0  0  0  0  0  0  0
    7.4960    3.7960  -62.1440 H   0  0  0  0  0  0  0  0  0  0  0  0
    8.4451    1.7054  -60.3168 H   0  0  0  0  0  0  0  0  0  0  0  0
    8.6603    1.5981  -62.0928 H   0  0  0  0  0  0  0  0  0  0  0  0
   10.5577    2.7820  -61.7306 H   0  0  0  0  0  0  0  0  0  0  0  0
    9.3872    4.1973  -61.5456 H   0  0  0  0  0  0  0  0  0  0  0  0
    8.4605    2.7265  -58.7881 H   0  0  0  0  0  0  0  0  0  0  0  0
    9.7880    1.5212  -59.0208 H   0  0  0  0  0  0  0  0  0  0  0  0
    9.5070    2.1023  -56.6126 H   0  0  0  0  0  0  0  0  0  0  0  0
   11.8876    2.7221  -56.1930 H   0  0  0  0  0  0  0  0  0  0  0  0
   11.7577    1.5162  -57.5231 H   0  0  0  0  0  0  0  0  0  0  0  0
   13.3553    3.3392  -58.1122 H   0  0  0  0  0  0  0  0  0  0  0  0
   12.2993    5.1346  -56.7328 H   0  0  0  0  0  0  0  0  0  0  0  0
   12.4684    5.6513  -58.4497 H   0  0  0  0  0  0  0  0  0  0  0  0
   10.2187    6.2501  -57.5442 H   0  0  0  0  0  0  0  0  0  0  0  0
   10.0596    4.4157  -55.8631 H   0  0  0  0  0  0  0  0  0  0  0  0
    8.6325    4.4145  -56.9601 H   0  0  0  0  0  0  0  0  0  0  0  0
    8.8759    5.1521  -59.3382 H   0  0  0  0  0  0  0  0  0  0  0  0
   10.4946    5.6642  -59.9532 H   0  0  0  0  0  0  0  0  0  0  0  0
   12.3115    3.9706  -60.2879 H   0  0  0  0  0  0  0  0  0  0  0  0
   11.9999    2.2363  -59.8905 H   0  0  0  0  0  0  0  0  0  0  0  0
    2.8766    1.9666  -64.2036 H   0  0  0  0  0  0  0  0  0  0  0  0
  1  2  1  0
  2  3  1  0
  3  4  1  0
  4  5  1  0
  5  6  1  0
  6  7  1  0
  8  7  1  6
  8  9  1  0
  9 10  1  0
 10 11  1  0
 11 12  1  0
 12 13  1  0
 13 14  1  0
 14 15  1  0
 14 16  1  0
 12 17  1  0
  4 18  2  0
 18 19  1  0
 19 20  1  0
 20 21  2  0
 21 22  1  0
 22 23  2  0
 23  3  1  0
 16  8  1  0
 23 19  1  0
 17  8  1  0
 15 10  1  0
  1 24  1  0
  1 25  1  0
  1 26  1  0
  2 27  1  0
  2 28  1  0
  5 29  1  0
  6 30  1  0
  6 31  1  0
  7 32  1  0
  7 33  1  0
  9 34  1  0
  9 35  1  0
 10 36  1  1
 11 37  1  0
 11 38  1  0
 12 39  1  6
 13 40  1  0
 13 41  1  0
 14 42  1  1
 15 43  1  0
 15 44  1  0
 16 45  1  0
 16 46  1  0
 17 47  1  0
 17 48  1  0
 20 49  1  0
M  END
>  <meeko>  (35) 
{"is_sidechain": false}

$$$$

     RDKit          3D

 49 53  0  0  0  0  0  0  0  0999 V2000
   10.4710   -3.5710  -55.4010 C   0  0  0  0  0  0  0  0  0  0  0  0
   10.7360   -2.2260  -54.7420 C   0  0  0  0  0  0  0  0  0  0  0  0
    9.5230   -1.6600  -54.2030 N   0  0  0  0  0  0  0  0  0  0  0  0
    8.9340   -0.4500  -54.5930 C   0  0  0  0  0  0  0  0  0  0  0  0
    9.3560    0.2830  -55.5590 N   0  0  0  0  0  0  0  0  0  0  0  0
    8.6520    1.5300  -55.8600 C   0  0  0  0  0  0  0  0  0  0  0  0
    9.6690    2.5780  -56.3180 C   0  0  0  0  0  0  0  0  0  0  0  0
    9.3270    3.3260  -57.6280 C   0  0  2  0  0  0  0  0  0  0  0  0
   10.0790    4.6760  -57.7410 C   0  0  0  0  0  0  0  0  0  0  0  0
    9.6750    5.4210  -59.0260 C   0  0  1  0  0  0  0  0  0  0  0  0
   10.0170    4.5490  -60.2450 C   0  0  0  0  0  0  0  0  0  0  0  0
    9.2550    3.2150  -60.1680 C   0  0  2  0  0  0  0  0  0  0  0  0
    7.7440    3.4960  -60.1420 C   0  0  0  0  0  0  0  0  0  0  0  0
    7.3930    4.3640  -58.9250 C   0  0  2  0  0  0  0  0  0  0  0  0
    8.1630    5.6910  -59.0040 C   0  0  0  0  0  0  0  0  0  0  0  0
    7.8010    3.6220  -57.6410 C   0  0  0  0  0  0  0  0  0  0  0  0
    9.6600    2.4740  -58.8800 C   0  0  0  0  0  0  0  0  0  0  0  0
    7.8830   -0.1750  -53.6850 N   0  0  0  0  0  0  0  0  0  0  0  0
    8.0200   -1.1800  -52.7540 N   0  0  0  0  0  0  0  0  0  0  0  0
    7.4620   -1.5630  -51.5870 C   0  0  0  0  0  0  0  0  0  0  0  0
    8.0940   -2.6480  -51.1660 N   0  0  0  0  0  0  0  0  0  0  0  0
    9.0810   -2.9740  -52.1060 N   0  0  0  0  0  0  0  0  0  0  0  0
    8.9870   -2.0750  -53.0450 C   0  0  0  0  0  0  0  0  0  0  0  0
   10.3203   -4.3361  -54.6252 H   0  0  0  0  0  0  0  0  0  0  0  0
    9.5693   -3.5012  -56.0272 H   0  0  0  0  0  0  0  0  0  0  0  0
   11.3318   -3.8484  -56.0272 H   0  0  0  0  0  0  0  0  0  0  0  0
   11.4612   -2.3630  -53.9263 H   0  0  0  0  0  0  0  0  0  0  0  0
   11.1328   -1.5379  -55.5029 H   0  0  0  0  0  0  0  0  0  0  0  0
    7.9172    1.3550  -56.6596 H   0  0  0  0  0  0  0  0  0  0  0  0
    8.1287    1.8878  -54.9610 H   0  0  0  0  0  0  0  0  0  0  0  0
    9.7646    3.3267  -55.5178 H   0  0  0  0  0  0  0  0  0  0  0  0
   10.5950    2.0221  -56.5264 H   0  0  0  0  0  0  0  0  0  0  0  0
    9.8323    5.3003  -56.8695 H   0  0  0  0  0  0  0  0  0  0  0  0
   11.1601    4.4756  -57.7748 H   0  0  0  0  0  0  0  0  0  0  0  0
   10.2192    6.3750  -59.0872 H   0  0  0  0  0  0  0  0  0  0  0  0
    9.7300    5.0799  -61.1647 H   0  0  0  0  0  0  0  0  0  0  0  0
   11.0983    4.3472  -60.2527 H   0  0  0  0  0  0  0  0  0  0  0  0
    9.4998    2.5951  -61.0431 H   0  0  0  0  0  0  0  0  0  0  0  0
    7.4558    4.0251  -61.0623 H   0  0  0  0  0  0  0  0  0  0  0  0
    7.2001    2.5423  -60.0747 H   0  0  0  0  0  0  0  0  0  0  0  0
    6.3114    4.5639  -58.9150 H   0  0  0  0  0  0  0  0  0  0  0  0
    7.8750    6.2251  -59.9215 H   0  0  0  0  0  0  0  0  0  0  0  0
    7.9185    6.3031  -58.1234 H   0  0  0  0  0  0  0  0  0  0  0  0
    7.5482    4.2447  -56.7702 H   0  0  0  0  0  0  0  0  0  0  0  0
    7.2588    2.6657  -57.6022 H   0  0  0  0  0  0  0  0  0  0  0  0
    9.1125    1.5216  -58.8243 H   0  0  0  0  0  0  0  0  0  0  0  0
   10.7444    2.2909  -58.9042 H   0  0  0  0  0  0  0  0  0  0  0  0
    7.9670    0.7510  -53.2880 H   0  0  0  0  0  0  0  0  0  0  0  0
    6.6277   -1.0616  -51.0746 H   0  0  0  0  0  0  0  0  0  0  0  0
  1  2  1  0
  2  3  1  0
  3  4  1  0
  4  5  2  0
  5  6  1  0
  6  7  1  0
  8  7  1  1
  8  9  1  0
  9 10  1  0
 10 11  1  0
 11 12  1  0
 12 13  1  0
 13 14  1  0
 14 15  1  0
 14 16  1  0
 12 17  1  0
  4 18  1  0
 18 19  1  0
 19 20  1  0
 20 21  2  0
 21 22  1  0
 22 23  2  0
 23  3  1  0
 16  8  1  0
 23 19  1  0
 17  8  1  0
 15 10  1  0
  1 24  1  0
  1 25  1  0
  1 26  1  0
  2 27  1  0
  2 28  1  0
  6 29  1  0
  6 30  1  0
  7 31  1  0
  7 32  1  0
  9 33  1  0
  9 34  1  0
 10 35  1  6
 11 36  1  0
 11 37  1  0
 12 38  1  6
 13 39  1  0
 13 40  1  0
 14 41  1  1
 15 42  1  0
 15 43  1  0
 16 44  1  0
 16 45  1  0
 17 46  1  0
 17 47  1  0
 18 48  1  0
 20 49  1  0
M  END
>  <meeko>  (36) 
{"is_sidechain": false}

$$$$

     RDKit          3D

 49 53  0  0  0  0  0  0  0  0999 V2000
    6.3090    3.3390  -58.6950 C   0  0  0  0  0  0  0  0  0  0  0  0
    6.3630    1.9560  -59.3270 C   0  0  0  0  0  0  0  0  0  0  0  0
    5.9380    1.9990  -60.7060 N   0  0  0  0  0  0  0  0  0  0  0  0
    6.6490    2.3920  -61.8550 C   0  0  0  0  0  0  0  0  0  0  0  0
    7.8910    2.4740  -62.1620 N   0  0  0  0  0  0  0  0  0  0  0  0
    8.9230    2.1210  -61.2010 C   0  0  0  0  0  0  0  0  0  0  0  0
    9.7350    3.3860  -60.8970 C   0  0  0  0  0  0  0  0  0  0  0  0
   10.2850    3.5060  -59.4550 C   0  0  2  0  0  0  0  0  0  0  0  0
    9.8000    2.2760  -58.6390 C   0  0  0  0  0  0  0  0  0  0  0  0
   10.3140    2.3330  -57.1920 C   0  0  1  0  0  0  0  0  0  0  0  0
   11.8510    2.3520  -57.2050 C   0  0  0  0  0  0  0  0  0  0  0  0
   12.3540    3.5790  -57.9790 C   0  0  2  0  0  0  0  0  0  0  0  0
   11.8260    4.8560  -57.3050 C   0  0  0  0  0  0  0  0  0  0  0  0
   10.2880    4.8480  -57.2950 C   0  0  2  0  0  0  0  0  0  0  0  0
    9.7930    3.6150  -56.5240 C   0  0  0  0  0  0  0  0  0  0  0  0
    9.7740    4.7850  -58.7460 C   0  0  0  0  0  0  0  0  0  0  0  0
   11.8350    3.5200  -59.4270 C   0  0  0  0  0  0  0  0  0  0  0  0
    5.6990    2.6610  -62.8660 N   0  0  0  0  0  0  0  0  0  0  0  0
    4.5170    2.2780  -62.3000 N   0  0  0  0  0  0  0  0  0  0  0  0
    3.2040    2.2630  -62.6070 C   0  0  0  0  0  0  0  0  0  0  0  0
    2.5340    1.8720  -61.5330 N   0  0  0  0  0  0  0  0  0  0  0  0
    3.4530    1.6690  -60.4940 N   0  0  0  0  0  0  0  0  0  0  0  0
    4.6260    1.9260  -61.0030 C   0  0  0  0  0  0  0  0  0  0  0  0
    6.3128    3.2418  -57.5993 H   0  0  0  0  0  0  0  0  0  0  0  0
    7.1850    3.9226  -59.0144 H   0  0  0  0  0  0  0  0  0  0  0  0
    5.3901    3.8525  -59.0144 H   0  0  0  0  0  0  0  0  0  0  0  0
    7.3956    1.5797  -59.2806 H   0  0  0  0  0  0  0  0  0  0  0  0
    5.6845    1.2911  -58.7724 H   0  0  0  0  0  0  0  0  0  0  0  0
    8.4604    1.7427  -60.2775 H   0  0  0  0  0  0  0  0  0  0  0  0
    9.5754    1.3354  -61.6099 H   0  0  0  0  0  0  0  0  0  0  0  0
   10.5910    3.4111  -61.5874 H   0  0  0  0  0  0  0  0  0  0  0  0
    9.0350    4.2257  -61.0195 H   0  0  0  0  0  0  0  0  0  0  0  0
    8.7001    2.2628  -58.6291 H   0  0  0  0  0  0  0  0  0  0  0  0
   10.1939    1.3652  -59.1135 H   0  0  0  0  0  0  0  0  0  0  0  0
    9.9599    1.4545  -56.6327 H   0  0  0  0  0  0  0  0  0  0  0  0
   12.2236    2.3956  -56.1710 H   0  0  0  0  0  0  0  0  0  0  0  0
   12.2195    1.4392  -57.6959 H   0  0  0  0  0  0  0  0  0  0  0  0
   13.4540    3.5865  -57.9810 H   0  0  0  0  0  0  0  0  0  0  0  0
   12.1968    4.9018  -56.2704 H   0  0  0  0  0  0  0  0  0  0  0  0
   12.1789    5.7333  -57.8670 H   0  0  0  0  0  0  0  0  0  0  0  0
    9.9133    5.7609  -56.8089 H   0  0  0  0  0  0  0  0  0  0  0  0
   10.1606    3.6613  -55.4883 H   0  0  0  0  0  0  0  0  0  0  0  0
    8.6931    3.6035  -56.5294 H   0  0  0  0  0  0  0  0  0  0  0  0
    8.6740    4.7786  -58.7391 H   0  0  0  0  0  0  0  0  0  0  0  0
   10.1481    5.6640  -59.2913 H   0  0  0  0  0  0  0  0  0  0  0  0
   12.1979    4.4011  -59.9765 H   0  0  0  0  0  0  0  0  0  0  0  0
   12.2049    2.5970  -59.8973 H   0  0  0  0  0  0  0  0  0  0  0  0
    5.9480    2.2050  -63.7340 H   0  0  0  0  0  0  0  0  0  0  0  0
    2.7654    2.5292  -63.5801 H   0  0  0  0  0  0  0  0  0  0  0  0
  1  2  1  0
  2  3  1  0
  3  4  1  0
  4  5  2  0
  5  6  1  0
  6  7  1  0
  8  7  1  6
  8  9  1  0
  9 10  1  0
 10 11  1  0
 11 12  1  0
 12 13  1  0
 13 14  1  0
 14 15  1  0
 14 16  1  0
 12 17  1  0
  4 18  1  0
 18 19  1  0
 19 20  1  0
 20 21  2  0
 21 22  1  0
 22 23  2  0
 23  3  1  0
 16  8  1  0
 23 19  1  0
 17  8  1  0
 15 10  1  0
  1 24  1  0
  1 25  1  0
  1 26  1  0
  2 27  1  0
  2 28  1  0
  6 29  1  0
  6 30  1  0
  7 31  1  0
  7 32  1  0
  9 33  1  0
  9 34  1  0
 10 35  1  1
 11 36  1  0
 11 37  1  0
 12 38  1  6
 13 39  1  0
 13 40  1  0
 14 41  1  1
 15 42  1  0
 15 43  1  0
 16 44  1  0
 16 45  1  0
 17 46  1  0
 17 47  1  0
 18 48  1  0
 20 49  1  0
M  END
>  <meeko>  (37) 
{"is_sidechain": false}

$$$$

     RDKit          3D

 48 50  0  0  0  0  0  0  0  0999 V2000
    6.6100    1.3140  -56.8040 C   0  0  0  0  0  0  0  0  0  0  0  0
    5.3460    2.1550  -56.8800 C   0  0  0  0  0  0  0  0  0  0  0  0
    5.2600    2.9190  -58.2020 C   0  0  0  0  0  0  0  0  0  0  0  0
    4.1930    2.3170  -59.1200 C   0  0  0  0  0  0  0  0  0  0  0  0
    4.8000    1.5840  -60.3130 C   0  0  0  0  0  0  0  0  0  0  0  0
    6.2150    1.8570  -60.4630 N   0  0  0  0  0  0  0  0  0  0  0  0
    6.6950    2.5070  -61.5840 C   0  0  0  0  0  0  0  0  0  0  0  0
    5.9640    2.9720  -62.4480 O   0  0  0  0  0  0  0  0  0  0  0  0
    8.2170    2.5700  -61.6050 C   0  0  0  0  0  0  0  0  0  0  0  0
    8.9220    3.2370  -60.4040 C   0  0  2  0  0  0  0  0  0  0  0  0
    8.1090    4.4290  -59.8360 C   0  0  0  0  0  0  0  0  0  0  0  0
    8.8700    5.1050  -58.6820 C   0  0  1  0  0  0  0  0  0  0  0  0
    9.1240    4.0760  -57.5680 C   0  0  0  0  0  0  0  0  0  0  0  0
    9.9680    2.9090  -58.1100 C   0  0  2  0  0  0  0  0  0  0  0  0
   11.3070    3.4510  -58.6330 C   0  0  0  0  0  0  0  0  0  0  0  0
   11.0570    4.4740  -59.7510 C   0  0  2  0  0  0  0  0  0  0  0  0
   10.2150    5.6350  -59.2010 C   0  0  0  0  0  0  0  0  0  0  0  0
   10.2910    3.7930  -60.8960 C   0  0  0  0  0  0  0  0  0  0  0  0
    9.2100    2.2270  -59.2620 C   0  0  0  0  0  0  0  0  0  0  0  0
    6.8717    1.1399  -55.7499 H   0  0  0  0  0  0  0  0  0  0  0  0
    6.4390    0.3490  -57.3036 H   0  0  0  0  0  0  0  0  0  0  0  0
    7.4340    1.8445  -57.3036 H   0  0  0  0  0  0  0  0  0  0  0  0
    4.4711    1.4942  -56.7915 H   0  0  0  0  0  0  0  0  0  0  0  0
    5.3685    2.8869  -56.0591 H   0  0  0  0  0  0  0  0  0  0  0  0
    5.0041    3.9684  -57.9941 H   0  0  0  0  0  0  0  0  0  0  0  0
    6.2342    2.8507  -58.7082 H   0  0  0  0  0  0  0  0  0  0  0  0
    3.5873    1.6059  -58.5391 H   0  0  0  0  0  0  0  0  0  0  0  0
    3.5802    3.1432  -59.5097 H   0  0  0  0  0  0  0  0  0  0  0  0
    4.6614    0.5020  -60.1715 H   0  0  0  0  0  0  0  0  0  0  0  0
    4.2903    1.9384  -61.2211 H   0  0  0  0  0  0  0  0  0  0  0  0
    6.8650    1.2850  -59.9390 H   0  0  0  0  0  0  0  0  0  0  0  0
    8.5882    1.5367  -61.6720 H   0  0  0  0  0  0  0  0  0  0  0  0
    8.4579    3.2146  -62.4632 H   0  0  0  0  0  0  0  0  0  0  0  0
    7.9391    5.1643  -60.6363 H   0  0  0  0  0  0  0  0  0  0  0  0
    7.1487    4.0523  -59.4540 H   0  0  0  0  0  0  0  0  0  0  0  0
    8.2730    5.9393  -58.2849 H   0  0  0  0  0  0  0  0  0  0  0  0
    9.6623    4.5609  -56.7403 H   0  0  0  0  0  0  0  0  0  0  0  0
    8.1594    3.6873  -57.2096 H   0  0  0  0  0  0  0  0  0  0  0  0
   10.1529    2.1809  -57.3065 H   0  0  0  0  0  0  0  0  0  0  0  0
   11.8504    3.9368  -57.8092 H   0  0  0  0  0  0  0  0  0  0  0  0
   11.9036    2.6175  -59.0321 H   0  0  0  0  0  0  0  0  0  0  0  0
   12.0186    4.8584  -60.1219 H   0  0  0  0  0  0  0  0  0  0  0  0
   10.7580    6.1211  -58.3770 H   0  0  0  0  0  0  0  0  0  0  0  0
   10.0316    6.3624  -60.0055 H   0  0  0  0  0  0  0  0  0  0  0  0
   10.1138    4.5271  -61.6958 H   0  0  0  0  0  0  0  0  0  0  0  0
   10.8952    2.9526  -61.2684 H   0  0  0  0  0  0  0  0  0  0  0  0
    9.8199    1.4008  -59.6562 H   0  0  0  0  0  0  0  0  0  0  0  0
    8.2524    1.8456  -58.8779 H   0  0  0  0  0  0  0  0  0  0  0  0
  1  2  1  0
  2  3  1  0
  3  4  1  0
  4  5  1  0
  5  6  1  0
  6  7  1  0
  7  8  2  0
  7  9  1  0
 10  9  1  6
 10 11  1  0
 11 12  1  0
 12 13  1  0
 13 14  1  0
 14 15  1  0
 15 16  1  0
 16 17  1  0
 16 18  1  0
 14 19  1  0
 18 10  1  0
 19 10  1  0
 17 12  1  0
  1 20  1  0
  1 21  1  0
  1 22  1  0
  2 23  1  0
  2 24  1  0
  3 25  1  0
  3 26  1  0
  4 27  1  0
  4 28  1  0
  5 29  1  0
  5 30  1  0
  6 31  1  0
  9 32  1  0
  9 33  1  0
 11 34  1  0
 11 35  1  0
 12 36  1  1
 13 37  1  0
 13 38  1  0
 14 39  1  1
 15 40  1  0
 15 41  1  0
 16 42  1  6
 17 43  1  0
 17 44  1  0
 18 45  1  0
 18 46  1  0
 19 47  1  0
 19 48  1  0
M  END
>  <meeko>  (38) 
{"is_sidechain": false}

$$$$

     RDKit          3D

 55 59  0  0  0  0  0  0  0  0999 V2000
   10.5340   -1.8580  -55.0400 C   0  0  0  0  0  0  0  0  0  0  0  0
    9.5300   -1.0760  -54.3210 N   0  0  0  0  0  0  0  0  0  0  0  0
    8.9130    0.0360  -54.9710 C   0  0  0  0  0  0  0  0  0  0  0  0
    9.6470    1.0680  -55.5280 N   0  0  0  0  0  0  0  0  0  0  0  0
   10.4020    0.9050  -56.7710 C   0  0  0  0  0  0  0  0  0  0  0  0
   11.1300    2.2150  -57.0890 C   0  0  0  0  0  0  0  0  0  0  0  0
   10.4930    3.0910  -58.1970 C   0  0  2  0  0  0  0  0  0  0  0  0
    9.8500    4.3380  -57.5270 C   0  0  0  0  0  0  0  0  0  0  0  0
    9.1980    5.2530  -58.5750 C   0  0  1  0  0  0  0  0  0  0  0  0
   10.2690    5.7170  -59.5750 C   0  0  0  0  0  0  0  0  0  0  0  0
   10.8960    4.5010  -60.2730 C   0  0  2  0  0  0  0  0  0  0  0  0
    9.7980    3.7200  -61.0140 C   0  0  0  0  0  0  0  0  0  0  0  0
    8.7260    3.2470  -60.0180 C   0  0  2  0  0  0  0  0  0  0  0  0
    8.1090    4.4680  -59.3210 C   0  0  0  0  0  0  0  0  0  0  0  0
    9.3810    2.3330  -58.9660 C   0  0  0  0  0  0  0  0  0  0  0  0
   11.5470    3.5840  -59.2210 C   0  0  0  0  0  0  0  0  0  0  0  0
    7.5400   -0.0820  -54.9770 C   0  0  0  0  0  0  0  0  0  0  0  0
    6.5960    0.8540  -55.5610 C   0  0  0  0  0  0  0  0  0  0  0  0
    6.5980    1.2420  -56.8480 C   0  0  0  0  0  0  0  0  0  0  0  0
    5.6140    2.1990  -57.4350 C   0  0  0  0  0  0  0  0  0  0  0  0
    5.5050    1.9610  -58.8280 O   0  0  0  0  0  0  0  0  0  0  0  0
    7.2470   -1.2950  -54.3000 C   0  0  0  0  0  0  0  0  0  0  0  0
    6.2700   -2.0660  -53.8890 N   0  0  0  0  0  0  0  0  0  0  0  0
    6.8660   -3.1300  -53.2060 N   0  0  0  0  0  0  0  0  0  0  0  0
    8.1760   -2.9510  -53.2320 C   0  0  0  0  0  0  0  0  0  0  0  0
    8.4380   -1.8330  -53.9440 N   0  0  0  0  0  0  0  0  0  0  0  0
   11.1883   -2.3676  -54.3174 H   0  0  0  0  0  0  0  0  0  0  0  0
   10.0327   -2.6060  -55.6718 H   0  0  0  0  0  0  0  0  0  0  0  0
   11.1365   -1.1889  -55.6718 H   0  0  0  0  0  0  0  0  0  0  0  0
   10.1860    1.5770  -54.8340 H   0  0  0  0  0  0  0  0  0  0  0  0
   11.1363    0.0945  -56.6527 H   0  0  0  0  0  0  0  0  0  0  0  0
    9.7150    0.6533  -57.5924 H   0  0  0  0  0  0  0  0  0  0  0  0
   11.1670    2.8127  -56.1663 H   0  0  0  0  0  0  0  0  0  0  0  0
   12.1180    1.9211  -57.4729 H   0  0  0  0  0  0  0  0  0  0  0  0
    9.0826    4.0064  -56.8121 H   0  0  0  0  0  0  0  0  0  0  0  0
   10.6395    4.9041  -57.0109 H   0  0  0  0  0  0  0  0  0  0  0  0
    8.7500    6.1279  -58.0812 H   0  0  0  0  0  0  0  0  0  0  0  0
    9.8054    6.3708  -60.3284 H   0  0  0  0  0  0  0  0  0  0  0  0
   11.0531    6.2683  -59.0353 H   0  0  0  0  0  0  0  0  0  0  0  0
   11.6592    4.8410  -60.9884 H   0  0  0  0  0  0  0  0  0  0  0  0
    9.3326    4.3721  -61.7677 H   0  0  0  0  0  0  0  0  0  0  0  0
   10.2467    2.8438  -61.5049 H   0  0  0  0  0  0  0  0  0  0  0  0
    7.9405    2.6918  -60.5516 H   0  0  0  0  0  0  0  0  0  0  0  0
    7.6414    5.1195  -60.0739 H   0  0  0  0  0  0  0  0  0  0  0  0
    7.3513    4.1275  -58.5999 H   0  0  0  0  0  0  0  0  0  0  0  0
    8.6142    1.9962  -58.2528 H   0  0  0  0  0  0  0  0  0  0  0  0
    9.8311    1.4701  -59.4787 H   0  0  0  0  0  0  0  0  0  0  0  0
   11.9937    2.7150  -59.7263 H   0  0  0  0  0  0  0  0  0  0  0  0
   12.3210    4.1535  -58.6857 H   0  0  0  0  0  0  0  0  0  0  0  0
    5.8229    1.2763  -54.9023 H   0  0  0  0  0  0  0  0  0  0  0  0
    7.3731    0.8285  -57.5100 H   0  0  0  0  0  0  0  0  0  0  0  0
    4.6326    2.0552  -56.9595 H   0  0  0  0  0  0  0  0  0  0  0  0
    5.9543    3.2307  -57.2623 H   0  0  0  0  0  0  0  0  0  0  0  0
    4.5810    2.1240  -59.0820 H   0  0  0  0  0  0  0  0  0  0  0  0
    8.9244   -3.6012  -52.7554 H   0  0  0  0  0  0  0  0  0  0  0  0
  1  2  1  0
  2  3  1  0
  3  4  1  0
  4  5  1  0
  5  6  1  0
  7  6  1  1
  7  8  1  0
  8  9  1  0
  9 10  1  0
 10 11  1  0
 11 12  1  0
 12 13  1  0
 13 14  1  0
 13 15  1  0
 11 16  1  0
  3 17  2  0
 17 18  1  0
 18 19  2  0
 19 20  1  0
 20 21  1  0
 17 22  1  0
 22 23  2  0
 23 24  1  0
 24 25  2  0
 25 26  1  0
 26  2  1  0
 15  7  1  0
 26 22  1  0
 16  7  1  0
 14  9  1  0
  1 27  1  0
  1 28  1  0
  1 29  1  0
  4 30  1  0
  5 31  1  0
  5 32  1  0
  6 33  1  0
  6 34  1  0
  8 35  1  0
  8 36  1  0
  9 37  1  1
 10 38  1  0
 10 39  1  0
 11 40  1  6
 12 41  1  0
 12 42  1  0
 13 43  1  6
 14 44  1  0
 14 45  1  0
 15 46  1  0
 15 47  1  0
 16 48  1  0
 16 49  1  0
 18 50  1  0
 19 51  1  0
 20 52  1  0
 20 53  1  0
 21 54  1  0
 25 55  1  0
M  END
>  <meeko>  (39) 
{"is_sidechain": false}

$$$$

     RDKit          3D

 55 59  0  0  0  0  0  0  0  0999 V2000
    6.3160    0.3930  -53.1090 C   0  0  0  0  0  0  0  0  0  0  0  0
    7.6570   -0.1580  -53.1060 N   0  0  0  0  0  0  0  0  0  0  0  0
    8.4920   -0.0200  -54.2410 C   0  0  0  0  0  0  0  0  0  0  0  0
    8.4100    1.0110  -55.0080 N   0  0  0  0  0  0  0  0  0  0  0  0
    9.2740    1.1550  -56.1700 C   0  0  0  0  0  0  0  0  0  0  0  0
    9.6570    2.6340  -56.2950 C   0  0  0  0  0  0  0  0  0  0  0  0
    9.2650    3.3230  -57.6260 C   0  0  2  0  0  0  0  0  0  0  0  0
   10.0160    4.6800  -57.7170 C   0  0  0  0  0  0  0  0  0  0  0  0
    9.6700    5.4170  -59.0200 C   0  0  1  0  0  0  0  0  0  0  0  0
   10.0740    4.5400  -60.2150 C   0  0  0  0  0  0  0  0  0  0  0  0
    9.3190    3.2030  -60.1650 C   0  0  2  0  0  0  0  0  0  0  0  0
    7.8060    3.4740  -60.2080 C   0  0  0  0  0  0  0  0  0  0  0  0
    7.3940    4.3450  -59.0100 C   0  0  2  0  0  0  0  0  0  0  0  0
    8.1570    5.6770  -59.0650 C   0  0  0  0  0  0  0  0  0  0  0  0
    7.7440    3.6080  -57.7040 C   0  0  0  0  0  0  0  0  0  0  0  0
    9.6650    2.4690  -58.8570 C   0  0  0  0  0  0  0  0  0  0  0  0
    9.4050   -1.2560  -54.3460 C   0  0  0  0  0  0  0  0  0  0  0  0
   10.5640   -1.4560  -55.1650 C   0  0  0  0  0  0  0  0  0  0  0  0
   10.7900   -2.5600  -55.8930 C   0  0  0  0  0  0  0  0  0  0  0  0
   12.0080   -2.7570  -56.7380 C   0  0  0  0  0  0  0  0  0  0  0  0
   11.6610   -3.5220  -57.8790 O   0  0  0  0  0  0  0  0  0  0  0  0
    8.9220   -2.0100  -53.3480 C   0  0  0  0  0  0  0  0  0  0  0  0
    9.2970   -3.1200  -52.6330 N   0  0  0  0  0  0  0  0  0  0  0  0
    8.6540   -3.0670  -51.3690 N   0  0  0  0  0  0  0  0  0  0  0  0
    7.8190   -2.0520  -51.4850 C   0  0  0  0  0  0  0  0  0  0  0  0
    7.8370   -1.4440  -52.7110 N   0  0  0  0  0  0  0  0  0  0  0  0
    5.9749    0.5332  -52.0727 H   0  0  0  0  0  0  0  0  0  0  0  0
    6.3192    1.3627  -53.6283 H   0  0  0  0  0  0  0  0  0  0  0  0
    5.6365   -0.2988  -53.6283 H   0  0  0  0  0  0  0  0  0  0  0  0
   10.1797    0.5445  -56.0397 H   0  0  0  0  0  0  0  0  0  0  0  0
    8.7529    0.8171  -57.0779 H   0  0  0  0  0  0  0  0  0  0  0  0
    9.1666    3.1798  -55.4755 H   0  0  0  0  0  0  0  0  0  0  0  0
   10.7560    2.6617  -56.2572 H   0  0  0  0  0  0  0  0  0  0  0  0
    9.7277    5.3083  -56.8614 H   0  0  0  0  0  0  0  0  0  0  0  0
   11.0980    4.4822  -57.7040 H   0  0  0  0  0  0  0  0  0  0  0  0
   10.2099    6.3743  -59.0645 H   0  0  0  0  0  0  0  0  0  0  0  0
    9.8269    5.0630  -61.1506 H   0  0  0  0  0  0  0  0  0  0  0  0
   11.1558    4.3455  -60.1706 H   0  0  0  0  0  0  0  0  0  0  0  0
    9.6107    2.5823  -61.0250 H   0  0  0  0  0  0  0  0  0  0  0  0
    7.5561    3.9979  -61.1424 H   0  0  0  0  0  0  0  0  0  0  0  0
    7.2661    2.5168  -60.1613 H   0  0  0  0  0  0  0  0  0  0  0  0
    6.3119    4.5391  -59.0461 H   0  0  0  0  0  0  0  0  0  0  0  0
    7.9052    6.2030  -59.9977 H   0  0  0  0  0  0  0  0  0  0  0  0
    7.8704    6.2937  -58.2004 H   0  0  0  0  0  0  0  0  0  0  0  0
    7.4492    4.2319  -56.8473 H   0  0  0  0  0  0  0  0  0  0  0  0
    7.2034    2.6502  -57.6829 H   0  0  0  0  0  0  0  0  0  0  0  0
    9.1218    1.5130  -58.8250 H   0  0  0  0  0  0  0  0  0  0  0  0
   10.7504    2.2928  -58.8272 H   0  0  0  0  0  0  0  0  0  0  0  0
   11.3157   -0.6536  -55.1988 H   0  0  0  0  0  0  0  0  0  0  0  0
   10.0391   -3.3634  -55.8670 H   0  0  0  0  0  0  0  0  0  0  0  0
   12.3987   -1.7788  -57.0551 H   0  0  0  0  0  0  0  0  0  0  0  0
   12.7801   -3.2844  -56.1586 H   0  0  0  0  0  0  0  0  0  0  0  0
   11.6060   -2.9170  -58.6380 H   0  0  0  0  0  0  0  0  0  0  0  0
   10.2790   -3.3830  -52.6670 H   0  0  0  0  0  0  0  0  0  0  0  0
    7.1636   -1.7223  -50.6654 H   0  0  0  0  0  0  0  0  0  0  0  0
  1  2  1  0
  2  3  1  0
  3  4  2  0
  4  5  1  0
  5  6  1  0
  7  6  1  1
  7  8  1  0
  8  9  1  0
  9 10  1  0
 10 11  1  0
 11 12  1  0
 12 13  1  0
 13 14  1  0
 13 15  1  0
 11 16  1  0
  3 17  1  0
 17 18  1  0
 18 19  2  0
 19 20  1  0
 20 21  1  0
 17 22  2  0
 22 23  1  0
 23 24  1  0
 24 25  2  0
 25 26  1  0
 26  2  1  0
 15  7  1  0
 26 22  1  0
 16  7  1  0
 14  9  1  0
  1 27  1  0
  1 28  1  0
  1 29  1  0
  5 30  1  0
  5 31  1  0
  6 32  1  0
  6 33  1  0
  8 34  1  0
  8 35  1  0
  9 36  1  6
 10 37  1  0
 10 38  1  0
 11 39  1  6
 12 40  1  0
 12 41  1  0
 13 42  1  1
 14 43  1  0
 14 44  1  0
 15 45  1  0
 15 46  1  0
 16 47  1  0
 16 48  1  0
 18 49  1  0
 19 50  1  0
 20 51  1  0
 20 52  1  0
 21 53  1  0
 23 54  1  0
 25 55  1  0
M  END
>  <meeko>  (40) 
{"is_sidechain": false}

$$$$

     RDKit          3D

 55 59  0  0  0  0  0  0  0  0999 V2000
    7.2190    0.4860  -52.8850 C   0  0  0  0  0  0  0  0  0  0  0  0
    7.5390   -0.7110  -53.6510 N   0  0  0  0  0  0  0  0  0  0  0  0
    8.7240   -0.7740  -54.4320 C   0  0  0  0  0  0  0  0  0  0  0  0
    9.2300    0.0290  -55.3000 N   0  0  0  0  0  0  0  0  0  0  0  0
    8.5370    1.2280  -55.7480 C   0  0  0  0  0  0  0  0  0  0  0  0
    9.5710    2.2710  -56.1810 C   0  0  0  0  0  0  0  0  0  0  0  0
    9.2400    3.0600  -57.4720 C   0  0  2  0  0  0  0  0  0  0  0  0
    9.6690    2.2910  -58.7470 C   0  0  0  0  0  0  0  0  0  0  0  0
    9.3830    3.1260  -60.0100 C   0  0  1  0  0  0  0  0  0  0  0  0
    7.8760    3.4280  -60.0830 C   0  0  0  0  0  0  0  0  0  0  0  0
    7.4370    4.2180  -58.8400 C   0  0  2  0  0  0  0  0  0  0  0  0
    8.2240    5.5360  -58.7720 C   0  0  0  0  0  0  0  0  0  0  0  0
    9.7310    5.2420  -58.6940 C   0  0  2  0  0  0  0  0  0  0  0  0
   10.1620    4.4480  -59.9360 C   0  0  0  0  0  0  0  0  0  0  0  0
   10.0170    4.4060  -57.4370 C   0  0  0  0  0  0  0  0  0  0  0  0
    7.7290    3.3830  -57.5790 C   0  0  0  0  0  0  0  0  0  0  0  0
    9.4710   -2.0920  -54.1580 C   0  0  0  0  0  0  0  0  0  0  0  0
   10.5830   -2.5990  -54.9130 C   0  0  0  0  0  0  0  0  0  0  0  0
   10.5600   -3.7200  -55.6550 C   0  0  0  0  0  0  0  0  0  0  0  0
   11.7020   -4.2920  -56.4400 C   0  0  0  0  0  0  0  0  0  0  0  0
   12.4310   -5.2520  -55.6950 O   0  0  0  0  0  0  0  0  0  0  0  0
    8.6400   -2.6740  -53.2850 C   0  0  0  0  0  0  0  0  0  0  0  0
    8.3960   -3.9320  -52.7860 N   0  0  0  0  0  0  0  0  0  0  0  0
    7.0420   -3.9760  -52.3530 N   0  0  0  0  0  0  0  0  0  0  0  0
    6.6360   -2.7250  -52.4620 C   0  0  0  0  0  0  0  0  0  0  0  0
    7.5960   -1.8600  -52.9100 N   0  0  0  0  0  0  0  0  0  0  0  0
    7.2793    0.2604  -51.8101 H   0  0  0  0  0  0  0  0  0  0  0  0
    7.9357    1.2827  -53.1332 H   0  0  0  0  0  0  0  0  0  0  0  0
    6.2004    0.8188  -53.1332 H   0  0  0  0  0  0  0  0  0  0  0  0
    7.8847    0.9806  -56.5985 H   0  0  0  0  0  0  0  0  0  0  0  0
    7.9247    1.6309  -54.9278 H   0  0  0  0  0  0  0  0  0  0  0  0
    9.6803    2.9968  -55.3617 H   0  0  0  0  0  0  0  0  0  0  0  0
   10.4869    1.7049  -56.4061 H   0  0  0  0  0  0  0  0  0  0  0  0
   10.7463    2.0755  -58.6931 H   0  0  0  0  0  0  0  0  0  0  0  0
    9.0944    1.3548  -58.8049 H   0  0  0  0  0  0  0  0  0  0  0  0
    9.6952    2.5653  -60.9034 H   0  0  0  0  0  0  0  0  0  0  0  0
    7.6669    4.0222  -60.9848 H   0  0  0  0  0  0  0  0  0  0  0  0
    7.3195    2.4800  -60.1233 H   0  0  0  0  0  0  0  0  0  0  0  0
    6.3601    4.4344  -58.8990 H   0  0  0  0  0  0  0  0  0  0  0  0
    8.0149    6.1326  -59.6722 H   0  0  0  0  0  0  0  0  0  0  0  0
    7.9172    6.0952  -57.8758 H   0  0  0  0  0  0  0  0  0  0  0  0
   10.2897    6.1885  -58.6490 H   0  0  0  0  0  0  0  0  0  0  0  0
    9.9567    5.0429  -60.8382 H   0  0  0  0  0  0  0  0  0  0  0  0
   11.2382    4.2301  -59.8701 H   0  0  0  0  0  0  0  0  0  0  0  0
   11.0956    4.1970  -57.3822 H   0  0  0  0  0  0  0  0  0  0  0  0
    9.6887    4.9764  -56.5556 H   0  0  0  0  0  0  0  0  0  0  0  0
    7.4177    3.9511  -56.6900 H   0  0  0  0  0  0  0  0  0  0  0  0
    7.1698    2.4380  -57.6442 H   0  0  0  0  0  0  0  0  0  0  0  0
   11.5226   -2.0280  -54.8818 H   0  0  0  0  0  0  0  0  0  0  0  0
    9.6092   -4.2721  -55.6895 H   0  0  0  0  0  0  0  0  0  0  0  0
   11.3045   -4.7729  -57.3459 H   0  0  0  0  0  0  0  0  0  0  0  0
   12.3858   -3.4685  -56.6936 H   0  0  0  0  0  0  0  0  0  0  0  0
   13.0720   -4.7620  -55.1520 H   0  0  0  0  0  0  0  0  0  0  0  0
    8.7360   -4.7080  -53.3490 H   0  0  0  0  0  0  0  0  0  0  0  0
    5.6131   -2.4054  -52.2138 H   0  0  0  0  0  0  0  0  0  0  0  0
  1  2  1  0
  2  3  1  0
  3  4  2  0
  4  5  1  0
  5  6  1  0
  7  6  1  1
  7  8  1  0
  8  9  1  0
  9 10  1  0
 10 11  1  0
 11 12  1  0
 12 13  1  0
 13 14  1  0
 13 15  1  0
 11 16  1  0
  3 17  1  0
 17 18  1  0
 18 19  2  0
 19 20  1  0
 20 21  1  0
 17 22  2  0
 22 23  1  0
 23 24  1  0
 24 25  2  0
 25 26  1  0
 26  2  1  0
 15  7  1  0
 26 22  1  0
 16  7  1  0
 14  9  1  0
  1 27  1  0
  1 28  1  0
  1 29  1  0
  5 30  1  0
  5 31  1  0
  6 32  1  0
  6 33  1  0
  8 34  1  0
  8 35  1  0
  9 36  1  6
 10 37  1  0
 10 38  1  0
 11 39  1  6
 12 40  1  0
 12 41  1  0
 13 42  1  1
 14 43  1  0
 14 44  1  0
 15 45  1  0
 15 46  1  0
 16 47  1  0
 16 48  1  0
 18 49  1  0
 19 50  1  0
 20 51  1  0
 20 52  1  0
 21 53  1  0
 23 54  1  0
 25 55  1  0
M  END
>  <meeko>  (41) 
{"is_sidechain": false}

$$$$

     RDKit          3D

 51 53  0  0  0  0  0  0  0  0999 V2000
    7.7810   -2.6050  -50.0950 C   0  0  0  0  0  0  0  0  0  0  0  0
    8.7040   -2.9070  -51.2580 C   0  0  0  0  0  0  0  0  0  0  0  0
    7.9320   -3.5100  -52.4110 C   0  0  0  0  0  0  0  0  0  0  0  0
    7.0990   -4.3990  -52.2340 O   0  0  0  0  0  0  0  0  0  0  0  0
    8.2240   -2.9830  -53.8130 C   0  0  1  0  0  0  0  0  0  0  0  0
    6.9570   -2.9590  -54.6590 C   0  0  0  0  0  0  0  0  0  0  0  0
    6.2810   -1.6440  -54.2750 C   0  0  0  0  0  0  0  0  0  0  0  0
    7.4300   -0.6520  -53.9840 C   0  0  2  0  0  0  0  0  0  0  0  0
    7.0730    0.1880  -52.7450 C   0  0  0  0  0  0  0  0  0  0  0  0
    7.6220    0.3160  -55.1680 N   0  0  0  0  0  0  0  0  0  0  0  0
    8.9240    1.1440  -55.2140 C   0  0  0  0  0  0  0  0  0  0  0  0
    8.9080    2.1410  -56.4040 C   0  0  0  0  0  0  0  0  0  0  0  0
    7.9460    1.6680  -57.4190 N   0  0  0  0  0  0  0  0  0  0  0  0
    8.1290    2.1940  -58.7160 C   0  0  0  0  0  0  0  0  0  0  0  0
    9.1840    3.1130  -58.8620 C   0  0  0  0  0  0  0  0  0  0  0  0
    9.4640    3.7060  -60.0950 C   0  0  0  0  0  0  0  0  0  0  0  0
   10.7610    4.8270  -60.2230 Cl  0  0  0  0  0  0  0  0  0  0  0  0
    8.7020    3.3950  -61.2140 C   0  0  0  0  0  0  0  0  0  0  0  0
    7.6550    2.4830  -61.1000 C   0  0  0  0  0  0  0  0  0  0  0  0
    7.3670    1.8830  -59.8660 C   0  0  0  0  0  0  0  0  0  0  0  0
    6.0660    0.7430  -59.8470 Cl  0  0  0  0  0  0  0  0  0  0  0  0
    6.5330    1.7000  -56.9720 C   0  0  0  0  0  0  0  0  0  0  0  0
    6.4250    1.2290  -55.4970 C   0  0  0  0  0  0  0  0  0  0  0  0
    8.6950   -1.5200  -53.7930 C   0  0  0  0  0  0  0  0  0  0  0  0
    8.3142   -2.7795  -49.1488 H   0  0  0  0  0  0  0  0  0  0  0  0
    7.4586   -1.5545  -50.1459 H   0  0  0  0  0  0  0  0  0  0  0  0
    6.9000   -3.2618  -50.1459 H   0  0  0  0  0  0  0  0  0  0  0  0
    9.1814   -1.9739  -51.5918 H   0  0  0  0  0  0  0  0  0  0  0  0
    9.4657   -3.6282  -50.9269 H   0  0  0  0  0  0  0  0  0  0  0  0
    8.9960   -3.6534  -54.2187 H   0  0  0  0  0  0  0  0  0  0  0  0
    7.2024   -2.9740  -55.7312 H   0  0  0  0  0  0  0  0  0  0  0  0
    6.3133   -3.8333  -54.4822 H   0  0  0  0  0  0  0  0  0  0  0  0
    5.6580   -1.2767  -55.1039 H   0  0  0  0  0  0  0  0  0  0  0  0
    5.6203   -1.7665  -53.4041 H   0  0  0  0  0  0  0  0  0  0  0  0
    7.3145   -0.3803  -51.8347 H   0  0  0  0  0  0  0  0  0  0  0  0
    7.6512    1.1237  -52.7573 H   0  0  0  0  0  0  0  0  0  0  0  0
    5.9980    0.4211  -52.7573 H   0  0  0  0  0  0  0  0  0  0  0  0
    7.7090   -0.2640  -56.0180 H   0  0  0  0  0  0  0  0  0  0  0  0
    9.0256    1.7070  -54.2745 H   0  0  0  0  0  0  0  0  0  0  0  0
    9.7722    0.4560  -55.3448 H   0  0  0  0  0  0  0  0  0  0  0  0
    8.6061    3.1364  -56.0463 H   0  0  0  0  0  0  0  0  0  0  0  0
    9.9127    2.2042  -56.8474 H   0  0  0  0  0  0  0  0  0  0  0  0
    9.8005    3.3696  -57.9879 H   0  0  0  0  0  0  0  0  0  0  0  0
    8.9237    3.8655  -62.1833 H   0  0  0  0  0  0  0  0  0  0  0  0
    7.0503    2.2320  -61.9840 H   0  0  0  0  0  0  0  0  0  0  0  0
    6.1494    2.7277  -57.0540 H   0  0  0  0  0  0  0  0  0  0  0  0
    5.9407    1.0255  -57.6078 H   0  0  0  0  0  0  0  0  0  0  0  0
    6.4349    2.1035  -54.8298 H   0  0  0  0  0  0  0  0  0  0  0  0
    5.4863    0.6737  -55.3540 H   0  0  0  0  0  0  0  0  0  0  0  0
    9.4080   -1.3386  -54.6108 H   0  0  0  0  0  0  0  0  0  0  0  0
    9.2060   -1.2783  -52.8494 H   0  0  0  0  0  0  0  0  0  0  0  0
  1  2  1  0
  2  3  1  0
  3  4  2  0
  3  5  1  0
  5  6  1  0
  6  7  1  0
  7  8  1  0
  8  9  1  1
  8 10  1  0
 10 11  1  0
 11 12  1  0
 12 13  1  0
 13 14  1  0
 14 15  1  0
 15 16  2  0
 16 17  1  0
 16 18  1  0
 18 19  2  0
 19 20  1  0
 20 21  1  0
 13 22  1  0
 22 23  1  0
  8 24  1  0
 24  5  1  0
 23 10  1  0
 20 14  2  0
  1 25  1  0
  1 26  1  0
  1 27  1  0
  2 28  1  0
  2 29  1  0
  5 30  1  6
  6 31  1  0
  6 32  1  0
  7 33  1  0
  7 34  1  0
  9 35  1  0
  9 36  1  0
  9 37  1  0
 10 38  1  0
 11 39  1  0
 11 40  1  0
 12 41  1  0
 12 42  1  0
 15 43  1  0
 18 44  1  0
 19 45  1  0
 22 46  1  0
 22 47  1  0
 23 48  1  0
 23 49  1  0
 24 50  1  0
 24 51  1  0
M  CHG  1  10   1
M  END
>  <meeko>  (42) 
{"is_sidechain": false}

$$$$

     RDKit          3D

 39 41  0  0  0  0  0  0  0  0999 V2000
    5.8390    2.7580  -58.3230 C   0  0  0  0  0  0  0  0  0  0  0  0
    5.8830    2.3520  -59.7030 N   0  0  0  0  0  0  0  0  0  0  0  0
    6.8790    2.5230  -60.6490 C   0  0  0  0  0  0  0  0  0  0  0  0
    8.1580    2.7510  -60.2600 N   0  0  0  0  0  0  0  0  0  0  0  0
    9.1340    3.4110  -61.1180 C   0  0  0  0  0  0  0  0  0  0  0  0
   10.0230    4.3620  -60.3200 C   0  0  0  0  0  0  0  0  0  0  0  0
   11.2260    3.7030  -59.6410 C   0  0  0  0  0  0  0  0  0  0  0  0
   11.3480    4.0050  -58.1700 N   0  0  0  0  0  0  0  0  0  0  0  0
   10.1130    4.7260  -57.6250 C   0  0  0  0  0  0  0  0  0  0  0  0
    9.1810    3.7670  -56.8670 C   0  0  0  0  0  0  0  0  0  0  0  0
    9.2210    2.4560  -57.4340 O   0  0  0  0  0  0  0  0  0  0  0  0
   10.4990    1.8280  -57.2550 C   0  0  0  0  0  0  0  0  0  0  0  0
   11.6770    2.8140  -57.2920 C   0  0  0  0  0  0  0  0  0  0  0  0
    6.4860    2.3640  -61.9090 N   0  0  0  0  0  0  0  0  0  0  0  0
    5.1330    2.1840  -61.7030 N   0  0  0  0  0  0  0  0  0  0  0  0
    4.0150    2.0180  -62.4390 C   0  0  0  0  0  0  0  0  0  0  0  0
    2.9870    1.9100  -61.6100 N   0  0  0  0  0  0  0  0  0  0  0  0
    3.4610    2.0260  -60.2970 N   0  0  0  0  0  0  0  0  0  0  0  0
    4.7490    2.1770  -60.4020 C   0  0  0  0  0  0  0  0  0  0  0  0
    5.9349    1.8728  -57.6771 H   0  0  0  0  0  0  0  0  0  0  0  0
    6.6671    3.4525  -58.1185 H   0  0  0  0  0  0  0  0  0  0  0  0
    4.8813    3.2590  -58.1185 H   0  0  0  0  0  0  0  0  0  0  0  0
    8.2650    3.0160  -59.2840 H   0  0  0  0  0  0  0  0  0  0  0  0
    9.7650    2.6472  -61.5959 H   0  0  0  0  0  0  0  0  0  0  0  0
    8.5908    3.9968  -61.8741 H   0  0  0  0  0  0  0  0  0  0  0  0
   10.3992    5.1349  -61.0064 H   0  0  0  0  0  0  0  0  0  0  0  0
    9.3954    4.7654  -59.5116 H   0  0  0  0  0  0  0  0  0  0  0  0
   11.1367    2.6134  -59.7631 H   0  0  0  0  0  0  0  0  0  0  0  0
   12.1251    4.1141  -60.1233 H   0  0  0  0  0  0  0  0  0  0  0  0
   12.1340    4.6770  -58.0740 H   0  0  0  0  0  0  0  0  0  0  0  0
   10.4389    5.5220  -56.9394 H   0  0  0  0  0  0  0  0  0  0  0  0
    9.5559    5.1422  -58.4773 H   0  0  0  0  0  0  0  0  0  0  0  0
    9.4988    3.7135  -55.8153 H   0  0  0  0  0  0  0  0  0  0  0  0
    8.1519    4.1485  -56.9408 H   0  0  0  0  0  0  0  0  0  0  0  0
   10.5027    1.3175  -56.2806 H   0  0  0  0  0  0  0  0  0  0  0  0
   10.6360    1.1286  -58.0929 H   0  0  0  0  0  0  0  0  0  0  0  0
   11.8872    3.1647  -56.2708 H   0  0  0  0  0  0  0  0  0  0  0  0
   12.5569    2.3001  -57.7063 H   0  0  0  0  0  0  0  0  0  0  0  0
    3.9652    1.9790  -63.5372 H   0  0  0  0  0  0  0  0  0  0  0  0
  1  2  1  0
  2  3  1  0
  3  4  1  0
  4  5  1  0
  5  6  1  0
  6  7  1  0
  7  8  1  0
  8  9  1  0
  9 10  1  0
 10 11  1  0
 11 12  1  0
 12 13  1  0
  3 14  2  0
 14 15  1  0
 15 16  1  0
 16 17  2  0
 17 18  1  0
 18 19  2  0
 19  2  1  0
 13  8  1  0
 19 15  1  0
  1 20  1  0
  1 21  1  0
  1 22  1  0
  4 23  1  0
  5 24  1  0
  5 25  1  0
  6 26  1  0
  6 27  1  0
  7 28  1  0
  7 29  1  0
  8 30  1  0
  9 31  1  0
  9 32  1  0
 10 33  1  0
 10 34  1  0
 12 35  1  0
 12 36  1  0
 13 37  1  0
 13 38  1  0
 16 39  1  0
M  CHG  1   8   1
M  END
>  <meeko>  (43) 
{"is_sidechain": false}

$$$$

     RDKit          3D

 39 41  0  0  0  0  0  0  0  0999 V2000
    9.0950    3.0290  -61.7100 C   0  0  0  0  0  0  0  0  0  0  0  0
    7.9540    2.8590  -60.8520 N   0  0  0  0  0  0  0  0  0  0  0  0
    7.9880    2.5190  -59.4950 C   0  0  0  0  0  0  0  0  0  0  0  0
    9.0540    2.5080  -58.7750 N   0  0  0  0  0  0  0  0  0  0  0  0
    8.9240    2.1750  -57.3640 C   0  0  0  0  0  0  0  0  0  0  0  0
   10.0330    2.9240  -56.6220 C   0  0  0  0  0  0  0  0  0  0  0  0
   10.0100    4.4280  -56.8630 C   0  0  0  0  0  0  0  0  0  0  0  0
   11.1320    4.8690  -57.7690 N   0  0  0  0  0  0  0  0  0  0  0  0
   10.6900    5.3540  -59.1410 C   0  0  0  0  0  0  0  0  0  0  0  0
   11.8920    6.0100  -59.8450 C   0  0  0  0  0  0  0  0  0  0  0  0
   13.1530    5.5510  -59.3320 O   0  0  0  0  0  0  0  0  0  0  0  0
   13.1480    4.1420  -59.0920 C   0  0  0  0  0  0  0  0  0  0  0  0
   12.2170    3.8050  -57.9160 C   0  0  0  0  0  0  0  0  0  0  0  0
    6.6750    2.1610  -59.1030 N   0  0  0  0  0  0  0  0  0  0  0  0
    5.9810    2.2260  -60.3010 N   0  0  0  0  0  0  0  0  0  0  0  0
    4.7430    1.9680  -60.7690 C   0  0  0  0  0  0  0  0  0  0  0  0
    4.7480    2.1840  -62.0760 N   0  0  0  0  0  0  0  0  0  0  0  0
    6.0340    2.6000  -62.4500 N   0  0  0  0  0  0  0  0  0  0  0  0
    6.7310    2.6220  -61.3500 C   0  0  0  0  0  0  0  0  0  0  0  0
    9.9982    3.1636  -61.0967 H   0  0  0  0  0  0  0  0  0  0  0  0
    9.2123    2.1384  -62.3449 H   0  0  0  0  0  0  0  0  0  0  0  0
    8.9476    3.9151  -62.3449 H   0  0  0  0  0  0  0  0  0  0  0  0
    7.9391    2.4920  -56.9905 H   0  0  0  0  0  0  0  0  0  0  0  0
    9.0117    1.0897  -57.2077 H   0  0  0  0  0  0  0  0  0  0  0  0
    9.9165    2.7414  -55.5435 H   0  0  0  0  0  0  0  0  0  0  0  0
   10.9930    2.5474  -57.0049 H   0  0  0  0  0  0  0  0  0  0  0  0
    9.0504    4.6992  -57.3273 H   0  0  0  0  0  0  0  0  0  0  0  0
   10.1371    4.9309  -55.8930 H   0  0  0  0  0  0  0  0  0  0  0  0
   11.6170    5.6760  -57.3500 H   0  0  0  0  0  0  0  0  0  0  0  0
   10.3322    4.5016  -59.7371 H   0  0  0  0  0  0  0  0  0  0  0  0
    9.8742    6.0842  -59.0349 H   0  0  0  0  0  0  0  0  0  0  0  0
   11.8423    5.7751  -60.9185 H   0  0  0  0  0  0  0  0  0  0  0  0
   11.8334    7.0932  -59.6625 H   0  0  0  0  0  0  0  0  0  0  0  0
   12.7957    3.6213  -59.9946 H   0  0  0  0  0  0  0  0  0  0  0  0
   14.1694    3.8173  -58.8445 H   0  0  0  0  0  0  0  0  0  0  0  0
   11.7439    2.8286  -58.0975 H   0  0  0  0  0  0  0  0  0  0  0  0
   12.8110    3.7733  -56.9907 H   0  0  0  0  0  0  0  0  0  0  0  0
    6.6480    1.2200  -58.7250 H   0  0  0  0  0  0  0  0  0  0  0  0
    3.8812    1.6367  -60.1711 H   0  0  0  0  0  0  0  0  0  0  0  0
  1  2  1  0
  2  3  1  0
  3  4  2  0
  4  5  1  0
  5  6  1  0
  6  7  1  0
  7  8  1  0
  8  9  1  0
  9 10  1  0
 10 11  1  0
 11 12  1  0
 12 13  1  0
  3 14  1  0
 14 15  1  0
 15 16  1  0
 16 17  2  0
 17 18  1  0
 18 19  2  0
 19  2  1  0
 13  8  1  0
 19 15  1  0
  1 20  1  0
  1 21  1  0
  1 22  1  0
  5 23  1  0
  5 24  1  0
  6 25  1  0
  6 26  1  0
  7 27  1  0
  7 28  1  0
  8 29  1  0
  9 30  1  0
  9 31  1  0
 10 32  1  0
 10 33  1  0
 12 34  1  0
 12 35  1  0
 13 36  1  0
 13 37  1  0
 14 38  1  0
 16 39  1  0
M  CHG  1   8   1
M  END
>  <meeko>  (44) 
{"is_sidechain": false}

$$$$

     RDKit          3D

 39 41  0  0  0  0  0  0  0  0999 V2000
    6.7300    2.1610  -59.0020 C   0  0  0  0  0  0  0  0  0  0  0  0
    6.3330    2.4460  -60.3530 N   0  0  0  0  0  0  0  0  0  0  0  0
    7.1270    2.6130  -61.5030 C   0  0  0  0  0  0  0  0  0  0  0  0
    8.3820    2.7360  -61.7230 N   0  0  0  0  0  0  0  0  0  0  0  0
    9.3980    2.7720  -60.6940 C   0  0  0  0  0  0  0  0  0  0  0  0
   10.0300    4.1620  -60.6870 C   0  0  0  0  0  0  0  0  0  0  0  0
    9.5250    4.9880  -59.5110 C   0  0  0  0  0  0  0  0  0  0  0  0
   10.6220    5.1820  -58.4820 N   0  0  0  0  0  0  0  0  0  0  0  0
   10.4240    4.3030  -57.2400 C   0  0  0  0  0  0  0  0  0  0  0  0
   11.3170    3.0630  -57.3140 C   0  0  0  0  0  0  0  0  0  0  0  0
   12.7110    3.3840  -57.3460 O   0  0  0  0  0  0  0  0  0  0  0  0
   13.0220    4.6370  -57.9640 C   0  0  0  0  0  0  0  0  0  0  0  0
   12.0330    5.0190  -59.0670 C   0  0  0  0  0  0  0  0  0  0  0  0
    6.2590    2.5920  -62.6170 N   0  0  0  0  0  0  0  0  0  0  0  0
    5.0610    2.2130  -62.0810 N   0  0  0  0  0  0  0  0  0  0  0  0
    3.8140    1.9010  -62.4840 C   0  0  0  0  0  0  0  0  0  0  0  0
    3.0970    1.6130  -61.4060 N   0  0  0  0  0  0  0  0  0  0  0  0
    3.9160    1.7610  -60.2790 N   0  0  0  0  0  0  0  0  0  0  0  0
    5.0780    2.1370  -60.7350 C   0  0  0  0  0  0  0  0  0  0  0  0
    6.0391    2.6570  -58.3044 H   0  0  0  0  0  0  0  0  0  0  0  0
    6.7037    1.0743  -58.8336 H   0  0  0  0  0  0  0  0  0  0  0  0
    7.7512    2.5335  -58.8336 H   0  0  0  0  0  0  0  0  0  0  0  0
    8.9417    2.5667  -59.7144 H   0  0  0  0  0  0  0  0  0  0  0  0
   10.1652    2.0097  -60.8945 H   0  0  0  0  0  0  0  0  0  0  0  0
   11.1226    4.0595  -60.6112 H   0  0  0  0  0  0  0  0  0  0  0  0
    9.7537    4.6762  -61.6194 H   0  0  0  0  0  0  0  0  0  0  0  0
    9.1943    5.9715  -59.8761 H   0  0  0  0  0  0  0  0  0  0  0  0
    8.6869    4.4549  -59.0383 H   0  0  0  0  0  0  0  0  0  0  0  0
   10.5530    6.1530  -58.1480 H   0  0  0  0  0  0  0  0  0  0  0  0
   10.6826    4.8824  -56.3414 H   0  0  0  0  0  0  0  0  0  0  0  0
    9.3727    3.9824  -57.1946 H   0  0  0  0  0  0  0  0  0  0  0  0
   11.1211    2.4358  -56.4318 H   0  0  0  0  0  0  0  0  0  0  0  0
   11.0768    2.5376  -58.2501 H   0  0  0  0  0  0  0  0  0  0  0  0
   13.0081    5.4215  -57.1931 H   0  0  0  0  0  0  0  0  0  0  0  0
   14.0136    4.5380  -58.4298 H   0  0  0  0  0  0  0  0  0  0  0  0
   12.3483    5.9682  -59.5248 H   0  0  0  0  0  0  0  0  0  0  0  0
   12.0169    4.2228  -59.8258 H   0  0  0  0  0  0  0  0  0  0  0  0
    6.6120    2.0060  -63.3650 H   0  0  0  0  0  0  0  0  0  0  0  0
    3.4541    1.8875  -63.5234 H   0  0  0  0  0  0  0  0  0  0  0  0
  1  2  1  0
  2  3  1  0
  3  4  2  0
  4  5  1  0
  5  6  1  0
  6  7  1  0
  7  8  1  0
  8  9  1  0
  9 10  1  0
 10 11  1  0
 11 12  1  0
 12 13  1  0
  3 14  1  0
 14 15  1  0
 15 16  1  0
 16 17  2  0
 17 18  1  0
 18 19  2  0
 19  2  1  0
 13  8  1  0
 19 15  1  0
  1 20  1  0
  1 21  1  0
  1 22  1  0
  5 23  1  0
  5 24  1  0
  6 25  1  0
  6 26  1  0
  7 27  1  0
  7 28  1  0
  8 29  1  0
  9 30  1  0
  9 31  1  0
 10 32  1  0
 10 33  1  0
 12 34  1  0
 12 35  1  0
 13 36  1  0
 13 37  1  0
 14 38  1  0
 16 39  1  0
M  CHG  1   8   1
M  END
>  <meeko>  (45) 
{"is_sidechain": false}

$$$$

     RDKit          3D

 49 53  0  0  0  0  0  0  0  0999 V2000
    5.1580    2.6780  -58.2420 C   0  0  0  0  0  0  0  0  0  0  0  0
    5.4850    1.6420  -59.1560 O   0  0  0  0  0  0  0  0  0  0  0  0
    5.4600    1.9580  -60.4550 C   0  0  0  0  0  0  0  0  0  0  0  0
    6.2530    2.6550  -61.3740 C   0  0  0  0  0  0  0  0  0  0  0  0
    7.4510    3.2320  -61.1340 N   0  0  0  0  0  0  0  0  0  0  0  0
    8.6900    2.5480  -61.4850 C   0  0  0  0  0  0  0  0  0  0  0  0
    9.9030    3.4060  -61.1030 C   0  0  0  0  0  0  0  0  0  0  0  0
   10.2470    3.4570  -59.5950 C   0  0  2  0  0  0  0  0  0  0  0  0
   11.7880    3.3350  -59.4390 C   0  0  0  0  0  0  0  0  0  0  0  0
   12.1980    3.3810  -57.9590 C   0  0  1  0  0  0  0  0  0  0  0  0
   11.7390    4.7160  -57.3510 C   0  0  0  0  0  0  0  0  0  0  0  0
   10.2120    4.8450  -57.4650 C   0  0  2  0  0  0  0  0  0  0  0  0
    9.5470    3.6780  -56.7170 C   0  0  0  0  0  0  0  0  0  0  0  0
    9.9980    2.3390  -57.3250 C   0  0  2  0  0  0  0  0  0  0  0  0
   11.5250    2.2200  -57.2120 C   0  0  0  0  0  0  0  0  0  0  0  0
    9.5900    2.2940  -58.8090 C   0  0  0  0  0  0  0  0  0  0  0  0
    9.8040    4.7950  -58.9480 C   0  0  0  0  0  0  0  0  0  0  0  0
    5.6970    2.7020  -62.6390 N   0  0  0  0  0  0  0  0  0  0  0  0
    4.5990    2.0220  -62.5030 C   0  0  0  0  0  0  0  0  0  0  0  0
    3.5340    1.6060  -63.2230 N   0  0  0  0  0  0  0  0  0  0  0  0
    2.6850    0.8910  -62.3870 C   0  0  0  0  0  0  0  0  0  0  0  0
    3.2220    0.8510  -61.1480 C   0  0  0  0  0  0  0  0  0  0  0  0
    4.4110    1.5550  -61.2290 N   0  0  0  0  0  0  0  0  0  0  0  0
    5.2745    2.3089  -57.2124 H   0  0  0  0  0  0  0  0  0  0  0  0
    5.8296    3.5343  -58.4027 H   0  0  0  0  0  0  0  0  0  0  0  0
    4.1166    2.9936  -58.4027 H   0  0  0  0  0  0  0  0  0  0  0  0
    7.5450    3.8620  -60.3490 H   0  0  0  0  0  0  0  0  0  0  0  0
    8.7399    1.5901  -60.9466 H   0  0  0  0  0  0  0  0  0  0  0  0
    8.7051    2.3733  -62.5709 H   0  0  0  0  0  0  0  0  0  0  0  0
   10.7791    3.0070  -61.6352 H   0  0  0  0  0  0  0  0  0  0  0  0
    9.6387    4.4364  -61.3830 H   0  0  0  0  0  0  0  0  0  0  0  0
   12.1190    2.3805  -59.8743 H   0  0  0  0  0  0  0  0  0  0  0  0
   12.2606    4.1810  -59.9596 H   0  0  0  0  0  0  0  0  0  0  0  0
   13.2907    3.2910  -57.8704 H   0  0  0  0  0  0  0  0  0  0  0  0
   12.0301    4.7532  -56.2909 H   0  0  0  0  0  0  0  0  0  0  0  0
   12.2142    5.5447  -57.8963 H   0  0  0  0  0  0  0  0  0  0  0  0
    9.8890    5.8002  -57.0254 H   0  0  0  0  0  0  0  0  0  0  0  0
    9.8368    3.7126  -55.6564 H   0  0  0  0  0  0  0  0  0  0  0  0
    8.4543    3.7663  -56.8080 H   0  0  0  0  0  0  0  0  0  0  0  0
    9.5227    1.5065  -56.7855 H   0  0  0  0  0  0  0  0  0  0  0  0
   11.8156    2.2517  -56.1515 H   0  0  0  0  0  0  0  0  0  0  0  0
   11.8474    1.2677  -57.6583 H   0  0  0  0  0  0  0  0  0  0  0  0
    9.9139    1.3367  -59.2433 H   0  0  0  0  0  0  0  0  0  0  0  0
    8.4968    2.3948  -58.8777 H   0  0  0  0  0  0  0  0  0  0  0  0
    8.7107    4.8884  -59.0248 H   0  0  0  0  0  0  0  0  0  0  0  0
   10.2966    5.6236  -59.4779 H   0  0  0  0  0  0  0  0  0  0  0  0
    3.3340    1.8100  -64.1910 H   0  0  0  0  0  0  0  0  0  0  0  0
    1.7309    0.4322  -62.6855 H   0  0  0  0  0  0  0  0  0  0  0  0
    2.8011    0.3601  -60.2581 H   0  0  0  0  0  0  0  0  0  0  0  0
  1  2  1  0
  2  3  1  0
  3  4  2  0
  4  5  1  0
  5  6  1  0
  6  7  1  0
  8  7  1  6
  8  9  1  0
  9 10  1  0
 10 11  1  0
 11 12  1  0
 12 13  1  0
 13 14  1  0
 14 15  1  0
 14 16  1  0
 12 17  1  0
  4 18  1  0
 18 19  2  0
 19 20  1  0
 20 21  1  0
 21 22  2  0
 22 23  1  0
 23  3  1  0
 16  8  1  0
 23 19  1  0
 17  8  1  0
 15 10  1  0
  1 24  1  0
  1 25  1  0
  1 26  1  0
  5 27  1  0
  6 28  1  0
  6 29  1  0
  7 30  1  0
  7 31  1  0
  9 32  1  0
  9 33  1  0
 10 34  1  6
 11 35  1  0
 11 36  1  0
 12 37  1  1
 13 38  1  0
 13 39  1  0
 14 40  1  1
 15 41  1  0
 15 42  1  0
 16 43  1  0
 16 44  1  0
 17 45  1  0
 17 46  1  0
 20 47  1  0
 21 48  1  0
 22 49  1  0
M  END
>  <meeko>  (46) 
{"is_sidechain": false}

$$$$

     RDKit          3D

 49 53  0  0  0  0  0  0  0  0999 V2000
    6.2350   -0.8700  -54.3630 C   0  0  0  0  0  0  0  0  0  0  0  0
    6.6950   -2.1960  -54.1740 O   0  0  0  0  0  0  0  0  0  0  0  0
    7.5210   -2.4510  -53.1190 C   0  0  0  0  0  0  0  0  0  0  0  0
    8.8310   -2.1420  -52.8260 C   0  0  0  0  0  0  0  0  0  0  0  0
    9.7360   -1.4050  -53.5450 N   0  0  0  0  0  0  0  0  0  0  0  0
   10.4160   -1.8380  -54.7560 C   0  0  0  0  0  0  0  0  0  0  0  0
   10.2530   -3.3510  -54.9320 C   0  0  0  0  0  0  0  0  0  0  0  0
   11.1830   -4.0130  -55.9800 C   0  0  2  0  0  0  0  0  0  0  0  0
   12.3080   -4.8390  -55.3060 C   0  0  0  0  0  0  0  0  0  0  0  0
   13.1820   -5.5350  -56.3660 C   0  0  1  0  0  0  0  0  0  0  0  0
   12.3080   -6.4780  -57.2080 C   0  0  0  0  0  0  0  0  0  0  0  0
   11.2000   -5.6760  -57.9100 C   0  0  2  0  0  0  0  0  0  0  0  0
   11.8350   -4.6120  -58.8180 C   0  0  0  0  0  0  0  0  0  0  0  0
   12.7080   -3.6620  -57.9830 C   0  0  2  0  0  0  0  0  0  0  0  0
   13.8100   -4.4730  -57.2820 C   0  0  0  0  0  0  0  0  0  0  0  0
   11.8360   -2.9690  -56.9200 C   0  0  0  0  0  0  0  0  0  0  0  0
   10.3320   -4.9810  -56.8490 C   0  0  0  0  0  0  0  0  0  0  0  0
    9.1170   -2.7330  -51.5830 N   0  0  0  0  0  0  0  0  0  0  0  0
    8.0450   -3.4010  -51.1290 C   0  0  0  0  0  0  0  0  0  0  0  0
    7.6790   -4.1540  -50.1320 N   0  0  0  0  0  0  0  0  0  0  0  0
    6.3600   -4.4590  -50.4360 C   0  0  0  0  0  0  0  0  0  0  0  0
    5.9560   -3.8870  -51.6340 C   0  0  0  0  0  0  0  0  0  0  0  0
    7.0610   -3.2200  -52.0560 N   0  0  0  0  0  0  0  0  0  0  0  0
    6.0705   -0.3959  -53.3841 H   0  0  0  0  0  0  0  0  0  0  0  0
    6.9871   -0.2977  -54.9258 H   0  0  0  0  0  0  0  0  0  0  0  0
    5.2900   -0.8864  -54.9258 H   0  0  0  0  0  0  0  0  0  0  0  0
   10.2500   -0.7200  -53.0070 H   0  0  0  0  0  0  0  0  0  0  0  0
    9.9807   -1.3207  -55.6237 H   0  0  0  0  0  0  0  0  0  0  0  0
   11.4860   -1.5954  -54.6773 H   0  0  0  0  0  0  0  0  0  0  0  0
   10.4481   -3.8267  -53.9596 H   0  0  0  0  0  0  0  0  0  0  0  0
    9.2291   -3.4993  -55.3057 H   0  0  0  0  0  0  0  0  0  0  0  0
   12.9373   -4.1676  -54.7033 H   0  0  0  0  0  0  0  0  0  0  0  0
   11.8483   -5.6072  -54.6668 H   0  0  0  0  0  0  0  0  0  0  0  0
   13.9754   -6.1125  -55.8690 H   0  0  0  0  0  0  0  0  0  0  0  0
   12.9325   -6.9764  -57.9640 H   0  0  0  0  0  0  0  0  0  0  0  0
   11.8492   -7.2308  -56.5502 H   0  0  0  0  0  0  0  0  0  0  0  0
   10.5804   -6.3543  -58.5150 H   0  0  0  0  0  0  0  0  0  0  0  0
   12.4582   -5.1063  -59.5778 H   0  0  0  0  0  0  0  0  0  0  0  0
   11.0382   -4.0333  -59.3082 H   0  0  0  0  0  0  0  0  0  0  0  0
   13.1624   -2.9051  -58.6392 H   0  0  0  0  0  0  0  0  0  0  0  0
   14.4344   -4.9692  -58.0396 H   0  0  0  0  0  0  0  0  0  0  0  0
   14.4267   -3.7935  -56.6755 H   0  0  0  0  0  0  0  0  0  0  0  0
   12.4642   -2.2903  -56.3245 H   0  0  0  0  0  0  0  0  0  0  0  0
   11.0401   -2.4054  -57.4289 H   0  0  0  0  0  0  0  0  0  0  0  0
    9.5381   -4.4093  -57.3519 H   0  0  0  0  0  0  0  0  0  0  0  0
    9.8970   -5.7499  -56.1935 H   0  0  0  0  0  0  0  0  0  0  0  0
   10.0550   -2.7830  -51.2230 H   0  0  0  0  0  0  0  0  0  0  0  0
    5.7110   -5.0810  -49.8020 H   0  0  0  0  0  0  0  0  0  0  0  0
    4.9742   -3.9572  -52.1250 H   0  0  0  0  0  0  0  0  0  0  0  0
  1  2  1  0
  2  3  1  0
  3  4  2  0
  4  5  1  0
  5  6  1  0
  6  7  1  0
  8  7  1  1
  8  9  1  0
  9 10  1  0
 10 11  1  0
 11 12  1  0
 12 13  1  0
 13 14  1  0
 14 15  1  0
 14 16  1  0
 12 17  1  0
  4 18  1  0
 18 19  1  0
 19 20  2  0
 20 21  1  0
 21 22  2  0
 22 23  1  0
 23  3  1  0
 16  8  1  0
 23 19  1  0
 17  8  1  0
 15 10  1  0
  1 24  1  0
  1 25  1  0
  1 26  1  0
  5 27  1  0
  6 28  1  0
  6 29  1  0
  7 30  1  0
  7 31  1  0
  9 32  1  0
  9 33  1  0
 10 34  1  1
 11 35  1  0
 11 36  1  0
 12 37  1  6
 13 38  1  0
 13 39  1  0
 14 40  1  6
 15 41  1  0
 15 42  1  0
 16 43  1  0
 16 44  1  0
 17 45  1  0
 17 46  1  0
 18 47  1  0
 21 48  1  0
 22 49  1  0
M  END
>  <meeko>  (47) 
{"is_sidechain": false}

$$$$

     RDKit          3D

 50 54  0  0  0  0  0  0  0  0999 V2000
    6.1200   -0.8090  -54.2080 C   0  0  0  0  0  0  0  0  0  0  0  0
    6.5700   -2.1560  -54.2290 O   0  0  0  0  0  0  0  0  0  0  0  0
    7.3460   -2.4230  -53.0950 C   0  0  0  0  0  0  0  0  0  0  0  0
    8.6720   -2.0580  -52.8220 C   0  0  0  0  0  0  0  0  0  0  0  0
    9.5890   -1.2830  -53.6220 N   0  0  0  0  0  0  0  0  0  0  0  0
   10.2910   -1.7780  -54.8120 C   0  0  0  0  0  0  0  0  0  0  0  0
   10.3610   -3.3050  -54.8240 C   0  0  0  0  0  0  0  0  0  0  0  0
   11.1770   -3.9860  -55.9540 C   0  0  2  0  0  0  0  0  0  0  0  0
   12.2860   -4.8490  -55.2860 C   0  0  0  0  0  0  0  0  0  0  0  0
   13.1560   -5.5520  -56.3400 C   0  0  1  0  0  0  0  0  0  0  0  0
   12.2660   -6.4640  -57.1970 C   0  0  0  0  0  0  0  0  0  0  0  0
   11.1830   -5.6300  -57.8960 C   0  0  2  0  0  0  0  0  0  0  0  0
   11.8540   -4.5710  -58.7880 C   0  0  0  0  0  0  0  0  0  0  0  0
   12.7400   -3.6490  -57.9330 C   0  0  2  0  0  0  0  0  0  0  0  0
   13.8180   -4.4920  -57.2330 C   0  0  0  0  0  0  0  0  0  0  0  0
   11.8700   -2.9480  -56.8740 C   0  0  0  0  0  0  0  0  0  0  0  0
   10.3160   -4.9200  -56.8390 C   0  0  0  0  0  0  0  0  0  0  0  0
    9.0010   -2.5840  -51.6000 N   0  0  0  0  0  0  0  0  0  0  0  0
    7.9600   -3.2540  -51.1850 C   0  0  0  0  0  0  0  0  0  0  0  0
    7.5820   -4.0120  -50.1480 N   0  0  0  0  0  0  0  0  0  0  0  0
    6.2680   -4.4310  -50.3960 C   0  0  0  0  0  0  0  0  0  0  0  0
    5.9030   -3.8980  -51.5850 C   0  0  0  0  0  0  0  0  0  0  0  0
    6.9670   -3.1800  -52.0350 N   0  0  0  0  0  0  0  0  0  0  0  0
    6.0087   -0.4758  -53.1656 H   0  0  0  0  0  0  0  0  0  0  0  0
    6.8533   -0.1694  -54.7211 H   0  0  0  0  0  0  0  0  0  0  0  0
    5.1495   -0.7386  -54.7211 H   0  0  0  0  0  0  0  0  0  0  0  0
    9.7500   -0.3190  -53.3380 H   0  0  0  0  0  0  0  0  0  0  0  0
    9.7559   -1.4373  -55.7107 H   0  0  0  0  0  0  0  0  0  0  0  0
   11.3182   -1.3847  -54.7964 H   0  0  0  0  0  0  0  0  0  0  0  0
   10.8014   -3.6201  -53.8665 H   0  0  0  0  0  0  0  0  0  0  0  0
    9.3241   -3.6270  -55.0005 H   0  0  0  0  0  0  0  0  0  0  0  0
   12.9244   -4.1984  -54.6703 H   0  0  0  0  0  0  0  0  0  0  0  0
   11.8019   -5.6179  -54.6660 H   0  0  0  0  0  0  0  0  0  0  0  0
   13.9332   -6.1541  -55.8466 H   0  0  0  0  0  0  0  0  0  0  0  0
   12.8834   -6.9687  -57.9547 H   0  0  0  0  0  0  0  0  0  0  0  0
   11.7854   -7.2127  -56.5501 H   0  0  0  0  0  0  0  0  0  0  0  0
   10.5520   -6.2908  -58.5085 H   0  0  0  0  0  0  0  0  0  0  0  0
   12.4742   -5.0725  -59.5455 H   0  0  0  0  0  0  0  0  0  0  0  0
   11.0767   -3.9692  -59.2817 H   0  0  0  0  0  0  0  0  0  0  0  0
   13.2195   -2.8941  -58.5735 H   0  0  0  0  0  0  0  0  0  0  0  0
   14.4400   -4.9907  -57.9909 H   0  0  0  0  0  0  0  0  0  0  0  0
   14.4439   -3.8350  -56.6113 H   0  0  0  0  0  0  0  0  0  0  0  0
   12.5061   -2.2918  -56.2619 H   0  0  0  0  0  0  0  0  0  0  0  0
   11.0951   -2.3603  -57.3879 H   0  0  0  0  0  0  0  0  0  0  0  0
    9.5445   -4.3234  -57.3478 H   0  0  0  0  0  0  0  0  0  0  0  0
    9.8511   -5.6823  -56.1965 H   0  0  0  0  0  0  0  0  0  0  0  0
    9.8910   -2.4900  -51.1410 H   0  0  0  0  0  0  0  0  0  0  0  0
    8.1800   -4.2230  -49.3590 H   0  0  0  0  0  0  0  0  0  0  0  0
    5.6511   -5.0709  -49.7480 H   0  0  0  0  0  0  0  0  0  0  0  0
    4.9335   -4.0215  -52.0899 H   0  0  0  0  0  0  0  0  0  0  0  0
  1  2  1  0
  2  3  1  0
  3  4  2  0
  4  5  1  0
  5  6  1  0
  6  7  1  0
  8  7  1  1
  8  9  1  0
  9 10  1  0
 10 11  1  0
 11 12  1  0
 12 13  1  0
 13 14  1  0
 14 15  1  0
 14 16  1  0
 12 17  1  0
  4 18  1  0
 18 19  2  0
 19 20  1  0
 20 21  1  0
 21 22  2  0
 22 23  1  0
 23  3  1  0
 16  8  1  0
 23 19  1  0
 17  8  1  0
 15 10  1  0
  1 24  1  0
  1 25  1  0
  1 26  1  0
  5 27  1  0
  6 28  1  0
  6 29  1  0
  7 30  1  0
  7 31  1  0
  9 32  1  0
  9 33  1  0
 10 34  1  1
 11 35  1  0
 11 36  1  0
 12 37  1  6
 13 38  1  0
 13 39  1  0
 14 40  1  6
 15 41  1  0
 15 42  1  0
 16 43  1  0
 16 44  1  0
 17 45  1  0
 17 46  1  0
 18 47  1  0
 20 48  1  0
 21 49  1  0
 22 50  1  0
M  CHG  1  18   1
M  END
>  <meeko>  (48) 
{"is_sidechain": false}

$$$$

     RDKit          3D

 44 48  0  0  0  0  0  0  0  0999 V2000
    6.2920    1.5520  -57.9990 C   0  0  0  0  0  0  0  0  0  0  0  0
    5.9790    2.6880  -58.9640 C   0  0  0  0  0  0  0  0  0  0  0  0
    5.9390    2.2330  -60.3390 N   0  0  0  0  0  0  0  0  0  0  0  0
    6.7460    2.6650  -61.3880 C   0  0  0  0  0  0  0  0  0  0  0  0
    8.0200    3.0770  -61.1730 N   0  0  0  0  0  0  0  0  0  0  0  0
    9.0090    2.2310  -60.5010 C   0  0  0  0  0  0  0  0  0  0  0  0
    9.8160    3.0290  -59.4470 C   0  0  1  0  0  0  0  0  0  0  0  0
    9.8650    2.3040  -58.0860 C   0  0  0  0  0  0  0  0  0  0  0  0
   10.7260    3.1160  -57.1080 C   0  0  2  0  0  0  0  0  0  0  0  0
   10.1190    4.5200  -56.9300 C   0  0  0  0  0  0  0  0  0  0  0  0
   10.0420    5.2460  -58.2860 C   0  0  1  0  0  0  0  0  0  0  0  0
   11.4480    5.3560  -58.8880 C   0  0  0  0  0  0  0  0  0  0  0  0
   12.0210    3.9480  -59.0720 C   0  0  1  0  0  0  0  0  0  0  0  0
   12.1290    3.2380  -57.7190 C   0  0  0  0  0  0  0  0  0  0  0  0
   11.1660    3.1930  -59.9500 O   0  0  0  0  0  0  0  0  0  0  0  0
    9.1830    4.4240  -59.2560 C   0  0  0  0  0  0  0  0  0  0  0  0
    6.1740    2.6510  -62.5820 N   0  0  0  0  0  0  0  0  0  0  0  0
    4.9350    2.1950  -62.2400 N   0  0  0  0  0  0  0  0  0  0  0  0
    3.7510    1.9500  -62.8410 C   0  0  0  0  0  0  0  0  0  0  0  0
    2.8770    1.5860  -61.9140 N   0  0  0  0  0  0  0  0  0  0  0  0
    3.5200    1.6080  -60.6690 N   0  0  0  0  0  0  0  0  0  0  0  0
    4.7540    1.9530  -60.9170 C   0  0  0  0  0  0  0  0  0  0  0  0
    6.1928    1.9120  -56.9643 H   0  0  0  0  0  0  0  0  0  0  0  0
    5.5887    0.7232  -58.1679 H   0  0  0  0  0  0  0  0  0  0  0  0
    7.3205    1.2003  -58.1679 H   0  0  0  0  0  0  0  0  0  0  0  0
    5.0004    3.1171  -58.7028 H   0  0  0  0  0  0  0  0  0  0  0  0
    6.7775    3.4395  -58.8766 H   0  0  0  0  0  0  0  0  0  0  0  0
    8.4360    3.4230  -62.0430 H   0  0  0  0  0  0  0  0  0  0  0  0
    8.4884    1.4017  -59.9998 H   0  0  0  0  0  0  0  0  0  0  0  0
    9.7107    1.8520  -61.2586 H   0  0  0  0  0  0  0  0  0  0  0  0
    8.8455    2.2072  -57.6846 H   0  0  0  0  0  0  0  0  0  0  0  0
   10.3021    1.3032  -58.2177 H   0  0  0  0  0  0  0  0  0  0  0  0
   10.7698    2.6222  -56.1260 H   0  0  0  0  0  0  0  0  0  0  0  0
    9.1064    4.4268  -56.5105 H   0  0  0  0  0  0  0  0  0  0  0  0
   10.7576    5.1017  -56.2489 H   0  0  0  0  0  0  0  0  0  0  0  0
    9.6074    6.2447  -58.1320 H   0  0  0  0  0  0  0  0  0  0  0  0
   11.3936    5.8627  -59.8628 H   0  0  0  0  0  0  0  0  0  0  0  0
   12.0965    5.9371  -58.2159 H   0  0  0  0  0  0  0  0  0  0  0  0
   13.0260    4.0247  -59.5125 H   0  0  0  0  0  0  0  0  0  0  0  0
   12.5582    2.2352  -57.8614 H   0  0  0  0  0  0  0  0  0  0  0  0
   12.7797    3.8156  -57.0459 H   0  0  0  0  0  0  0  0  0  0  0  0
    8.1689    4.3134  -58.8445 H   0  0  0  0  0  0  0  0  0  0  0  0
    9.1303    4.9391  -60.2265 H   0  0  0  0  0  0  0  0  0  0  0  0
    3.5465    2.0378  -63.9183 H   0  0  0  0  0  0  0  0  0  0  0  0
  1  2  1  0
  2  3  1  0
  3  4  1  0
  4  5  1  0
  5  6  1  0
  7  6  1  6
  7  8  1  0
  8  9  1  0
  9 10  1  0
 10 11  1  0
 11 12  1  0
 12 13  1  0
 13 14  1  0
 13 15  1  0
 11 16  1  0
  4 17  2  0
 17 18  1  0
 18 19  1  0
 19 20  2  0
 20 21  1  0
 21 22  2  0
 22  3  1  0
 15  7  1  0
 22 18  1  0
 16  7  1  0
 14  9  1  0
  1 23  1  0
  1 24  1  0
  1 25  1  0
  2 26  1  0
  2 27  1  0
  5 28  1  0
  6 29  1  0
  6 30  1  0
  8 31  1  0
  8 32  1  0
  9 33  1  1
 10 34  1  0
 10 35  1  0
 11 36  1  1
 12 37  1  0
 12 38  1  0
 13 39  1  6
 14 40  1  0
 14 41  1  0
 16 42  1  0
 16 43  1  0
 19 44  1  0
M  END
>  <meeko>  (49) 
{"is_sidechain": false}

$$$$

     RDKit          3D

 44 48  0  0  0  0  0  0  0  0999 V2000
    6.0010    2.9360  -58.2840 C   0  0  0  0  0  0  0  0  0  0  0  0
    6.1140    1.5990  -59.0000 C   0  0  0  0  0  0  0  0  0  0  0  0
    5.9860    1.7650  -60.4310 N   0  0  0  0  0  0  0  0  0  0  0  0
    6.8990    2.3190  -61.3470 C   0  0  0  0  0  0  0  0  0  0  0  0
    8.1720    2.4540  -61.3790 N   0  0  0  0  0  0  0  0  0  0  0  0
    9.0090    1.9420  -60.2990 C   0  0  0  0  0  0  0  0  0  0  0  0
    9.7360    3.1020  -59.5740 C   0  0  1  0  0  0  0  0  0  0  0  0
    9.7920    2.7970  -58.0600 C   0  0  0  0  0  0  0  0  0  0  0  0
   10.5870    3.8980  -57.3430 C   0  0  2  0  0  0  0  0  0  0  0  0
    9.9030    5.2570  -57.5780 C   0  0  0  0  0  0  0  0  0  0  0  0
    9.8220    5.5640  -59.0850 C   0  0  1  0  0  0  0  0  0  0  0  0
   11.2350    5.5740  -59.6830 C   0  0  0  0  0  0  0  0  0  0  0  0
   11.8840    4.2080  -59.4470 C   0  0  1  0  0  0  0  0  0  0  0  0
   11.9960    3.9240  -57.9470 C   0  0  0  0  0  0  0  0  0  0  0  0
   11.0950    3.1790  -60.0710 O   0  0  0  0  0  0  0  0  0  0  0  0
    9.0300    4.4570  -59.7930 C   0  0  0  0  0  0  0  0  0  0  0  0
    6.1650    2.7180  -62.4870 N   0  0  0  0  0  0  0  0  0  0  0  0
    4.9090    2.2470  -62.2320 N   0  0  0  0  0  0  0  0  0  0  0  0
    3.6850    2.2730  -62.7980 C   0  0  0  0  0  0  0  0  0  0  0  0
    2.8250    1.7410  -61.9420 N   0  0  0  0  0  0  0  0  0  0  0  0
    3.5200    1.4030  -60.7740 N   0  0  0  0  0  0  0  0  0  0  0  0
    4.7650    1.7230  -60.9990 C   0  0  0  0  0  0  0  0  0  0  0  0
    6.0149    2.7718  -57.1964 H   0  0  0  0  0  0  0  0  0  0  0  0
    6.8482    3.5772  -58.5689 H   0  0  0  0  0  0  0  0  0  0  0  0
    5.0582    3.4260  -58.5689 H   0  0  0  0  0  0  0  0  0  0  0  0
    7.0941    1.1526  -58.7759 H   0  0  0  0  0  0  0  0  0  0  0  0
    5.3029    0.9439  -58.6492 H   0  0  0  0  0  0  0  0  0  0  0  0
    8.3776    1.4038  -59.5767 H   0  0  0  0  0  0  0  0  0  0  0  0
    9.7625    1.2639  -60.7261 H   0  0  0  0  0  0  0  0  0  0  0  0
    8.7697    2.7609  -57.6556 H   0  0  0  0  0  0  0  0  0  0  0  0
   10.2850    1.8267  -57.9003 H   0  0  0  0  0  0  0  0  0  0  0  0
   10.6329    3.7029  -56.2614 H   0  0  0  0  0  0  0  0  0  0  0  0
    8.8864    5.2284  -57.1588 H   0  0  0  0  0  0  0  0  0  0  0  0
   10.4932    6.0435  -57.0849 H   0  0  0  0  0  0  0  0  0  0  0  0
    9.3337    6.5403  -59.2209 H   0  0  0  0  0  0  0  0  0  0  0  0
   11.1772    5.7735  -60.7632 H   0  0  0  0  0  0  0  0  0  0  0  0
   11.8367    6.3599  -59.2032 H   0  0  0  0  0  0  0  0  0  0  0  0
   12.8923    4.2172  -59.8867 H   0  0  0  0  0  0  0  0  0  0  0  0
   12.4835    2.9504  -57.7904 H   0  0  0  0  0  0  0  0  0  0  0  0
   12.5964    4.7077  -57.4618 H   0  0  0  0  0  0  0  0  0  0  0  0
    8.0120    4.4117  -59.3788 H   0  0  0  0  0  0  0  0  0  0  0  0
    8.9771    4.6742  -60.8701 H   0  0  0  0  0  0  0  0  0  0  0  0
    6.6050    2.3760  -63.3320 H   0  0  0  0  0  0  0  0  0  0  0  0
    3.4430    2.6671  -63.7961 H   0  0  0  0  0  0  0  0  0  0  0  0
  1  2  1  0
  2  3  1  0
  3  4  1  0
  4  5  2  0
  5  6  1  0
  7  6  1  6
  7  8  1  0
  8  9  1  0
  9 10  1  0
 10 11  1  0
 11 12  1  0
 12 13  1  0
 13 14  1  0
 13 15  1  0
 11 16  1  0
  4 17  1  0
 17 18  1  0
 18 19  1  0
 19 20  2  0
 20 21  1  0
 21 22  2  0
 22  3  1  0
 15  7  1  0
 22 18  1  0
 16  7  1  0
 14  9  1  0
  1 23  1  0
  1 24  1  0
  1 25  1  0
  2 26  1  0
  2 27  1  0
  6 28  1  0
  6 29  1  0
  8 30  1  0
  8 31  1  0
  9 32  1  1
 10 33  1  0
 10 34  1  0
 11 35  1  1
 12 36  1  0
 12 37  1  0
 13 38  1  6
 14 39  1  0
 14 40  1  0
 16 41  1  0
 16 42  1  0
 17 43  1  0
 19 44  1  0
M  END
>  <meeko>  (50) 
{"is_sidechain": false}

$$$$

     RDKit          3D

 44 48  0  0  0  0  0  0  0  0999 V2000
    5.2460    1.9180  -57.3830 C   0  0  0  0  0  0  0  0  0  0  0  0
    4.3780    2.6500  -58.3950 C   0  0  0  0  0  0  0  0  0  0  0  0
    4.8030    2.3520  -59.7400 N   0  0  0  0  0  0  0  0  0  0  0  0
    6.0820    2.5490  -60.2750 C   0  0  0  0  0  0  0  0  0  0  0  0
    7.1030    2.9000  -59.5810 N   0  0  0  0  0  0  0  0  0  0  0  0
    8.3950    3.0720  -60.2470 C   0  0  0  0  0  0  0  0  0  0  0  0
    9.5080    3.4110  -59.2320 C   0  0  1  0  0  0  0  0  0  0  0  0
   10.9060    3.3450  -59.8830 C   0  0  0  0  0  0  0  0  0  0  0  0
   11.9640    3.7920  -58.8630 C   0  0  2  0  0  0  0  0  0  0  0  0
   11.9080    2.8680  -57.6310 C   0  0  0  0  0  0  0  0  0  0  0  0
   10.5110    2.9160  -56.9840 C   0  0  1  0  0  0  0  0  0  0  0  0
   10.1820    4.3580  -56.5780 C   0  0  0  0  0  0  0  0  0  0  0  0
   10.2270    5.2440  -57.8240 C   0  0  1  0  0  0  0  0  0  0  0  0
   11.6270    5.2270  -58.4410 C   0  0  0  0  0  0  0  0  0  0  0  0
    9.2720    4.7730  -58.7900 O   0  0  0  0  0  0  0  0  0  0  0  0
    9.4590    2.4710  -58.0100 C   0  0  0  0  0  0  0  0  0  0  0  0
    6.0190    2.2310  -61.6520 N   0  0  0  0  0  0  0  0  0  0  0  0
    4.7120    1.8230  -61.8100 N   0  0  0  0  0  0  0  0  0  0  0  0
    3.8980    1.3980  -62.7970 C   0  0  0  0  0  0  0  0  0  0  0  0
    2.6950    1.1970  -62.2790 N   0  0  0  0  0  0  0  0  0  0  0  0
    2.7410    1.5320  -60.9170 N   0  0  0  0  0  0  0  0  0  0  0  0
    3.9690    1.9060  -60.6870 C   0  0  0  0  0  0  0  0  0  0  0  0
    4.9277    2.1864  -56.3648 H   0  0  0  0  0  0  0  0  0  0  0  0
    5.1400    0.8325  -57.5261 H   0  0  0  0  0  0  0  0  0  0  0  0
    6.2980    2.2057  -57.5261 H   0  0  0  0  0  0  0  0  0  0  0  0
    3.3318    2.3347  -58.2686 H   0  0  0  0  0  0  0  0  0  0  0  0
    4.4731    3.7327  -58.2254 H   0  0  0  0  0  0  0  0  0  0  0  0
    8.6568    2.1391  -60.7677 H   0  0  0  0  0  0  0  0  0  0  0  0
    8.3100    3.9049  -60.9604 H   0  0  0  0  0  0  0  0  0  0  0  0
   11.1149    2.3127  -60.2004 H   0  0  0  0  0  0  0  0  0  0  0  0
   10.9357    4.0095  -60.7591 H   0  0  0  0  0  0  0  0  0  0  0  0
   12.9719    3.7437  -59.3010 H   0  0  0  0  0  0  0  0  0  0  0  0
   12.1276    1.8360  -57.9422 H   0  0  0  0  0  0  0  0  0  0  0  0
   12.6523    3.2090  -56.8963 H   0  0  0  0  0  0  0  0  0  0  0  0
   10.5032    2.2550  -56.1048 H   0  0  0  0  0  0  0  0  0  0  0  0
    9.1767    4.3965  -56.1332 H   0  0  0  0  0  0  0  0  0  0  0  0
   10.9151    4.7146  -55.8395 H   0  0  0  0  0  0  0  0  0  0  0  0
    9.9784    6.2748  -57.5314 H   0  0  0  0  0  0  0  0  0  0  0  0
   11.6511    5.8864  -59.3211 H   0  0  0  0  0  0  0  0  0  0  0  0
   12.3637    5.5829  -57.7057 H   0  0  0  0  0  0  0  0  0  0  0  0
    9.6715    1.4404  -58.3306 H   0  0  0  0  0  0  0  0  0  0  0  0
    8.4590    2.5124  -57.5536 H   0  0  0  0  0  0  0  0  0  0  0  0
    6.6870    1.5120  -61.9000 H   0  0  0  0  0  0  0  0  0  0  0  0
    4.1826    1.2449  -63.8484 H   0  0  0  0  0  0  0  0  0  0  0  0
  1  2  1  0
  2  3  1  0
  3  4  1  0
  4  5  2  0
  5  6  1  0
  7  6  1  6
  7  8  1  0
  8  9  1  0
  9 10  1  0
 10 11  1  0
 11 12  1  0
 12 13  1  0
 13 14  1  0
 13 15  1  0
 11 16  1  0
  4 17  1  0
 17 18  1  0
 18 19  1  0
 19 20  2  0
 20 21  1  0
 21 22  2  0
 22  3  1  0
 15  7  1  0
 22 18  1  0
 16  7  1  0
 14  9  1  0
  1 23  1  0
  1 24  1  0
  1 25  1  0
  2 26  1  0
  2 27  1  0
  6 28  1  0
  6 29  1  0
  8 30  1  0
  8 31  1  0
  9 32  1  6
 10 33  1  0
 10 34  1  0
 11 35  1  1
 12 36  1  0
 12 37  1  0
 13 38  1  1
 14 39  1  0
 14 40  1  0
 16 41  1  0
 16 42  1  0
 17 43  1  0
 19 44  1  0
M  END
>  <meeko>  (51) 
{"is_sidechain": false}

$$$$

     RDKit          3D

 40 42  0  0  0  0  0  0  0  0999 V2000
    7.7330    5.6850  -59.1640 C   0  0  0  0  0  0  0  0  0  0  0  0
    7.6200    4.3240  -59.5920 O   0  0  0  0  0  0  0  0  0  0  0  0
    7.5770    3.3950  -58.6200 C   0  0  0  0  0  0  0  0  0  0  0  0
    6.5170    3.1510  -57.9170 N   0  0  0  0  0  0  0  0  0  0  0  0
    6.7000    2.2460  -56.9220 C   0  0  0  0  0  0  0  0  0  0  0  0
    5.8420    1.7780  -56.0380 N   0  0  0  0  0  0  0  0  0  0  0  0
    6.5020    0.9020  -55.2050 N   0  0  0  0  0  0  0  0  0  0  0  0
    7.7590    0.8470  -55.5940 C   0  0  0  0  0  0  0  0  0  0  0  0
    8.8460    0.0400  -55.0040 C   0  0  0  0  0  0  0  0  0  0  0  0
    7.9380    1.6710  -56.6780 N   0  0  0  0  0  0  0  0  0  0  0  0
    9.0880    1.8580  -57.3830 N   0  0  0  0  0  0  0  0  0  0  0  0
    8.9520    2.6770  -58.3970 C   0  0  0  0  0  0  0  0  0  0  0  0
   10.0390    2.9190  -59.2470 N   0  0  0  0  0  0  0  0  0  0  0  0
    9.9450    2.4400  -60.6260 C   0  0  0  0  0  0  0  0  0  0  0  0
   10.9330    4.0710  -58.9930 C   0  0  0  0  0  0  0  0  0  0  0  0
   12.3100    3.5950  -58.5110 C   0  0  0  0  0  0  0  0  0  0  0  0
   13.2340    4.7780  -58.2230 C   0  0  0  0  0  0  0  0  0  0  0  0
   13.3500    5.7100  -59.4280 C   0  0  0  0  0  0  0  0  0  0  0  0
   11.9820    6.1750  -59.9210 C   0  0  0  0  0  0  0  0  0  0  0  0
   11.0600    4.9930  -60.2170 C   0  0  0  0  0  0  0  0  0  0  0  0
    7.7363    5.7246  -58.0647 H   0  0  0  0  0  0  0  0  0  0  0  0
    8.6698    6.1139  -59.5492 H   0  0  0  0  0  0  0  0  0  0  0  0
    6.8797    6.2625  -59.5492 H   0  0  0  0  0  0  0  0  0  0  0  0
    8.7832    0.0866  -53.9068 H   0  0  0  0  0  0  0  0  0  0  0  0
    8.7468   -1.0050  -55.3329 H   0  0  0  0  0  0  0  0  0  0  0  0
    9.8176    0.4373  -55.3329 H   0  0  0  0  0  0  0  0  0  0  0  0
    9.7332    1.3606  -60.6256 H   0  0  0  0  0  0  0  0  0  0  0  0
    9.1342    2.9726  -61.1447 H   0  0  0  0  0  0  0  0  0  0  0  0
   10.8969    2.6267  -61.1447 H   0  0  0  0  0  0  0  0  0  0  0  0
   10.4728    4.6695  -58.1929 H   0  0  0  0  0  0  0  0  0  0  0  0
   12.1841    3.0057  -57.5907 H   0  0  0  0  0  0  0  0  0  0  0  0
   12.7644    2.9831  -59.3042 H   0  0  0  0  0  0  0  0  0  0  0  0
   12.8318    5.3454  -57.3708 H   0  0  0  0  0  0  0  0  0  0  0  0
   14.2356    4.3839  -57.9963 H   0  0  0  0  0  0  0  0  0  0  0  0
   13.9429    6.5909  -59.1407 H   0  0  0  0  0  0  0  0  0  0  0  0
   13.8358    5.1543  -60.2436 H   0  0  0  0  0  0  0  0  0  0  0  0
   11.5185    6.8044  -59.1470 H   0  0  0  0  0  0  0  0  0  0  0  0
   12.1260    6.7412  -60.8530 H   0  0  0  0  0  0  0  0  0  0  0  0
   10.0633    5.3731  -60.4856 H   0  0  0  0  0  0  0  0  0  0  0  0
   11.4894    4.4140  -61.0479 H   0  0  0  0  0  0  0  0  0  0  0  0
  1  2  1  0
  2  3  1  0
  3  4  2  0
  4  5  1  0
  5  6  2  0
  6  7  1  0
  7  8  2  0
  8  9  1  0
  8 10  1  0
 10 11  1  0
 11 12  2  0
 12 13  1  0
 13 14  1  0
 13 15  1  0
 15 16  1  0
 16 17  1  0
 17 18  1  0
 18 19  1  0
 19 20  1  0
 12  3  1  0
 20 15  1  0
 10  5  1  0
  1 21  1  0
  1 22  1  0
  1 23  1  0
  9 24  1  0
  9 25  1  0
  9 26  1  0
 14 27  1  0
 14 28  1  0
 14 29  1  0
 15 30  1  0
 16 31  1  0
 16 32  1  0
 17 33  1  0
 17 34  1  0
 18 35  1  0
 18 36  1  0
 19 37  1  0
 19 38  1  0
 20 39  1  0
 20 40  1  0
M  END
>  <meeko>  (52) 
{"is_sidechain": false}

$$$$

     RDKit          3D

 57 62  0  0  0  0  0  0  0  0999 V2000
    8.1810   -2.8910  -50.1230 C   0  0  0  0  0  0  0  0  0  0  0  0
    9.2750   -3.3870  -50.7940 C   0  0  0  0  0  0  0  0  0  0  0  0
    9.6550   -2.9550  -52.0150 N   0  0  0  0  0  0  0  0  0  0  0  0
    8.9330   -1.9860  -52.6310 C   0  0  0  0  0  0  0  0  0  0  0  0
    9.3070   -1.5220  -53.9070 C   0  0  0  0  0  0  0  0  0  0  0  0
   10.6040   -2.1090  -54.6660 C   0  0  0  0  0  0  0  0  0  0  0  0
   11.2020   -1.3440  -55.8910 C   0  0  0  0  0  0  0  0  0  0  0  0
   11.6310   -2.7080  -56.4550 C   0  0  0  0  0  0  0  0  0  0  0  0
   10.4630   -3.3100  -55.6590 C   0  0  0  0  0  0  0  0  0  0  0  0
    8.5310   -0.4710  -54.4400 C   0  0  0  0  0  0  0  0  0  0  0  0
    8.9100    0.1080  -55.6680 N   0  0  0  0  0  0  0  0  0  0  0  0
    8.9110    1.5720  -55.7360 C   0  0  0  0  0  0  0  0  0  0  0  0
   10.0100    2.0840  -56.6780 C   0  0  0  0  0  0  0  0  0  0  0  0
    9.5350    3.0080  -57.8280 C   0  0  2  0  0  0  0  0  0  0  0  0
    9.6960    2.3290  -59.2120 C   0  0  0  0  0  0  0  0  0  0  0  0
    9.2760    3.2880  -60.3410 C   0  0  1  0  0  0  0  0  0  0  0  0
    7.8060    3.6900  -60.1410 C   0  0  0  0  0  0  0  0  0  0  0  0
    7.6330    4.3940  -58.7850 C   0  0  2  0  0  0  0  0  0  0  0  0
    8.5210    5.6470  -58.7470 C   0  0  0  0  0  0  0  0  0  0  0  0
    9.9930    5.2530  -58.9420 C   0  0  2  0  0  0  0  0  0  0  0  0
   10.1570    4.5450  -60.2960 C   0  0  0  0  0  0  0  0  0  0  0  0
   10.4110    4.2920  -57.8180 C   0  0  0  0  0  0  0  0  0  0  0  0
    8.0540    3.4330  -57.6590 C   0  0  0  0  0  0  0  0  0  0  0  0
    7.4710    0.0410  -53.7750 N   0  0  0  0  0  0  0  0  0  0  0  0
    7.0960   -0.4450  -52.5680 N   0  0  0  0  0  0  0  0  0  0  0  0
    7.8100   -1.4190  -52.0030 C   0  0  0  0  0  0  0  0  0  0  0  0
    7.4480   -1.8920  -50.7490 C   0  0  0  0  0  0  0  0  0  0  0  0
    7.8984   -3.2709  -49.1301 H   0  0  0  0  0  0  0  0  0  0  0  0
    9.8703   -4.1758  -50.3108 H   0  0  0  0  0  0  0  0  0  0  0  0
   11.1247   -2.1962  -53.7010 H   0  0  0  0  0  0  0  0  0  0  0  0
   10.4611   -0.8081  -56.5024 H   0  0  0  0  0  0  0  0  0  0  0  0
   11.9207   -0.5212  -55.7623 H   0  0  0  0  0  0  0  0  0  0  0  0
   11.5426   -2.8039  -57.5472 H   0  0  0  0  0  0  0  0  0  0  0  0
   12.6602   -3.0834  -56.3558 H   0  0  0  0  0  0  0  0  0  0  0  0
    9.5076   -3.3448  -56.2031 H   0  0  0  0  0  0  0  0  0  0  0  0
   10.4798   -4.3528  -55.3094 H   0  0  0  0  0  0  0  0  0  0  0  0
    8.3670   -0.2970  -56.4210 H   0  0  0  0  0  0  0  0  0  0  0  0
    7.9333    1.9146  -56.1058 H   0  0  0  0  0  0  0  0  0  0  0  0
    9.1048    1.9671  -54.7279 H   0  0  0  0  0  0  0  0  0  0  0  0
   10.7386    2.6443  -56.0737 H   0  0  0  0  0  0  0  0  0  0  0  0
   10.4267    1.1901  -57.1652 H   0  0  0  0  0  0  0  0  0  0  0  0
   10.7488    2.0434  -59.3538 H   0  0  0  0  0  0  0  0  0  0  0  0
    9.0510    1.4386  -59.2462 H   0  0  0  0  0  0  0  0  0  0  0  0
    9.3958    2.7895  -61.3142 H   0  0  0  0  0  0  0  0  0  0  0  0
    7.5023    4.3735  -60.9476 H   0  0  0  0  0  0  0  0  0  0  0  0
    7.1787    2.7866  -60.1614 H   0  0  0  0  0  0  0  0  0  0  0  0
    6.5810    4.6849  -58.6480 H   0  0  0  0  0  0  0  0  0  0  0  0
    8.2177    6.3331  -59.5516 H   0  0  0  0  0  0  0  0  0  0  0  0
    8.4056    6.1423  -57.7716 H   0  0  0  0  0  0  0  0  0  0  0  0
   10.6227    6.1546  -58.9173 H   0  0  0  0  0  0  0  0  0  0  0  0
    9.8573    5.2291  -61.1036 H   0  0  0  0  0  0  0  0  0  0  0  0
   11.2096    4.2533  -60.4260 H   0  0  0  0  0  0  0  0  0  0  0  0
   11.4647    4.0096  -57.9595 H   0  0  0  0  0  0  0  0  0  0  0  0
   10.2747    4.8015  -56.8527 H   0  0  0  0  0  0  0  0  0  0  0  0
    7.9312    3.9371  -56.6891 H   0  0  0  0  0  0  0  0  0  0  0  0
    7.4205    2.5349  -57.7047 H   0  0  0  0  0  0  0  0  0  0  0  0
    6.5672   -1.4689  -50.2439 H   0  0  0  0  0  0  0  0  0  0  0  0
  1  2  2  0
  2  3  1  0
  3  4  2  0
  4  5  1  0
  5  6  1  0
  6  7  1  0
  7  8  1  0
  8  9  1  0
  5 10  2  0
 10 11  1  0
 11 12  1  0
 12 13  1  0
 14 13  1  1
 14 15  1  0
 15 16  1  0
 16 17  1  0
 17 18  1  0
 18 19  1  0
 19 20  1  0
 20 21  1  0
 20 22  1  0
 18 23  1  0
 10 24  1  0
 24 25  2  0
 25 26  1  0
 26 27  2  0
 27  1  1  0
 26  4  1  0
  9  6  1  0
 22 14  1  0
 23 14  1  0
 21 16  1  0
  1 28  1  0
  2 29  1  0
  6 30  1  0
  7 31  1  0
  7 32  1  0
  8 33  1  0
  8 34  1  0
  9 35  1  0
  9 36  1  0
 11 37  1  0
 12 38  1  0
 12 39  1  0
 13 40  1  0
 13 41  1  0
 15 42  1  0
 15 43  1  0
 16 44  1  6
 17 45  1  0
 17 46  1  0
 18 47  1  1
 19 48  1  0
 19 49  1  0
 20 50  1  6
 21 51  1  0
 21 52  1  0
 22 53  1  0
 22 54  1  0
 23 55  1  0
 23 56  1  0
 27 57  1  0
M  END
>  <meeko>  (53) 
{"is_sidechain": false}

$$$$

     RDKit          3D

 57 62  0  0  0  0  0  0  0  0999 V2000
    7.8300   -2.9210  -50.0430 C   0  0  0  0  0  0  0  0  0  0  0  0
    9.0610   -3.4440  -50.6490 C   0  0  0  0  0  0  0  0  0  0  0  0
    9.6330   -3.0300  -51.7280 N   0  0  0  0  0  0  0  0  0  0  0  0
    9.0580   -1.9860  -52.4190 C   0  0  0  0  0  0  0  0  0  0  0  0
    9.5760   -1.4880  -53.5610 C   0  0  0  0  0  0  0  0  0  0  0  0
   10.8290   -1.9640  -54.2420 C   0  0  0  0  0  0  0  0  0  0  0  0
   10.5870   -2.5280  -55.6760 C   0  0  0  0  0  0  0  0  0  0  0  0
   10.7430   -3.9440  -55.0900 C   0  0  0  0  0  0  0  0  0  0  0  0
   11.5370   -3.3050  -53.9340 C   0  0  0  0  0  0  0  0  0  0  0  0
    8.8200   -0.3510  -54.2170 C   0  0  0  0  0  0  0  0  0  0  0  0
    9.3090    0.1000  -55.3290 N   0  0  0  0  0  0  0  0  0  0  0  0
    8.6800    1.2040  -56.0480 C   0  0  0  0  0  0  0  0  0  0  0  0
    9.7580    2.1540  -56.5740 C   0  0  0  0  0  0  0  0  0  0  0  0
    9.3480    3.0420  -57.7740 C   0  0  2  0  0  0  0  0  0  0  0  0
    7.8550    3.4510  -57.7110 C   0  0  0  0  0  0  0  0  0  0  0  0
    7.4930    4.3790  -58.8860 C   0  0  1  0  0  0  0  0  0  0  0  0
    8.3630    5.6440  -58.8240 C   0  0  0  0  0  0  0  0  0  0  0  0
    9.8500    5.2660  -58.9150 C   0  0  2  0  0  0  0  0  0  0  0  0
   10.1080    4.5270  -60.2370 C   0  0  0  0  0  0  0  0  0  0  0  0
    9.2470    3.2570  -60.3060 C   0  0  2  0  0  0  0  0  0  0  0  0
    7.7620    3.6460  -60.2100 C   0  0  0  0  0  0  0  0  0  0  0  0
    9.6050    2.3310  -59.1280 C   0  0  0  0  0  0  0  0  0  0  0  0
   10.2060    4.3390  -57.7420 C   0  0  0  0  0  0  0  0  0  0  0  0
    7.6760    0.1140  -53.6060 N   0  0  0  0  0  0  0  0  0  0  0  0
    7.1270   -0.3670  -52.4660 N   0  0  0  0  0  0  0  0  0  0  0  0
    7.7770   -1.3470  -51.9150 C   0  0  0  0  0  0  0  0  0  0  0  0
    7.2210   -1.9110  -50.6620 C   0  0  0  0  0  0  0  0  0  0  0  0
    7.4260   -3.3472  -49.1129 H   0  0  0  0  0  0  0  0  0  0  0  0
    9.5482   -4.2799  -50.1256 H   0  0  0  0  0  0  0  0  0  0  0  0
   11.3657   -1.0426  -53.9718 H   0  0  0  0  0  0  0  0  0  0  0  0
    9.5907   -2.3122  -56.0892 H   0  0  0  0  0  0  0  0  0  0  0  0
   11.1893   -2.1927  -56.5332 H   0  0  0  0  0  0  0  0  0  0  0  0
    9.7994   -4.4225  -54.7890 H   0  0  0  0  0  0  0  0  0  0  0  0
   11.1529   -4.7741  -55.6841 H   0  0  0  0  0  0  0  0  0  0  0  0
   11.3101   -3.7216  -52.9415 H   0  0  0  0  0  0  0  0  0  0  0  0
   12.6340   -3.3731  -53.8903 H   0  0  0  0  0  0  0  0  0  0  0  0
    8.0983    0.8066  -56.8928 H   0  0  0  0  0  0  0  0  0  0  0  0
    8.0121    1.7508  -55.3661 H   0  0  0  0  0  0  0  0  0  0  0  0
   10.0541    2.8181  -55.7486 H   0  0  0  0  0  0  0  0  0  0  0  0
   10.5691    1.5093  -56.9435 H   0  0  0  0  0  0  0  0  0  0  0  0
    7.2308    2.5466  -57.7600 H   0  0  0  0  0  0  0  0  0  0  0  0
    7.6758    3.9888  -56.7683 H   0  0  0  0  0  0  0  0  0  0  0  0
    6.4308    4.6576  -58.8226 H   0  0  0  0  0  0  0  0  0  0  0  0
    8.1036    6.3057  -59.6635 H   0  0  0  0  0  0  0  0  0  0  0  0
    8.1801    6.1609  -57.8704 H   0  0  0  0  0  0  0  0  0  0  0  0
   10.4665    6.1760  -58.8737 H   0  0  0  0  0  0  0  0  0  0  0  0
    9.8519    5.1868  -61.0791 H   0  0  0  0  0  0  0  0  0  0  0  0
   11.1702    4.2464  -60.2923 H   0  0  0  0  0  0  0  0  0  0  0  0
    9.4350    2.7354  -61.2561 H   0  0  0  0  0  0  0  0  0  0  0  0
    7.5038    4.3067  -61.0507 H   0  0  0  0  0  0  0  0  0  0  0  0
    7.1476    2.7344  -60.2483 H   0  0  0  0  0  0  0  0  0  0  0  0
    8.9868    1.4227  -59.1819 H   0  0  0  0  0  0  0  0  0  0  0  0
   10.6718    2.0711  -59.1940 H   0  0  0  0  0  0  0  0  0  0  0  0
   11.2700    4.0678  -57.8083 H   0  0  0  0  0  0  0  0  0  0  0  0
   10.0009    4.8709  -56.8012 H   0  0  0  0  0  0  0  0  0  0  0  0
    7.1540    0.8420  -54.0790 H   0  0  0  0  0  0  0  0  0  0  0  0
    6.2963   -1.4913  -50.2392 H   0  0  0  0  0  0  0  0  0  0  0  0
  1  2  1  0
  2  3  2  0
  3  4  1  0
  4  5  2  0
  5  6  1  0
  6  7  1  0
  7  8  1  0
  8  9  1  0
  5 10  1  0
 10 11  2  0
 11 12  1  0
 12 13  1  0
 14 13  1  1
 14 15  1  0
 15 16  1  0
 16 17  1  0
 17 18  1  0
 18 19  1  0
 19 20  1  0
 20 21  1  0
 20 22  1  0
 18 23  1  0
 10 24  1  0
 24 25  1  0
 25 26  2  0
 26 27  1  0
 27  1  2  0
 26  4  1  0
  9  6  1  0
 22 14  1  0
 23 14  1  0
 21 16  1  0
  1 28  1  0
  2 29  1  0
  6 30  1  0
  7 31  1  0
  7 32  1  0
  8 33  1  0
  8 34  1  0
  9 35  1  0
  9 36  1  0
 12 37  1  0
 12 38  1  0
 13 39  1  0
 13 40  1  0
 15 41  1  0
 15 42  1  0
 16 43  1  1
 17 44  1  0
 17 45  1  0
 18 46  1  6
 19 47  1  0
 19 48  1  0
 20 49  1  6
 21 50  1  0
 21 51  1  0
 22 52  1  0
 22 53  1  0
 23 54  1  0
 23 55  1  0
 24 56  1  0
 27 57  1  0
M  END
>  <meeko>  (54) 
{"is_sidechain": false}

$$$$

     RDKit          3D

 57 62  0  0  0  0  0  0  0  0999 V2000
    5.3880    2.7670  -58.1760 C   0  0  0  0  0  0  0  0  0  0  0  0
    6.7920    3.1400  -58.3970 C   0  0  0  0  0  0  0  0  0  0  0  0
    7.8230    2.7060  -57.7540 N   0  0  0  0  0  0  0  0  0  0  0  0
    7.6250    1.7860  -56.7440 C   0  0  0  0  0  0  0  0  0  0  0  0
    8.6490    1.2190  -56.0650 C   0  0  0  0  0  0  0  0  0  0  0  0
   10.0690    1.6560  -56.2170 C   0  0  0  0  0  0  0  0  0  0  0  0
   10.7470    1.4880  -57.5990 C   0  0  0  0  0  0  0  0  0  0  0  0
   11.5510    2.7680  -57.2830 C   0  0  0  0  0  0  0  0  0  0  0  0
   10.4230    3.1650  -56.3040 C   0  0  0  0  0  0  0  0  0  0  0  0
    8.2490    0.1520  -55.0710 C   0  0  0  0  0  0  0  0  0  0  0  0
    8.9430   -0.8340  -54.6050 N   0  0  0  0  0  0  0  0  0  0  0  0
   10.2680   -1.2010  -55.0740 C   0  0  0  0  0  0  0  0  0  0  0  0
   10.5130   -2.6640  -54.6850 C   0  0  0  0  0  0  0  0  0  0  0  0
   11.1780   -3.5490  -55.7690 C   0  0  2  0  0  0  0  0  0  0  0  0
   10.1440   -4.4470  -56.4950 C   0  0  0  0  0  0  0  0  0  0  0  0
   10.8390   -5.3590  -57.5230 C   0  0  1  0  0  0  0  0  0  0  0  0
   11.5680   -4.4870  -58.5590 C   0  0  0  0  0  0  0  0  0  0  0  0
   12.6210   -3.6090  -57.8620 C   0  0  2  0  0  0  0  0  0  0  0  0
   13.6350   -4.5090  -57.1410 C   0  0  0  0  0  0  0  0  0  0  0  0
   12.9160   -5.3820  -56.1010 C   0  0  2  0  0  0  0  0  0  0  0  0
   11.8620   -6.2510  -56.8040 C   0  0  0  0  0  0  0  0  0  0  0  0
   12.2180   -4.4740  -55.0770 C   0  0  0  0  0  0  0  0  0  0  0  0
   11.9200   -2.7020  -56.8330 C   0  0  0  0  0  0  0  0  0  0  0  0
    6.9510    0.1770  -54.6070 N   0  0  0  0  0  0  0  0  0  0  0  0
    5.8930    0.6480  -55.3200 N   0  0  0  0  0  0  0  0  0  0  0  0
    6.2190    1.3890  -56.3350 C   0  0  0  0  0  0  0  0  0  0  0  0
    5.1240    1.9290  -57.1740 C   0  0  0  0  0  0  0  0  0  0  0  0
    4.5849    3.1646  -58.8138 H   0  0  0  0  0  0  0  0  0  0  0  0
    6.9851    3.8687  -59.1980 H   0  0  0  0  0  0  0  0  0  0  0  0
   10.3646    1.0637  -55.3385 H   0  0  0  0  0  0  0  0  0  0  0  0
   11.3557    0.5778  -57.7040 H   0  0  0  0  0  0  0  0  0  0  0  0
   10.1598    1.3865  -58.5236 H   0  0  0  0  0  0  0  0  0  0  0  0
   12.5270    2.5895  -56.8081 H   0  0  0  0  0  0  0  0  0  0  0  0
   11.8873    3.4478  -58.0797 H   0  0  0  0  0  0  0  0  0  0  0  0
   10.7694    3.6110  -55.3601 H   0  0  0  0  0  0  0  0  0  0  0  0
    9.6701    3.9240  -56.5628 H   0  0  0  0  0  0  0  0  0  0  0  0
   10.3223   -1.0901  -56.1670 H   0  0  0  0  0  0  0  0  0  0  0  0
   11.0304   -0.5497  -54.6216 H   0  0  0  0  0  0  0  0  0  0  0  0
   11.1626   -2.6727  -53.7974 H   0  0  0  0  0  0  0  0  0  0  0  0
    9.5167   -3.0983  -54.5155 H   0  0  0  0  0  0  0  0  0  0  0  0
    9.6238   -5.0706  -55.7530 H   0  0  0  0  0  0  0  0  0  0  0  0
    9.4263   -3.8024  -57.0235 H   0  0  0  0  0  0  0  0  0  0  0  0
   10.0897   -5.9883  -58.0256 H   0  0  0  0  0  0  0  0  0  0  0  0
   12.0647   -5.1355  -59.2957 H   0  0  0  0  0  0  0  0  0  0  0  0
   10.8361   -3.8396  -59.0642 H   0  0  0  0  0  0  0  0  0  0  0  0
   13.1429   -2.9905  -58.6070 H   0  0  0  0  0  0  0  0  0  0  0  0
   14.1354   -5.1561  -57.8765 H   0  0  0  0  0  0  0  0  0  0  0  0
   14.3789   -3.8790  -56.6315 H   0  0  0  0  0  0  0  0  0  0  0  0
   13.6471   -6.0274  -55.5922 H   0  0  0  0  0  0  0  0  0  0  0  0
   12.3581   -6.9016  -57.5392 H   0  0  0  0  0  0  0  0  0  0  0  0
   11.3415   -6.8643  -56.0537 H   0  0  0  0  0  0  0  0  0  0  0  0
   11.7036   -5.1001  -54.3331 H   0  0  0  0  0  0  0  0  0  0  0  0
   12.9784   -3.8444  -54.5918 H   0  0  0  0  0  0  0  0  0  0  0  0
   12.6727   -2.0742  -56.3336 H   0  0  0  0  0  0  0  0  0  0  0  0
   11.1857   -2.0739  -57.3587 H   0  0  0  0  0  0  0  0  0  0  0  0
    6.7550   -0.6060  -53.9850 H   0  0  0  0  0  0  0  0  0  0  0  0
    4.0840    1.6357  -56.9681 H   0  0  0  0  0  0  0  0  0  0  0  0
  1  2  1  0
  2  3  2  0
  3  4  1  0
  4  5  2  0
  5  6  1  0
  6  7  1  0
  7  8  1  0
  8  9  1  0
  5 10  1  0
 10 11  2  0
 11 12  1  0
 12 13  1  0
 14 13  1  1
 14 15  1  0
 15 16  1  0
 16 17  1  0
 17 18  1  0
 18 19  1  0
 19 20  1  0
 20 21  1  0
 20 22  1  0
 18 23  1  0
 10 24  1  0
 24 25  1  0
 25 26  2  0
 26 27  1  0
 27  1  2  0
 26  4  1  0
  9  6  1  0
 22 14  1  0
 23 14  1  0
 21 16  1  0
  1 28  1  0
  2 29  1  0
  6 30  1  0
  7 31  1  0
  7 32  1  0
  8 33  1  0
  8 34  1  0
  9 35  1  0
  9 36  1  0
 12 37  1  0
 12 38  1  0
 13 39  1  0
 13 40  1  0
 15 41  1  0
 15 42  1  0
 16 43  1  6
 17 44  1  0
 17 45  1  0
 18 46  1  6
 19 47  1  0
 19 48  1  0
 20 49  1  1
 21 50  1  0
 21 51  1  0
 22 52  1  0
 22 53  1  0
 23 54  1  0
 23 55  1  0
 24 56  1  0
 27 57  1  0
M  END
>  <meeko>  (55) 
{"is_sidechain": false}

$$$$

     RDKit          3D

 57 62  0  0  0  0  0  0  0  0999 V2000
    7.8460   -2.6720  -50.0220 C   0  0  0  0  0  0  0  0  0  0  0  0
    8.7900   -3.4180  -50.6110 C   0  0  0  0  0  0  0  0  0  0  0  0
    9.2260   -3.1620  -51.8900 N   0  0  0  0  0  0  0  0  0  0  0  0
    8.7820   -2.0810  -52.6500 C   0  0  0  0  0  0  0  0  0  0  0  0
    9.2390   -1.6950  -53.8570 C   0  0  0  0  0  0  0  0  0  0  0  0
   10.3090   -2.3860  -54.6410 C   0  0  0  0  0  0  0  0  0  0  0  0
   11.4720   -3.0610  -53.8790 C   0  0  0  0  0  0  0  0  0  0  0  0
   11.4610   -4.1590  -54.9640 C   0  0  0  0  0  0  0  0  0  0  0  0
   10.0090   -3.7540  -55.2970 C   0  0  0  0  0  0  0  0  0  0  0  0
    8.6740   -0.4220  -54.4080 C   0  0  0  0  0  0  0  0  0  0  0  0
    9.2730    0.1890  -55.3770 N   0  0  0  0  0  0  0  0  0  0  0  0
    8.6870    1.4240  -55.9070 C   0  0  0  0  0  0  0  0  0  0  0  0
    9.7890    2.2740  -56.5460 C   0  0  0  0  0  0  0  0  0  0  0  0
    9.3670    3.1150  -57.7760 C   0  0  2  0  0  0  0  0  0  0  0  0
    7.8630    3.4870  -57.7290 C   0  0  0  0  0  0  0  0  0  0  0  0
    7.4820    4.3730  -58.9290 C   0  0  1  0  0  0  0  0  0  0  0  0
    8.3180    5.6610  -58.8990 C   0  0  0  0  0  0  0  0  0  0  0  0
    9.8140    5.3180  -58.9740 C   0  0  2  0  0  0  0  0  0  0  0  0
   10.0970    4.5510  -60.2750 C   0  0  0  0  0  0  0  0  0  0  0  0
    9.2690    3.2570  -60.3130 C   0  0  2  0  0  0  0  0  0  0  0  0
    7.7740    3.6100  -60.2320 C   0  0  0  0  0  0  0  0  0  0  0  0
    9.6450    2.3740  -59.1090 C   0  0  0  0  0  0  0  0  0  0  0  0
   10.1900    4.4330  -57.7750 C   0  0  0  0  0  0  0  0  0  0  0  0
    7.5040    0.0640  -53.8750 N   0  0  0  0  0  0  0  0  0  0  0  0
    7.0980   -0.3050  -52.7560 N   0  0  0  0  0  0  0  0  0  0  0  0
    7.7010   -1.2890  -52.0280 C   0  0  0  0  0  0  0  0  0  0  0  0
    7.2680   -1.5810  -50.7830 C   0  0  0  0  0  0  0  0  0  0  0  0
    7.5192   -2.8805  -48.9926 H   0  0  0  0  0  0  0  0  0  0  0  0
    9.2292   -4.2598  -50.0555 H   0  0  0  0  0  0  0  0  0  0  0  0
   10.0080   -3.7080  -52.2250 H   0  0  0  0  0  0  0  0  0  0  0  0
   10.4725   -1.4907  -55.2589 H   0  0  0  0  0  0  0  0  0  0  0  0
   12.3974   -2.4679  -53.8366 H   0  0  0  0  0  0  0  0  0  0  0  0
   11.3965   -3.3056  -52.8092 H   0  0  0  0  0  0  0  0  0  0  0  0
   12.1779   -3.9976  -55.7825 H   0  0  0  0  0  0  0  0  0  0  0  0
   11.7228   -5.2003  -54.7252 H   0  0  0  0  0  0  0  0  0  0  0  0
    9.7814   -3.7067  -56.3722 H   0  0  0  0  0  0  0  0  0  0  0  0
    9.1518   -4.3687  -54.9851 H   0  0  0  0  0  0  0  0  0  0  0  0
    7.9290    1.1754  -56.6644 H   0  0  0  0  0  0  0  0  0  0  0  0
    8.2144    1.9879  -55.0893 H   0  0  0  0  0  0  0  0  0  0  0  0
   10.1687    2.9653  -55.7793 H   0  0  0  0  0  0  0  0  0  0  0  0
   10.5387    1.5596  -56.9169 H   0  0  0  0  0  0  0  0  0  0  0  0
    7.2625    2.5658  -57.7557 H   0  0  0  0  0  0  0  0  0  0  0  0
    7.6663    4.0451  -56.8017 H   0  0  0  0  0  0  0  0  0  0  0  0
    6.4129    4.6267  -58.8765 H   0  0  0  0  0  0  0  0  0  0  0  0
    8.0455    6.2923  -59.7576 H   0  0  0  0  0  0  0  0  0  0  0  0
    8.1175    6.2000  -57.9613 H   0  0  0  0  0  0  0  0  0  0  0  0
   10.4066    6.2446  -58.9547 H   0  0  0  0  0  0  0  0  0  0  0  0
    9.8276    5.1812  -61.1354 H   0  0  0  0  0  0  0  0  0  0  0  0
   11.1663    4.2968  -60.3190 H   0  0  0  0  0  0  0  0  0  0  0  0
    9.4745    2.7151  -61.2480 H   0  0  0  0  0  0  0  0  0  0  0  0
    7.5017    4.2400  -61.0916 H   0  0  0  0  0  0  0  0  0  0  0  0
    7.1833    2.6822  -60.2465 H   0  0  0  0  0  0  0  0  0  0  0  0
    9.0491    1.4499  -59.1392 H   0  0  0  0  0  0  0  0  0  0  0  0
   10.7181    2.1390  -59.1651 H   0  0  0  0  0  0  0  0  0  0  0  0
   11.2610    4.1884  -57.8303 H   0  0  0  0  0  0  0  0  0  0  0  0
    9.9679    4.9841  -56.8493 H   0  0  0  0  0  0  0  0  0  0  0  0
    6.4616   -0.9801  -50.3374 H   0  0  0  0  0  0  0  0  0  0  0  0
  1  2  2  0
  2  3  1  0
  3  4  1  0
  4  5  2  0
  5  6  1  0
  6  7  1  0
  7  8  1  0
  8  9  1  0
  5 10  1  0
 10 11  2  0
 11 12  1  0
 12 13  1  0
 14 13  1  1
 14 15  1  0
 15 16  1  0
 16 17  1  0
 17 18  1  0
 18 19  1  0
 19 20  1  0
 20 21  1  0
 20 22  1  0
 18 23  1  0
 10 24  1  0
 24 25  2  0
 25 26  1  0
 26 27  2  0
 27  1  1  0
 26  4  1  0
  9  6  1  0
 22 14  1  0
 23 14  1  0
 21 16  1  0
  1 28  1  0
  2 29  1  0
  3 30  1  0
  6 31  1  0
  7 32  1  0
  7 33  1  0
  8 34  1  0
  8 35  1  0
  9 36  1  0
  9 37  1  0
 12 38  1  0
 12 39  1  0
 13 40  1  0
 13 41  1  0
 15 42  1  0
 15 43  1  0
 16 44  1  1
 17 45  1  0
 17 46  1  0
 18 47  1  6
 19 48  1  0
 19 49  1  0
 20 50  1  6
 21 51  1  0
 21 52  1  0
 22 53  1  0
 22 54  1  0
 23 55  1  0
 23 56  1  0
 27 57  1  0
M  END
>  <meeko>  (56) 
{"is_sidechain": false}

$$$$

     RDKit          3D

 57 62  0  0  0  0  0  0  0  0999 V2000
    9.8210    3.4540  -61.5020 C   0  0  0  0  0  0  0  0  0  0  0  0
    8.7780    2.6090  -61.5100 C   0  0  0  0  0  0  0  0  0  0  0  0
    8.0230    2.3660  -60.3830 N   0  0  0  0  0  0  0  0  0  0  0  0
    8.3810    2.8690  -59.1350 C   0  0  0  0  0  0  0  0  0  0  0  0
    7.8530    2.5210  -57.9460 C   0  0  0  0  0  0  0  0  0  0  0  0
    6.6690    1.6310  -57.8060 C   0  0  0  0  0  0  0  0  0  0  0  0
    5.5710    1.7450  -58.9110 C   0  0  0  0  0  0  0  0  0  0  0  0
    4.8210    2.7380  -58.0110 C   0  0  0  0  0  0  0  0  0  0  0  0
    5.5570    2.1090  -56.8180 C   0  0  0  0  0  0  0  0  0  0  0  0
    8.6980    2.9730  -56.8040 C   0  0  0  0  0  0  0  0  0  0  0  0
    9.1470    2.3240  -55.7970 N   0  0  0  0  0  0  0  0  0  0  0  0
    8.9930    0.8910  -55.6270 C   0  0  0  0  0  0  0  0  0  0  0  0
    7.9840    0.5320  -54.5300 C   0  0  0  0  0  0  0  0  0  0  0  0
    8.1430   -0.8270  -53.7960 C   0  0  2  0  0  0  0  0  0  0  0  0
    7.2670   -1.8740  -54.5460 C   0  0  0  0  0  0  0  0  0  0  0  0
    7.3560   -3.2550  -53.8780 C   0  0  1  0  0  0  0  0  0  0  0  0
    8.8160   -3.7280  -53.8970 C   0  0  0  0  0  0  0  0  0  0  0  0
    9.6990   -2.7300  -53.1340 C   0  0  2  0  0  0  0  0  0  0  0  0
    9.2060   -2.6230  -51.6810 C   0  0  0  0  0  0  0  0  0  0  0  0
    7.7460   -2.1410  -51.6550 C   0  0  2  0  0  0  0  0  0  0  0  0
    6.8700   -3.1420  -52.4250 C   0  0  0  0  0  0  0  0  0  0  0  0
    7.6560   -0.7580  -52.3280 C   0  0  0  0  0  0  0  0  0  0  0  0
    9.6040   -1.3440  -53.8010 C   0  0  0  0  0  0  0  0  0  0  0  0
    9.0960    4.2890  -56.9030 N   0  0  0  0  0  0  0  0  0  0  0  0
    9.6020    4.6470  -57.9970 N   0  0  0  0  0  0  0  0  0  0  0  0
    9.4500    3.8900  -59.1350 C   0  0  0  0  0  0  0  0  0  0  0  0
   10.1290    4.1590  -60.2690 C   0  0  0  0  0  0  0  0  0  0  0  0
   10.4276    3.6090  -62.4064 H   0  0  0  0  0  0  0  0  0  0  0  0
    8.5175    2.0939  -62.4464 H   0  0  0  0  0  0  0  0  0  0  0  0
    7.3770    1.5870  -60.4170 H   0  0  0  0  0  0  0  0  0  0  0  0
    7.2514    0.7115  -57.6468 H   0  0  0  0  0  0  0  0  0  0  0  0
    5.9251    2.1710  -59.8613 H   0  0  0  0  0  0  0  0  0  0  0  0
    5.0714    0.8503  -59.3110 H   0  0  0  0  0  0  0  0  0  0  0  0
    5.0628    3.7955  -58.1934 H   0  0  0  0  0  0  0  0  0  0  0  0
    3.7247    2.8254  -58.0337 H   0  0  0  0  0  0  0  0  0  0  0  0
    5.8998    2.8318  -56.0629 H   0  0  0  0  0  0  0  0  0  0  0  0
    5.0503    1.4011  -56.1456 H   0  0  0  0  0  0  0  0  0  0  0  0
    8.6482    0.4586  -56.5779 H   0  0  0  0  0  0  0  0  0  0  0  0
    9.9700    0.4845  -55.3267 H   0  0  0  0  0  0  0  0  0  0  0  0
    8.0387    1.3222  -53.7667 H   0  0  0  0  0  0  0  0  0  0  0  0
    7.0262    0.4407  -55.0632 H   0  0  0  0  0  0  0  0  0  0  0  0
    6.2196   -1.5379  -54.5367 H   0  0  0  0  0  0  0  0  0  0  0  0
    7.6373   -1.9622  -55.5780 H   0  0  0  0  0  0  0  0  0  0  0  0
    6.7284   -3.9774  -54.4205 H   0  0  0  0  0  0  0  0  0  0  0  0
    8.8855   -4.7162  -53.4188 H   0  0  0  0  0  0  0  0  0  0  0  0
    9.1616   -3.7940  -54.9392 H   0  0  0  0  0  0  0  0  0  0  0  0
   10.7425   -3.0777  -53.1503 H   0  0  0  0  0  0  0  0  0  0  0  0
    9.2723   -3.6101  -51.2002 H   0  0  0  0  0  0  0  0  0  0  0  0
    9.8343   -1.9010  -51.1388 H   0  0  0  0  0  0  0  0  0  0  0  0
    7.3961   -2.0679  -50.6147 H   0  0  0  0  0  0  0  0  0  0  0  0
    6.9329   -4.1282  -51.9419 H   0  0  0  0  0  0  0  0  0  0  0  0
    5.8279   -2.7898  -52.4188 H   0  0  0  0  0  0  0  0  0  0  0  0
    6.6106   -0.4161  -52.3107 H   0  0  0  0  0  0  0  0  0  0  0  0
    8.2983   -0.0556  -51.7766 H   0  0  0  0  0  0  0  0  0  0  0  0
   10.2389   -0.6347  -53.2498 H   0  0  0  0  0  0  0  0  0  0  0  0
    9.9422   -1.4319  -54.8440 H   0  0  0  0  0  0  0  0  0  0  0  0
   10.9237    4.9195  -60.2605 H   0  0  0  0  0  0  0  0  0  0  0  0
  1  2  2  0
  2  3  1  0
  3  4  1  0
  4  5  2  0
  5  6  1  0
  6  7  1  0
  7  8  1  0
  8  9  1  0
  5 10  1  0
 10 11  2  0
 11 12  1  0
 12 13  1  0
 14 13  1  6
 14 15  1  0
 15 16  1  0
 16 17  1  0
 17 18  1  0
 18 19  1  0
 19 20  1  0
 20 21  1  0
 20 22  1  0
 18 23  1  0
 10 24  1  0
 24 25  2  0
 25 26  1  0
 26 27  2  0
 27  1  1  0
 26  4  1  0
  9  6  1  0
 22 14  1  0
 23 14  1  0
 21 16  1  0
  1 28  1  0
  2 29  1  0
  3 30  1  0
  6 31  1  0
  7 32  1  0
  7 33  1  0
  8 34  1  0
  8 35  1  0
  9 36  1  0
  9 37  1  0
 12 38  1  0
 12 39  1  0
 13 40  1  0
 13 41  1  0
 15 42  1  0
 15 43  1  0
 16 44  1  6
 17 45  1  0
 17 46  1  0
 18 47  1  1
 19 48  1  0
 19 49  1  0
 20 50  1  1
 21 51  1  0
 21 52  1  0
 22 53  1  0
 22 54  1  0
 23 55  1  0
 23 56  1  0
 27 57  1  0
M  END
>  <meeko>  (57) 
{"is_sidechain": false}

$$$$

     RDKit          3D

 32 34  0  0  0  0  0  0  0  0999 V2000
    8.5160    0.4820  -54.5530 C   0  0  0  0  0  0  0  0  0  0  0  0
    8.4490    1.4210  -55.7590 C   0  0  2  0  0  0  0  0  0  0  0  0
    7.1390    1.1790  -56.5340 C   0  0  0  0  0  0  0  0  0  0  0  0
    6.0330    2.6140  -56.7570 S   0  0  0  0  0  0  0  0  0  0  0  0
    5.3750    2.3550  -58.3470 C   0  0  0  0  0  0  0  0  0  0  0  0
    6.1840    2.2970  -59.4510 N   0  0  0  0  0  0  0  0  0  0  0  0
    5.3230    2.1760  -60.4350 C   0  0  0  0  0  0  0  0  0  0  0  0
    5.4580    2.1090  -61.7810 N   0  0  0  0  0  0  0  0  0  0  0  0
    4.4220    2.0390  -62.4950 N   0  0  0  0  0  0  0  0  0  0  0  0
    3.1750    2.0280  -61.8910 C   0  0  0  0  0  0  0  0  0  0  0  0
    2.9200    2.0720  -60.6170 N   0  0  0  0  0  0  0  0  0  0  0  0
    4.0580    2.1430  -59.9160 N   0  0  0  0  0  0  0  0  0  0  0  0
    4.0670    2.2320  -58.5820 N   0  0  0  0  0  0  0  0  0  0  0  0
    9.5940    1.1210  -56.5770 O   0  0  0  0  0  0  0  0  0  0  0  0
   10.0280    2.1470  -57.3720 C   0  0  0  0  0  0  0  0  0  0  0  0
   10.8450    3.0950  -56.7610 C   0  0  0  0  0  0  0  0  0  0  0  0
   11.3720    4.1520  -57.5060 C   0  0  0  0  0  0  0  0  0  0  0  0
   11.0690    4.2740  -58.8650 C   0  0  0  0  0  0  0  0  0  0  0  0
   11.8630    5.7170  -59.8090 Br  0  0  0  0  0  0  0  0  0  0  0  0
   10.2130    3.3450  -59.4680 C   0  0  0  0  0  0  0  0  0  0  0  0
    9.7480    3.4100  -61.3090 Br  0  0  0  0  0  0  0  0  0  0  0  0
    9.6770    2.2950  -58.7140 C   0  0  0  0  0  0  0  0  0  0  0  0
    8.4739    1.0724  -53.6258 H   0  0  0  0  0  0  0  0  0  0  0  0
    7.6653   -0.2147  -54.5830 H   0  0  0  0  0  0  0  0  0  0  0  0
    9.4570   -0.0868  -54.5830 H   0  0  0  0  0  0  0  0  0  0  0  0
    8.4602    2.4777  -55.4535 H   0  0  0  0  0  0  0  0  0  0  0  0
    7.4084    0.8087  -57.5342 H   0  0  0  0  0  0  0  0  0  0  0  0
    6.5677    0.4704  -55.9164 H   0  0  0  0  0  0  0  0  0  0  0  0
    2.3057    1.9764  -62.5630 H   0  0  0  0  0  0  0  0  0  0  0  0
   11.0758    3.0109  -55.6888 H   0  0  0  0  0  0  0  0  0  0  0  0
   12.0276    4.8908  -57.0219 H   0  0  0  0  0  0  0  0  0  0  0  0
    8.9778    1.5852  -59.1802 H   0  0  0  0  0  0  0  0  0  0  0  0
  1  2  1  0
  2  3  1  0
  3  4  1  0
  4  5  1  0
  5  6  1  0
  6  7  2  0
  7  8  1  0
  8  9  2  0
  9 10  1  0
 10 11  2  0
 11 12  1  0
 12 13  1  0
  2 14  1  0
 14 15  1  0
 15 16  1  0
 16 17  2  0
 17 18  1  0
 18 19  1  0
 18 20  2  0
 20 21  1  0
 20 22  1  0
 13  5  2  0
 22 15  2  0
 12  7  1  0
  1 23  1  0
  1 24  1  0
  1 25  1  0
  2 26  1  1
  3 27  1  0
  3 28  1  0
 10 29  1  0
 16 30  1  0
 17 31  1  0
 22 32  1  0
M  END
>  <meeko>  (58) 
{"is_sidechain": false}

$$$$

     RDKit          3D

 54 56  0  0  0  0  0  0  0  0999 V2000
    7.1020    1.5000  -56.4630 C   0  0  0  0  0  0  0  0  0  0  0  0
    8.4860    1.3630  -56.0190 N   0  0  0  0  0  0  0  0  0  0  0  0
    8.9020    0.4220  -55.0830 C   0  0  0  0  0  0  0  0  0  0  0  0
    8.5100    0.3980  -53.9210 O   0  0  0  0  0  0  0  0  0  0  0  0
    9.8190   -0.4840  -55.5590 N   0  0  0  0  0  0  0  0  0  0  0  0
   10.3560   -1.4920  -54.6640 C   0  0  0  0  0  0  0  0  0  0  0  0
   11.0740   -2.6400  -55.3910 C   0  0  0  0  0  0  0  0  0  0  0  0
   10.2170   -3.9160  -55.4330 C   0  0  0  0  0  0  0  0  0  0  0  0
   10.9530   -5.0600  -56.1300 C   0  0  0  0  0  0  0  0  0  0  0  0
   11.4230   -4.6620  -57.5250 C   0  0  0  0  0  0  0  0  0  0  0  0
   12.2680   -3.3920  -57.4930 C   0  0  0  0  0  0  0  0  0  0  0  0
   11.5330   -2.2440  -56.8030 C   0  0  0  0  0  0  0  0  0  0  0  0
    9.3920    2.4620  -56.4020 C   0  0  2  0  0  0  0  0  0  0  0  0
    8.6450    3.7810  -56.7250 C   0  0  0  0  0  0  0  0  0  0  0  0
    9.4880    4.7480  -57.5830 C   0  0  2  0  0  0  0  0  0  0  0  0
    9.2080    4.5340  -59.0930 C   0  0  0  0  0  0  0  0  0  0  0  0
   10.4810    4.4370  -59.9360 C   0  0  2  0  0  0  0  0  0  0  0  0
   10.1340    4.1600  -61.2870 O   0  0  0  0  0  0  0  0  0  0  0  0
   11.4520    3.3660  -59.4090 C   0  0  0  0  0  0  0  0  0  0  0  0
   11.3890    3.2020  -57.8750 C   0  0  1  0  0  0  0  0  0  0  0  0
   10.9690    4.5380  -57.2550 C   0  0  0  0  0  0  0  0  0  0  0  0
   10.4110    2.0590  -57.4860 C   0  0  0  0  0  0  0  0  0  0  0  0
    6.4405    1.5655  -55.5865 H   0  0  0  0  0  0  0  0  0  0  0  0
    6.9998    2.4127  -57.0685 H   0  0  0  0  0  0  0  0  0  0  0  0
    6.8229    0.6251  -57.0685 H   0  0  0  0  0  0  0  0  0  0  0  0
   10.4880   -0.0530  -56.1770 H   0  0  0  0  0  0  0  0  0  0  0  0
   11.0732   -1.0077  -53.9850 H   0  0  0  0  0  0  0  0  0  0  0  0
    9.5038   -1.9333  -54.1264 H   0  0  0  0  0  0  0  0  0  0  0  0
   11.9773   -2.8576  -54.8021 H   0  0  0  0  0  0  0  0  0  0  0  0
    9.9768   -4.2198  -54.4034 H   0  0  0  0  0  0  0  0  0  0  0  0
    9.2999   -3.6983  -56.0000 H   0  0  0  0  0  0  0  0  0  0  0  0
   11.8281   -5.3412  -55.5258 H   0  0  0  0  0  0  0  0  0  0  0  0
   10.2557   -5.9047  -56.2314 H   0  0  0  0  0  0  0  0  0  0  0  0
   12.0252   -5.4807  -57.9457 H   0  0  0  0  0  0  0  0  0  0  0  0
   10.5350   -4.4684  -58.1446 H   0  0  0  0  0  0  0  0  0  0  0  0
   13.2008   -3.5976  -56.9474 H   0  0  0  0  0  0  0  0  0  0  0  0
   12.4773   -3.0920  -58.5304 H   0  0  0  0  0  0  0  0  0  0  0  0
   12.2086   -1.3790  -56.7302 H   0  0  0  0  0  0  0  0  0  0  0  0
   10.6427   -1.9951  -57.3992 H   0  0  0  0  0  0  0  0  0  0  0  0
    9.9910    2.6761  -55.5046 H   0  0  0  0  0  0  0  0  0  0  0  0
    7.7223    3.5380  -57.2724 H   0  0  0  0  0  0  0  0  0  0  0  0
    8.4311    4.2841  -55.7705 H   0  0  0  0  0  0  0  0  0  0  0  0
    9.2112    5.7864  -57.3484 H   0  0  0  0  0  0  0  0  0  0  0  0
    8.6373    3.6014  -59.2137 H   0  0  0  0  0  0  0  0  0  0  0  0
    8.6476    5.4114  -59.4483 H   0  0  0  0  0  0  0  0  0  0  0  0
   11.0011    5.4040  -59.8700 H   0  0  0  0  0  0  0  0  0  0  0  0
   10.2550    3.2060  -61.4330 H   0  0  0  0  0  0  0  0  0  0  0  0
   11.1993    2.4026  -59.8759 H   0  0  0  0  0  0  0  0  0  0  0  0
   12.4717    3.6894  -59.6653 H   0  0  0  0  0  0  0  0  0  0  0  0
   12.3796    2.9231  -57.4866 H   0  0  0  0  0  0  0  0  0  0  0  0
   11.1124    4.5084  -56.1648 H   0  0  0  0  0  0  0  0  0  0  0  0
   11.5771    5.3617  -57.6572 H   0  0  0  0  0  0  0  0  0  0  0  0
    9.8583    1.7526  -58.3863 H   0  0  0  0  0  0  0  0  0  0  0  0
   11.0186    1.2417  -57.0702 H   0  0  0  0  0  0  0  0  0  0  0  0
  1  2  1  0
  2  3  1  0
  3  4  2  0
  3  5  1  0
  5  6  1  0
  6  7  1  0
  7  8  1  0
  8  9  1  0
  9 10  1  0
 10 11  1  0
 11 12  1  0
  2 13  1  0
 13 14  1  0
 14 15  1  0
 15 16  1  0
 16 17  1  0
 17 18  1  0
 17 19  1  0
 19 20  1  0
 20 21  1  0
 20 22  1  0
 12  7  1  0
 22 13  1  0
 21 15  1  0
  1 23  1  0
  1 24  1  0
  1 25  1  0
  5 26  1  0
  6 27  1  0
  6 28  1  0
  7 29  1  0
  8 30  1  0
  8 31  1  0
  9 32  1  0
  9 33  1  0
 10 34  1  0
 10 35  1  0
 11 36  1  0
 11 37  1  0
 12 38  1  0
 12 39  1  0
 13 40  1  1
 14 41  1  0
 14 42  1  0
 15 43  1  1
 16 44  1  0
 16 45  1  0
 17 46  1  6
 18 47  1  0
 19 48  1  0
 19 49  1  0
 20 50  1  1
 21 51  1  0
 21 52  1  0
 22 53  1  0
 22 54  1  0
M  END
>  <meeko>  (59) 
{"is_sidechain": false}

$$$$

     RDKit          3D

 33 35  0  0  0  0  0  0  0  0999 V2000
    7.8810    4.1240  -60.2550 F   0  0  0  0  0  0  0  0  0  0  0  0
    7.9570    2.9370  -60.9180 C   0  0  0  0  0  0  0  0  0  0  0  0
    8.4090    2.0180  -60.0320 F   0  0  0  0  0  0  0  0  0  0  0  0
    8.9230    3.0950  -61.8600 F   0  0  0  0  0  0  0  0  0  0  0  0
    6.6640    2.5900  -61.5250 C   0  0  0  0  0  0  0  0  0  0  0  0
    6.2430    2.7820  -62.7610 N   0  0  0  0  0  0  0  0  0  0  0  0
    4.9680    2.2790  -62.8150 N   0  0  0  0  0  0  0  0  0  0  0  0
    4.6060    1.7840  -61.6420 N   0  0  0  0  0  0  0  0  0  0  0  0
    5.6620    1.9690  -60.8360 N   0  0  0  0  0  0  0  0  0  0  0  0
    5.5980    1.5400  -59.4580 C   0  0  0  0  0  0  0  0  0  0  0  0
    5.1920    2.6400  -58.4770 C   0  0  0  0  0  0  0  0  0  0  0  0
    5.5280    2.2990  -57.0250 C   0  0  0  0  0  0  0  0  0  0  0  0
    6.9470    2.3970  -56.7590 N   0  0  0  0  0  0  0  0  0  0  0  0
    7.7750    3.4540  -56.9840 C   0  0  0  0  0  0  0  0  0  0  0  0
    9.0110    3.0010  -56.5710 C   0  0  0  0  0  0  0  0  0  0  0  0
   10.3310    3.6690  -56.5780 C   0  0  0  0  0  0  0  0  0  0  0  0
   10.6350    4.1560  -57.9030 N   0  0  0  0  0  0  0  0  0  0  0  0
   10.4640    5.4040  -58.4090 C   0  0  0  0  0  0  0  0  0  0  0  0
   10.8450    5.3960  -59.6660 N   0  0  0  0  0  0  0  0  0  0  0  0
   11.2560    4.1090  -59.9260 N   0  0  0  0  0  0  0  0  0  0  0  0
   11.1270    3.3420  -58.8530 N   0  0  0  0  0  0  0  0  0  0  0  0
    8.8820    1.7170  -56.1070 N   0  0  0  0  0  0  0  0  0  0  0  0
    7.6120    1.3600  -56.2280 N   0  0  0  0  0  0  0  0  0  0  0  0
    4.8638    0.7242  -59.3845 H   0  0  0  0  0  0  0  0  0  0  0  0
    6.6141    1.2258  -59.1774 H   0  0  0  0  0  0  0  0  0  0  0  0
    5.7191    3.5659  -58.7507 H   0  0  0  0  0  0  0  0  0  0  0  0
    4.1000    2.7542  -58.5441 H   0  0  0  0  0  0  0  0  0  0  0  0
    4.9938    2.9970  -56.3636 H   0  0  0  0  0  0  0  0  0  0  0  0
    5.2189    1.2597  -56.8401 H   0  0  0  0  0  0  0  0  0  0  0  0
    7.5182    4.4400  -57.3987 H   0  0  0  0  0  0  0  0  0  0  0  0
   10.3143    4.5147  -55.8748 H   0  0  0  0  0  0  0  0  0  0  0  0
   11.1019    2.9450  -56.2754 H   0  0  0  0  0  0  0  0  0  0  0  0
   10.0731    6.2734  -57.8601 H   0  0  0  0  0  0  0  0  0  0  0  0
  1  2  1  0
  2  3  1  0
  2  4  1  0
  2  5  1  0
  5  6  2  0
  6  7  1  0
  7  8  2  0
  8  9  1  0
  9 10  1  0
 10 11  1  0
 11 12  1  0
 12 13  1  0
 13 14  1  0
 14 15  2  0
 15 16  1  0
 16 17  1  0
 17 18  1  0
 18 19  2  0
 19 20  1  0
 20 21  2  0
 15 22  1  0
 22 23  2  0
  9  5  1  0
 23 13  1  0
 21 17  1  0
 10 24  1  0
 10 25  1  0
 11 26  1  0
 11 27  1  0
 12 28  1  0
 12 29  1  0
 14 30  1  0
 16 31  1  0
 16 32  1  0
 18 33  1  0
M  END
>  <meeko>  (60) 
{"is_sidechain": false}

$$$$

     RDKit          3D

 46 50  0  0  0  0  0  0  0  0999 V2000
    6.8000    1.0980  -59.9340 C   0  0  0  0  0  0  0  0  0  0  0  0
    5.6520    1.9550  -59.8130 N   0  0  0  0  0  0  0  0  0  0  0  0
    4.9490    2.2790  -58.6540 C   0  0  0  0  0  0  0  0  0  0  0  0
    5.5130    2.3230  -57.4220 N   0  0  0  0  0  0  0  0  0  0  0  0
    6.8530    2.7600  -57.0920 C   0  0  0  0  0  0  0  0  0  0  0  0
    7.2790    4.0570  -57.7890 C   0  0  0  0  0  0  0  0  0  0  0  0
    8.7090    4.1460  -58.3900 C   0  0  2  0  0  0  0  0  0  0  0  0
    9.5490    5.2760  -57.7430 C   0  0  0  0  0  0  0  0  0  0  0  0
   10.9850    5.2770  -58.2990 C   0  0  1  0  0  0  0  0  0  0  0  0
   11.6520    3.9280  -57.9960 C   0  0  0  0  0  0  0  0  0  0  0  0
   10.8590    2.7900  -58.6570 C   0  0  2  0  0  0  0  0  0  0  0  0
   10.8110    3.0120  -60.1750 C   0  0  0  0  0  0  0  0  0  0  0  0
   10.1390    4.3580  -60.4850 C   0  0  2  0  0  0  0  0  0  0  0  0
   10.9400    5.4890  -59.8210 C   0  0  0  0  0  0  0  0  0  0  0  0
    8.7050    4.3580  -59.9250 C   0  0  0  0  0  0  0  0  0  0  0  0
    9.4250    2.7920  -58.1040 C   0  0  0  0  0  0  0  0  0  0  0  0
    3.6590    2.5370  -58.8310 N   0  0  0  0  0  0  0  0  0  0  0  0
    3.5700    2.3410  -60.1660 N   0  0  0  0  0  0  0  0  0  0  0  0
    2.5330    2.3500  -60.9940 N   0  0  0  0  0  0  0  0  0  0  0  0
    3.1470    1.9510  -62.1250 C   0  0  0  0  0  0  0  0  0  0  0  0
    4.5050    1.6810  -62.0360 N   0  0  0  0  0  0  0  0  0  0  0  0
    4.7170    1.9610  -60.7820 C   0  0  0  0  0  0  0  0  0  0  0  0
    7.1627    0.8272  -58.9314 H   0  0  0  0  0  0  0  0  0  0  0  0
    6.5205    0.1858  -60.4816 H   0  0  0  0  0  0  0  0  0  0  0  0
    7.5951    1.6253  -60.4816 H   0  0  0  0  0  0  0  0  0  0  0  0
    4.8250    2.5920  -56.7230 H   0  0  0  0  0  0  0  0  0  0  0  0
    6.9064    2.9187  -56.0048 H   0  0  0  0  0  0  0  0  0  0  0  0
    7.5377    1.9731  -57.4413 H   0  0  0  0  0  0  0  0  0  0  0  0
    6.5704    4.2299  -58.6124 H   0  0  0  0  0  0  0  0  0  0  0  0
    7.2811    4.8053  -56.9827 H   0  0  0  0  0  0  0  0  0  0  0  0
    9.0774    6.2457  -57.9606 H   0  0  0  0  0  0  0  0  0  0  0  0
    9.5916    5.1059  -56.6571 H   0  0  0  0  0  0  0  0  0  0  0  0
   11.5610    6.0870  -57.8276 H   0  0  0  0  0  0  0  0  0  0  0  0
   12.6792    3.9328  -58.3896 H   0  0  0  0  0  0  0  0  0  0  0  0
   11.6706    3.7706  -56.9075 H   0  0  0  0  0  0  0  0  0  0  0  0
   11.3456    1.8274  -58.4410 H   0  0  0  0  0  0  0  0  0  0  0  0
   11.8354    3.0148  -60.5759 H   0  0  0  0  0  0  0  0  0  0  0  0
   10.2316    2.2017  -60.6416 H   0  0  0  0  0  0  0  0  0  0  0  0
   10.1093    4.5112  -61.5739 H   0  0  0  0  0  0  0  0  0  0  0  0
   11.9655    5.4916  -60.2190 H   0  0  0  0  0  0  0  0  0  0  0  0
   10.4537    6.4516  -60.0376 H   0  0  0  0  0  0  0  0  0  0  0  0
    8.2294    5.3231  -60.1537 H   0  0  0  0  0  0  0  0  0  0  0  0
    8.1463    3.5333  -60.3915 H   0  0  0  0  0  0  0  0  0  0  0  0
    8.8567    1.9789  -58.5793 H   0  0  0  0  0  0  0  0  0  0  0  0
    9.4732    2.6485  -57.0145 H   0  0  0  0  0  0  0  0  0  0  0  0
    2.5985    1.8445  -63.0725 H   0  0  0  0  0  0  0  0  0  0  0  0
  1  2  1  0
  2  3  1  0
  3  4  1  0
  4  5  1  0
  5  6  1  0
  7  6  1  1
  7  8  1  0
  8  9  1  0
  9 10  1  0
 10 11  1  0
 11 12  1  0
 12 13  1  0
 13 14  1  0
 13 15  1  0
 11 16  1  0
  3 17  2  0
 17 18  1  0
 18 19  1  0
 19 20  2  0
 20 21  1  0
 21 22  2  0
 22  2  1  0
 15  7  1  0
 22 18  1  0
 16  7  1  0
 14  9  1  0
  1 23  1  0
  1 24  1  0
  1 25  1  0
  4 26  1  0
  5 27  1  0
  5 28  1  0
  6 29  1  0
  6 30  1  0
  8 31  1  0
  8 32  1  0
  9 33  1  1
 10 34  1  0
 10 35  1  0
 11 36  1  6
 12 37  1  0
 12 38  1  0
 13 39  1  6
 14 40  1  0
 14 41  1  0
 15 42  1  0
 15 43  1  0
 16 44  1  0
 16 45  1  0
 20 46  1  0
M  END
>  <meeko>  (61) 
{"is_sidechain": false}

$$$$

     RDKit          3D

 46 50  0  0  0  0  0  0  0  0999 V2000
    5.1450    2.1740  -58.6920 C   0  0  0  0  0  0  0  0  0  0  0  0
    5.2260    1.9400  -60.1110 N   0  0  0  0  0  0  0  0  0  0  0  0
    6.3270    2.3010  -60.9140 C   0  0  0  0  0  0  0  0  0  0  0  0
    7.4700    2.6550  -60.4450 N   0  0  0  0  0  0  0  0  0  0  0  0
    8.5320    3.0150  -61.3870 C   0  0  0  0  0  0  0  0  0  0  0  0
    9.8660    2.4700  -60.8700 C   0  0  0  0  0  0  0  0  0  0  0  0
   10.5360    3.2820  -59.7370 C   0  0  2  0  0  0  0  0  0  0  0  0
   10.1410    2.7570  -58.3330 C   0  0  0  0  0  0  0  0  0  0  0  0
   10.7770    3.6210  -57.2290 C   0  0  1  0  0  0  0  0  0  0  0  0
   12.3080    3.5760  -57.3730 C   0  0  0  0  0  0  0  0  0  0  0  0
   12.7240    4.1220  -58.7480 C   0  0  2  0  0  0  0  0  0  0  0  0
   12.2350    5.5720  -58.8880 C   0  0  0  0  0  0  0  0  0  0  0  0
   10.7050    5.6250  -58.7480 C   0  0  2  0  0  0  0  0  0  0  0  0
   10.2970    5.0720  -57.3750 C   0  0  0  0  0  0  0  0  0  0  0  0
   10.0700    4.7600  -59.8480 C   0  0  0  0  0  0  0  0  0  0  0  0
   12.0830    3.2580  -59.8510 C   0  0  0  0  0  0  0  0  0  0  0  0
    5.9030    2.2870  -62.2610 N   0  0  0  0  0  0  0  0  0  0  0  0
    4.5660    2.0920  -62.1400 N   0  0  0  0  0  0  0  0  0  0  0  0
    3.5910    2.3160  -63.0040 N   0  0  0  0  0  0  0  0  0  0  0  0
    2.5340    2.1380  -62.1850 C   0  0  0  0  0  0  0  0  0  0  0  0
    2.8230    1.9120  -60.8470 N   0  0  0  0  0  0  0  0  0  0  0  0
    4.1250    1.9220  -60.8780 C   0  0  0  0  0  0  0  0  0  0  0  0
    5.4586    1.2681  -58.1525 H   0  0  0  0  0  0  0  0  0  0  0  0
    5.8060    3.0101  -58.4199 H   0  0  0  0  0  0  0  0  0  0  0  0
    4.1086    2.4225  -58.4199 H   0  0  0  0  0  0  0  0  0  0  0  0
    8.3132    2.5790  -62.3729 H   0  0  0  0  0  0  0  0  0  0  0  0
    8.5898    4.1096  -61.4798 H   0  0  0  0  0  0  0  0  0  0  0  0
    9.6908    1.4507  -60.4954 H   0  0  0  0  0  0  0  0  0  0  0  0
   10.5588    2.5229  -61.7228 H   0  0  0  0  0  0  0  0  0  0  0  0
    9.0462    2.7890  -58.2306 H   0  0  0  0  0  0  0  0  0  0  0  0
   10.5048    1.7243  -58.2269 H   0  0  0  0  0  0  0  0  0  0  0  0
   10.4834    3.2346  -56.2418 H   0  0  0  0  0  0  0  0  0  0  0  0
   12.7661    4.1900  -56.5837 H   0  0  0  0  0  0  0  0  0  0  0  0
   12.6484    2.5341  -57.2807 H   0  0  0  0  0  0  0  0  0  0  0  0
   13.8194    4.0919  -58.8436 H   0  0  0  0  0  0  0  0  0  0  0  0
   12.6946    6.1892  -58.1020 H   0  0  0  0  0  0  0  0  0  0  0  0
   12.5212    5.9563  -59.8782 H   0  0  0  0  0  0  0  0  0  0  0  0
   10.3613    6.6656  -58.8429 H   0  0  0  0  0  0  0  0  0  0  0  0
   10.7519    5.6873  -56.5848 H   0  0  0  0  0  0  0  0  0  0  0  0
    9.2010    5.1002  -57.2858 H   0  0  0  0  0  0  0  0  0  0  0  0
    8.9752    4.7998  -59.7490 H   0  0  0  0  0  0  0  0  0  0  0  0
   10.3846    5.1527  -60.8262 H   0  0  0  0  0  0  0  0  0  0  0  0
   12.3787    3.6509  -60.8350 H   0  0  0  0  0  0  0  0  0  0  0  0
   12.4301    2.2208  -59.7341 H   0  0  0  0  0  0  0  0  0  0  0  0
    6.1060    3.1410  -62.7590 H   0  0  0  0  0  0  0  0  0  0  0  0
    1.4995    2.1703  -62.5576 H   0  0  0  0  0  0  0  0  0  0  0  0
  1  2  1  0
  2  3  1  0
  3  4  2  0
  4  5  1  0
  5  6  1  0
  7  6  1  6
  7  8  1  0
  8  9  1  0
  9 10  1  0
 10 11  1  0
 11 12  1  0
 12 13  1  0
 13 14  1  0
 13 15  1  0
 11 16  1  0
  3 17  1  0
 17 18  1  0
 18 19  1  0
 19 20  2  0
 20 21  1  0
 21 22  2  0
 22  2  1  0
 15  7  1  0
 22 18  1  0
 16  7  1  0
 14  9  1  0
  1 23  1  0
  1 24  1  0
  1 25  1  0
  5 26  1  0
  5 27  1  0
  6 28  1  0
  6 29  1  0
  8 30  1  0
  8 31  1  0
  9 32  1  1
 10 33  1  0
 10 34  1  0
 11 35  1  1
 12 36  1  0
 12 37  1  0
 13 38  1  6
 14 39  1  0
 14 40  1  0
 15 41  1  0
 15 42  1  0
 16 43  1  0
 16 44  1  0
 17 45  1  0
 20 46  1  0
M  END
>  <meeko>  (62) 
{"is_sidechain": false}

$$$$

     RDKit          3D

 46 50  0  0  0  0  0  0  0  0999 V2000
    7.0060    1.5280  -60.2260 C   0  0  0  0  0  0  0  0  0  0  0  0
    5.6310    1.6620  -59.8310 N   0  0  0  0  0  0  0  0  0  0  0  0
    5.0960    2.2570  -58.6630 C   0  0  0  0  0  0  0  0  0  0  0  0
    5.5910    2.7020  -57.5700 N   0  0  0  0  0  0  0  0  0  0  0  0
    7.0010    2.6330  -57.2340 C   0  0  0  0  0  0  0  0  0  0  0  0
    7.6610    4.0130  -57.3140 C   0  0  0  0  0  0  0  0  0  0  0  0
    8.9900    4.1270  -58.1080 C   0  0  2  0  0  0  0  0  0  0  0  0
    9.7480    2.7740  -57.9710 C   0  0  0  0  0  0  0  0  0  0  0  0
   11.0740    2.8000  -58.7450 C   0  0  1  0  0  0  0  0  0  0  0  0
   10.7850    3.0600  -60.2310 C   0  0  0  0  0  0  0  0  0  0  0  0
   10.0660    4.4080  -60.3970 C   0  0  2  0  0  0  0  0  0  0  0  0
   10.9570    5.5290  -59.8380 C   0  0  0  0  0  0  0  0  0  0  0  0
   11.2460    5.2770  -58.3480 C   0  0  2  0  0  0  0  0  0  0  0  0
   11.9590    3.9260  -58.1900 C   0  0  0  0  0  0  0  0  0  0  0  0
    9.9140    5.2490  -57.5750 C   0  0  0  0  0  0  0  0  0  0  0  0
    8.7390    4.3790  -59.6180 C   0  0  0  0  0  0  0  0  0  0  0  0
    3.7070    2.4050  -58.8650 N   0  0  0  0  0  0  0  0  0  0  0  0
    3.5590    2.1100  -60.1680 N   0  0  0  0  0  0  0  0  0  0  0  0
    2.5560    2.3230  -61.0010 N   0  0  0  0  0  0  0  0  0  0  0  0
    3.1320    1.8960  -62.1430 C   0  0  0  0  0  0  0  0  0  0  0  0
    4.4590    1.4950  -62.0520 N   0  0  0  0  0  0  0  0  0  0  0  0
    4.6730    1.6710  -60.7790 C   0  0  0  0  0  0  0  0  0  0  0  0
    7.6406    1.4662  -59.3297 H   0  0  0  0  0  0  0  0  0  0  0  0
    7.1279    0.6137  -60.8254 H   0  0  0  0  0  0  0  0  0  0  0  0
    7.3021    2.4015  -60.8254 H   0  0  0  0  0  0  0  0  0  0  0  0
    7.1067    2.2442  -56.2105 H   0  0  0  0  0  0  0  0  0  0  0  0
    7.4977    1.9685  -57.9563 H   0  0  0  0  0  0  0  0  0  0  0  0
    6.9380    4.6974  -57.7818 H   0  0  0  0  0  0  0  0  0  0  0  0
    7.9333    4.2540  -56.2758 H   0  0  0  0  0  0  0  0  0  0  0  0
    9.9568    2.5857  -56.9075 H   0  0  0  0  0  0  0  0  0  0  0  0
    9.1160    1.9766  -58.3890 H   0  0  0  0  0  0  0  0  0  0  0  0
   11.5917    1.8358  -58.6339 H   0  0  0  0  0  0  0  0  0  0  0  0
   11.7330    3.0814  -60.7884 H   0  0  0  0  0  0  0  0  0  0  0  0
   10.1422    2.2568  -60.6204 H   0  0  0  0  0  0  0  0  0  0  0  0
    9.8641    4.5898  -61.4629 H   0  0  0  0  0  0  0  0  0  0  0  0
   11.9057    5.5521  -60.3944 H   0  0  0  0  0  0  0  0  0  0  0  0
   10.4372    6.4922  -59.9474 H   0  0  0  0  0  0  0  0  0  0  0  0
   11.8876    6.0776  -57.9513 H   0  0  0  0  0  0  0  0  0  0  0  0
   12.9099    3.9486  -58.7426 H   0  0  0  0  0  0  0  0  0  0  0  0
   12.1533    3.7415  -57.1231 H   0  0  0  0  0  0  0  0  0  0  0  0
   10.1197    5.0704  -56.5093 H   0  0  0  0  0  0  0  0  0  0  0  0
    9.4078    6.2160  -57.7116 H   0  0  0  0  0  0  0  0  0  0  0  0
    8.2273    5.3448  -59.7419 H   0  0  0  0  0  0  0  0  0  0  0  0
    8.1172    3.5618  -60.0125 H   0  0  0  0  0  0  0  0  0  0  0  0
    3.3600    3.3140  -58.5980 H   0  0  0  0  0  0  0  0  0  0  0  0
    2.5812    1.8668  -63.0947 H   0  0  0  0  0  0  0  0  0  0  0  0
  1  2  1  0
  2  3  1  0
  3  4  2  0
  4  5  1  0
  5  6  1  0
  7  6  1  1
  7  8  1  0
  8  9  1  0
  9 10  1  0
 10 11  1  0
 11 12  1  0
 12 13  1  0
 13 14  1  0
 13 15  1  0
 11 16  1  0
  3 17  1  0
 17 18  1  0
 18 19  1  0
 19 20  2  0
 20 21  1  0
 21 22  2  0
 22  2  1  0
 15  7  1  0
 22 18  1  0
 16  7  1  0
 14  9  1  0
  1 23  1  0
  1 24  1  0
  1 25  1  0
  5 26  1  0
  5 27  1  0
  6 28  1  0
  6 29  1  0
  8 30  1  0
  8 31  1  0
  9 32  1  6
 10 33  1  0
 10 34  1  0
 11 35  1  6
 12 36  1  0
 12 37  1  0
 13 38  1  1
 14 39  1  0
 14 40  1  0
 15 41  1  0
 15 42  1  0
 16 43  1  0
 16 44  1  0
 17 45  1  0
 20 46  1  0
M  END
>  <meeko>  (63) 
{"is_sidechain": false}

$$$$

     RDKit          3D

 59 64  0  0  0  0  0  0  0  0999 V2000
    7.1120    1.4860  -56.2390 C   0  0  0  0  0  0  0  0  0  0  0  0
    6.3360    0.7520  -55.1420 C   0  0  0  0  0  0  0  0  0  0  0  0
    7.0890   -0.4010  -54.4370 C   0  0  2  0  0  0  0  0  0  0  0  0
    7.1070   -0.2140  -52.8970 C   0  0  0  0  0  0  0  0  0  0  0  0
    7.8080   -1.4020  -52.2130 C   0  0  1  0  0  0  0  0  0  0  0  0
    7.0570   -2.7000  -52.5490 C   0  0  0  0  0  0  0  0  0  0  0  0
    7.0480   -2.9220  -54.0690 C   0  0  2  0  0  0  0  0  0  0  0  0
    8.4950   -3.0160  -54.5810 C   0  0  0  0  0  0  0  0  0  0  0  0
    9.2530   -1.7200  -54.2530 C   0  0  2  0  0  0  0  0  0  0  0  0
    9.2530   -1.5030  -52.7300 C   0  0  0  0  0  0  0  0  0  0  0  0
    8.5500   -0.5310  -54.9340 C   0  0  0  0  0  0  0  0  0  0  0  0
    6.3510   -1.7330  -54.7480 C   0  0  0  0  0  0  0  0  0  0  0  0
    6.2500    2.5100  -56.8190 N   0  0  0  0  0  0  0  0  0  0  0  0
    5.6320    2.3340  -58.0150 C   0  0  0  0  0  0  0  0  0  0  0  0
    4.3240    2.4760  -58.1730 N   0  0  0  0  0  0  0  0  0  0  0  0
    4.2370    2.2400  -59.5070 N   0  0  0  0  0  0  0  0  0  0  0  0
    3.2330    2.2980  -60.3730 N   0  0  0  0  0  0  0  0  0  0  0  0
    3.8220    2.0730  -61.5560 N   0  0  0  0  0  0  0  0  0  0  0  0
    5.2050    1.9010  -61.4250 N   0  0  0  0  0  0  0  0  0  0  0  0
    5.4090    2.0000  -60.1430 C   0  0  0  0  0  0  0  0  0  0  0  0
    6.3430    2.0340  -59.1740 N   0  0  0  0  0  0  0  0  0  0  0  0
    7.7400    2.2770  -59.4760 C   0  0  0  0  0  0  0  0  0  0  0  0
    7.9660    3.6060  -60.2350 C   0  0  0  0  0  0  0  0  0  0  0  0
    7.8690    4.8080  -59.2710 C   0  0  0  0  0  0  0  0  0  0  0  0
    9.2310    5.2520  -58.7380 C   0  0  0  0  0  0  0  0  0  0  0  0
   10.1170    4.1420  -58.6720 O   0  0  0  0  0  0  0  0  0  0  0  0
   10.4900    3.6630  -59.9670 C   0  0  0  0  0  0  0  0  0  0  0  0
    9.3200    3.6670  -60.9530 C   0  0  0  0  0  0  0  0  0  0  0  0
    8.0069    1.9574  -55.8067 H   0  0  0  0  0  0  0  0  0  0  0  0
    7.4228    0.7738  -57.0176 H   0  0  0  0  0  0  0  0  0  0  0  0
    6.0564    1.4900  -54.3757 H   0  0  0  0  0  0  0  0  0  0  0  0
    5.4790    0.2825  -55.6472 H   0  0  0  0  0  0  0  0  0  0  0  0
    7.6460    0.7131  -52.6521 H   0  0  0  0  0  0  0  0  0  0  0  0
    6.0697   -0.1592  -52.5351 H   0  0  0  0  0  0  0  0  0  0  0  0
    7.8129   -1.2507  -51.1235 H   0  0  0  0  0  0  0  0  0  0  0  0
    7.5582   -3.5482  -52.0597 H   0  0  0  0  0  0  0  0  0  0  0  0
    6.0206   -2.6216  -52.1889 H   0  0  0  0  0  0  0  0  0  0  0  0
    6.5120   -3.8538  -54.3023 H   0  0  0  0  0  0  0  0  0  0  0  0
    8.9986   -3.8654  -54.0963 H   0  0  0  0  0  0  0  0  0  0  0  0
    8.4838   -3.1621  -55.6712 H   0  0  0  0  0  0  0  0  0  0  0  0
   10.2881   -1.7961  -54.6174 H   0  0  0  0  0  0  0  0  0  0  0  0
    9.7563   -2.3503  -52.2413 H   0  0  0  0  0  0  0  0  0  0  0  0
    9.7855   -0.5687  -52.4984 H   0  0  0  0  0  0  0  0  0  0  0  0
    9.0955    0.3945  -54.6977 H   0  0  0  0  0  0  0  0  0  0  0  0
    8.5400   -0.7013  -56.0207 H   0  0  0  0  0  0  0  0  0  0  0  0
    6.3436   -1.8943  -55.8361 H   0  0  0  0  0  0  0  0  0  0  0  0
    5.3237   -1.6623  -54.3611 H   0  0  0  0  0  0  0  0  0  0  0  0
    5.5700    2.8270  -56.1290 H   0  0  0  0  0  0  0  0  0  0  0  0
    8.3031    2.3113  -58.5317 H   0  0  0  0  0  0  0  0  0  0  0  0
    8.0854    1.4604  -60.1271 H   0  0  0  0  0  0  0  0  0  0  0  0
    7.1732    3.6539  -60.9961 H   0  0  0  0  0  0  0  0  0  0  0  0
    7.4093    5.6517  -59.8066 H   0  0  0  0  0  0  0  0  0  0  0  0
    7.2630    4.4927  -58.4088 H   0  0  0  0  0  0  0  0  0  0  0  0
    9.6530    6.0146  -59.4091 H   0  0  0  0  0  0  0  0  0  0  0  0
    9.1030    5.6701  -57.7286 H   0  0  0  0  0  0  0  0  0  0  0  0
   11.2885    4.3067  -60.3646 H   0  0  0  0  0  0  0  0  0  0  0  0
   10.8279    2.6223  -59.8537 H   0  0  0  0  0  0  0  0  0  0  0  0
    9.3634    4.5883  -61.5524 H   0  0  0  0  0  0  0  0  0  0  0  0
    9.4083    2.7746  -61.5900 H   0  0  0  0  0  0  0  0  0  0  0  0
  1  2  1  0
  3  2  1  6
  3  4  1  0
  4  5  1  0
  5  6  1  0
  6  7  1  0
  7  8  1  0
  8  9  1  0
  9 10  1  0
  9 11  1  0
  7 12  1  0
  1 13  1  0
 13 14  1  0
 14 15  2  0
 15 16  1  0
 16 17  1  0
 17 18  2  0
 18 19  1  0
 19 20  2  0
 20 21  1  0
 21 22  1  0
 22 23  1  0
 23 24  1  0
 24 25  1  0
 25 26  1  0
 26 27  1  0
 27 28  1  0
 11  3  1  0
 21 14  1  0
 28 23  1  0
 12  3  1  0
 20 16  1  0
 10  5  1  0
  1 29  1  0
  1 30  1  0
  2 31  1  0
  2 32  1  0
  4 33  1  0
  4 34  1  0
  5 35  1  1
  6 36  1  0
  6 37  1  0
  7 38  1  1
  8 39  1  0
  8 40  1  0
  9 41  1  6
 10 42  1  0
 10 43  1  0
 11 44  1  0
 11 45  1  0
 12 46  1  0
 12 47  1  0
 13 48  1  0
 22 49  1  0
 22 50  1  0
 23 51  1  0
 24 52  1  0
 24 53  1  0
 25 54  1  0
 25 55  1  0
 27 56  1  0
 27 57  1  0
 28 58  1  0
 28 59  1  0
M  END
>  <meeko>  (64) 
{"is_sidechain": false}

$$$$

     RDKit          3D

 59 64  0  0  0  0  0  0  0  0999 V2000
    8.9030    1.4650  -55.9220 C   0  0  0  0  0  0  0  0  0  0  0  0
    9.9000    2.4440  -56.5460 C   0  0  0  0  0  0  0  0  0  0  0  0
    9.4060    3.2040  -57.8010 C   0  0  2  0  0  0  0  0  0  0  0  0
    9.5200    2.3430  -59.0840 C   0  0  0  0  0  0  0  0  0  0  0  0
    9.0770    3.1460  -60.3210 C   0  0  1  0  0  0  0  0  0  0  0  0
    7.6160    3.5910  -60.1370 C   0  0  0  0  0  0  0  0  0  0  0  0
    7.4880    4.4720  -58.8850 C   0  0  2  0  0  0  0  0  0  0  0  0
    8.3870    5.7080  -59.0410 C   0  0  0  0  0  0  0  0  0  0  0  0
    9.8500    5.2740  -59.2210 C   0  0  2  0  0  0  0  0  0  0  0  0
    9.9690    4.3880  -60.4710 C   0  0  0  0  0  0  0  0  0  0  0  0
   10.2910    4.4680  -57.9880 C   0  0  0  0  0  0  0  0  0  0  0  0
    7.9340    3.6670  -57.6510 C   0  0  0  0  0  0  0  0  0  0  0  0
    9.6240    0.2900  -55.4260 N   0  0  0  0  0  0  0  0  0  0  0  0
    9.0590   -0.4600  -54.5510 C   0  0  0  0  0  0  0  0  0  0  0  0
    7.7610   -0.3360  -54.0000 N   0  0  0  0  0  0  0  0  0  0  0  0
    7.6640   -1.4620  -53.2410 N   0  0  0  0  0  0  0  0  0  0  0  0
    6.6380   -2.0350  -52.6400 N   0  0  0  0  0  0  0  0  0  0  0  0
    7.1610   -3.1790  -52.1720 N   0  0  0  0  0  0  0  0  0  0  0  0
    8.5040   -3.3290  -52.5520 N   0  0  0  0  0  0  0  0  0  0  0  0
    8.7560   -2.2460  -53.2320 C   0  0  0  0  0  0  0  0  0  0  0  0
    9.6530   -1.6100  -54.0000 N   0  0  0  0  0  0  0  0  0  0  0  0
   10.9210   -2.1950  -54.3720 C   0  0  0  0  0  0  0  0  0  0  0  0
   10.8070   -3.0990  -55.6110 C   0  0  0  0  0  0  0  0  0  0  0  0
   11.3350   -4.5050  -55.3150 C   0  0  0  0  0  0  0  0  0  0  0  0
   11.1580   -5.4220  -56.5270 C   0  0  0  0  0  0  0  0  0  0  0  0
   11.0790   -4.7110  -57.7630 O   0  0  0  0  0  0  0  0  0  0  0  0
   11.9780   -3.6120  -57.8170 C   0  0  0  0  0  0  0  0  0  0  0  0
   11.5490   -2.5260  -56.8320 C   0  0  0  0  0  0  0  0  0  0  0  0
    8.3804    1.9549  -55.0872 H   0  0  0  0  0  0  0  0  0  0  0  0
    8.1686    1.1540  -56.6796 H   0  0  0  0  0  0  0  0  0  0  0  0
   10.1628    3.1903  -55.7818 H   0  0  0  0  0  0  0  0  0  0  0  0
   10.7479    1.8303  -56.8842 H   0  0  0  0  0  0  0  0  0  0  0  0
   10.5654    2.0266  -59.2146 H   0  0  0  0  0  0  0  0  0  0  0  0
    8.8652    1.4653  -58.9796 H   0  0  0  0  0  0  0  0  0  0  0  0
    9.1658    2.5184  -61.2200 H   0  0  0  0  0  0  0  0  0  0  0  0
    7.2960    4.1640  -61.0197 H   0  0  0  0  0  0  0  0  0  0  0  0
    6.9801    2.7013  -60.0186 H   0  0  0  0  0  0  0  0  0  0  0  0
    6.4426    4.7904  -58.7596 H   0  0  0  0  0  0  0  0  0  0  0  0
    8.0664    6.2828  -59.9224 H   0  0  0  0  0  0  0  0  0  0  0  0
    8.3036    6.3315  -58.1386 H   0  0  0  0  0  0  0  0  0  0  0  0
   10.4883    6.1625  -59.3357 H   0  0  0  0  0  0  0  0  0  0  0  0
    9.6510    4.9604  -61.3549 H   0  0  0  0  0  0  0  0  0  0  0  0
   11.0151    4.0693  -60.5897 H   0  0  0  0  0  0  0  0  0  0  0  0
   11.3383    4.1575  -58.1173 H   0  0  0  0  0  0  0  0  0  0  0  0
   10.1841    5.1047  -57.0974 H   0  0  0  0  0  0  0  0  0  0  0  0
    7.8439    4.2994  -56.7555 H   0  0  0  0  0  0  0  0  0  0  0  0
    7.2919    2.7788  -57.5573 H   0  0  0  0  0  0  0  0  0  0  0  0
    7.0350   -0.3100  -54.7020 H   0  0  0  0  0  0  0  0  0  0  0  0
   11.6336   -1.3857  -54.5893 H   0  0  0  0  0  0  0  0  0  0  0  0
   11.2631   -2.8176  -53.5321 H   0  0  0  0  0  0  0  0  0  0  0  0
    9.7357   -3.1484  -55.8557 H   0  0  0  0  0  0  0  0  0  0  0  0
   12.4041   -4.4426  -55.0639 H   0  0  0  0  0  0  0  0  0  0  0  0
   10.7657   -4.9235  -54.4720 H   0  0  0  0  0  0  0  0  0  0  0  0
   12.0153   -6.1097  -56.5733 H   0  0  0  0  0  0  0  0  0  0  0  0
   10.2059   -5.9572  -56.3960 H   0  0  0  0  0  0  0  0  0  0  0  0
   12.9895   -3.9578  -57.5577 H   0  0  0  0  0  0  0  0  0  0  0  0
   11.9713   -3.1944  -58.8346 H   0  0  0  0  0  0  0  0  0  0  0  0
   12.4452   -1.9928  -56.4821 H   0  0  0  0  0  0  0  0  0  0  0  0
   10.8573   -1.8514  -57.3578 H   0  0  0  0  0  0  0  0  0  0  0  0
  1  2  1  0
  3  2  1  1
  3  4  1  0
  4  5  1  0
  5  6  1  0
  6  7  1  0
  7  8  1  0
  8  9  1  0
  9 10  1  0
  9 11  1  0
  7 12  1  0
  1 13  1  0
 13 14  2  0
 14 15  1  0
 15 16  1  0
 16 17  1  0
 17 18  2  0
 18 19  1  0
 19 20  2  0
 20 21  1  0
 21 22  1  0
 22 23  1  0
 23 24  1  0
 24 25  1  0
 25 26  1  0
 26 27  1  0
 27 28  1  0
 11  3  1  0
 21 14  1  0
 28 23  1  0
 12  3  1  0
 20 16  1  0
 10  5  1  0
  1 29  1  0
  1 30  1  0
  2 31  1  0
  2 32  1  0
  4 33  1  0
  4 34  1  0
  5 35  1  6
  6 36  1  0
  6 37  1  0
  7 38  1  1
  8 39  1  0
  8 40  1  0
  9 41  1  6
 10 42  1  0
 10 43  1  0
 11 44  1  0
 11 45  1  0
 12 46  1  0
 12 47  1  0
 15 48  1  0
 22 49  1  0
 22 50  1  0
 23 51  1  0
 24 52  1  0
 24 53  1  0
 25 54  1  0
 25 55  1  0
 27 56  1  0
 27 57  1  0
 28 58  1  0
 28 59  1  0
M  END
>  <meeko>  (65) 
{"is_sidechain": false}

$$$$

     RDKit          3D

 59 64  0  0  0  0  0  0  0  0999 V2000
   10.7040    0.7690  -56.7940 C   0  0  0  0  0  0  0  0  0  0  0  0
   11.1370    2.2350  -56.8640 C   0  0  0  0  0  0  0  0  0  0  0  0
   10.5370    3.0650  -58.0270 C   0  0  2  0  0  0  0  0  0  0  0  0
    9.4730    2.2620  -58.8200 C   0  0  0  0  0  0  0  0  0  0  0  0
    8.8510    3.1300  -59.9290 C   0  0  1  0  0  0  0  0  0  0  0  0
    8.1820    4.3620  -59.3000 C   0  0  0  0  0  0  0  0  0  0  0  0
    9.2260    5.1900  -58.5330 C   0  0  2  0  0  0  0  0  0  0  0  0
   10.3310    5.6400  -59.4990 C   0  0  0  0  0  0  0  0  0  0  0  0
   11.0090    4.4140  -60.1300 C   0  0  2  0  0  0  0  0  0  0  0  0
    9.9580    3.5900  -60.8910 C   0  0  0  0  0  0  0  0  0  0  0  0
   11.6260    3.5440  -59.0190 C   0  0  0  0  0  0  0  0  0  0  0  0
    9.8450    4.3210  -57.4270 C   0  0  0  0  0  0  0  0  0  0  0  0
    9.6140    0.6320  -55.8430 N   0  0  0  0  0  0  0  0  0  0  0  0
    9.4980   -0.3290  -55.0070 C   0  0  0  0  0  0  0  0  0  0  0  0
    8.4080   -0.2780  -54.1080 N   0  0  0  0  0  0  0  0  0  0  0  0
    8.7170   -1.2310  -53.2070 N   0  0  0  0  0  0  0  0  0  0  0  0
    8.1060   -1.6680  -52.1210 N   0  0  0  0  0  0  0  0  0  0  0  0
    8.8530   -2.7190  -51.7530 N   0  0  0  0  0  0  0  0  0  0  0  0
    9.9130   -2.9380  -52.6460 N   0  0  0  0  0  0  0  0  0  0  0  0
    9.7760   -1.9900  -53.5300 C   0  0  0  0  0  0  0  0  0  0  0  0
   10.2650   -1.4660  -54.6700 N   0  0  0  0  0  0  0  0  0  0  0  0
   11.3860   -2.0840  -55.3410 C   0  0  0  0  0  0  0  0  0  0  0  0
   10.9150   -3.0050  -56.4920 C   0  0  0  0  0  0  0  0  0  0  0  0
   11.9320   -2.9990  -57.6510 C   0  0  0  0  0  0  0  0  0  0  0  0
   12.9190   -4.1630  -57.5800 C   0  0  0  0  0  0  0  0  0  0  0  0
   13.1470   -4.5270  -56.2250 O   0  0  0  0  0  0  0  0  0  0  0  0
   11.9990   -5.1330  -55.6230 C   0  0  0  0  0  0  0  0  0  0  0  0
   10.6920   -4.4540  -56.0370 C   0  0  0  0  0  0  0  0  0  0  0  0
   10.3678    0.4379  -57.7876 H   0  0  0  0  0  0  0  0  0  0  0  0
   11.5538    0.1502  -56.4701 H   0  0  0  0  0  0  0  0  0  0  0  0
   10.8446    2.7179  -55.9199 H   0  0  0  0  0  0  0  0  0  0  0  0
   12.2223    2.2158  -57.0420 H   0  0  0  0  0  0  0  0  0  0  0  0
    9.9504    1.3818  -59.2754 H   0  0  0  0  0  0  0  0  0  0  0  0
    8.6775    1.9494  -58.1276 H   0  0  0  0  0  0  0  0  0  0  0  0
    8.0996    2.5440  -60.4786 H   0  0  0  0  0  0  0  0  0  0  0  0
    7.7373    4.9805  -60.0935 H   0  0  0  0  0  0  0  0  0  0  0  0
    7.3981    4.0319  -58.6025 H   0  0  0  0  0  0  0  0  0  0  0  0
    8.7432    6.0727  -58.0884 H   0  0  0  0  0  0  0  0  0  0  0  0
    9.8903    6.2612  -60.2926 H   0  0  0  0  0  0  0  0  0  0  0  0
   11.0814    6.2215  -58.9434 H   0  0  0  0  0  0  0  0  0  0  0  0
   11.7971    4.7437  -60.8230 H   0  0  0  0  0  0  0  0  0  0  0  0
    9.5157    4.2089  -61.6856 H   0  0  0  0  0  0  0  0  0  0  0  0
   10.4427    2.7063  -61.3316 H   0  0  0  0  0  0  0  0  0  0  0  0
   12.1099    2.6673  -59.4743 H   0  0  0  0  0  0  0  0  0  0  0  0
   12.3641    4.1460  -58.4687 H   0  0  0  0  0  0  0  0  0  0  0  0
   10.5907    4.9148  -56.8780 H   0  0  0  0  0  0  0  0  0  0  0  0
    9.0427    3.9898  -56.7513 H   0  0  0  0  0  0  0  0  0  0  0  0
    8.2600    0.6430  -53.7240 H   0  0  0  0  0  0  0  0  0  0  0  0
   12.0342   -1.2972  -55.7542 H   0  0  0  0  0  0  0  0  0  0  0  0
   11.9340   -2.6958  -54.6093 H   0  0  0  0  0  0  0  0  0  0  0  0
    9.9509   -2.5988  -56.8318 H   0  0  0  0  0  0  0  0  0  0  0  0
   11.3818   -3.0625  -58.6014 H   0  0  0  0  0  0  0  0  0  0  0  0
   12.5129   -2.0678  -57.5765 H   0  0  0  0  0  0  0  0  0  0  0  0
   12.5050   -5.0250  -58.1237 H   0  0  0  0  0  0  0  0  0  0  0  0
   13.8718   -3.8560  -58.0359 H   0  0  0  0  0  0  0  0  0  0  0  0
   11.9586   -6.1898  -55.9257 H   0  0  0  0  0  0  0  0  0  0  0  0
   12.0991   -5.0277  -54.5326 H   0  0  0  0  0  0  0  0  0  0  0  0
   10.2442   -5.0215  -56.8661 H   0  0  0  0  0  0  0  0  0  0  0  0
   10.0265   -4.4363  -55.1614 H   0  0  0  0  0  0  0  0  0  0  0  0
  1  2  1  0
  3  2  1  1
  3  4  1  0
  4  5  1  0
  5  6  1  0
  6  7  1  0
  7  8  1  0
  8  9  1  0
  9 10  1  0
  9 11  1  0
  7 12  1  0
  1 13  1  0
 13 14  2  0
 14 15  1  0
 15 16  1  0
 16 17  1  0
 17 18  2  0
 18 19  1  0
 19 20  2  0
 20 21  1  0
 21 22  1  0
 22 23  1  0
 23 24  1  0
 24 25  1  0
 25 26  1  0
 26 27  1  0
 27 28  1  0
 11  3  1  0
 21 14  1  0
 28 23  1  0
 12  3  1  0
 20 16  1  0
 10  5  1  0
  1 29  1  0
  1 30  1  0
  2 31  1  0
  2 32  1  0
  4 33  1  0
  4 34  1  0
  5 35  1  6
  6 36  1  0
  6 37  1  0
  7 38  1  1
  8 39  1  0
  8 40  1  0
  9 41  1  6
 10 42  1  0
 10 43  1  0
 11 44  1  0
 11 45  1  0
 12 46  1  0
 12 47  1  0
 15 48  1  0
 22 49  1  0
 22 50  1  0
 23 51  1  0
 24 52  1  0
 24 53  1  0
 25 54  1  0
 25 55  1  0
 27 56  1  0
 27 57  1  0
 28 58  1  0
 28 59  1  0
M  END
>  <meeko>  (66) 
{"is_sidechain": false}

$$$$

     RDKit          3D

 68 73  0  0  0  0  0  0  0  0999 V2000
    3.4640    2.0050  -63.1470 C   0  0  0  0  0  0  0  0  0  0  0  0
    2.6130    1.3280  -62.3810 N   0  0  0  0  0  0  0  0  0  0  0  0
    3.2720    0.9590  -61.2080 N   0  0  0  0  0  0  0  0  0  0  0  0
    4.4730    1.4570  -61.3100 C   0  0  0  0  0  0  0  0  0  0  0  0
    5.6040    1.6680  -60.6190 N   0  0  0  0  0  0  0  0  0  0  0  0
    5.8540    1.2380  -59.2640 C   0  0  0  0  0  0  0  0  0  0  0  0
    5.6140    2.3230  -58.1980 C   0  0  0  0  0  0  0  0  0  0  0  0
    6.8040    2.4970  -57.2520 C   0  0  0  0  0  0  0  0  0  0  0  0
    7.1040    1.2460  -56.4060 N   0  0  0  0  0  0  0  0  0  0  0  0
    8.4490    1.3360  -55.6720 C   0  0  0  0  0  0  0  0  0  0  0  0
    8.8590   -0.0240  -55.0520 C   0  0  0  0  0  0  0  0  0  0  0  0
    7.6680   -0.8640  -54.6460 N   0  0  0  0  0  0  0  0  0  0  0  0
    6.4280   -0.0790  -54.3160 C   0  0  0  0  0  0  0  0  0  0  0  0
    5.9520    0.7890  -55.5110 C   0  0  0  0  0  0  0  0  0  0  0  0
    6.4030    2.4310  -61.4640 C   0  0  0  0  0  0  0  0  0  0  0  0
    7.6370    2.8580  -61.0990 N   0  0  0  0  0  0  0  0  0  0  0  0
    8.7330    1.9210  -60.8310 C   0  0  0  0  0  0  0  0  0  0  0  0
   10.0920    2.5800  -61.0920 C   0  0  0  0  0  0  0  0  0  0  0  0
   10.6990    3.3670  -59.9040 C   0  0  2  0  0  0  0  0  0  0  0  0
   10.2790    4.8590  -59.9280 C   0  0  0  0  0  0  0  0  0  0  0  0
   10.8450    5.6040  -58.7040 C   0  0  1  0  0  0  0  0  0  0  0  0
   10.3080    4.9540  -57.4190 C   0  0  0  0  0  0  0  0  0  0  0  0
   10.7370    3.4800  -57.3580 C   0  0  2  0  0  0  0  0  0  0  0  0
   12.2710    3.3920  -57.3800 C   0  0  0  0  0  0  0  0  0  0  0  0
   12.8160    4.0350  -58.6650 C   0  0  2  0  0  0  0  0  0  0  0  0
   12.3780    5.5080  -58.7180 C   0  0  0  0  0  0  0  0  0  0  0  0
   12.2470    3.2940  -59.8890 C   0  0  0  0  0  0  0  0  0  0  0  0
   10.1730    2.7400  -58.5820 C   0  0  0  0  0  0  0  0  0  0  0  0
    5.8290    2.7610  -62.6120 N   0  0  0  0  0  0  0  0  0  0  0  0
    4.6380    2.1180  -62.4840 N   0  0  0  0  0  0  0  0  0  0  0  0
    3.2497    2.4050  -64.1491 H   0  0  0  0  0  0  0  0  0  0  0  0
    5.1912    0.3879  -59.0450 H   0  0  0  0  0  0  0  0  0  0  0  0
    6.9207    0.9750  -59.2098 H   0  0  0  0  0  0  0  0  0  0  0  0
    5.4262    3.2801  -58.7065 H   0  0  0  0  0  0  0  0  0  0  0  0
    4.7520    2.0075  -57.5919 H   0  0  0  0  0  0  0  0  0  0  0  0
    7.6948    2.7329  -57.8527 H   0  0  0  0  0  0  0  0  0  0  0  0
    6.5460    3.3062  -56.5529 H   0  0  0  0  0  0  0  0  0  0  0  0
    7.2310    0.5200  -57.1280 H   0  0  0  0  0  0  0  0  0  0  0  0
    9.2242    1.6496  -56.3866 H   0  0  0  0  0  0  0  0  0  0  0  0
    8.3447    2.0661  -54.8558 H   0  0  0  0  0  0  0  0  0  0  0  0
    9.4489   -0.5845  -55.7922 H   0  0  0  0  0  0  0  0  0  0  0  0
    9.4413    0.1876  -54.1431 H   0  0  0  0  0  0  0  0  0  0  0  0
    7.9390   -1.4190  -53.8140 H   0  0  0  0  0  0  0  0  0  0  0  0
    7.4690   -1.5840  -55.3590 H   0  0  0  0  0  0  0  0  0  0  0  0
    5.6254   -0.7808  -54.0453 H   0  0  0  0  0  0  0  0  0  0  0  0
    6.6663    0.5958  -53.4806 H   0  0  0  0  0  0  0  0  0  0  0  0
    5.2491    0.1982  -56.1168 H   0  0  0  0  0  0  0  0  0  0  0  0
    5.4759    1.6902  -55.0973 H   0  0  0  0  0  0  0  0  0  0  0  0
    7.9640    3.5320  -61.7960 H   0  0  0  0  0  0  0  0  0  0  0  0
    8.6840    1.6006  -59.7798 H   0  0  0  0  0  0  0  0  0  0  0  0
    8.6274    1.0555  -61.5017 H   0  0  0  0  0  0  0  0  0  0  0  0
   10.8030    1.7883  -61.3708 H   0  0  0  0  0  0  0  0  0  0  0  0
    9.9165    3.3230  -61.8839 H   0  0  0  0  0  0  0  0  0  0  0  0
   10.6639    5.3277  -60.8457 H   0  0  0  0  0  0  0  0  0  0  0  0
    9.1809    4.9177  -59.9010 H   0  0  0  0  0  0  0  0  0  0  0  0
   10.5386    6.6599  -58.7394 H   0  0  0  0  0  0  0  0  0  0  0  0
   10.7106    5.4872  -56.5451 H   0  0  0  0  0  0  0  0  0  0  0  0
    9.2095    5.0112  -57.4168 H   0  0  0  0  0  0  0  0  0  0  0  0
   10.3541    3.0225  -56.4338 H   0  0  0  0  0  0  0  0  0  0  0  0
   12.6788    3.9216  -56.5064 H   0  0  0  0  0  0  0  0  0  0  0  0
   12.5725    2.3346  -57.3495 H   0  0  0  0  0  0  0  0  0  0  0  0
   13.9141    3.9715  -58.6724 H   0  0  0  0  0  0  0  0  0  0  0  0
   12.7838    6.0398  -57.8448 H   0  0  0  0  0  0  0  0  0  0  0  0
   12.7587    5.9636  -59.6440 H   0  0  0  0  0  0  0  0  0  0  0  0
   12.6391    3.7579  -60.8061 H   0  0  0  0  0  0  0  0  0  0  0  0
   12.5503    2.2380  -59.8351 H   0  0  0  0  0  0  0  0  0  0  0  0
   10.4802    1.6847  -58.5373 H   0  0  0  0  0  0  0  0  0  0  0  0
    9.0763    2.8233  -58.5669 H   0  0  0  0  0  0  0  0  0  0  0  0
  1  2  2  0
  2  3  1  0
  3  4  2  0
  4  5  1  0
  5  6  1  0
  6  7  1  0
  7  8  1  0
  8  9  1  0
  9 10  1  0
 10 11  1  0
 11 12  1  0
 12 13  1  0
 13 14  1  0
  5 15  1  0
 15 16  1  0
 16 17  1  0
 17 18  1  0
 19 18  1  6
 19 20  1  0
 20 21  1  0
 21 22  1  0
 22 23  1  0
 23 24  1  0
 24 25  1  0
 25 26  1  0
 25 27  1  0
 23 28  1  0
 15 29  2  0
 29 30  1  0
 30  1  1  0
 30  4  1  0
 14  9  1  0
 27 19  1  0
 28 19  1  0
 26 21  1  0
  1 31  1  0
  6 32  1  0
  6 33  1  0
  7 34  1  0
  7 35  1  0
  8 36  1  0
  8 37  1  0
  9 38  1  0
 10 39  1  0
 10 40  1  0
 11 41  1  0
 11 42  1  0
 12 43  1  0
 12 44  1  0
 13 45  1  0
 13 46  1  0
 14 47  1  0
 14 48  1  0
 16 49  1  0
 17 50  1  0
 17 51  1  0
 18 52  1  0
 18 53  1  0
 20 54  1  0
 20 55  1  0
 21 56  1  6
 22 57  1  0
 22 58  1  0
 23 59  1  1
 24 60  1  0
 24 61  1  0
 25 62  1  1
 26 63  1  0
 26 64  1  0
 27 65  1  0
 27 66  1  0
 28 67  1  0
 28 68  1  0
M  CHG  2   9   1  12   1
M  END
>  <meeko>  (67) 
{"is_sidechain": false}

$$$$

     RDKit          3D

 68 73  0  0  0  0  0  0  0  0999 V2000
    3.9270    2.3330  -59.2430 C   0  0  0  0  0  0  0  0  0  0  0  0
    3.8310    2.0700  -60.5470 N   0  0  0  0  0  0  0  0  0  0  0  0
    5.1110    1.9960  -61.0760 N   0  0  0  0  0  0  0  0  0  0  0  0
    5.9100    2.1850  -60.0590 C   0  0  0  0  0  0  0  0  0  0  0  0
    7.1780    1.9460  -59.7200 N   0  0  0  0  0  0  0  0  0  0  0  0
    8.2350    1.7500  -60.6850 C   0  0  0  0  0  0  0  0  0  0  0  0
    8.6270    3.0290  -61.4340 C   0  0  0  0  0  0  0  0  0  0  0  0
   10.0300    3.6100  -61.2340 C   0  0  0  0  0  0  0  0  0  0  0  0
   10.4150    3.8600  -59.7880 N   0  0  0  0  0  0  0  0  0  0  0  0
    9.6400    5.0420  -59.1870 C   0  0  0  0  0  0  0  0  0  0  0  0
   10.0550    5.3200  -57.7150 C   0  0  0  0  0  0  0  0  0  0  0  0
   10.8730    4.1910  -57.1470 N   0  0  0  0  0  0  0  0  0  0  0  0
   12.1300    3.8850  -57.9330 C   0  0  0  0  0  0  0  0  0  0  0  0
   11.8970    3.9500  -59.4740 C   0  0  0  0  0  0  0  0  0  0  0  0
    7.3220    2.0780  -58.3320 C   0  0  0  0  0  0  0  0  0  0  0  0
    8.4490    1.9820  -57.7360 N   0  0  0  0  0  0  0  0  0  0  0  0
    8.4900    2.1260  -56.2760 C   0  0  0  0  0  0  0  0  0  0  0  0
    9.1980    0.9080  -55.6760 C   0  0  0  0  0  0  0  0  0  0  0  0
    8.3400    0.0200  -54.7430 C   0  0  2  0  0  0  0  0  0  0  0  0
    6.9090   -0.0820  -55.3410 C   0  0  0  0  0  0  0  0  0  0  0  0
    6.0040   -0.9570  -54.4600 C   0  0  1  0  0  0  0  0  0  0  0  0
    6.6060   -2.3680  -54.3620 C   0  0  0  0  0  0  0  0  0  0  0  0
    8.0110   -2.2950  -53.7440 C   0  0  2  0  0  0  0  0  0  0  0  0
    7.9160   -1.6730  -52.3410 C   0  0  0  0  0  0  0  0  0  0  0  0
    7.3190   -0.2590  -52.4310 C   0  0  2  0  0  0  0  0  0  0  0  0
    5.9180   -0.3400  -53.0560 C   0  0  0  0  0  0  0  0  0  0  0  0
    8.2240    0.6160  -53.3170 C   0  0  0  0  0  0  0  0  0  0  0  0
    8.9140   -1.4160  -54.6280 C   0  0  0  0  0  0  0  0  0  0  0  0
    6.0350    2.3360  -57.7980 N   0  0  0  0  0  0  0  0  0  0  0  0
    5.2400    2.4430  -58.9170 N   0  0  0  0  0  0  0  0  0  0  0  0
    3.0822    2.4426  -58.5471 H   0  0  0  0  0  0  0  0  0  0  0  0
    9.1221    1.3705  -60.1568 H   0  0  0  0  0  0  0  0  0  0  0  0
    7.8590    1.0390  -61.4354 H   0  0  0  0  0  0  0  0  0  0  0  0
    8.5156    2.8197  -62.5081 H   0  0  0  0  0  0  0  0  0  0  0  0
    7.9625    3.7958  -61.0092 H   0  0  0  0  0  0  0  0  0  0  0  0
   10.7567    2.9054  -61.6647 H   0  0  0  0  0  0  0  0  0  0  0  0
   10.0318    4.5923  -61.7291 H   0  0  0  0  0  0  0  0  0  0  0  0
   10.0670    3.0400  -59.2770 H   0  0  0  0  0  0  0  0  0  0  0  0
    9.8401    5.9409  -59.7886 H   0  0  0  0  0  0  0  0  0  0  0  0
    8.5698    4.7878  -59.1969 H   0  0  0  0  0  0  0  0  0  0  0  0
   10.6501    6.2445  -57.6804 H   0  0  0  0  0  0  0  0  0  0  0  0
    9.1400    5.4189  -57.1125 H   0  0  0  0  0  0  0  0  0  0  0  0
   10.2720    3.3390  -57.0640 H   0  0  0  0  0  0  0  0  0  0  0  0
   11.1220    4.4000  -56.1660 H   0  0  0  0  0  0  0  0  0  0  0  0
   12.9040    4.6179  -57.6613 H   0  0  0  0  0  0  0  0  0  0  0  0
   12.4411    2.8599  -57.6833 H   0  0  0  0  0  0  0  0  0  0  0  0
   12.2926    4.9007  -59.8608 H   0  0  0  0  0  0  0  0  0  0  0  0
   12.4151    3.1042  -59.9497 H   0  0  0  0  0  0  0  0  0  0  0  0
    9.0405    3.0406  -56.0107 H   0  0  0  0  0  0  0  0  0  0  0  0
    7.4661    2.1939  -55.8798 H   0  0  0  0  0  0  0  0  0  0  0  0
    9.5519    0.2804  -56.5072 H   0  0  0  0  0  0  0  0  0  0  0  0
   10.0033    1.3123  -55.0450 H   0  0  0  0  0  0  0  0  0  0  0  0
    6.4759    0.9267  -55.4111 H   0  0  0  0  0  0  0  0  0  0  0  0
    6.9781   -0.5424  -56.3376 H   0  0  0  0  0  0  0  0  0  0  0  0
    4.9976   -1.0150  -54.9002 H   0  0  0  0  0  0  0  0  0  0  0  0
    5.9616   -2.9965  -53.7297 H   0  0  0  0  0  0  0  0  0  0  0  0
    6.6757   -2.8030  -55.3699 H   0  0  0  0  0  0  0  0  0  0  0  0
    8.4358   -3.3072  -53.6742 H   0  0  0  0  0  0  0  0  0  0  0  0
    7.2720   -2.3005  -51.7074 H   0  0  0  0  0  0  0  0  0  0  0  0
    8.9239   -1.6119  -51.9045 H   0  0  0  0  0  0  0  0  0  0  0  0
    7.2491    0.1808  -51.4252 H   0  0  0  0  0  0  0  0  0  0  0  0
    5.2720   -0.9653  -52.4222 H   0  0  0  0  0  0  0  0  0  0  0  0
    5.4974    0.6736  -53.1321 H   0  0  0  0  0  0  0  0  0  0  0  0
    7.7958    1.6271  -53.3824 H   0  0  0  0  0  0  0  0  0  0  0  0
    9.2274    0.6535  -52.8678 H   0  0  0  0  0  0  0  0  0  0  0  0
    9.9187   -1.3684  -54.1828 H   0  0  0  0  0  0  0  0  0  0  0  0
    8.9622   -1.8587  -55.6338 H   0  0  0  0  0  0  0  0  0  0  0  0
    6.0220    3.1470  -57.1850 H   0  0  0  0  0  0  0  0  0  0  0  0
  1  2  2  0
  2  3  1  0
  3  4  2  0
  4  5  1  0
  5  6  1  0
  6  7  1  0
  7  8  1  0
  8  9  1  0
  9 10  1  0
 10 11  1  0
 11 12  1  0
 12 13  1  0
 13 14  1  0
  5 15  1  0
 15 16  2  0
 16 17  1  0
 17 18  1  0
 19 18  1  6
 19 20  1  0
 20 21  1  0
 21 22  1  0
 22 23  1  0
 23 24  1  0
 24 25  1  0
 25 26  1  0
 25 27  1  0
 23 28  1  0
 15 29  1  0
 29 30  1  0
 30  1  1  0
 30  4  1  0
 14  9  1  0
 27 19  1  0
 28 19  1  0
 26 21  1  0
  1 31  1  0
  6 32  1  0
  6 33  1  0
  7 34  1  0
  7 35  1  0
  8 36  1  0
  8 37  1  0
  9 38  1  0
 10 39  1  0
 10 40  1  0
 11 41  1  0
 11 42  1  0
 12 43  1  0
 12 44  1  0
 13 45  1  0
 13 46  1  0
 14 47  1  0
 14 48  1  0
 17 49  1  0
 17 50  1  0
 18 51  1  0
 18 52  1  0
 20 53  1  0
 20 54  1  0
 21 55  1  6
 22 56  1  0
 22 57  1  0
 23 58  1  1
 24 59  1  0
 24 60  1  0
 25 61  1  1
 26 62  1  0
 26 63  1  0
 27 64  1  0
 27 65  1  0
 28 66  1  0
 28 67  1  0
 29 68  1  0
M  CHG  2   9   1  12   1
M  END
>  <meeko>  (68) 
{"is_sidechain": false}

$$$$

     RDKit          3D

 68 73  0  0  0  0  0  0  0  0999 V2000
    7.0300   -2.0760  -52.0320 C   0  0  0  0  0  0  0  0  0  0  0  0
    7.7940   -3.1270  -51.7410 N   0  0  0  0  0  0  0  0  0  0  0  0
    8.9990   -2.9800  -52.4140 N   0  0  0  0  0  0  0  0  0  0  0  0
    8.9150   -1.8590  -53.0820 C   0  0  0  0  0  0  0  0  0  0  0  0
    9.6040   -1.0650  -53.9280 N   0  0  0  0  0  0  0  0  0  0  0  0
   10.8460   -1.4780  -54.5640 C   0  0  0  0  0  0  0  0  0  0  0  0
   10.7080   -2.7110  -55.4840 C   0  0  0  0  0  0  0  0  0  0  0  0
   11.4290   -3.9370  -54.9220 C   0  0  0  0  0  0  0  0  0  0  0  0
   11.4920   -5.1200  -55.8920 N   0  0  0  0  0  0  0  0  0  0  0  0
   10.7690   -4.9880  -57.2540 C   0  0  0  0  0  0  0  0  0  0  0  0
   11.7240   -4.8090  -58.4630 C   0  0  0  0  0  0  0  0  0  0  0  0
   12.9410   -4.0250  -58.0820 N   0  0  0  0  0  0  0  0  0  0  0  0
   13.7670   -4.6410  -56.9880 C   0  0  0  0  0  0  0  0  0  0  0  0
   12.9390   -5.5970  -56.0790 C   0  0  0  0  0  0  0  0  0  0  0  0
    8.7230   -0.0350  -54.3560 C   0  0  0  0  0  0  0  0  0  0  0  0
    8.6990    0.8170  -55.3030 N   0  0  0  0  0  0  0  0  0  0  0  0
    9.7330    1.0440  -56.2930 C   0  0  0  0  0  0  0  0  0  0  0  0
   10.0170    2.5420  -56.4110 C   0  0  0  0  0  0  0  0  0  0  0  0
    9.4830    3.2330  -57.6900 C   0  0  2  0  0  0  0  0  0  0  0  0
    9.5590    2.3030  -58.9260 C   0  0  0  0  0  0  0  0  0  0  0  0
    9.0770    3.0360  -60.1910 C   0  0  1  0  0  0  0  0  0  0  0  0
    7.6210    3.4890  -59.9870 C   0  0  0  0  0  0  0  0  0  0  0  0
    7.5290    4.4390  -58.7820 C   0  0  2  0  0  0  0  0  0  0  0  0
    8.4200    5.6640  -59.0330 C   0  0  0  0  0  0  0  0  0  0  0  0
    9.8770    5.2220  -59.2340 C   0  0  2  0  0  0  0  0  0  0  0  0
    9.9610    4.2690  -60.4360 C   0  0  0  0  0  0  0  0  0  0  0  0
   10.3580    4.4870  -57.9730 C   0  0  0  0  0  0  0  0  0  0  0  0
    8.0160    3.7040  -57.5200 C   0  0  0  0  0  0  0  0  0  0  0  0
    7.5820   -0.0980  -53.5290 N   0  0  0  0  0  0  0  0  0  0  0  0
    7.7110   -1.2790  -52.8860 N   0  0  0  0  0  0  0  0  0  0  0  0
    6.0180   -1.8882  -51.6440 H   0  0  0  0  0  0  0  0  0  0  0  0
   11.2204   -0.6379  -55.1673 H   0  0  0  0  0  0  0  0  0  0  0  0
   11.5351   -1.7631  -53.7554 H   0  0  0  0  0  0  0  0  0  0  0  0
    9.6403   -2.9497  -55.5981 H   0  0  0  0  0  0  0  0  0  0  0  0
   11.1693   -2.4629  -56.4513 H   0  0  0  0  0  0  0  0  0  0  0  0
   12.4579   -3.6455  -54.6643 H   0  0  0  0  0  0  0  0  0  0  0  0
   10.8527   -4.2725  -54.0471 H   0  0  0  0  0  0  0  0  0  0  0  0
   11.0000   -5.8800  -55.3930 H   0  0  0  0  0  0  0  0  0  0  0  0
   10.1714   -5.8969  -57.4174 H   0  0  0  0  0  0  0  0  0  0  0  0
   10.1526   -4.0785  -57.1992 H   0  0  0  0  0  0  0  0  0  0  0  0
   12.0348   -5.8004  -58.8243 H   0  0  0  0  0  0  0  0  0  0  0  0
   11.1884   -4.2587  -59.2506 H   0  0  0  0  0  0  0  0  0  0  0  0
   12.6200   -3.0630  -57.8190 H   0  0  0  0  0  0  0  0  0  0  0  0
   13.5240   -3.8450  -58.9170 H   0  0  0  0  0  0  0  0  0  0  0  0
   14.5877   -5.2128  -57.4456 H   0  0  0  0  0  0  0  0  0  0  0  0
   14.1452   -3.8242  -56.3557 H   0  0  0  0  0  0  0  0  0  0  0  0
   12.9248   -6.5966  -56.5380 H   0  0  0  0  0  0  0  0  0  0  0  0
   13.4167   -5.6149  -55.0883 H   0  0  0  0  0  0  0  0  0  0  0  0
   10.6515    0.5210  -55.9883 H   0  0  0  0  0  0  0  0  0  0  0  0
    9.3941    0.6607  -57.2668 H   0  0  0  0  0  0  0  0  0  0  0  0
    9.5611    3.0409  -55.5431 H   0  0  0  0  0  0  0  0  0  0  0  0
   11.1121    2.6346  -56.4578 H   0  0  0  0  0  0  0  0  0  0  0  0
   10.6005    1.9800  -59.0709 H   0  0  0  0  0  0  0  0  0  0  0  0
    8.9091    1.4325  -58.7532 H   0  0  0  0  0  0  0  0  0  0  0  0
    9.1403    2.3602  -61.0566 H   0  0  0  0  0  0  0  0  0  0  0  0
    7.2723    4.0115  -60.8900 H   0  0  0  0  0  0  0  0  0  0  0  0
    6.9916    2.6066  -59.7995 H   0  0  0  0  0  0  0  0  0  0  0  0
    6.4871    4.7632  -58.6430 H   0  0  0  0  0  0  0  0  0  0  0  0
    8.0712    6.1895  -59.9342 H   0  0  0  0  0  0  0  0  0  0  0  0
    8.3633    6.3357  -58.1637 H   0  0  0  0  0  0  0  0  0  0  0  0
   10.5087    6.1036  -59.4177 H   0  0  0  0  0  0  0  0  0  0  0  0
    9.6152    4.7915  -61.3401 H   0  0  0  0  0  0  0  0  0  0  0  0
   11.0039    3.9454  -60.5684 H   0  0  0  0  0  0  0  0  0  0  0  0
   11.4021    4.1719  -58.1167 H   0  0  0  0  0  0  0  0  0  0  0  0
   10.2761    5.1717  -57.1160 H   0  0  0  0  0  0  0  0  0  0  0  0
    7.9534    4.3855  -56.6588 H   0  0  0  0  0  0  0  0  0  0  0  0
    7.3788    2.8222  -57.3571 H   0  0  0  0  0  0  0  0  0  0  0  0
    6.7240    0.0990  -54.0340 H   0  0  0  0  0  0  0  0  0  0  0  0
  1  2  2  0
  2  3  1  0
  3  4  2  0
  4  5  1  0
  5  6  1  0
  6  7  1  0
  7  8  1  0
  8  9  1  0
  9 10  1  0
 10 11  1  0
 11 12  1  0
 12 13  1  0
 13 14  1  0
  5 15  1  0
 15 16  2  0
 16 17  1  0
 17 18  1  0
 19 18  1  1
 19 20  1  0
 20 21  1  0
 21 22  1  0
 22 23  1  0
 23 24  1  0
 24 25  1  0
 25 26  1  0
 25 27  1  0
 23 28  1  0
 15 29  1  0
 29 30  1  0
 30  1  1  0
 30  4  1  0
 14  9  1  0
 27 19  1  0
 28 19  1  0
 26 21  1  0
  1 31  1  0
  6 32  1  0
  6 33  1  0
  7 34  1  0
  7 35  1  0
  8 36  1  0
  8 37  1  0
  9 38  1  0
 10 39  1  0
 10 40  1  0
 11 41  1  0
 11 42  1  0
 12 43  1  0
 12 44  1  0
 13 45  1  0
 13 46  1  0
 14 47  1  0
 14 48  1  0
 17 49  1  0
 17 50  1  0
 18 51  1  0
 18 52  1  0
 20 53  1  0
 20 54  1  0
 21 55  1  6
 22 56  1  0
 22 57  1  0
 23 58  1  1
 24 59  1  0
 24 60  1  0
 25 61  1  6
 26 62  1  0
 26 63  1  0
 27 64  1  0
 27 65  1  0
 28 66  1  0
 28 67  1  0
 29 68  1  0
M  CHG  2   9   1  12   1
M  END
>  <meeko>  (69) 
{"is_sidechain": false}

$$$$

     RDKit          3D

 44 48  0  0  0  0  0  0  0  0999 V2000
    6.3200   -4.1670  -50.4480 C   0  0  0  0  0  0  0  0  0  0  0  0
    7.3850   -3.3680  -50.1960 C   0  0  0  0  0  0  0  0  0  0  0  0
    7.8060   -2.8820  -51.4500 C   0  0  0  0  0  0  0  0  0  0  0  0
    8.6060   -2.0530  -52.0640 N   0  0  0  0  0  0  0  0  0  0  0  0
    8.1650   -2.1680  -53.3750 C   0  0  0  0  0  0  0  0  0  0  0  0
    8.7400   -1.4530  -54.3490 N   0  0  0  0  0  0  0  0  0  0  0  0
   10.0150   -1.8050  -54.9280 C   0  0  0  0  0  0  0  0  0  0  0  0
   10.3530   -3.2970  -54.8160 C   0  0  0  0  0  0  0  0  0  0  0  0
   11.1750   -3.9640  -55.9520 C   0  0  2  0  0  0  0  0  0  0  0  0
   12.3070   -4.8060  -55.2890 C   0  0  0  0  0  0  0  0  0  0  0  0
   13.1770   -5.5030  -56.3450 C   0  0  1  0  0  0  0  0  0  0  0  0
   12.2950   -6.4410  -57.1820 C   0  0  0  0  0  0  0  0  0  0  0  0
   11.1880   -5.6350  -57.8750 C   0  0  2  0  0  0  0  0  0  0  0  0
   11.8260   -4.5740  -58.7870 C   0  0  0  0  0  0  0  0  0  0  0  0
   12.7070   -3.6270  -57.9550 C   0  0  2  0  0  0  0  0  0  0  0  0
   13.8080   -4.4420  -57.2590 C   0  0  0  0  0  0  0  0  0  0  0  0
   11.8370   -2.9280  -56.8930 C   0  0  0  0  0  0  0  0  0  0  0  0
   10.3210   -4.9320  -56.8120 C   0  0  0  0  0  0  0  0  0  0  0  0
    7.1350   -3.0080  -53.5770 N   0  0  0  0  0  0  0  0  0  0  0  0
    6.9930   -3.4740  -52.3560 N   0  0  0  0  0  0  0  0  0  0  0  0
    6.0470   -4.3020  -51.8210 N   0  0  0  0  0  0  0  0  0  0  0  0
    5.7302   -4.6589  -49.6605 H   0  0  0  0  0  0  0  0  0  0  0  0
    7.8294   -3.1447  -49.2148 H   0  0  0  0  0  0  0  0  0  0  0  0
    8.1400   -0.8490  -54.8950 H   0  0  0  0  0  0  0  0  0  0  0  0
    9.9998   -1.5315  -55.9934 H   0  0  0  0  0  0  0  0  0  0  0  0
   10.7855   -1.2580  -54.3648 H   0  0  0  0  0  0  0  0  0  0  0  0
   10.9215   -3.4308  -53.8839 H   0  0  0  0  0  0  0  0  0  0  0  0
    9.3743   -3.7965  -54.8667 H   0  0  0  0  0  0  0  0  0  0  0  0
   12.9413   -4.1406  -54.6849 H   0  0  0  0  0  0  0  0  0  0  0  0
   11.8411   -5.5781  -54.6591 H   0  0  0  0  0  0  0  0  0  0  0  0
   13.9711   -6.0837  -55.8529 H   0  0  0  0  0  0  0  0  0  0  0  0
   12.9129   -6.9410  -57.9424 H   0  0  0  0  0  0  0  0  0  0  0  0
   11.8373   -7.1929  -56.5224 H   0  0  0  0  0  0  0  0  0  0  0  0
   10.5616   -6.3129  -58.4734 H   0  0  0  0  0  0  0  0  0  0  0  0
   12.4443   -5.0721  -59.5483 H   0  0  0  0  0  0  0  0  0  0  0  0
   11.0306   -3.9918  -59.2753 H   0  0  0  0  0  0  0  0  0  0  0  0
   13.1659   -2.8722  -58.6105 H   0  0  0  0  0  0  0  0  0  0  0  0
   14.4293   -4.9386  -58.0189 H   0  0  0  0  0  0  0  0  0  0  0  0
   14.4294   -3.7663  -56.6529 H   0  0  0  0  0  0  0  0  0  0  0  0
   12.4688   -2.2526  -56.2975 H   0  0  0  0  0  0  0  0  0  0  0  0
   11.0450   -2.3616  -57.4048 H   0  0  0  0  0  0  0  0  0  0  0  0
    9.5268   -4.3611  -57.3153 H   0  0  0  0  0  0  0  0  0  0  0  0
    9.8856   -5.6968  -56.1521 H   0  0  0  0  0  0  0  0  0  0  0  0
    5.1150   -3.9830  -52.0710 H   0  0  0  0  0  0  0  0  0  0  0  0
  1  2  2  0
  2  3  1  0
  3  4  2  0
  4  5  1  0
  5  6  1  0
  6  7  1  0
  7  8  1  0
  9  8  1  1
  9 10  1  0
 10 11  1  0
 11 12  1  0
 12 13  1  0
 13 14  1  0
 14 15  1  0
 15 16  1  0
 15 17  1  0
 13 18  1  0
  5 19  2  0
 19 20  1  0
 20 21  1  0
 21  1  1  0
 20  3  1  0
 17  9  1  0
 18  9  1  0
 16 11  1  0
  1 22  1  0
  2 23  1  0
  6 24  1  0
  7 25  1  0
  7 26  1  0
  8 27  1  0
  8 28  1  0
 10 29  1  0
 10 30  1  0
 11 31  1  1
 12 32  1  0
 12 33  1  0
 13 34  1  6
 14 35  1  0
 14 36  1  0
 15 37  1  6
 16 38  1  0
 16 39  1  0
 17 40  1  0
 17 41  1  0
 18 42  1  0
 18 43  1  0
 21 44  1  0
M  END
>  <meeko>  (70) 
{"is_sidechain": false}

$$$$

     RDKit          3D

 44 48  0  0  0  0  0  0  0  0999 V2000
    3.0240    1.1430  -61.5140 C   0  0  0  0  0  0  0  0  0  0  0  0
    4.3060    0.7220  -61.4550 C   0  0  0  0  0  0  0  0  0  0  0  0
    4.7570    1.5090  -60.3000 C   0  0  0  0  0  0  0  0  0  0  0  0
    5.7150    1.3280  -59.4420 N   0  0  0  0  0  0  0  0  0  0  0  0
    5.3090    2.1910  -58.4220 C   0  0  0  0  0  0  0  0  0  0  0  0
    6.0430    2.5080  -57.4160 N   0  0  0  0  0  0  0  0  0  0  0  0
    7.3600    1.8710  -57.3110 C   0  0  0  0  0  0  0  0  0  0  0  0
    8.3760    2.8880  -56.7830 C   0  0  0  0  0  0  0  0  0  0  0  0
    9.4060    3.4120  -57.8120 C   0  0  2  0  0  0  0  0  0  0  0  0
   10.7520    3.7920  -57.1460 C   0  0  0  0  0  0  0  0  0  0  0  0
   11.7340    4.3620  -58.1860 C   0  0  1  0  0  0  0  0  0  0  0  0
   11.9870    3.3050  -59.2750 C   0  0  0  0  0  0  0  0  0  0  0  0
   10.6660    2.9380  -59.9700 C   0  0  2  0  0  0  0  0  0  0  0  0
   10.0600    4.1990  -60.6060 C   0  0  0  0  0  0  0  0  0  0  0  0
    9.8000    5.2580  -59.5250 C   0  0  2  0  0  0  0  0  0  0  0  0
   11.1230    5.6160  -58.8310 C   0  0  0  0  0  0  0  0  0  0  0  0
    8.8240    4.6870  -58.4840 C   0  0  0  0  0  0  0  0  0  0  0  0
    9.6860    2.3700  -58.9250 C   0  0  0  0  0  0  0  0  0  0  0  0
    4.0410    2.7210  -58.6590 N   0  0  0  0  0  0  0  0  0  0  0  0
    3.8460    2.5170  -59.9830 N   0  0  0  0  0  0  0  0  0  0  0  0
    2.6810    2.1000  -60.5500 N   0  0  0  0  0  0  0  0  0  0  0  0
    2.3076    0.7652  -62.2583 H   0  0  0  0  0  0  0  0  0  0  0  0
    4.8505    0.0032  -62.0849 H   0  0  0  0  0  0  0  0  0  0  0  0
    7.3010    1.0180  -56.6190 H   0  0  0  0  0  0  0  0  0  0  0  0
    7.6767    1.5161  -58.3028 H   0  0  0  0  0  0  0  0  0  0  0  0
    7.8171    3.7526  -56.3956 H   0  0  0  0  0  0  0  0  0  0  0  0
    8.9624    2.3541  -56.0207 H   0  0  0  0  0  0  0  0  0  0  0  0
   10.5692    4.5493  -56.3694 H   0  0  0  0  0  0  0  0  0  0  0  0
   11.1938    2.8877  -56.7020 H   0  0  0  0  0  0  0  0  0  0  0  0
   12.6821    4.6246  -57.6939 H   0  0  0  0  0  0  0  0  0  0  0  0
   12.6895    3.7093  -60.0186 H   0  0  0  0  0  0  0  0  0  0  0  0
   12.4127    2.4034  -58.8104 H   0  0  0  0  0  0  0  0  0  0  0  0
   10.8521    2.1855  -60.7505 H   0  0  0  0  0  0  0  0  0  0  0  0
   10.7602    4.6036  -61.3516 H   0  0  0  0  0  0  0  0  0  0  0  0
    9.1085    3.9372  -61.0919 H   0  0  0  0  0  0  0  0  0  0  0  0
    9.3699    6.1587  -59.9873 H   0  0  0  0  0  0  0  0  0  0  0  0
   11.8254    6.0229  -59.5734 H   0  0  0  0  0  0  0  0  0  0  0  0
   10.9298    6.3662  -58.0501 H   0  0  0  0  0  0  0  0  0  0  0  0
    8.6376    5.4473  -57.7112 H   0  0  0  0  0  0  0  0  0  0  0  0
    7.8876    4.4168  -58.9941 H   0  0  0  0  0  0  0  0  0  0  0  0
    8.7398    2.1093  -59.4217 H   0  0  0  0  0  0  0  0  0  0  0  0
   10.1360    1.4766  -58.4675 H   0  0  0  0  0  0  0  0  0  0  0  0
    3.9540    3.6640  -58.3050 H   0  0  0  0  0  0  0  0  0  0  0  0
    2.0650    2.8320  -60.9000 H   0  0  0  0  0  0  0  0  0  0  0  0
  1  2  2  0
  2  3  1  0
  3  4  2  0
  4  5  1  0
  5  6  2  0
  6  7  1  0
  7  8  1  0
  9  8  1  1
  9 10  1  0
 10 11  1  0
 11 12  1  0
 12 13  1  0
 13 14  1  0
 14 15  1  0
 15 16  1  0
 15 17  1  0
 13 18  1  0
  5 19  1  0
 19 20  1  0
 20 21  1  0
 21  1  1  0
 20  3  1  0
 17  9  1  0
 18  9  1  0
 16 11  1  0
  1 22  1  0
  2 23  1  0
  7 24  1  0
  7 25  1  0
  8 26  1  0
  8 27  1  0
 10 28  1  0
 10 29  1  0
 11 30  1  1
 12 31  1  0
 12 32  1  0
 13 33  1  6
 14 34  1  0
 14 35  1  0
 15 36  1  6
 16 37  1  0
 16 38  1  0
 17 39  1  0
 17 40  1  0
 18 41  1  0
 18 42  1  0
 19 43  1  0
 21 44  1  0
M  END
>  <meeko>  (71) 
{"is_sidechain": false}

$$$$

     RDKit          3D

 44 48  0  0  0  0  0  0  0  0999 V2000
    3.3500    2.1390  -62.5410 C   0  0  0  0  0  0  0  0  0  0  0  0
    2.5700    2.2170  -61.4410 C   0  0  0  0  0  0  0  0  0  0  0  0
    3.6020    2.0300  -60.4110 C   0  0  0  0  0  0  0  0  0  0  0  0
    3.6630    2.3820  -59.1630 N   0  0  0  0  0  0  0  0  0  0  0  0
    5.0360    2.2810  -58.9290 C   0  0  0  0  0  0  0  0  0  0  0  0
    5.4430    2.4240  -57.7240 N   0  0  0  0  0  0  0  0  0  0  0  0
    6.8840    2.3320  -57.4960 C   0  0  0  0  0  0  0  0  0  0  0  0
    7.4530    3.7550  -57.4930 C   0  0  0  0  0  0  0  0  0  0  0  0
    8.8100    3.9440  -58.2140 C   0  0  2  0  0  0  0  0  0  0  0  0
    9.6410    2.6410  -58.0430 C   0  0  0  0  0  0  0  0  0  0  0  0
   11.0070    2.7630  -58.7390 C   0  0  1  0  0  0  0  0  0  0  0  0
   10.7870    3.0260  -60.2370 C   0  0  0  0  0  0  0  0  0  0  0  0
    9.9940    4.3270  -60.4310 C   0  0  2  0  0  0  0  0  0  0  0  0
   10.7770    5.4950  -59.8080 C   0  0  0  0  0  0  0  0  0  0  0  0
   10.9940    5.2430  -58.3070 C   0  0  2  0  0  0  0  0  0  0  0  0
   11.7830    3.9380  -58.1230 C   0  0  0  0  0  0  0  0  0  0  0  0
    9.6260    5.1170  -57.6120 C   0  0  0  0  0  0  0  0  0  0  0  0
    8.6280    4.2030  -59.7310 C   0  0  0  0  0  0  0  0  0  0  0  0
    5.7450    1.9970  -60.1030 N   0  0  0  0  0  0  0  0  0  0  0  0
    4.7930    1.5620  -60.9630 N   0  0  0  0  0  0  0  0  0  0  0  0
    4.7070    1.9010  -62.2790 N   0  0  0  0  0  0  0  0  0  0  0  0
    2.9527    2.2530  -63.5604 H   0  0  0  0  0  0  0  0  0  0  0  0
    1.4855    2.3738  -61.3446 H   0  0  0  0  0  0  0  0  0  0  0  0
    7.0789    1.8497  -56.5268 H   0  0  0  0  0  0  0  0  0  0  0  0
    7.3590    1.7314  -58.2857 H   0  0  0  0  0  0  0  0  0  0  0  0
    6.7182    4.4125  -57.9806 H   0  0  0  0  0  0  0  0  0  0  0  0
    7.6418    3.9971  -56.4367 H   0  0  0  0  0  0  0  0  0  0  0  0
    9.7991    2.4534  -56.9707 H   0  0  0  0  0  0  0  0  0  0  0  0
    9.0868    1.8092  -58.5022 H   0  0  0  0  0  0  0  0  0  0  0  0
   11.5790    1.8327  -58.6071 H   0  0  0  0  0  0  0  0  0  0  0  0
   11.7621    3.1156  -60.7382 H   0  0  0  0  0  0  0  0  0  0  0  0
   10.2199    2.1893  -60.6710 H   0  0  0  0  0  0  0  0  0  0  0  0
    9.8433    4.5102  -61.5051 H   0  0  0  0  0  0  0  0  0  0  0  0
   11.7532    5.5859  -60.3067 H   0  0  0  0  0  0  0  0  0  0  0  0
   10.2028    6.4242  -59.9383 H   0  0  0  0  0  0  0  0  0  0  0  0
   11.5562    6.0792  -57.8657 H   0  0  0  0  0  0  0  0  0  0  0  0
   12.7599    4.0299  -58.6201 H   0  0  0  0  0  0  0  0  0  0  0  0
   11.9271    3.7517  -57.0485 H   0  0  0  0  0  0  0  0  0  0  0  0
    9.7820    4.9345  -56.5385 H   0  0  0  0  0  0  0  0  0  0  0  0
    9.0656    6.0514  -57.7634 H   0  0  0  0  0  0  0  0  0  0  0  0
    8.0639    5.1367  -59.8726 H   0  0  0  0  0  0  0  0  0  0  0  0
    8.0814    3.3557  -60.1708 H   0  0  0  0  0  0  0  0  0  0  0  0
    6.5320    1.3810  -59.9570 H   0  0  0  0  0  0  0  0  0  0  0  0
    5.1390    1.2550  -62.9370 H   0  0  0  0  0  0  0  0  0  0  0  0
  1  2  2  0
  2  3  1  0
  3  4  2  0
  4  5  1  0
  5  6  2  0
  6  7  1  0
  7  8  1  0
  9  8  1  1
  9 10  1  0
 10 11  1  0
 11 12  1  0
 12 13  1  0
 13 14  1  0
 14 15  1  0
 15 16  1  0
 15 17  1  0
 13 18  1  0
  5 19  1  0
 19 20  1  0
 20 21  1  0
 21  1  1  0
 20  3  1  0
 17  9  1  0
 18  9  1  0
 16 11  1  0
  1 22  1  0
  2 23  1  0
  7 24  1  0
  7 25  1  0
  8 26  1  0
  8 27  1  0
 10 28  1  0
 10 29  1  0
 11 30  1  6
 12 31  1  0
 12 32  1  0
 13 33  1  6
 14 34  1  0
 14 35  1  0
 15 36  1  1
 16 37  1  0
 16 38  1  0
 17 39  1  0
 17 40  1  0
 18 41  1  0
 18 42  1  0
 19 43  1  0
 21 44  1  0
M  END
>  <meeko>  (72) 
{"is_sidechain": false}

$$$$

     RDKit          3D

 44 48  0  0  0  0  0  0  0  0999 V2000
    2.9880    1.6370  -61.9660 C   0  0  0  0  0  0  0  0  0  0  0  0
    4.2850    1.0650  -61.7910 C   0  0  0  0  0  0  0  0  0  0  0  0
    4.6310    1.5100  -60.5560 C   0  0  0  0  0  0  0  0  0  0  0  0
    5.5400    1.5000  -59.5710 N   0  0  0  0  0  0  0  0  0  0  0  0
    4.9380    2.1830  -58.5290 C   0  0  0  0  0  0  0  0  0  0  0  0
    5.5700    2.3020  -57.3360 N   0  0  0  0  0  0  0  0  0  0  0  0
    7.0100    2.4070  -57.1740 C   0  0  0  0  0  0  0  0  0  0  0  0
    7.4750    3.8420  -57.4420 C   0  0  0  0  0  0  0  0  0  0  0  0
    8.8270    3.9870  -58.1840 C   0  0  2  0  0  0  0  0  0  0  0  0
    8.6320    4.2260  -59.7030 C   0  0  0  0  0  0  0  0  0  0  0  0
    9.9920    4.3060  -60.4200 C   0  0  1  0  0  0  0  0  0  0  0  0
   10.8090    5.4660  -59.8260 C   0  0  0  0  0  0  0  0  0  0  0  0
   11.0380    5.2320  -58.3240 C   0  0  2  0  0  0  0  0  0  0  0  0
   11.7990    3.9130  -58.1270 C   0  0  0  0  0  0  0  0  0  0  0  0
   10.9890    2.7470  -58.7150 C   0  0  2  0  0  0  0  0  0  0  0  0
   10.7580    2.9900  -60.2140 C   0  0  0  0  0  0  0  0  0  0  0  0
    9.6290    2.6680  -58.0010 C   0  0  0  0  0  0  0  0  0  0  0  0
    9.6760    5.1500  -57.6110 C   0  0  0  0  0  0  0  0  0  0  0  0
    3.7450    2.6810  -58.7980 N   0  0  0  0  0  0  0  0  0  0  0  0
    3.5960    2.2500  -60.0760 N   0  0  0  0  0  0  0  0  0  0  0  0
    2.5660    2.3570  -60.9100 N   0  0  0  0  0  0  0  0  0  0  0  0
    2.3896    1.5017  -62.8790 H   0  0  0  0  0  0  0  0  0  0  0  0
    4.8572    0.4270  -62.4806 H   0  0  0  0  0  0  0  0  0  0  0  0
    6.1930    0.7510  -59.3900 H   0  0  0  0  0  0  0  0  0  0  0  0
    5.0460    2.9030  -56.7050 H   0  0  0  0  0  0  0  0  0  0  0  0
    7.2805    2.1245  -56.1459 H   0  0  0  0  0  0  0  0  0  0  0  0
    7.4997    1.7334  -57.8927 H   0  0  0  0  0  0  0  0  0  0  0  0
    6.7030    4.3390  -58.0478 H   0  0  0  0  0  0  0  0  0  0  0  0
    7.6286    4.2953  -56.4516 H   0  0  0  0  0  0  0  0  0  0  0  0
    8.0484    3.3957  -60.1272 H   0  0  0  0  0  0  0  0  0  0  0  0
    8.1002    5.1782  -59.8459 H   0  0  0  0  0  0  0  0  0  0  0  0
    9.8325    4.4742  -61.4953 H   0  0  0  0  0  0  0  0  0  0  0  0
   11.7809    5.5267  -60.3377 H   0  0  0  0  0  0  0  0  0  0  0  0
   10.2552    6.4062  -59.9649 H   0  0  0  0  0  0  0  0  0  0  0  0
   11.6252    6.0615  -57.9031 H   0  0  0  0  0  0  0  0  0  0  0  0
   12.7721    3.9741  -58.6363 H   0  0  0  0  0  0  0  0  0  0  0  0
   11.9515    3.7409  -57.0513 H   0  0  0  0  0  0  0  0  0  0  0  0
   11.5408    1.8058  -58.5747 H   0  0  0  0  0  0  0  0  0  0  0  0
   11.7290    3.0492  -60.7275 H   0  0  0  0  0  0  0  0  0  0  0  0
   10.1676    2.1594  -60.6281 H   0  0  0  0  0  0  0  0  0  0  0  0
    9.0495    1.8332  -58.4220 H   0  0  0  0  0  0  0  0  0  0  0  0
    9.8055    2.5110  -56.9267 H   0  0  0  0  0  0  0  0  0  0  0  0
    9.8405    4.9817  -56.5365 H   0  0  0  0  0  0  0  0  0  0  0  0
    9.1356    6.0946  -57.7710 H   0  0  0  0  0  0  0  0  0  0  0  0
  1  2  1  0
  2  3  2  0
  3  4  1  0
  4  5  1  0
  5  6  1  0
  6  7  1  0
  7  8  1  0
  9  8  1  1
  9 10  1  0
 10 11  1  0
 11 12  1  0
 12 13  1  0
 13 14  1  0
 14 15  1  0
 15 16  1  0
 15 17  1  0
 13 18  1  0
  5 19  2  0
 19 20  1  0
 20 21  1  0
 21  1  2  0
 20  3  1  0
 17  9  1  0
 18  9  1  0
 16 11  1  0
  1 22  1  0
  2 23  1  0
  4 24  1  0
  6 25  1  0
  7 26  1  0
  7 27  1  0
  8 28  1  0
  8 29  1  0
 10 30  1  0
 10 31  1  0
 11 32  1  6
 12 33  1  0
 12 34  1  0
 13 35  1  1
 14 36  1  0
 14 37  1  0
 15 38  1  6
 16 39  1  0
 16 40  1  0
 17 41  1  0
 17 42  1  0
 18 43  1  0
 18 44  1  0
M  END
>  <meeko>  (73) 
{"is_sidechain": false}

$$$$

     RDKit          3D

 44 48  0  0  0  0  0  0  0  0999 V2000
    3.5750    1.4970  -61.6960 C   0  0  0  0  0  0  0  0  0  0  0  0
    2.8700    2.1700  -60.6540 C   0  0  0  0  0  0  0  0  0  0  0  0
    3.7890    2.2350  -59.6450 C   0  0  0  0  0  0  0  0  0  0  0  0
    4.0030    2.6110  -58.3580 N   0  0  0  0  0  0  0  0  0  0  0  0
    5.2520    2.2160  -58.1730 C   0  0  0  0  0  0  0  0  0  0  0  0
    5.9060    2.3160  -56.9880 N   0  0  0  0  0  0  0  0  0  0  0  0
    7.3430    2.4930  -56.8560 C   0  0  0  0  0  0  0  0  0  0  0  0
    7.7460    3.9120  -57.2670 C   0  0  0  0  0  0  0  0  0  0  0  0
    9.0240    4.0280  -58.1330 C   0  0  2  0  0  0  0  0  0  0  0  0
    9.8030    2.6860  -58.0410 C   0  0  0  0  0  0  0  0  0  0  0  0
   11.0890    2.7360  -58.8810 C   0  0  1  0  0  0  0  0  0  0  0  0
   10.7230    3.0040  -60.3480 C   0  0  0  0  0  0  0  0  0  0  0  0
    9.9790    4.3430  -60.4680 C   0  0  2  0  0  0  0  0  0  0  0  0
   10.8820    5.4720  -59.9450 C   0  0  0  0  0  0  0  0  0  0  0  0
   11.2480    5.2140  -58.4730 C   0  0  2  0  0  0  0  0  0  0  0  0
   11.9860    3.8720  -58.3630 C   0  0  0  0  0  0  0  0  0  0  0  0
    9.9580    5.1600  -57.6330 C   0  0  0  0  0  0  0  0  0  0  0  0
    8.6920    4.2900  -59.6240 C   0  0  0  0  0  0  0  0  0  0  0  0
    5.9200    1.6440  -59.2480 N   0  0  0  0  0  0  0  0  0  0  0  0
    4.9120    1.6770  -60.1390 N   0  0  0  0  0  0  0  0  0  0  0  0
    4.8380    1.1680  -61.3570 N   0  0  0  0  0  0  0  0  0  0  0  0
    3.1328    1.2694  -62.6771 H   0  0  0  0  0  0  0  0  0  0  0  0
    1.8362    2.5458  -60.6612 H   0  0  0  0  0  0  0  0  0  0  0  0
    5.3630    2.8450  -56.3090 H   0  0  0  0  0  0  0  0  0  0  0  0
    7.6346    2.3223  -55.8092 H   0  0  0  0  0  0  0  0  0  0  0  0
    7.8530    1.7729  -57.5127 H   0  0  0  0  0  0  0  0  0  0  0  0
    6.9120    4.3474  -57.8370 H   0  0  0  0  0  0  0  0  0  0  0  0
    7.9730    4.4403  -56.3293 H   0  0  0  0  0  0  0  0  0  0  0  0
   10.0670    2.4948  -56.9904 H   0  0  0  0  0  0  0  0  0  0  0  0
    9.1617    1.8815  -58.4302 H   0  0  0  0  0  0  0  0  0  0  0  0
   11.6237    1.7779  -58.8029 H   0  0  0  0  0  0  0  0  0  0  0  0
   11.6419    3.0425  -60.9515 H   0  0  0  0  0  0  0  0  0  0  0  0
   10.0717    2.1953  -60.7111 H   0  0  0  0  0  0  0  0  0  0  0  0
    9.7220    4.5299  -61.5211 H   0  0  0  0  0  0  0  0  0  0  0  0
   11.8015    5.5117  -60.5474 H   0  0  0  0  0  0  0  0  0  0  0  0
   10.3446    6.4288  -60.0211 H   0  0  0  0  0  0  0  0  0  0  0  0
   11.8962    6.0220  -58.1027 H   0  0  0  0  0  0  0  0  0  0  0  0
   12.9067    3.9121  -58.9635 H   0  0  0  0  0  0  0  0  0  0  0  0
   12.2368    3.6826  -57.3088 H   0  0  0  0  0  0  0  0  0  0  0  0
   10.2199    4.9735  -56.5810 H   0  0  0  0  0  0  0  0  0  0  0  0
    9.4320    6.1211  -57.7314 H   0  0  0  0  0  0  0  0  0  0  0  0
    8.1625    5.2501  -59.7126 H   0  0  0  0  0  0  0  0  0  0  0  0
    8.0600    3.4695  -59.9947 H   0  0  0  0  0  0  0  0  0  0  0  0
    6.2000    0.6920  -59.0680 H   0  0  0  0  0  0  0  0  0  0  0  0
  1  2  1  0
  2  3  2  0
  3  4  1  0
  4  5  2  0
  5  6  1  0
  6  7  1  0
  7  8  1  0
  9  8  1  1
  9 10  1  0
 10 11  1  0
 11 12  1  0
 12 13  1  0
 13 14  1  0
 14 15  1  0
 15 16  1  0
 15 17  1  0
 13 18  1  0
  5 19  1  0
 19 20  1  0
 20 21  1  0
 21  1  2  0
 20  3  1  0
 17  9  1  0
 18  9  1  0
 16 11  1  0
  1 22  1  0
  2 23  1  0
  6 24  1  0
  7 25  1  0
  7 26  1  0
  8 27  1  0
  8 28  1  0
 10 29  1  0
 10 30  1  0
 11 31  1  6
 12 32  1  0
 12 33  1  0
 13 34  1  6
 14 35  1  0
 14 36  1  0
 15 37  1  1
 16 38  1  0
 16 39  1  0
 17 40  1  0
 17 41  1  0
 18 42  1  0
 18 43  1  0
 19 44  1  0
M  END
>  <meeko>  (74) 
{"is_sidechain": false}

$$$$

     RDKit          3D

 44 48  0  0  0  0  0  0  0  0999 V2000
    3.2120    2.1600  -62.5770 C   0  0  0  0  0  0  0  0  0  0  0  0
    4.6040    1.8630  -62.4320 C   0  0  0  0  0  0  0  0  0  0  0  0
    4.7740    1.9190  -61.0850 C   0  0  0  0  0  0  0  0  0  0  0  0
    5.6260    1.8560  -60.0530 N   0  0  0  0  0  0  0  0  0  0  0  0
    4.9450    2.2110  -58.8790 C   0  0  0  0  0  0  0  0  0  0  0  0
    5.4000    2.5010  -57.7160 N   0  0  0  0  0  0  0  0  0  0  0  0
    6.8480    2.4070  -57.5240 C   0  0  0  0  0  0  0  0  0  0  0  0
    7.4220    3.8270  -57.5540 C   0  0  0  0  0  0  0  0  0  0  0  0
    8.7930    3.9890  -58.2530 C   0  0  2  0  0  0  0  0  0  0  0  0
    9.6060    2.6790  -58.0500 C   0  0  0  0  0  0  0  0  0  0  0  0
   10.9840    2.7740  -58.7220 C   0  0  1  0  0  0  0  0  0  0  0  0
   10.7950    3.0160  -60.2270 C   0  0  0  0  0  0  0  0  0  0  0  0
   10.0210    4.3240  -60.4550 C   0  0  2  0  0  0  0  0  0  0  0  0
   10.8070    5.4920  -59.8350 C   0  0  0  0  0  0  0  0  0  0  0  0
   10.9940    5.2590  -58.3280 C   0  0  2  0  0  0  0  0  0  0  0  0
   11.7640    3.9470  -58.1090 C   0  0  0  0  0  0  0  0  0  0  0  0
    9.6130    5.1600  -57.6550 C   0  0  0  0  0  0  0  0  0  0  0  0
    8.6420    4.2270  -59.7780 C   0  0  0  0  0  0  0  0  0  0  0  0
    3.5790    2.2950  -59.1940 N   0  0  0  0  0  0  0  0  0  0  0  0
    3.5700    2.1870  -60.5410 N   0  0  0  0  0  0  0  0  0  0  0  0
    2.5870    2.3870  -61.4030 N   0  0  0  0  0  0  0  0  0  0  0  0
    2.7012    2.1994  -63.5504 H   0  0  0  0  0  0  0  0  0  0  0  0
    5.3477    1.6448  -63.2126 H   0  0  0  0  0  0  0  0  0  0  0  0
    6.6340    1.8330  -60.1010 H   0  0  0  0  0  0  0  0  0  0  0  0
    7.0663    1.9364  -56.5540 H   0  0  0  0  0  0  0  0  0  0  0  0
    7.3001    1.7949  -58.3183 H   0  0  0  0  0  0  0  0  0  0  0  0
    6.6995    4.4712  -58.0764 H   0  0  0  0  0  0  0  0  0  0  0  0
    7.5907    4.1013  -56.5022 H   0  0  0  0  0  0  0  0  0  0  0  0
    9.7429    2.5044  -56.9726 H   0  0  0  0  0  0  0  0  0  0  0  0
    9.0500    1.8480  -58.5086 H   0  0  0  0  0  0  0  0  0  0  0  0
   11.5417    1.8388  -58.5660 H   0  0  0  0  0  0  0  0  0  0  0  0
   11.7801    3.0863  -60.7114 H   0  0  0  0  0  0  0  0  0  0  0  0
   10.2262    2.1794  -60.6590 H   0  0  0  0  0  0  0  0  0  0  0  0
    9.8918    4.4926  -61.5343 H   0  0  0  0  0  0  0  0  0  0  0  0
   11.7929    5.5642  -60.3174 H   0  0  0  0  0  0  0  0  0  0  0  0
   10.2467    6.4260  -59.9889 H   0  0  0  0  0  0  0  0  0  0  0  0
   11.5590    6.0951  -57.8902 H   0  0  0  0  0  0  0  0  0  0  0  0
   12.7511    4.0190  -58.5890 H   0  0  0  0  0  0  0  0  0  0  0  0
   11.8869    3.7752  -57.0295 H   0  0  0  0  0  0  0  0  0  0  0  0
    9.7485    4.9917  -56.5764 H   0  0  0  0  0  0  0  0  0  0  0  0
    9.0670    6.0987  -57.8300 H   0  0  0  0  0  0  0  0  0  0  0  0
    8.0920    5.1650  -59.9439 H   0  0  0  0  0  0  0  0  0  0  0  0
    8.0936    3.3793  -60.2147 H   0  0  0  0  0  0  0  0  0  0  0  0
    3.1340    3.1310  -58.8480 H   0  0  0  0  0  0  0  0  0  0  0  0
  1  2  1  0
  2  3  2  0
  3  4  1  0
  4  5  1  0
  5  6  2  0
  6  7  1  0
  7  8  1  0
  9  8  1  1
  9 10  1  0
 10 11  1  0
 11 12  1  0
 12 13  1  0
 13 14  1  0
 14 15  1  0
 15 16  1  0
 15 17  1  0
 13 18  1  0
  5 19  1  0
 19 20  1  0
 20 21  1  0
 21  1  2  0
 20  3  1  0
 17  9  1  0
 18  9  1  0
 16 11  1  0
  1 22  1  0
  2 23  1  0
  4 24  1  0
  7 25  1  0
  7 26  1  0
  8 27  1  0
  8 28  1  0
 10 29  1  0
 10 30  1  0
 11 31  1  6
 12 32  1  0
 12 33  1  0
 13 34  1  6
 14 35  1  0
 14 36  1  0
 15 37  1  1
 16 38  1  0
 16 39  1  0
 17 40  1  0
 17 41  1  0
 18 42  1  0
 18 43  1  0
 19 44  1  0
M  END
>  <meeko>  (75) 
{"is_sidechain": false}

$$$$

     RDKit          3D

 44 48  0  0  0  0  0  0  0  0999 V2000
    3.6410    1.8740  -61.7440 C   0  0  0  0  0  0  0  0  0  0  0  0
    2.8750    2.1320  -60.5640 C   0  0  0  0  0  0  0  0  0  0  0  0
    3.8400    2.2960  -59.6230 C   0  0  0  0  0  0  0  0  0  0  0  0
    4.1340    2.4900  -58.3340 N   0  0  0  0  0  0  0  0  0  0  0  0
    5.5170    2.4020  -58.1520 C   0  0  0  0  0  0  0  0  0  0  0  0
    6.0550    2.3870  -56.9870 N   0  0  0  0  0  0  0  0  0  0  0  0
    7.5150    2.2870  -56.9040 C   0  0  0  0  0  0  0  0  0  0  0  0
    8.1160    3.6940  -56.8550 C   0  0  0  0  0  0  0  0  0  0  0  0
    9.2750    3.9690  -57.8440 C   0  0  2  0  0  0  0  0  0  0  0  0
   10.5840    4.3490  -57.1050 C   0  0  0  0  0  0  0  0  0  0  0  0
   11.7340    4.5580  -58.1080 C   0  0  1  0  0  0  0  0  0  0  0  0
   11.9650    3.2610  -58.8980 C   0  0  0  0  0  0  0  0  0  0  0  0
   10.6890    2.8780  -59.6630 C   0  0  2  0  0  0  0  0  0  0  0  0
   10.3130    4.0130  -60.6300 C   0  0  0  0  0  0  0  0  0  0  0  0
   10.0760    5.3130  -59.8480 C   0  0  2  0  0  0  0  0  0  0  0  0
   11.3570    5.6860  -59.0830 C   0  0  0  0  0  0  0  0  0  0  0  0
    8.9290    5.1030  -58.8430 C   0  0  0  0  0  0  0  0  0  0  0  0
    9.5420    2.6730  -58.6600 C   0  0  0  0  0  0  0  0  0  0  0  0
    6.1080    2.2860  -59.4260 N   0  0  0  0  0  0  0  0  0  0  0  0
    5.0290    2.1920  -60.2450 N   0  0  0  0  0  0  0  0  0  0  0  0
    4.9730    1.8770  -61.5290 N   0  0  0  0  0  0  0  0  0  0  0  0
    3.1886    1.6911  -62.7299 H   0  0  0  0  0  0  0  0  0  0  0  0
    1.7824    2.1843  -60.4483 H   0  0  0  0  0  0  0  0  0  0  0  0
    3.5190    2.5010  -57.5320 H   0  0  0  0  0  0  0  0  0  0  0  0
    7.7945    1.7360  -55.9939 H   0  0  0  0  0  0  0  0  0  0  0  0
    7.8987    1.7527  -57.7857 H   0  0  0  0  0  0  0  0  0  0  0  0
    7.3111    4.4120  -57.0710 H   0  0  0  0  0  0  0  0  0  0  0  0
    8.5514    3.7969  -55.8501 H   0  0  0  0  0  0  0  0  0  0  0  0
   10.4232    5.2796  -56.5409 H   0  0  0  0  0  0  0  0  0  0  0  0
   10.8549    3.5306  -56.4217 H   0  0  0  0  0  0  0  0  0  0  0  0
   12.6523    4.8271  -57.5655 H   0  0  0  0  0  0  0  0  0  0  0  0
   12.7872    3.4114  -59.6131 H   0  0  0  0  0  0  0  0  0  0  0  0
   12.2229    2.4527  -58.1980 H   0  0  0  0  0  0  0  0  0  0  0  0
   10.8627    1.9510  -60.2291 H   0  0  0  0  0  0  0  0  0  0  0  0
   11.1313    4.1647  -61.3492 H   0  0  0  0  0  0  0  0  0  0  0  0
    9.3913    3.7407  -61.1651 H   0  0  0  0  0  0  0  0  0  0  0  0
    9.8120    6.1204  -60.5469 H   0  0  0  0  0  0  0  0  0  0  0  0
   12.1779    5.8381  -59.7992 H   0  0  0  0  0  0  0  0  0  0  0  0
   11.1819    6.6114  -58.5146 H   0  0  0  0  0  0  0  0  0  0  0  0
    8.7621    6.0365  -58.2856 H   0  0  0  0  0  0  0  0  0  0  0  0
    8.0214    4.8211  -59.3968 H   0  0  0  0  0  0  0  0  0  0  0  0
    8.6289    2.3995  -59.2091 H   0  0  0  0  0  0  0  0  0  0  0  0
    9.8270    1.8724  -57.9616 H   0  0  0  0  0  0  0  0  0  0  0  0
    6.7030    1.4780  -59.5280 H   0  0  0  0  0  0  0  0  0  0  0  0
  1  2  1  0
  2  3  2  0
  3  4  1  0
  4  5  1  0
  5  6  2  0
  6  7  1  0
  7  8  1  0
  9  8  1  1
  9 10  1  0
 10 11  1  0
 11 12  1  0
 12 13  1  0
 13 14  1  0
 14 15  1  0
 15 16  1  0
 15 17  1  0
 13 18  1  0
  5 19  1  0
 19 20  1  0
 20 21  1  0
 21  1  2  0
 20  3  1  0
 17  9  1  0
 18  9  1  0
 16 11  1  0
  1 22  1  0
  2 23  1  0
  4 24  1  0
  7 25  1  0
  7 26  1  0
  8 27  1  0
  8 28  1  0
 10 29  1  0
 10 30  1  0
 11 31  1  1
 12 32  1  0
 12 33  1  0
 13 34  1  6
 14 35  1  0
 14 36  1  0
 15 37  1  6
 16 38  1  0
 16 39  1  0
 17 40  1  0
 17 41  1  0
 18 42  1  0
 18 43  1  0
 19 44  1  0
M  END
>  <meeko>  (76) 
{"is_sidechain": false}

$$$$

     RDKit          3D

 52 57  0  0  0  0  0  0  0  0999 V2000
   10.0510    3.2690  -56.1900 C   0  0  0  0  0  0  0  0  0  0  0  0
    8.7440    3.0840  -56.8400 N   0  0  0  0  0  0  0  0  0  0  0  0
    8.0710    2.0270  -56.1630 C   0  0  0  0  0  0  0  0  0  0  0  0
    6.7130    1.8380  -56.4650 C   0  0  0  0  0  0  0  0  0  0  0  0
    5.9670    0.8350  -55.8460 C   0  0  0  0  0  0  0  0  0  0  0  0
    6.6780    0.0810  -54.9240 C   0  0  0  0  0  0  0  0  0  0  0  0
    6.3550   -0.9710  -54.1120 N   0  0  0  0  0  0  0  0  0  0  0  0
    7.4710   -1.3290  -53.3840 C   0  0  0  0  0  0  0  0  0  0  0  0
    7.5120   -2.4230  -52.4050 C   0  0  0  0  0  0  0  0  0  0  0  0
    8.1420   -2.2080  -51.1690 C   0  0  0  0  0  0  0  0  0  0  0  0
    8.2080   -3.2170  -50.2060 C   0  0  0  0  0  0  0  0  0  0  0  0
    7.6420   -4.4610  -50.4630 C   0  0  0  0  0  0  0  0  0  0  0  0
    7.0090   -4.6950  -51.6820 C   0  0  0  0  0  0  0  0  0  0  0  0
    6.9430   -3.6830  -52.6470 C   0  0  0  0  0  0  0  0  0  0  0  0
    8.4870   -0.5460  -53.7080 N   0  0  0  0  0  0  0  0  0  0  0  0
    8.0140    0.3220  -54.6510 C   0  0  0  0  0  0  0  0  0  0  0  0
    8.7330    1.2920  -55.2490 N   0  0  0  0  0  0  0  0  0  0  0  0
    8.7410    2.9600  -58.3340 C   0  0  2  0  0  0  0  0  0  0  0  0
   10.2080    2.7940  -58.8370 C   0  0  0  0  0  0  0  0  0  0  0  0
   10.2780    2.7200  -60.3710 C   0  0  2  0  0  0  0  0  0  0  0  0
    9.7110    4.0140  -60.9740 C   0  0  0  0  0  0  0  0  0  0  0  0
    8.2640    4.2070  -60.5170 C   0  0  2  0  0  0  0  0  0  0  0  0
    8.1830    4.2650  -58.9870 C   0  0  0  0  0  0  0  0  0  0  0  0
    7.4760    2.9870  -60.9650 C   0  0  0  0  0  0  0  0  0  0  0  0
    6.5210    3.0560  -61.7310 O   0  0  0  0  0  0  0  0  0  0  0  0
    7.9900    1.6720  -60.3980 C   0  0  1  0  0  0  0  0  0  0  0  0
    9.4440    1.5200  -60.8560 C   0  0  0  0  0  0  0  0  0  0  0  0
    7.9060    1.7620  -58.8660 C   0  0  0  0  0  0  0  0  0  0  0  0
    9.9231    3.2509  -55.0976 H   0  0  0  0  0  0  0  0  0  0  0  0
   10.7294    2.4579  -56.4932 H   0  0  0  0  0  0  0  0  0  0  0  0
   10.4776    4.2365  -56.4932 H   0  0  0  0  0  0  0  0  0  0  0  0
    6.2282    2.4932  -57.2037 H   0  0  0  0  0  0  0  0  0  0  0  0
    4.9049    0.6570  -56.0700 H   0  0  0  0  0  0  0  0  0  0  0  0
    5.4520   -1.4150  -54.0600 H   0  0  0  0  0  0  0  0  0  0  0  0
    8.5917   -1.2271  -50.9553 H   0  0  0  0  0  0  0  0  0  0  0  0
    8.7075   -3.0279  -49.2444 H   0  0  0  0  0  0  0  0  0  0  0  0
    7.6939   -5.2577  -49.7063 H   0  0  0  0  0  0  0  0  0  0  0  0
    6.5597   -5.6780  -51.8867 H   0  0  0  0  0  0  0  0  0  0  0  0
    6.4396   -3.8775  -53.6055 H   0  0  0  0  0  0  0  0  0  0  0  0
   10.8019    3.6540  -58.4941 H   0  0  0  0  0  0  0  0  0  0  0  0
   10.6058    1.8528  -58.4297 H   0  0  0  0  0  0  0  0  0  0  0  0
   11.3241    2.5984  -60.6885 H   0  0  0  0  0  0  0  0  0  0  0  0
   10.3169    4.8690  -60.6395 H   0  0  0  0  0  0  0  0  0  0  0  0
    9.7397    3.9467  -62.0716 H   0  0  0  0  0  0  0  0  0  0  0  0
    7.8707    5.1424  -60.9415 H   0  0  0  0  0  0  0  0  0  0  0  0
    8.7716    5.1231  -58.6302 H   0  0  0  0  0  0  0  0  0  0  0  0
    7.1259    4.3691  -58.7011 H   0  0  0  0  0  0  0  0  0  0  0  0
    7.4046    0.8058  -60.7400 H   0  0  0  0  0  0  0  0  0  0  0  0
    9.8625    0.5928  -60.4375 H   0  0  0  0  0  0  0  0  0  0  0  0
    9.4738    1.4806  -61.9549 H   0  0  0  0  0  0  0  0  0  0  0  0
    6.8550    1.8960  -58.5702 H   0  0  0  0  0  0  0  0  0  0  0  0
    8.3106    0.8335  -58.4368 H   0  0  0  0  0  0  0  0  0  0  0  0
  1  2  1  0
  2  3  1  0
  3  4  1  0
  4  5  2  0
  5  6  1  0
  6  7  1  0
  7  8  1  0
  8  9  1  0
  9 10  2  0
 10 11  1  0
 11 12  2  0
 12 13  1  0
 13 14  2  0
  8 15  2  0
 15 16  1  0
 16 17  1  0
 18  2  1  1
 18 19  1  0
 19 20  1  0
 20 21  1  0
 21 22  1  0
 22 23  1  0
 22 24  1  0
 24 25  2  0
 24 26  1  0
 26 27  1  0
 26 28  1  0
 17  3  2  0
 23 18  1  0
 16  6  2  0
 28 18  1  0
 14  9  1  0
 27 20  1  0
  1 29  1  0
  1 30  1  0
  1 31  1  0
  4 32  1  0
  5 33  1  0
  7 34  1  0
 10 35  1  0
 11 36  1  0
 12 37  1  0
 13 38  1  0
 14 39  1  0
 19 40  1  0
 19 41  1  0
 20 42  1  1
 21 43  1  0
 21 44  1  0
 22 45  1  6
 23 46  1  0
 23 47  1  0
 26 48  1  6
 27 49  1  0
 27 50  1  0
 28 51  1  0
 28 52  1  0
M  END
>  <meeko>  (77) 
{"is_sidechain": false}

$$$$

     RDKit          3D

 52 57  0  0  0  0  0  0  0  0999 V2000
   10.0670    3.3870  -56.1590 C   0  0  0  0  0  0  0  0  0  0  0  0
    8.8230    3.0910  -56.8840 N   0  0  0  0  0  0  0  0  0  0  0  0
    8.1720    2.0470  -56.1770 C   0  0  0  0  0  0  0  0  0  0  0  0
    6.7990    1.8770  -56.4240 C   0  0  0  0  0  0  0  0  0  0  0  0
    6.0660    0.8880  -55.7590 C   0  0  0  0  0  0  0  0  0  0  0  0
    6.7680    0.1010  -54.8470 C   0  0  0  0  0  0  0  0  0  0  0  0
    6.3750   -0.9340  -54.0390 N   0  0  0  0  0  0  0  0  0  0  0  0
    7.4580   -1.3160  -53.3770 C   0  0  0  0  0  0  0  0  0  0  0  0
    7.5220   -2.4020  -52.3900 C   0  0  0  0  0  0  0  0  0  0  0  0
    8.1900   -2.1790  -51.1750 C   0  0  0  0  0  0  0  0  0  0  0  0
    8.2760   -3.1820  -50.2050 C   0  0  0  0  0  0  0  0  0  0  0  0
    7.6950   -4.4250  -50.4360 C   0  0  0  0  0  0  0  0  0  0  0  0
    7.0280   -4.6640  -51.6360 C   0  0  0  0  0  0  0  0  0  0  0  0
    6.9420   -3.6610  -52.6070 C   0  0  0  0  0  0  0  0  0  0  0  0
    8.5350   -0.5390  -53.7530 N   0  0  0  0  0  0  0  0  0  0  0  0
    8.1150    0.3640  -54.6830 C   0  0  0  0  0  0  0  0  0  0  0  0
    8.8670    1.2950  -55.2920 N   0  0  0  0  0  0  0  0  0  0  0  0
    8.9010    2.9530  -58.3670 C   0  0  2  0  0  0  0  0  0  0  0  0
   10.3400    2.7550  -58.9100 C   0  0  0  0  0  0  0  0  0  0  0  0
   10.3390    2.6720  -60.4470 C   0  0  2  0  0  0  0  0  0  0  0  0
    9.7760    3.9800  -61.0330 C   0  0  0  0  0  0  0  0  0  0  0  0
    8.3470    4.2090  -60.5300 C   0  0  2  0  0  0  0  0  0  0  0  0
    8.3210    4.2640  -58.9990 C   0  0  0  0  0  0  0  0  0  0  0  0
    7.5200    3.0130  -60.9580 C   0  0  0  0  0  0  0  0  0  0  0  0
    6.5400    3.1060  -61.6900 O   0  0  0  0  0  0  0  0  0  0  0  0
    8.0180    1.6910  -60.4070 C   0  0  1  0  0  0  0  0  0  0  0  0
    9.4550    1.4950  -60.9020 C   0  0  0  0  0  0  0  0  0  0  0  0
    7.9880    1.7900  -58.8790 C   0  0  0  0  0  0  0  0  0  0  0  0
    9.8797    3.3424  -55.0760 H   0  0  0  0  0  0  0  0  0  0  0  0
   10.8340    2.6463  -56.4292 H   0  0  0  0  0  0  0  0  0  0  0  0
   10.4182    4.3938  -56.4292 H   0  0  0  0  0  0  0  0  0  0  0  0
    6.2936    2.5306  -57.1502 H   0  0  0  0  0  0  0  0  0  0  0  0
    4.9923    0.7392  -55.9459 H   0  0  0  0  0  0  0  0  0  0  0  0
    8.6529   -1.1997  -50.9835 H   0  0  0  0  0  0  0  0  0  0  0  0
    8.8030   -2.9885  -49.2591 H   0  0  0  0  0  0  0  0  0  0  0  0
    7.7619   -5.2159  -49.6744 H   0  0  0  0  0  0  0  0  0  0  0  0
    6.5672   -5.6457  -51.8203 H   0  0  0  0  0  0  0  0  0  0  0  0
    6.4140   -3.8614  -53.5509 H   0  0  0  0  0  0  0  0  0  0  0  0
    9.4790   -0.6080  -53.4130 H   0  0  0  0  0  0  0  0  0  0  0  0
   10.9640    3.6045  -58.5954 H   0  0  0  0  0  0  0  0  0  0  0  0
   10.7420    1.8138  -58.5069 H   0  0  0  0  0  0  0  0  0  0  0  0
   11.3691    2.5190  -60.8011 H   0  0  0  0  0  0  0  0  0  0  0  0
   10.4112    4.8219  -60.7205 H   0  0  0  0  0  0  0  0  0  0  0  0
    9.7645    3.9077  -62.1306 H   0  0  0  0  0  0  0  0  0  0  0  0
    7.9593    5.1545  -60.9370 H   0  0  0  0  0  0  0  0  0  0  0  0
    8.9237    5.1202  -58.6619 H   0  0  0  0  0  0  0  0  0  0  0  0
    7.2750    4.3695  -58.6753 H   0  0  0  0  0  0  0  0  0  0  0  0
    7.3991    0.8424  -60.7338 H   0  0  0  0  0  0  0  0  0  0  0  0
    9.8569    0.5579  -60.4894 H   0  0  0  0  0  0  0  0  0  0  0  0
    9.4534    1.4509  -62.0011 H   0  0  0  0  0  0  0  0  0  0  0  0
    6.9542    1.9755  -58.5521 H   0  0  0  0  0  0  0  0  0  0  0  0
    8.3640    0.8440  -58.4622 H   0  0  0  0  0  0  0  0  0  0  0  0
  1  2  1  0
  2  3  1  0
  3  4  2  0
  4  5  1  0
  5  6  2  0
  6  7  1  0
  7  8  2  0
  8  9  1  0
  9 10  2  0
 10 11  1  0
 11 12  2  0
 12 13  1  0
 13 14  2  0
  8 15  1  0
 15 16  1  0
 16 17  2  0
 18  2  1  1
 18 19  1  0
 19 20  1  0
 20 21  1  0
 21 22  1  0
 22 23  1  0
 22 24  1  0
 24 25  2  0
 24 26  1  0
 26 27  1  0
 26 28  1  0
 17  3  1  0
 23 18  1  0
 16  6  1  0
 28 18  1  0
 14  9  1  0
 27 20  1  0
  1 29  1  0
  1 30  1  0
  1 31  1  0
  4 32  1  0
  5 33  1  0
 10 34  1  0
 11 35  1  0
 12 36  1  0
 13 37  1  0
 14 38  1  0
 15 39  1  0
 19 40  1  0
 19 41  1  0
 20 42  1  6
 21 43  1  0
 21 44  1  0
 22 45  1  6
 23 46  1  0
 23 47  1  0
 26 48  1  1
 27 49  1  0
 27 50  1  0
 28 51  1  0
 28 52  1  0
M  END
>  <meeko>  (78) 
{"is_sidechain": false}

$$$$

     RDKit          3D

 52 57  0  0  0  0  0  0  0  0999 V2000
    6.0540    0.4650  -53.2260 C   0  0  0  0  0  0  0  0  0  0  0  0
    7.1890    0.0040  -54.0420 N   0  0  0  0  0  0  0  0  0  0  0  0
    7.5490    0.7570  -55.1640 C   0  0  0  0  0  0  0  0  0  0  0  0
    6.6480    1.0130  -56.1520 C   0  0  0  0  0  0  0  0  0  0  0  0
    6.9840    1.8100  -57.3320 C   0  0  0  0  0  0  0  0  0  0  0  0
    8.2080    2.3290  -57.4520 C   0  0  0  0  0  0  0  0  0  0  0  0
    8.8110    3.1100  -58.3860 N   0  0  0  0  0  0  0  0  0  0  0  0
   10.0090    3.2860  -57.8860 C   0  0  0  0  0  0  0  0  0  0  0  0
   11.0660    4.0860  -58.5450 C   0  0  0  0  0  0  0  0  0  0  0  0
   10.7170    5.2280  -59.2740 C   0  0  0  0  0  0  0  0  0  0  0  0
   11.7080    5.9890  -59.9000 C   0  0  0  0  0  0  0  0  0  0  0  0
   13.0460    5.6100  -59.7980 C   0  0  0  0  0  0  0  0  0  0  0  0
   13.3990    4.4720  -59.0730 C   0  0  0  0  0  0  0  0  0  0  0  0
   12.4100    3.7090  -58.4470 C   0  0  0  0  0  0  0  0  0  0  0  0
   10.2770    2.6740  -56.6580 N   0  0  0  0  0  0  0  0  0  0  0  0
    9.1680    2.0620  -56.3710 C   0  0  0  0  0  0  0  0  0  0  0  0
    8.8200    1.2910  -55.3010 N   0  0  0  0  0  0  0  0  0  0  0  0
    7.8910   -1.2390  -53.6040 C   0  0  2  0  0  0  0  0  0  0  0  0
    9.4140   -1.1600  -53.9300 C   0  0  0  0  0  0  0  0  0  0  0  0
   10.1470   -2.4460  -53.5110 C   0  0  2  0  0  0  0  0  0  0  0  0
    9.5260   -3.6460  -54.2500 C   0  0  0  0  0  0  0  0  0  0  0  0
    8.0330   -3.7550  -53.9190 C   0  0  2  0  0  0  0  0  0  0  0  0
    7.2910   -2.4740  -54.3250 C   0  0  0  0  0  0  0  0  0  0  0  0
    7.9120   -3.8930  -52.4100 C   0  0  0  0  0  0  0  0  0  0  0  0
    7.3700   -4.8520  -51.8730 O   0  0  0  0  0  0  0  0  0  0  0  0
    8.5160   -2.7370  -51.6290 C   0  0  1  0  0  0  0  0  0  0  0  0
    9.9980   -2.6510  -51.9960 C   0  0  0  0  0  0  0  0  0  0  0  0
    7.7750   -1.4650  -52.0630 C   0  0  0  0  0  0  0  0  0  0  0  0
    6.3039    0.3635  -52.1596 H   0  0  0  0  0  0  0  0  0  0  0  0
    5.8429    1.5201  -53.4543 H   0  0  0  0  0  0  0  0  0  0  0  0
    5.1669   -0.1441  -53.4543 H   0  0  0  0  0  0  0  0  0  0  0  0
    5.6303    0.6058  -56.0597 H   0  0  0  0  0  0  0  0  0  0  0  0
    6.2318    1.9807  -58.1163 H   0  0  0  0  0  0  0  0  0  0  0  0
    9.6615    5.5272  -59.3545 H   0  0  0  0  0  0  0  0  0  0  0  0
   11.4326    6.8867  -60.4730 H   0  0  0  0  0  0  0  0  0  0  0  0
   13.8252    6.2101  -60.2906 H   0  0  0  0  0  0  0  0  0  0  0  0
   14.4553    4.1754  -58.9941 H   0  0  0  0  0  0  0  0  0  0  0  0
   12.6883    2.8107  -57.8763 H   0  0  0  0  0  0  0  0  0  0  0  0
    9.4500    1.2120  -54.5210 H   0  0  0  0  0  0  0  0  0  0  0  0
    9.5407   -1.0128  -55.0127 H   0  0  0  0  0  0  0  0  0  0  0  0
    9.8444   -0.3182  -53.3677 H   0  0  0  0  0  0  0  0  0  0  0  0
   11.2136   -2.3622  -53.7666 H   0  0  0  0  0  0  0  0  0  0  0  0
    9.6489   -3.5084  -55.3344 H   0  0  0  0  0  0  0  0  0  0  0  0
   10.0336   -4.5676  -53.9291 H   0  0  0  0  0  0  0  0  0  0  0  0
    7.6011   -4.6115  -54.4575 H   0  0  0  0  0  0  0  0  0  0  0  0
    7.3795   -2.3351  -55.4126 H   0  0  0  0  0  0  0  0  0  0  0  0
    6.2340   -2.5720  -54.0367 H   0  0  0  0  0  0  0  0  0  0  0  0
    8.4225   -2.8678  -50.5408 H   0  0  0  0  0  0  0  0  0  0  0  0
   10.4571   -1.8036  -51.4658 H   0  0  0  0  0  0  0  0  0  0  0  0
   10.4995   -3.5856  -51.7046 H   0  0  0  0  0  0  0  0  0  0  0  0
    6.7127   -1.5595  -51.7936 H   0  0  0  0  0  0  0  0  0  0  0  0
    8.2313   -0.6052  -51.5505 H   0  0  0  0  0  0  0  0  0  0  0  0
  1  2  1  0
  2  3  1  0
  3  4  2  0
  4  5  1  0
  5  6  2  0
  6  7  1  0
  7  8  2  0
  8  9  1  0
  9 10  2  0
 10 11  1  0
 11 12  2  0
 12 13  1  0
 13 14  2  0
  8 15  1  0
 15 16  2  0
 16 17  1  0
 18  2  1  6
 18 19  1  0
 19 20  1  0
 20 21  1  0
 21 22  1  0
 22 23  1  0
 22 24  1  0
 24 25  2  0
 24 26  1  0
 26 27  1  0
 26 28  1  0
 17  3  1  0
 23 18  1  0
 16  6  1  0
 28 18  1  0
 14  9  1  0
 27 20  1  0
  1 29  1  0
  1 30  1  0
  1 31  1  0
  4 32  1  0
  5 33  1  0
 10 34  1  0
 11 35  1  0
 12 36  1  0
 13 37  1  0
 14 38  1  0
 17 39  1  0
 19 40  1  0
 19 41  1  0
 20 42  1  1
 21 43  1  0
 21 44  1  0
 22 45  1  6
 23 46  1  0
 23 47  1  0
 26 48  1  1
 27 49  1  0
 27 50  1  0
 28 51  1  0
 28 52  1  0
M  END
>  <meeko>  (79) 
{"is_sidechain": false}

$$$$

     RDKit          3D

 53 58  0  0  0  0  0  0  0  0999 V2000
    5.8160    0.2230  -53.4240 C   0  0  0  0  0  0  0  0  0  0  0  0
    7.2170    0.0830  -53.8350 N   0  0  0  0  0  0  0  0  0  0  0  0
    7.5370    0.7480  -55.0180 C   0  0  0  0  0  0  0  0  0  0  0  0
    6.6040    0.8440  -56.0850 C   0  0  0  0  0  0  0  0  0  0  0  0
    6.8870    1.5440  -57.2790 C   0  0  0  0  0  0  0  0  0  0  0  0
    8.1410    2.1310  -57.3170 C   0  0  0  0  0  0  0  0  0  0  0  0
    8.8190    2.8890  -58.2450 N   0  0  0  0  0  0  0  0  0  0  0  0
   10.0360    3.2240  -57.7800 C   0  0  0  0  0  0  0  0  0  0  0  0
   11.1180    4.0830  -58.5170 C   0  0  0  0  0  0  0  0  0  0  0  0
   10.7320    5.2370  -59.2060 C   0  0  0  0  0  0  0  0  0  0  0  0
   11.6970    6.0000  -59.8620 C   0  0  0  0  0  0  0  0  0  0  0  0
   13.0370    5.6130  -59.8290 C   0  0  0  0  0  0  0  0  0  0  0  0
   13.4170    4.4620  -59.1420 C   0  0  0  0  0  0  0  0  0  0  0  0
   12.4580    3.6910  -58.4820 C   0  0  0  0  0  0  0  0  0  0  0  0
   10.1390    2.6790  -56.5630 N   0  0  0  0  0  0  0  0  0  0  0  0
    9.0050    2.0020  -56.2390 C   0  0  0  0  0  0  0  0  0  0  0  0
    8.7620    1.3250  -55.0790 N   0  0  0  0  0  0  0  0  0  0  0  0
    7.9280   -1.1980  -53.5400 C   0  0  2  0  0  0  0  0  0  0  0  0
    9.4460   -1.1070  -53.8790 C   0  0  0  0  0  0  0  0  0  0  0  0
   10.1780   -2.4180  -53.5440 C   0  0  2  0  0  0  0  0  0  0  0  0
    9.5500   -3.5700  -54.3500 C   0  0  0  0  0  0  0  0  0  0  0  0
    8.0590   -3.6940  -54.0170 C   0  0  2  0  0  0  0  0  0  0  0  0
    7.3190   -2.3860  -54.3370 C   0  0  0  0  0  0  0  0  0  0  0  0
    7.9400   -3.9230  -52.5200 C   0  0  0  0  0  0  0  0  0  0  0  0
    7.3500   -4.8850  -52.0430 O   0  0  0  0  0  0  0  0  0  0  0  0
    8.5620   -2.8280  -51.6710 C   0  0  1  0  0  0  0  0  0  0  0  0
   10.0410   -2.7190  -52.0450 C   0  0  0  0  0  0  0  0  0  0  0  0
    7.8200   -1.5320  -52.0170 C   0  0  0  0  0  0  0  0  0  0  0  0
    5.7549    0.2291  -52.3257 H   0  0  0  0  0  0  0  0  0  0  0  0
    5.4105    1.1661  -53.8190 H   0  0  0  0  0  0  0  0  0  0  0  0
    5.2319   -0.6212  -53.8190 H   0  0  0  0  0  0  0  0  0  0  0  0
    5.6246    0.3550  -55.9774 H   0  0  0  0  0  0  0  0  0  0  0  0
    6.1703    1.6169  -58.1103 H   0  0  0  0  0  0  0  0  0  0  0  0
    8.4530    3.1860  -59.1440 H   0  0  0  0  0  0  0  0  0  0  0  0
    9.6750    5.5405  -59.2302 H   0  0  0  0  0  0  0  0  0  0  0  0
   11.4013    6.9088  -60.4066 H   0  0  0  0  0  0  0  0  0  0  0  0
   13.7956    6.2183  -60.3468 H   0  0  0  0  0  0  0  0  0  0  0  0
   14.4745    4.1601  -59.1195 H   0  0  0  0  0  0  0  0  0  0  0  0
   12.7556    2.7820  -57.9387 H   0  0  0  0  0  0  0  0  0  0  0  0
   10.9400    2.7310  -55.9480 H   0  0  0  0  0  0  0  0  0  0  0  0
    9.5605   -0.8980  -54.9529 H   0  0  0  0  0  0  0  0  0  0  0  0
    9.8871   -0.3011  -53.2740 H   0  0  0  0  0  0  0  0  0  0  0  0
   11.2427   -2.3173  -53.8015 H   0  0  0  0  0  0  0  0  0  0  0  0
    9.6672   -3.3681  -55.4250 H   0  0  0  0  0  0  0  0  0  0  0  0
   10.0568   -4.5106  -54.0885 H   0  0  0  0  0  0  0  0  0  0  0  0
    7.6250   -4.5156  -54.6057 H   0  0  0  0  0  0  0  0  0  0  0  0
    7.4028   -2.1784  -55.4140 H   0  0  0  0  0  0  0  0  0  0  0  0
    6.2632   -2.4989  -54.0499 H   0  0  0  0  0  0  0  0  0  0  0  0
    8.4851   -3.0330  -50.5930 H   0  0  0  0  0  0  0  0  0  0  0  0
   10.5052   -1.9072  -51.4657 H   0  0  0  0  0  0  0  0  0  0  0  0
   10.5438   -3.6708  -51.8185 H   0  0  0  0  0  0  0  0  0  0  0  0
    6.7588   -1.6459  -51.7506 H   0  0  0  0  0  0  0  0  0  0  0  0
    8.2805   -0.7094  -51.4502 H   0  0  0  0  0  0  0  0  0  0  0  0
  1  2  1  0
  2  3  1  0
  3  4  1  0
  4  5  2  0
  5  6  1  0
  6  7  1  0
  7  8  1  0
  8  9  1  0
  9 10  2  0
 10 11  1  0
 11 12  2  0
 12 13  1  0
 13 14  2  0
  8 15  2  0
 15 16  1  0
 16 17  1  0
 18  2  1  1
 18 19  1  0
 19 20  1  0
 20 21  1  0
 21 22  1  0
 22 23  1  0
 22 24  1  0
 24 25  2  0
 24 26  1  0
 26 27  1  0
 26 28  1  0
 17  3  2  0
 23 18  1  0
 16  6  2  0
 28 18  1  0
 14  9  1  0
 27 20  1  0
  1 29  1  0
  1 30  1  0
  1 31  1  0
  4 32  1  0
  5 33  1  0
  7 34  1  0
 10 35  1  0
 11 36  1  0
 12 37  1  0
 13 38  1  0
 14 39  1  0
 15 40  1  0
 19 41  1  0
 19 42  1  0
 20 43  1  6
 21 44  1  0
 21 45  1  0
 22 46  1  6
 23 47  1  0
 23 48  1  0
 26 49  1  1
 27 50  1  0
 27 51  1  0
 28 52  1  0
 28 53  1  0
M  CHG  1  15   1
M  END
>  <meeko>  (80) 
{"is_sidechain": false}

$$$$

     RDKit          3D

 57 62  0  0  0  0  0  0  0  0999 V2000
   12.9710    7.7000  -60.6620 C   0  0  0  0  0  0  0  0  0  0  0  0
   13.5370    6.4560  -60.2700 O   0  0  0  0  0  0  0  0  0  0  0  0
   12.7420    5.6160  -59.5400 C   0  0  0  0  0  0  0  0  0  0  0  0
   13.1650    4.7560  -58.5280 C   0  0  0  0  0  0  0  0  0  0  0  0
   12.2390    3.9440  -57.8600 C   0  0  0  0  0  0  0  0  0  0  0  0
   10.8780    3.9780  -58.1940 C   0  0  0  0  0  0  0  0  0  0  0  0
    9.9050    3.1320  -57.5020 C   0  0  0  0  0  0  0  0  0  0  0  0
   10.0310    2.3660  -56.3540 C   0  0  0  0  0  0  0  0  0  0  0  0
    8.7870    1.7460  -56.0940 C   0  0  0  0  0  0  0  0  0  0  0  0
    8.4460    0.9110  -55.0880 N   0  0  0  0  0  0  0  0  0  0  0  0
    7.1780    0.4630  -55.0940 C   0  0  0  0  0  0  0  0  0  0  0  0
    6.7240   -0.4050  -54.0670 N   0  0  0  0  0  0  0  0  0  0  0  0
    6.1360    0.4470  -53.0240 C   0  0  0  0  0  0  0  0  0  0  0  0
    7.6740   -1.4710  -53.6300 C   0  0  2  0  0  0  0  0  0  0  0  0
    7.1800   -2.0130  -52.2510 C   0  0  0  0  0  0  0  0  0  0  0  0
    8.0730   -3.1520  -51.7340 C   0  0  2  0  0  0  0  0  0  0  0  0
    9.5170   -2.6370  -51.5890 C   0  0  0  0  0  0  0  0  0  0  0  0
   10.0310   -2.1260  -52.9390 C   0  0  2  0  0  0  0  0  0  0  0  0
    9.1400   -0.9890  -53.4630 C   0  0  0  0  0  0  0  0  0  0  0  0
    9.9390   -3.2830  -53.9200 C   0  0  0  0  0  0  0  0  0  0  0  0
   10.9190   -3.7550  -54.4880 O   0  0  0  0  0  0  0  0  0  0  0  0
    8.5330   -3.8330  -54.1040 C   0  0  1  0  0  0  0  0  0  0  0  0
    8.0490   -4.3170  -52.7360 C   0  0  0  0  0  0  0  0  0  0  0  0
    7.6530   -2.6880  -54.6140 C   0  0  0  0  0  0  0  0  0  0  0  0
    6.2390    0.8420  -56.0630 C   0  0  0  0  0  0  0  0  0  0  0  0
    6.5860    1.7080  -57.1000 C   0  0  0  0  0  0  0  0  0  0  0  0
    7.9040    2.1490  -57.0860 C   0  0  0  0  0  0  0  0  0  0  0  0
    8.5980    2.9880  -57.9230 N   0  0  0  0  0  0  0  0  0  0  0  0
   10.4620    4.8490  -59.2060 C   0  0  0  0  0  0  0  0  0  0  0  0
   11.3880    5.6570  -59.8740 C   0  0  0  0  0  0  0  0  0  0  0  0
   12.7066    8.2811  -59.7662 H   0  0  0  0  0  0  0  0  0  0  0  0
   13.7017    8.2626  -61.2615 H   0  0  0  0  0  0  0  0  0  0  0  0
   12.0667    7.5187  -61.2615 H   0  0  0  0  0  0  0  0  0  0  0  0
   14.2292    4.7147  -58.2529 H   0  0  0  0  0  0  0  0  0  0  0  0
   12.5849    3.2703  -57.0622 H   0  0  0  0  0  0  0  0  0  0  0  0
   10.9430    2.2586  -55.7484 H   0  0  0  0  0  0  0  0  0  0  0  0
    6.4074    0.0538  -52.0332 H   0  0  0  0  0  0  0  0  0  0  0  0
    6.5194    1.4726  -53.1290 H   0  0  0  0  0  0  0  0  0  0  0  0
    5.0410    0.4523  -53.1290 H   0  0  0  0  0  0  0  0  0  0  0  0
    7.1920   -1.1910  -51.5201 H   0  0  0  0  0  0  0  0  0  0  0  0
    6.1622   -2.4088  -52.3832 H   0  0  0  0  0  0  0  0  0  0  0  0
    7.7009   -3.4983  -50.7585 H   0  0  0  0  0  0  0  0  0  0  0  0
    9.5389   -1.8163  -50.8569 H   0  0  0  0  0  0  0  0  0  0  0  0
   10.1607   -3.4607  -51.2467 H   0  0  0  0  0  0  0  0  0  0  0  0
   11.0595   -1.7520  -52.8278 H   0  0  0  0  0  0  0  0  0  0  0  0
    9.1656   -0.1524  -52.7493 H   0  0  0  0  0  0  0  0  0  0  0  0
    9.5195   -0.6667  -54.4439 H   0  0  0  0  0  0  0  0  0  0  0  0
    8.4979   -4.6664  -54.8211 H   0  0  0  0  0  0  0  0  0  0  0  0
    7.0218   -4.6999  -52.8264 H   0  0  0  0  0  0  0  0  0  0  0  0
    8.7126   -5.1180  -52.3781 H   0  0  0  0  0  0  0  0  0  0  0  0
    8.0248   -2.3608  -55.5962 H   0  0  0  0  0  0  0  0  0  0  0  0
    6.6184   -3.0538  -54.6909 H   0  0  0  0  0  0  0  0  0  0  0  0
    5.2127    0.4505  -56.0049 H   0  0  0  0  0  0  0  0  0  0  0  0
    5.8682    2.0195  -57.8732 H   0  0  0  0  0  0  0  0  0  0  0  0
    8.1980    3.4540  -58.7240 H   0  0  0  0  0  0  0  0  0  0  0  0
    9.3976    4.8991  -59.4790 H   0  0  0  0  0  0  0  0  0  0  0  0
   11.0448    6.3323  -60.6716 H   0  0  0  0  0  0  0  0  0  0  0  0
  1  2  1  0
  2  3  1  0
  3  4  1  0
  4  5  2  0
  5  6  1  0
  6  7  1  0
  7  8  2  0
  8  9  1  0
  9 10  1  0
 10 11  2  0
 11 12  1  0
 12 13  1  0
 14 12  1  6
 14 15  1  0
 15 16  1  0
 16 17  1  0
 17 18  1  0
 18 19  1  0
 18 20  1  0
 20 21  2  0
 20 22  1  0
 22 23  1  0
 22 24  1  0
 11 25  1  0
 25 26  2  0
 26 27  1  0
 27 28  1  0
  6 29  2  0
 29 30  1  0
 30  3  2  0
 28  7  1  0
 27  9  2  0
 19 14  1  0
 24 14  1  0
 23 16  1  0
  1 31  1  0
  1 32  1  0
  1 33  1  0
  4 34  1  0
  5 35  1  0
  8 36  1  0
 13 37  1  0
 13 38  1  0
 13 39  1  0
 15 40  1  0
 15 41  1  0
 16 42  1  1
 17 43  1  0
 17 44  1  0
 18 45  1  1
 19 46  1  0
 19 47  1  0
 22 48  1  6
 23 49  1  0
 23 50  1  0
 24 51  1  0
 24 52  1  0
 25 53  1  0
 26 54  1  0
 28 55  1  0
 29 56  1  0
 30 57  1  0
M  END
>  <meeko>  (81) 
{"is_sidechain": false}

$$$$

     RDKit          3D

 57 62  0  0  0  0  0  0  0  0999 V2000
   13.1740    7.8080  -60.9700 C   0  0  0  0  0  0  0  0  0  0  0  0
   13.7500    6.6480  -60.3830 O   0  0  0  0  0  0  0  0  0  0  0  0
   12.9060    5.8190  -59.6990 C   0  0  0  0  0  0  0  0  0  0  0  0
   13.2780    4.8610  -58.7570 C   0  0  0  0  0  0  0  0  0  0  0  0
   12.3020    4.0760  -58.1310 C   0  0  0  0  0  0  0  0  0  0  0  0
   10.9440    4.2390  -58.4360 C   0  0  0  0  0  0  0  0  0  0  0  0
    9.9590    3.3790  -57.7380 C   0  0  0  0  0  0  0  0  0  0  0  0
   10.2590    2.7460  -56.4350 C   0  0  0  0  0  0  0  0  0  0  0  0
    9.1320    2.0780  -56.1960 C   0  0  0  0  0  0  0  0  0  0  0  0
    8.7310    1.2720  -55.1640 N   0  0  0  0  0  0  0  0  0  0  0  0
    7.4650    0.7080  -55.0890 C   0  0  0  0  0  0  0  0  0  0  0  0
    7.0880   -0.0610  -53.9870 N   0  0  0  0  0  0  0  0  0  0  0  0
    5.9230    0.3720  -53.2020 C   0  0  0  0  0  0  0  0  0  0  0  0
    7.7890   -1.3070  -53.5610 C   0  0  2  0  0  0  0  0  0  0  0  0
    9.2820   -1.2460  -53.9670 C   0  0  0  0  0  0  0  0  0  0  0  0
   10.0250   -2.5180  -53.5200 C   0  0  2  0  0  0  0  0  0  0  0  0
    9.3790   -3.7520  -54.1770 C   0  0  0  0  0  0  0  0  0  0  0  0
    7.9020   -3.8520  -53.7740 C   0  0  2  0  0  0  0  0  0  0  0  0
    7.1490   -2.5850  -54.1940 C   0  0  0  0  0  0  0  0  0  0  0  0
    7.8460   -3.9360  -52.2620 C   0  0  0  0  0  0  0  0  0  0  0  0
    7.3590   -4.8860  -51.6610 O   0  0  0  0  0  0  0  0  0  0  0  0
    8.4620   -2.7430  -51.5570 C   0  0  1  0  0  0  0  0  0  0  0  0
    9.9300   -2.6580  -51.9890 C   0  0  0  0  0  0  0  0  0  0  0  0
    7.6990   -1.4950  -52.0130 C   0  0  0  0  0  0  0  0  0  0  0  0
    6.5950    0.9480  -56.1060 C   0  0  0  0  0  0  0  0  0  0  0  0
    6.9750    1.7670  -57.2530 C   0  0  0  0  0  0  0  0  0  0  0  0
    8.1990    2.3060  -57.2800 C   0  0  0  0  0  0  0  0  0  0  0  0
    8.7690    3.1160  -58.2200 N   0  0  0  0  0  0  0  0  0  0  0  0
   10.5730    5.2000  -59.3810 C   0  0  0  0  0  0  0  0  0  0  0  0
   11.5530    5.9810  -60.0050 C   0  0  0  0  0  0  0  0  0  0  0  0
   12.8351    8.4906  -60.1768 H   0  0  0  0  0  0  0  0  0  0  0  0
   13.9251    8.3148  -61.5937 H   0  0  0  0  0  0  0  0  0  0  0  0
   12.3162    7.5160  -61.5937 H   0  0  0  0  0  0  0  0  0  0  0  0
   14.3397    4.7216  -58.5052 H   0  0  0  0  0  0  0  0  0  0  0  0
   12.6052    3.3215  -57.3902 H   0  0  0  0  0  0  0  0  0  0  0  0
   11.1719    2.8102  -55.8247 H   0  0  0  0  0  0  0  0  0  0  0  0
    9.3020    1.2100  -54.3370 H   0  0  0  0  0  0  0  0  0  0  0  0
    6.1515    0.2871  -52.1294 H   0  0  0  0  0  0  0  0  0  0  0  0
    5.6858    1.4184  -53.4446 H   0  0  0  0  0  0  0  0  0  0  0  0
    5.0599   -0.2654  -53.4446 H   0  0  0  0  0  0  0  0  0  0  0  0
    9.3543   -1.1521  -55.0606 H   0  0  0  0  0  0  0  0  0  0  0  0
    9.7448   -0.3775  -53.4755 H   0  0  0  0  0  0  0  0  0  0  0  0
   11.0799   -2.4459  -53.8232 H   0  0  0  0  0  0  0  0  0  0  0  0
    9.4523   -3.6619  -55.2709 H   0  0  0  0  0  0  0  0  0  0  0  0
    9.9061   -4.6566  -53.8396 H   0  0  0  0  0  0  0  0  0  0  0  0
    7.4466   -4.7289  -54.2573 H   0  0  0  0  0  0  0  0  0  0  0  0
    7.1807   -2.4962  -55.2900 H   0  0  0  0  0  0  0  0  0  0  0  0
    6.1107   -2.6649  -53.8396 H   0  0  0  0  0  0  0  0  0  0  0  0
    8.4057   -2.8303  -50.4619 H   0  0  0  0  0  0  0  0  0  0  0  0
   10.3988   -1.7835  -51.5141 H   0  0  0  0  0  0  0  0  0  0  0  0
   10.4499   -3.5765  -51.6789 H   0  0  0  0  0  0  0  0  0  0  0  0
    6.6421   -1.5965  -51.7255 H   0  0  0  0  0  0  0  0  0  0  0  0
    8.1517   -0.6164  -51.5303 H   0  0  0  0  0  0  0  0  0  0  0  0
    5.5842    0.5162  -56.0635 H   0  0  0  0  0  0  0  0  0  0  0  0
    6.2687    1.9376  -58.0789 H   0  0  0  0  0  0  0  0  0  0  0  0
    9.5120    5.3424  -59.6340 H   0  0  0  0  0  0  0  0  0  0  0  0
   11.2526    6.7343  -60.7482 H   0  0  0  0  0  0  0  0  0  0  0  0
  1  2  1  0
  2  3  1  0
  3  4  1  0
  4  5  2  0
  5  6  1  0
  6  7  1  0
  7  8  1  0
  8  9  2  0
  9 10  1  0
 10 11  1  0
 11 12  1  0
 12 13  1  0
 14 12  1  1
 14 15  1  0
 15 16  1  0
 16 17  1  0
 17 18  1  0
 18 19  1  0
 18 20  1  0
 20 21  2  0
 20 22  1  0
 22 23  1  0
 22 24  1  0
 11 25  2  0
 25 26  1  0
 26 27  2  0
 27 28  1  0
  6 29  2  0
 29 30  1  0
 30  3  2  0
 28  7  2  0
 27  9  1  0
 19 14  1  0
 24 14  1  0
 23 16  1  0
  1 31  1  0
  1 32  1  0
  1 33  1  0
  4 34  1  0
  5 35  1  0
  8 36  1  0
 10 37  1  0
 13 38  1  0
 13 39  1  0
 13 40  1  0
 15 41  1  0
 15 42  1  0
 16 43  1  1
 17 44  1  0
 17 45  1  0
 18 46  1  6
 19 47  1  0
 19 48  1  0
 22 49  1  1
 23 50  1  0
 23 51  1  0
 24 52  1  0
 24 53  1  0
 25 54  1  0
 26 55  1  0
 29 56  1  0
 30 57  1  0
M  END
>  <meeko>  (82) 
{"is_sidechain": false}

$$$$

     RDKit          3D

 49 53  0  0  0  0  0  0  0  0999 V2000
   10.3180   -3.2620  -54.3090 C   0  0  0  0  0  0  0  0  0  0  0  0
    9.7060   -2.2740  -53.3300 C   0  0  0  0  0  0  0  0  0  0  0  0
    8.4520   -1.7510  -53.8040 N   0  0  0  0  0  0  0  0  0  0  0  0
    7.1990   -2.3850  -53.6710 C   0  0  0  0  0  0  0  0  0  0  0  0
    6.9540   -3.4330  -53.0970 O   0  0  0  0  0  0  0  0  0  0  0  0
    6.2710   -1.5800  -54.3390 N   0  0  0  0  0  0  0  0  0  0  0  0
    6.9260   -0.4940  -54.8960 C   0  0  0  0  0  0  0  0  0  0  0  0
    6.3630    0.4740  -55.6240 N   0  0  0  0  0  0  0  0  0  0  0  0
    7.2250    1.4150  -56.0800 C   0  0  0  0  0  0  0  0  0  0  0  0
    6.7450    2.5040  -56.8490 N   0  0  0  0  0  0  0  0  0  0  0  0
    5.5070    2.0760  -57.5190 C   0  0  0  0  0  0  0  0  0  0  0  0
    7.7810    3.1770  -57.6960 C   0  0  2  0  0  0  0  0  0  0  0  0
    7.0730    3.9840  -58.8280 C   0  0  0  0  0  0  0  0  0  0  0  0
    8.0830    4.7430  -59.7020 C   0  0  2  0  0  0  0  0  0  0  0  0
    9.0570    3.7340  -60.3400 C   0  0  0  0  0  0  0  0  0  0  0  0
    9.7860    2.9450  -59.2480 C   0  0  2  0  0  0  0  0  0  0  0  0
    8.7870    2.1920  -58.3580 C   0  0  0  0  0  0  0  0  0  0  0  0
   10.5110    3.9540  -58.3710 C   0  0  0  0  0  0  0  0  0  0  0  0
   11.7260    3.9450  -58.2090 O   0  0  0  0  0  0  0  0  0  0  0  0
    9.5980    4.9780  -57.7170 C   0  0  1  0  0  0  0  0  0  0  0  0
    8.8740    5.7330  -58.8340 C   0  0  0  0  0  0  0  0  0  0  0  0
    8.5980    4.2060  -56.8500 C   0  0  0  0  0  0  0  0  0  0  0  0
    8.6090    1.3840  -55.7870 C   0  0  0  0  0  0  0  0  0  0  0  0
    9.1560    0.3510  -55.0200 C   0  0  0  0  0  0  0  0  0  0  0  0
    8.2740   -0.5990  -54.5750 C   0  0  0  0  0  0  0  0  0  0  0  0
   10.8175   -4.0684  -53.7520 H   0  0  0  0  0  0  0  0  0  0  0  0
    9.5262   -3.6894  -54.9418 H   0  0  0  0  0  0  0  0  0  0  0  0
   11.0533   -2.7434  -54.9418 H   0  0  0  0  0  0  0  0  0  0  0  0
    9.5379   -2.7836  -52.3698 H   0  0  0  0  0  0  0  0  0  0  0  0
   10.4042   -1.4315  -53.2169 H   0  0  0  0  0  0  0  0  0  0  0  0
    5.2900   -1.7730  -54.4300 H   0  0  0  0  0  0  0  0  0  0  0  0
    4.7521    1.8150  -56.7627 H   0  0  0  0  0  0  0  0  0  0  0  0
    5.1282    2.8953  -58.1476 H   0  0  0  0  0  0  0  0  0  0  0  0
    5.7151    1.1976  -58.1476 H   0  0  0  0  0  0  0  0  0  0  0  0
    6.5063    3.2864  -59.4622 H   0  0  0  0  0  0  0  0  0  0  0  0
    6.4051    4.7206  -58.3576 H   0  0  0  0  0  0  0  0  0  0  0  0
    7.5477    5.2944  -60.4890 H   0  0  0  0  0  0  0  0  0  0  0  0
    8.4933    3.0372  -60.9777 H   0  0  0  0  0  0  0  0  0  0  0  0
    9.7962    4.2796  -60.9449 H   0  0  0  0  0  0  0  0  0  0  0  0
   10.4699    2.2209  -59.7147 H   0  0  0  0  0  0  0  0  0  0  0  0
    8.2312    1.4686  -58.9727 H   0  0  0  0  0  0  0  0  0  0  0  0
    9.3449    1.6733  -57.5644 H   0  0  0  0  0  0  0  0  0  0  0  0
   10.1494    5.6966  -57.0928 H   0  0  0  0  0  0  0  0  0  0  0  0
    8.1821    6.4647  -58.3915 H   0  0  0  0  0  0  0  0  0  0  0  0
    9.6138    6.2542  -59.4593 H   0  0  0  0  0  0  0  0  0  0  0  0
    9.1478    3.6666  -56.0646 H   0  0  0  0  0  0  0  0  0  0  0  0
    7.8937    4.9275  -56.4101 H   0  0  0  0  0  0  0  0  0  0  0  0
    9.2627    2.1827  -56.1675 H   0  0  0  0  0  0  0  0  0  0  0  0
   10.2301    0.3035  -54.7876 H   0  0  0  0  0  0  0  0  0  0  0  0
  1  2  1  0
  2  3  1  0
  3  4  1  0
  4  5  2  0
  4  6  1  0
  6  7  1  0
  7  8  1  0
  8  9  2  0
  9 10  1  0
 10 11  1  0
 12 10  1  1
 12 13  1  0
 13 14  1  0
 14 15  1  0
 15 16  1  0
 16 17  1  0
 16 18  1  0
 18 19  2  0
 18 20  1  0
 20 21  1  0
 20 22  1  0
  9 23  1  0
 23 24  2  0
 24 25  1  0
 25  3  1  0
 25  7  2  0
 17 12  1  0
 22 12  1  0
 21 14  1  0
  1 26  1  0
  1 27  1  0
  1 28  1  0
  2 29  1  0
  2 30  1  0
  6 31  1  0
 11 32  1  0
 11 33  1  0
 11 34  1  0
 13 35  1  0
 13 36  1  0
 14 37  1  6
 15 38  1  0
 15 39  1  0
 16 40  1  6
 17 41  1  0
 17 42  1  0
 20 43  1  1
 21 44  1  0
 21 45  1  0
 22 46  1  0
 22 47  1  0
 23 48  1  0
 24 49  1  0
M  END
>  <meeko>  (83) 
{"is_sidechain": false}

$$$$

     RDKit          3D

 49 53  0  0  0  0  0  0  0  0999 V2000
    7.1640   -2.5950  -51.7690 C   0  0  0  0  0  0  0  0  0  0  0  0
    7.3370   -2.8430  -53.2570 C   0  0  0  0  0  0  0  0  0  0  0  0
    8.0820   -1.7860  -53.9060 N   0  0  0  0  0  0  0  0  0  0  0  0
    9.4400   -1.6520  -53.9140 C   0  0  0  0  0  0  0  0  0  0  0  0
   10.2750   -2.4930  -53.3360 O   0  0  0  0  0  0  0  0  0  0  0  0
    9.8520   -0.5990  -54.5650 N   0  0  0  0  0  0  0  0  0  0  0  0
    8.6960   -0.0100  -55.0050 C   0  0  0  0  0  0  0  0  0  0  0  0
    8.6420    1.1240  -55.7330 N   0  0  0  0  0  0  0  0  0  0  0  0
    7.4100    1.5470  -56.0650 C   0  0  0  0  0  0  0  0  0  0  0  0
    7.2450    2.7250  -56.8450 N   0  0  0  0  0  0  0  0  0  0  0  0
    6.0740    2.5000  -57.7050 C   0  0  0  0  0  0  0  0  0  0  0  0
    8.4780    3.2650  -57.4920 C   0  0  2  0  0  0  0  0  0  0  0  0
    9.6300    3.5850  -56.5040 C   0  0  0  0  0  0  0  0  0  0  0  0
   10.8760    4.0850  -57.2580 C   0  0  2  0  0  0  0  0  0  0  0  0
   10.5240    5.3540  -58.0580 C   0  0  0  0  0  0  0  0  0  0  0  0
    9.4110    5.0510  -59.0670 C   0  0  2  0  0  0  0  0  0  0  0  0
    8.1600    4.5370  -58.3460 C   0  0  0  0  0  0  0  0  0  0  0  0
    9.9010    3.9360  -59.9700 C   0  0  0  0  0  0  0  0  0  0  0  0
   10.0030    4.0560  -61.1870 O   0  0  0  0  0  0  0  0  0  0  0  0
   10.2540    2.6580  -59.2340 C   0  0  1  0  0  0  0  0  0  0  0  0
   11.3620    2.9960  -58.2310 C   0  0  0  0  0  0  0  0  0  0  0  0
    8.9930    2.1860  -58.5030 C   0  0  0  0  0  0  0  0  0  0  0  0
    6.2380    0.8610  -55.7080 C   0  0  0  0  0  0  0  0  0  0  0  0
    6.2880   -0.3130  -54.9570 C   0  0  0  0  0  0  0  0  0  0  0  0
    7.5690   -0.7280  -54.6130 C   0  0  0  0  0  0  0  0  0  0  0  0
    7.7037   -3.3687  -51.2032 H   0  0  0  0  0  0  0  0  0  0  0  0
    7.5681   -1.6045  -51.5129 H   0  0  0  0  0  0  0  0  0  0  0  0
    6.0949   -2.6322  -51.5129 H   0  0  0  0  0  0  0  0  0  0  0  0
    7.8744   -3.7925  -53.3974 H   0  0  0  0  0  0  0  0  0  0  0  0
    6.3359   -2.8776  -53.7114 H   0  0  0  0  0  0  0  0  0  0  0  0
   10.0070   -3.3400  -53.7400 H   0  0  0  0  0  0  0  0  0  0  0  0
    5.1862    2.3294  -57.0783 H   0  0  0  0  0  0  0  0  0  0  0  0
    5.9104    3.3831  -58.3401 H   0  0  0  0  0  0  0  0  0  0  0  0
    6.2493    1.6191  -58.3401 H   0  0  0  0  0  0  0  0  0  0  0  0
    9.2969    4.3637  -55.8021 H   0  0  0  0  0  0  0  0  0  0  0  0
    9.8930    2.6656  -55.9604 H   0  0  0  0  0  0  0  0  0  0  0  0
   11.6691    4.3143  -56.5310 H   0  0  0  0  0  0  0  0  0  0  0  0
   10.1831    6.1375  -57.3652 H   0  0  0  0  0  0  0  0  0  0  0  0
   11.4176    5.6959  -58.6008 H   0  0  0  0  0  0  0  0  0  0  0  0
    9.1665    5.9663  -59.6260 H   0  0  0  0  0  0  0  0  0  0  0  0
    7.7784    5.3275  -57.6830 H   0  0  0  0  0  0  0  0  0  0  0  0
    7.4089    4.2678  -59.1032 H   0  0  0  0  0  0  0  0  0  0  0  0
   10.6032    1.8655  -59.9122 H   0  0  0  0  0  0  0  0  0  0  0  0
   11.6276    2.0921  -57.6631 H   0  0  0  0  0  0  0  0  0  0  0  0
   12.2428    3.3657  -58.7765 H   0  0  0  0  0  0  0  0  0  0  0  0
    8.2048    1.9849  -59.2434 H   0  0  0  0  0  0  0  0  0  0  0  0
    9.2418    1.2752  -57.9387 H   0  0  0  0  0  0  0  0  0  0  0  0
    5.2624    1.2569  -56.0266 H   0  0  0  0  0  0  0  0  0  0  0  0
    5.3850   -0.8667  -54.6604 H   0  0  0  0  0  0  0  0  0  0  0  0
  1  2  1  0
  2  3  1  0
  3  4  1  0
  4  5  1  0
  4  6  2  0
  6  7  1  0
  7  8  1  0
  8  9  2  0
  9 10  1  0
 10 11  1  0
 12 10  1  1
 12 13  1  0
 13 14  1  0
 14 15  1  0
 15 16  1  0
 16 17  1  0
 16 18  1  0
 18 19  2  0
 18 20  1  0
 20 21  1  0
 20 22  1  0
  9 23  1  0
 23 24  2  0
 24 25  1  0
 25  3  1  0
 25  7  2  0
 17 12  1  0
 22 12  1  0
 21 14  1  0
  1 26  1  0
  1 27  1  0
  1 28  1  0
  2 29  1  0
  2 30  1  0
  5 31  1  0
 11 32  1  0
 11 33  1  0
 11 34  1  0
 13 35  1  0
 13 36  1  0
 14 37  1  1
 15 38  1  0
 15 39  1  0
 16 40  1  6
 17 41  1  0
 17 42  1  0
 20 43  1  6
 21 44  1  0
 21 45  1  0
 22 46  1  0
 22 47  1  0
 23 48  1  0
 24 49  1  0
M  END
>  <meeko>  (84) 
{"is_sidechain": false}

$$$$

     RDKit          3D

 49 53  0  0  0  0  0  0  0  0999 V2000
   10.6470   -2.9660  -53.5890 C   0  0  0  0  0  0  0  0  0  0  0  0
    9.5870   -2.3000  -52.7280 C   0  0  0  0  0  0  0  0  0  0  0  0
    8.4430   -1.8850  -53.4990 N   0  0  0  0  0  0  0  0  0  0  0  0
    8.3530   -0.8100  -54.3140 C   0  0  0  0  0  0  0  0  0  0  0  0
    9.1720    0.1550  -54.7320 C   0  0  0  0  0  0  0  0  0  0  0  0
    8.6520    1.1820  -55.6360 C   0  0  0  0  0  0  0  0  0  0  0  0
    7.3670    1.1790  -56.0840 C   0  0  0  0  0  0  0  0  0  0  0  0
    6.9070    2.1830  -56.9400 N   0  0  0  0  0  0  0  0  0  0  0  0
    5.4540    2.3200  -57.1430 C   0  0  0  0  0  0  0  0  0  0  0  0
    7.7970    3.1040  -57.7120 C   0  0  2  0  0  0  0  0  0  0  0  0
    7.0840    3.6920  -58.9670 C   0  0  0  0  0  0  0  0  0  0  0  0
    8.0110    4.6390  -59.7470 C   0  0  2  0  0  0  0  0  0  0  0  0
    9.2490    3.8680  -60.2280 C   0  0  0  0  0  0  0  0  0  0  0  0
    9.9830    3.2720  -59.0260 C   0  0  2  0  0  0  0  0  0  0  0  0
    9.0590    2.3420  -58.2330 C   0  0  0  0  0  0  0  0  0  0  0  0
   10.3630    4.4140  -58.0990 C   0  0  0  0  0  0  0  0  0  0  0  0
   11.5210    4.6420  -57.7630 O   0  0  0  0  0  0  0  0  0  0  0  0
    9.1830    5.2280  -57.5960 C   0  0  1  0  0  0  0  0  0  0  0  0
    8.4550    5.7880  -58.8240 C   0  0  0  0  0  0  0  0  0  0  0  0
    8.2700    4.2750  -56.8120 C   0  0  0  0  0  0  0  0  0  0  0  0
    6.5330    0.1650  -55.6440 N   0  0  0  0  0  0  0  0  0  0  0  0
    6.9510   -0.8040  -54.7780 C   0  0  0  0  0  0  0  0  0  0  0  0
    6.2860   -1.7880  -54.2450 N   0  0  0  0  0  0  0  0  0  0  0  0
    7.1850   -2.4760  -53.4290 C   0  0  0  0  0  0  0  0  0  0  0  0
    6.9050   -3.4520  -52.7470 O   0  0  0  0  0  0  0  0  0  0  0  0
   11.4004   -3.4394  -52.9423 H   0  0  0  0  0  0  0  0  0  0  0  0
   10.1762   -3.7309  -54.2240 H   0  0  0  0  0  0  0  0  0  0  0  0
   11.1318   -2.2099  -54.2240 H   0  0  0  0  0  0  0  0  0  0  0  0
    9.2561   -3.0129  -51.9584 H   0  0  0  0  0  0  0  0  0  0  0  0
   10.0337   -1.4023  -52.2757 H   0  0  0  0  0  0  0  0  0  0  0  0
   10.2214    0.1791  -54.4030 H   0  0  0  0  0  0  0  0  0  0  0  0
    9.3255    1.9868  -55.9658 H   0  0  0  0  0  0  0  0  0  0  0  0
    4.9502    2.3675  -56.1663 H   0  0  0  0  0  0  0  0  0  0  0  0
    5.2479    3.2416  -57.7071 H   0  0  0  0  0  0  0  0  0  0  0  0
    5.0792    1.4532  -57.7071 H   0  0  0  0  0  0  0  0  0  0  0  0
    6.7802    2.8654  -59.6261 H   0  0  0  0  0  0  0  0  0  0  0  0
    6.2076    4.2652  -58.6303 H   0  0  0  0  0  0  0  0  0  0  0  0
    7.4727    5.0456  -60.6159 H   0  0  0  0  0  0  0  0  0  0  0  0
    8.9361    3.0584  -60.9038 H   0  0  0  0  0  0  0  0  0  0  0  0
    9.9218    4.5551  -60.7622 H   0  0  0  0  0  0  0  0  0  0  0  0
   10.8581    2.7105  -59.3851 H   0  0  0  0  0  0  0  0  0  0  0  0
    8.7357    1.5171  -58.8849 H   0  0  0  0  0  0  0  0  0  0  0  0
    9.6151    1.9574  -57.3653 H   0  0  0  0  0  0  0  0  0  0  0  0
    9.4904    6.0589  -56.9439 H   0  0  0  0  0  0  0  0  0  0  0  0
    7.5703    6.3533  -58.4958 H   0  0  0  0  0  0  0  0  0  0  0  0
    9.1386    6.4493  -59.3766 H   0  0  0  0  0  0  0  0  0  0  0  0
    8.8244    3.8690  -55.9531 H   0  0  0  0  0  0  0  0  0  0  0  0
    7.3879    4.8344  -56.4672 H   0  0  0  0  0  0  0  0  0  0  0  0
    5.5560    0.2310  -55.8720 H   0  0  0  0  0  0  0  0  0  0  0  0
  1  2  1  0
  2  3  1  0
  3  4  1  0
  4  5  2  0
  5  6  1  0
  6  7  2  0
  7  8  1  0
  8  9  1  0
 10  8  1  1
 10 11  1  0
 11 12  1  0
 12 13  1  0
 13 14  1  0
 14 15  1  0
 14 16  1  0
 16 17  2  0
 16 18  1  0
 18 19  1  0
 18 20  1  0
  7 21  1  0
 21 22  1  0
 22 23  2  0
 23 24  1  0
 24 25  2  0
 24  3  1  0
 22  4  1  0
 15 10  1  0
 20 10  1  0
 19 12  1  0
  1 26  1  0
  1 27  1  0
  1 28  1  0
  2 29  1  0
  2 30  1  0
  5 31  1  0
  6 32  1  0
  9 33  1  0
  9 34  1  0
  9 35  1  0
 11 36  1  0
 11 37  1  0
 12 38  1  6
 13 39  1  0
 13 40  1  0
 14 41  1  6
 15 42  1  0
 15 43  1  0
 18 44  1  1
 19 45  1  0
 19 46  1  0
 20 47  1  0
 20 48  1  0
 21 49  1  0
M  END
>  <meeko>  (85) 
{"is_sidechain": false}

$$$$

     RDKit          3D

 38 42  0  0  0  0  0  0  0  0999 V2000
   10.6630    5.2620  -60.1670 O   0  0  0  0  0  0  0  0  0  0  0  0
   10.2420    4.6320  -59.2030 C   0  0  0  0  0  0  0  0  0  0  0  0
    9.1210    5.1400  -58.3080 C   0  0  2  0  0  0  0  0  0  0  0  0
    9.6690    5.2210  -56.8800 C   0  0  0  0  0  0  0  0  0  0  0  0
   10.1690    3.8360  -56.4330 C   0  0  2  0  0  0  0  0  0  0  0  0
   11.3090    3.3880  -57.3640 C   0  0  0  0  0  0  0  0  0  0  0  0
   10.7940    3.2710  -58.8030 C   0  0  1  0  0  0  0  0  0  0  0  0
    9.6390    2.2650  -58.8830 C   0  0  0  0  0  0  0  0  0  0  0  0
    8.4680    2.7140  -57.9740 C   0  0  1  0  0  0  0  0  0  0  0  0
    7.3780    1.7300  -57.9310 N   0  0  0  0  0  0  0  0  0  0  0  0
    6.2040    1.8760  -58.6820 C   0  0  0  0  0  0  0  0  0  0  0  0
    5.0620    2.3100  -57.9860 C   0  0  0  0  0  0  0  0  0  0  0  0
    3.8400    2.5110  -58.6450 C   0  0  0  0  0  0  0  0  0  0  0  0
    3.8320    2.2680  -60.0160 C   0  0  0  0  0  0  0  0  0  0  0  0
    2.8580    2.3520  -60.9750 N   0  0  0  0  0  0  0  0  0  0  0  0
    3.4000    2.0070  -62.1420 N   0  0  0  0  0  0  0  0  0  0  0  0
    4.6960    1.7150  -61.9150 N   0  0  0  0  0  0  0  0  0  0  0  0
    5.0180    1.8570  -60.5990 C   0  0  0  0  0  0  0  0  0  0  0  0
    6.2070    1.6510  -60.0100 N   0  0  0  0  0  0  0  0  0  0  0  0
    9.0150    2.8250  -56.5180 C   0  0  0  0  0  0  0  0  0  0  0  0
    7.9740    4.1240  -58.3900 C   0  0  0  0  0  0  0  0  0  0  0  0
    8.7562    6.1317  -58.6137 H   0  0  0  0  0  0  0  0  0  0  0  0
   10.5030    5.9375  -56.8492 H   0  0  0  0  0  0  0  0  0  0  0  0
    8.8687    5.5537  -56.2027 H   0  0  0  0  0  0  0  0  0  0  0  0
   10.5340    3.8895  -55.3967 H   0  0  0  0  0  0  0  0  0  0  0  0
   12.1220    4.1281  -57.3269 H   0  0  0  0  0  0  0  0  0  0  0  0
   11.6821    2.4077  -57.0328 H   0  0  0  0  0  0  0  0  0  0  0  0
   11.6132    2.9405  -59.4585 H   0  0  0  0  0  0  0  0  0  0  0  0
    9.2863    2.2000  -59.9229 H   0  0  0  0  0  0  0  0  0  0  0  0
    9.9977    1.2821  -58.5434 H   0  0  0  0  0  0  0  0  0  0  0  0
    7.7210    0.7780  -58.0520 H   0  0  0  0  0  0  0  0  0  0  0  0
    5.1280    2.4955  -56.9038 H   0  0  0  0  0  0  0  0  0  0  0  0
    2.9385    2.8421  -58.1086 H   0  0  0  0  0  0  0  0  0  0  0  0
    5.2900    1.4320  -62.6820 H   0  0  0  0  0  0  0  0  0  0  0  0
    8.2019    3.1521  -55.8533 H   0  0  0  0  0  0  0  0  0  0  0  0
    9.3933    1.8384  -56.2121 H   0  0  0  0  0  0  0  0  0  0  0  0
    7.5973    4.0857  -59.4228 H   0  0  0  0  0  0  0  0  0  0  0  0
    7.1716    4.4366  -57.7055 H   0  0  0  0  0  0  0  0  0  0  0  0
  1  2  2  0
  2  3  1  0
  3  4  1  0
  4  5  1  0
  5  6  1  0
  6  7  1  0
  7  8  1  0
  8  9  1  0
  9 10  1  1
 10 11  1  0
 11 12  2  0
 12 13  1  0
 13 14  2  0
 14 15  1  0
 15 16  2  0
 16 17  1  0
 17 18  1  0
 18 19  2  0
  9 20  1  0
  9 21  1  0
  7  2  1  0
 19 11  1  0
 21  3  1  0
 20  5  1  0
 18 14  1  0
  3 22  1  6
  4 23  1  0
  4 24  1  0
  5 25  1  1
  6 26  1  0
  6 27  1  0
  7 28  1  6
  8 29  1  0
  8 30  1  0
 10 31  1  0
 12 32  1  0
 13 33  1  0
 17 34  1  0
 20 35  1  0
 20 36  1  0
 21 37  1  0
 21 38  1  0
M  END
>  <meeko>  (86) 
{"is_sidechain": false}

$$$$

     RDKit          3D

 38 42  0  0  0  0  0  0  0  0999 V2000
   12.6510    3.5080  -58.1390 O   0  0  0  0  0  0  0  0  0  0  0  0
   11.4540    3.6720  -58.3460 C   0  0  0  0  0  0  0  0  0  0  0  0
   10.7780    3.2810  -59.6480 C   0  0  2  0  0  0  0  0  0  0  0  0
   10.1540    4.5470  -60.2460 C   0  0  0  0  0  0  0  0  0  0  0  0
    9.1490    5.1590  -59.2530 C   0  0  2  0  0  0  0  0  0  0  0  0
    9.8930    5.5340  -57.9550 C   0  0  0  0  0  0  0  0  0  0  0  0
   10.5160    4.2830  -57.3210 C   0  0  1  0  0  0  0  0  0  0  0  0
    9.4280    3.2450  -57.0090 C   0  0  0  0  0  0  0  0  0  0  0  0
    8.6570    2.8590  -58.2960 C   0  0  1  0  0  0  0  0  0  0  0  0
    7.6460    1.8040  -58.0710 N   0  0  0  0  0  0  0  0  0  0  0  0
    6.3660    1.9870  -58.6080 C   0  0  0  0  0  0  0  0  0  0  0  0
    5.3140    2.4550  -57.8150 C   0  0  0  0  0  0  0  0  0  0  0  0
    4.0350    2.6270  -58.3490 C   0  0  0  0  0  0  0  0  0  0  0  0
    3.9250    2.2850  -59.6890 C   0  0  0  0  0  0  0  0  0  0  0  0
    2.9090    2.2830  -60.5990 N   0  0  0  0  0  0  0  0  0  0  0  0
    3.3170    1.8510  -61.8040 N   0  0  0  0  0  0  0  0  0  0  0  0
    4.6090    1.5520  -61.7040 N   0  0  0  0  0  0  0  0  0  0  0  0
    5.0010    1.8080  -60.4190 C   0  0  0  0  0  0  0  0  0  0  0  0
    6.2370    1.6390  -59.9000 N   0  0  0  0  0  0  0  0  0  0  0  0
    8.0470    4.1320  -58.9330 C   0  0  0  0  0  0  0  0  0  0  0  0
    9.6900    2.2610  -59.3010 C   0  0  0  0  0  0  0  0  0  0  0  0
   11.4807    2.8449  -60.3733 H   0  0  0  0  0  0  0  0  0  0  0  0
   10.9474    5.2786  -60.4585 H   0  0  0  0  0  0  0  0  0  0  0  0
    9.6284    4.2854  -61.1762 H   0  0  0  0  0  0  0  0  0  0  0  0
    8.6907    6.0561  -59.6948 H   0  0  0  0  0  0  0  0  0  0  0  0
   10.6881    6.2576  -58.1880 H   0  0  0  0  0  0  0  0  0  0  0  0
    9.1777    5.9772  -57.2465 H   0  0  0  0  0  0  0  0  0  0  0  0
   11.0368    4.5592  -56.3923 H   0  0  0  0  0  0  0  0  0  0  0  0
    9.8978    2.3451  -56.5855 H   0  0  0  0  0  0  0  0  0  0  0  0
    8.7197    3.6796  -56.2884 H   0  0  0  0  0  0  0  0  0  0  0  0
    7.9550    0.9760  -58.5910 H   0  0  0  0  0  0  0  0  0  0  0  0
    5.4961    2.6909  -56.7561 H   0  0  0  0  0  0  0  0  0  0  0  0
    3.1868    3.0018  -57.7573 H   0  0  0  0  0  0  0  0  0  0  0  0
    1.9400    2.5520  -60.4810 H   0  0  0  0  0  0  0  0  0  0  0  0
    7.5275    3.8576  -59.8629 H   0  0  0  0  0  0  0  0  0  0  0  0
    7.3396    4.5812  -58.2204 H   0  0  0  0  0  0  0  0  0  0  0  0
   10.1596    1.3752  -58.8485 H   0  0  0  0  0  0  0  0  0  0  0  0
    9.1597    1.9888  -60.2255 H   0  0  0  0  0  0  0  0  0  0  0  0
  1  2  2  0
  2  3  1  0
  3  4  1  0
  4  5  1  0
  5  6  1  0
  6  7  1  0
  7  8  1  0
  8  9  1  0
  9 10  1  1
 10 11  1  0
 11 12  2  0
 12 13  1  0
 13 14  2  0
 14 15  1  0
 15 16  1  0
 16 17  2  0
 17 18  1  0
 18 19  2  0
  9 20  1  0
  9 21  1  0
  7  2  1  0
 19 11  1  0
 21  3  1  0
 20  5  1  0
 18 14  1  0
  3 22  1  6
  4 23  1  0
  4 24  1  0
  5 25  1  6
  6 26  1  0
  6 27  1  0
  7 28  1  1
  8 29  1  0
  8 30  1  0
 10 31  1  0
 12 32  1  0
 13 33  1  0
 15 34  1  0
 20 35  1  0
 20 36  1  0
 21 37  1  0
 21 38  1  0
M  END
>  <meeko>  (87) 
{"is_sidechain": false}

$$$$

     RDKit          3D

 38 42  0  0  0  0  0  0  0  0999 V2000
   12.3330    3.2390  -57.5990 O   0  0  0  0  0  0  0  0  0  0  0  0
   11.2480    3.5840  -58.0550 C   0  0  0  0  0  0  0  0  0  0  0  0
   11.0100    3.8180  -59.5370 C   0  0  2  0  0  0  0  0  0  0  0  0
   10.5410    5.2690  -59.7040 C   0  0  0  0  0  0  0  0  0  0  0  0
    9.2690    5.5210  -58.8720 C   0  0  2  0  0  0  0  0  0  0  0  0
    9.5820    5.2650  -57.3850 C   0  0  0  0  0  0  0  0  0  0  0  0
   10.0230    3.8110  -57.1880 C   0  0  1  0  0  0  0  0  0  0  0  0
    8.9350    2.8500  -57.6800 C   0  0  0  0  0  0  0  0  0  0  0  0
    8.6080    3.0960  -59.1870 C   0  0  1  0  0  0  0  0  0  0  0  0
    7.5540    2.1570  -59.5620 N   0  0  0  0  0  0  0  0  0  0  0  0
    6.6110    2.1710  -60.5660 C   0  0  0  0  0  0  0  0  0  0  0  0
    6.8050    2.6440  -61.8260 C   0  0  0  0  0  0  0  0  0  0  0  0
    5.7520    2.6260  -62.8450 C   0  0  0  0  0  0  0  0  0  0  0  0
    4.5530    2.1210  -62.5460 C   0  0  0  0  0  0  0  0  0  0  0  0
    3.3990    1.9380  -63.2230 N   0  0  0  0  0  0  0  0  0  0  0  0
    2.5670    1.3800  -62.4430 N   0  0  0  0  0  0  0  0  0  0  0  0
    3.1400    1.1480  -61.1330 N   0  0  0  0  0  0  0  0  0  0  0  0
    4.3510    1.6090  -61.2010 C   0  0  0  0  0  0  0  0  0  0  0  0
    5.3530    1.6610  -60.2730 N   0  0  0  0  0  0  0  0  0  0  0  0
    8.1550    4.5650  -59.3340 C   0  0  0  0  0  0  0  0  0  0  0  0
    9.9130    2.8420  -59.9820 C   0  0  0  0  0  0  0  0  0  0  0  0
   11.9148    3.6549  -60.1409 H   0  0  0  0  0  0  0  0  0  0  0  0
   11.3367    5.9485  -59.3646 H   0  0  0  0  0  0  0  0  0  0  0  0
   10.3155    5.4514  -60.7651 H   0  0  0  0  0  0  0  0  0  0  0  0
    8.9358    6.5604  -59.0084 H   0  0  0  0  0  0  0  0  0  0  0  0
   10.3894    5.9382  -57.0610 H   0  0  0  0  0  0  0  0  0  0  0  0
    8.6783    5.4537  -56.7869 H   0  0  0  0  0  0  0  0  0  0  0  0
   10.2222    3.6308  -56.1213 H   0  0  0  0  0  0  0  0  0  0  0  0
    9.2852    1.8151  -57.5526 H   0  0  0  0  0  0  0  0  0  0  0  0
    8.0223    3.0243  -57.0912 H   0  0  0  0  0  0  0  0  0  0  0  0
    7.2890    1.5230  -58.8150 H   0  0  0  0  0  0  0  0  0  0  0  0
    7.7901    3.0559  -62.0905 H   0  0  0  0  0  0  0  0  0  0  0  0
    5.9485    3.0263  -63.8506 H   0  0  0  0  0  0  0  0  0  0  0  0
    5.2100    1.2160  -59.3810 H   0  0  0  0  0  0  0  0  0  0  0  0
    7.9189    4.7672  -60.3892 H   0  0  0  0  0  0  0  0  0  0  0  0
    7.2648    4.7272  -58.7086 H   0  0  0  0  0  0  0  0  0  0  0  0
   10.2513    1.8107  -59.8031 H   0  0  0  0  0  0  0  0  0  0  0  0
    9.7133    2.9944  -61.0529 H   0  0  0  0  0  0  0  0  0  0  0  0
  1  2  2  0
  2  3  1  0
  3  4  1  0
  4  5  1  0
  5  6  1  0
  6  7  1  0
  7  8  1  0
  8  9  1  0
  9 10  1  6
 10 11  1  0
 11 12  2  0
 12 13  1  0
 13 14  2  0
 14 15  1  0
 15 16  2  0
 16 17  1  0
 17 18  2  0
 18 19  1  0
  9 20  1  0
  9 21  1  0
  7  2  1  0
 19 11  1  0
 21  3  1  0
 20  5  1  0
 18 14  1  0
  3 22  1  6
  4 23  1  0
  4 24  1  0
  5 25  1  1
  6 26  1  0
  6 27  1  0
  7 28  1  1
  8 29  1  0
  8 30  1  0
 10 31  1  0
 12 32  1  0
 13 33  1  0
 19 34  1  0
 20 35  1  0
 20 36  1  0
 21 37  1  0
 21 38  1  0
M  END
>  <meeko>  (88) 
{"is_sidechain": false}

$$$$

     RDKit          3D

 38 42  0  0  0  0  0  0  0  0999 V2000
    9.6600    3.8490  -56.3140 O   0  0  0  0  0  0  0  0  0  0  0  0
    9.8010    3.9250  -57.5300 C   0  0  0  0  0  0  0  0  0  0  0  0
   10.3740    2.7890  -58.3660 C   0  0  2  0  0  0  0  0  0  0  0  0
   11.5780    3.3390  -59.1370 C   0  0  0  0  0  0  0  0  0  0  0  0
   11.1420    4.5260  -60.0140 C   0  0  2  0  0  0  0  0  0  0  0  0
   10.6020    5.6450  -59.1060 C   0  0  0  0  0  0  0  0  0  0  0  0
    9.3760    5.1450  -58.3350 C   0  0  1  0  0  0  0  0  0  0  0  0
    8.2780    4.6890  -59.3040 C   0  0  0  0  0  0  0  0  0  0  0  0
    8.7950    3.5340  -60.1910 C   0  0  1  0  0  0  0  0  0  0  0  0
    7.8340    3.1420  -61.2110 N   0  0  0  0  0  0  0  0  0  0  0  0
    6.6450    2.6700  -61.0800 C   0  0  0  0  0  0  0  0  0  0  0  0
    5.9040    2.3890  -59.7730 C   0  0  0  0  0  0  0  0  0  0  0  0
    4.6480    1.8870  -59.8290 C   0  0  0  0  0  0  0  0  0  0  0  0
    4.0410    1.6330  -61.0830 C   0  0  0  0  0  0  0  0  0  0  0  0
    2.8140    1.1420  -61.3630 N   0  0  0  0  0  0  0  0  0  0  0  0
    2.7130    1.0880  -62.6970 N   0  0  0  0  0  0  0  0  0  0  0  0
    3.8770    1.5460  -63.2230 N   0  0  0  0  0  0  0  0  0  0  0  0
    4.7320    1.8970  -62.2300 C   0  0  0  0  0  0  0  0  0  0  0  0
    5.9820    2.3940  -62.2760 N   0  0  0  0  0  0  0  0  0  0  0  0
   10.0310    4.0690  -60.9730 C   0  0  0  0  0  0  0  0  0  0  0  0
    9.2720    2.3390  -59.3360 C   0  0  0  0  0  0  0  0  0  0  0  0
   10.6974    1.9363  -57.7509 H   0  0  0  0  0  0  0  0  0  0  0  0
   12.3450    3.6751  -58.4237 H   0  0  0  0  0  0  0  0  0  0  0  0
   11.9888    2.5463  -59.7795 H   0  0  0  0  0  0  0  0  0  0  0  0
   11.9992    4.8964  -60.5954 H   0  0  0  0  0  0  0  0  0  0  0  0
   11.3839    5.9452  -58.3928 H   0  0  0  0  0  0  0  0  0  0  0  0
   10.3133    6.5067  -59.7258 H   0  0  0  0  0  0  0  0  0  0  0  0
    8.9941    5.9565  -57.6982 H   0  0  0  0  0  0  0  0  0  0  0  0
    7.4064    4.3433  -58.7288 H   0  0  0  0  0  0  0  0  0  0  0  0
    7.9924    5.5349  -59.9466 H   0  0  0  0  0  0  0  0  0  0  0  0
    6.3830    2.5912  -58.8036 H   0  0  0  0  0  0  0  0  0  0  0  0
    4.0985    1.6762  -58.8997 H   0  0  0  0  0  0  0  0  0  0  0  0
    3.9840    1.5780  -64.2290 H   0  0  0  0  0  0  0  0  0  0  0  0
    6.5090    2.5950  -63.1160 H   0  0  0  0  0  0  0  0  0  0  0  0
   10.4213    3.2681  -61.6182 H   0  0  0  0  0  0  0  0  0  0  0  0
    9.7141    4.9333  -61.5752 H   0  0  0  0  0  0  0  0  0  0  0  0
    8.4225    1.9408  -58.7617 H   0  0  0  0  0  0  0  0  0  0  0  0
    9.6739    1.5596  -60.0001 H   0  0  0  0  0  0  0  0  0  0  0  0
  1  2  2  0
  2  3  1  0
  3  4  1  0
  4  5  1  0
  5  6  1  0
  6  7  1  0
  7  8  1  0
  8  9  1  0
  9 10  1  6
 10 11  2  0
 11 12  1  0
 12 13  2  0
 13 14  1  0
 14 15  1  0
 15 16  2  0
 16 17  1  0
 17 18  1  0
 18 19  1  0
  9 20  1  0
  9 21  1  0
  7  2  1  0
 19 11  1  0
 21  3  1  0
 20  5  1  0
 18 14  2  0
  3 22  1  1
  4 23  1  0
  4 24  1  0
  5 25  1  6
  6 26  1  0
  6 27  1  0
  7 28  1  1
  8 29  1  0
  8 30  1  0
 12 31  1  0
 13 32  1  0
 17 33  1  0
 19 34  1  0
 20 35  1  0
 20 36  1  0
 21 37  1  0
 21 38  1  0
M  END
>  <meeko>  (89) 
{"is_sidechain": false}

$$$$

     RDKit          3D

 38 42  0  0  0  0  0  0  0  0999 V2000
   11.6020    2.4030  -57.2140 O   0  0  0  0  0  0  0  0  0  0  0  0
   10.6870    2.9970  -57.7760 C   0  0  0  0  0  0  0  0  0  0  0  0
   10.2450    2.6770  -59.1940 C   0  0  2  0  0  0  0  0  0  0  0  0
   10.4330    3.9520  -60.0290 C   0  0  0  0  0  0  0  0  0  0  0  0
    9.6240    5.1150  -59.4220 C   0  0  2  0  0  0  0  0  0  0  0  0
   10.1170    5.3780  -57.9860 C   0  0  0  0  0  0  0  0  0  0  0  0
    9.9090    4.1280  -57.1250 C   0  0  1  0  0  0  0  0  0  0  0  0
    8.4320    3.7220  -57.1220 C   0  0  0  0  0  0  0  0  0  0  0  0
    7.9240    3.4490  -58.5700 C   0  0  1  0  0  0  0  0  0  0  0  0
    6.5180    3.1000  -58.4300 N   0  0  0  0  0  0  0  0  0  0  0  0
    5.7080    2.7160  -59.3510 C   0  0  0  0  0  0  0  0  0  0  0  0
    4.2890    2.4300  -58.8540 C   0  0  0  0  0  0  0  0  0  0  0  0
    3.3500    2.0190  -59.7340 C   0  0  0  0  0  0  0  0  0  0  0  0
    3.6920    1.8600  -61.0990 C   0  0  0  0  0  0  0  0  0  0  0  0
    2.9230    1.4670  -62.1380 N   0  0  0  0  0  0  0  0  0  0  0  0
    3.7040    1.4750  -63.2230 N   0  0  0  0  0  0  0  0  0  0  0  0
    4.9430    1.8720  -62.8450 N   0  0  0  0  0  0  0  0  0  0  0  0
    4.9690    2.1230  -61.5100 C   0  0  0  0  0  0  0  0  0  0  0  0
    5.9740    2.5360  -60.7100 N   0  0  0  0  0  0  0  0  0  0  0  0
    8.1310    4.7390  -59.3890 C   0  0  0  0  0  0  0  0  0  0  0  0
    8.7640    2.2830  -59.1390 C   0  0  0  0  0  0  0  0  0  0  0  0
   10.8242    1.8551  -59.6400 H   0  0  0  0  0  0  0  0  0  0  0  0
   11.4994    4.2213  -60.0444 H   0  0  0  0  0  0  0  0  0  0  0  0
   10.0760    3.7645  -61.0524 H   0  0  0  0  0  0  0  0  0  0  0  0
    9.7602    6.0194  -60.0331 H   0  0  0  0  0  0  0  0  0  0  0  0
   11.1872    5.6311  -58.0086 H   0  0  0  0  0  0  0  0  0  0  0  0
    9.5458    6.2134  -57.5548 H   0  0  0  0  0  0  0  0  0  0  0  0
   10.2386    4.3297  -56.0951 H   0  0  0  0  0  0  0  0  0  0  0  0
    8.3113    2.8090  -56.5205 H   0  0  0  0  0  0  0  0  0  0  0  0
    7.8431    4.5466  -56.6940 H   0  0  0  0  0  0  0  0  0  0  0  0
    4.0363    2.5578  -57.7911 H   0  0  0  0  0  0  0  0  0  0  0  0
    2.3257    1.8091  -59.3923 H   0  0  0  0  0  0  0  0  0  0  0  0
    5.6720    1.9360  -63.5430 H   0  0  0  0  0  0  0  0  0  0  0  0
    6.9060    2.7220  -61.0460 H   0  0  0  0  0  0  0  0  0  0  0  0
    7.7742    4.5778  -60.4170 H   0  0  0  0  0  0  0  0  0  0  0  0
    7.5655    5.5570  -58.9188 H   0  0  0  0  0  0  0  0  0  0  0  0
    8.6462    1.4007  -58.4927 H   0  0  0  0  0  0  0  0  0  0  0  0
    8.4154    2.0516  -60.1563 H   0  0  0  0  0  0  0  0  0  0  0  0
  1  2  2  0
  2  3  1  0
  3  4  1  0
  4  5  1  0
  5  6  1  0
  6  7  1  0
  7  8  1  0
  8  9  1  0
  9 10  1  1
 10 11  2  0
 11 12  1  0
 12 13  2  0
 13 14  1  0
 14 15  1  0
 15 16  2  0
 16 17  1  0
 17 18  1  0
 18 19  1  0
  9 20  1  0
  9 21  1  0
  7  2  1  0
 19 11  1  0
 21  3  1  0
 20  5  1  0
 18 14  2  0
  3 22  1  6
  4 23  1  0
  4 24  1  0
  5 25  1  6
  6 26  1  0
  6 27  1  0
  7 28  1  1
  8 29  1  0
  8 30  1  0
 12 31  1  0
 13 32  1  0
 17 33  1  0
 19 34  1  0
 20 35  1  0
 20 36  1  0
 21 37  1  0
 21 38  1  0
M  END
>  <meeko>  (90) 
{"is_sidechain": false}

$$$$

     RDKit          3D

 38 42  0  0  0  0  0  0  0  0999 V2000
   12.6300    3.6530  -57.9060 O   0  0  0  0  0  0  0  0  0  0  0  0
   11.4450    3.7810  -58.1950 C   0  0  0  0  0  0  0  0  0  0  0  0
   10.8670    3.3290  -59.5250 C   0  0  2  0  0  0  0  0  0  0  0  0
   10.2550    4.5560  -60.2060 C   0  0  0  0  0  0  0  0  0  0  0  0
    9.1740    5.1730  -59.3030 C   0  0  2  0  0  0  0  0  0  0  0  0
    9.8200    5.6130  -57.9730 C   0  0  0  0  0  0  0  0  0  0  0  0
   10.4270    4.4030  -57.2540 C   0  0  1  0  0  0  0  0  0  0  0  0
    9.3510    3.3430  -56.9750 C   0  0  0  0  0  0  0  0  0  0  0  0
    8.6740    2.8950  -58.2970 C   0  0  1  0  0  0  0  0  0  0  0  0
    7.6860    1.8150  -58.0830 N   0  0  0  0  0  0  0  0  0  0  0  0
    6.4120    1.9590  -58.6520 C   0  0  0  0  0  0  0  0  0  0  0  0
    5.3400    2.4540  -57.8690 C   0  0  0  0  0  0  0  0  0  0  0  0
    4.0500    2.6270  -58.3880 C   0  0  0  0  0  0  0  0  0  0  0  0
    3.9650    2.2750  -59.7390 C   0  0  0  0  0  0  0  0  0  0  0  0
    2.9090    2.3030  -60.5720 N   0  0  0  0  0  0  0  0  0  0  0  0
    3.4480    1.8620  -61.7220 N   0  0  0  0  0  0  0  0  0  0  0  0
    4.7450    1.5340  -61.7520 N   0  0  0  0  0  0  0  0  0  0  0  0
    5.1080    1.7920  -60.4940 C   0  0  0  0  0  0  0  0  0  0  0  0
    6.3470    1.6340  -59.9660 N   0  0  0  0  0  0  0  0  0  0  0  0
    8.0800    4.1280  -59.0150 C   0  0  0  0  0  0  0  0  0  0  0  0
    9.7810    2.2930  -59.2170 C   0  0  0  0  0  0  0  0  0  0  0  0
   11.6278    2.8871  -60.1852 H   0  0  0  0  0  0  0  0  0  0  0  0
   11.0431    5.3006  -60.3920 H   0  0  0  0  0  0  0  0  0  0  0  0
    9.7987    4.2504  -61.1591 H   0  0  0  0  0  0  0  0  0  0  0  0
    8.7246    6.0410  -59.8076 H   0  0  0  0  0  0  0  0  0  0  0  0
   10.6119    6.3481  -58.1793 H   0  0  0  0  0  0  0  0  0  0  0  0
    9.0486    6.0627  -57.3306 H   0  0  0  0  0  0  0  0  0  0  0  0
   10.8743    4.7282  -56.3031 H   0  0  0  0  0  0  0  0  0  0  0  0
    9.8180    2.4710  -56.4939 H   0  0  0  0  0  0  0  0  0  0  0  0
    8.5870    3.7772  -56.3134 H   0  0  0  0  0  0  0  0  0  0  0  0
    7.4520    1.8160  -57.0840 H   0  0  0  0  0  0  0  0  0  0  0  0
    5.5271    2.7117  -56.8161 H   0  0  0  0  0  0  0  0  0  0  0  0
    3.1988    2.9984  -57.7985 H   0  0  0  0  0  0  0  0  0  0  0  0
    2.8760    1.7780  -62.5590 H   0  0  0  0  0  0  0  0  0  0  0  0
    7.6273    3.8086  -59.9653 H   0  0  0  0  0  0  0  0  0  0  0  0
    7.3202    4.5836  -58.3629 H   0  0  0  0  0  0  0  0  0  0  0  0
   10.2400    1.4315  -58.7100 H   0  0  0  0  0  0  0  0  0  0  0  0
    9.3165    1.9821  -60.1644 H   0  0  0  0  0  0  0  0  0  0  0  0
  1  2  2  0
  2  3  1  0
  3  4  1  0
  4  5  1  0
  5  6  1  0
  6  7  1  0
  7  8  1  0
  8  9  1  0
  9 10  1  1
 10 11  1  0
 11 12  1  0
 12 13  2  0
 13 14  1  0
 14 15  2  0
 15 16  1  0
 16 17  1  0
 17 18  2  0
 18 19  1  0
  9 20  1  0
  9 21  1  0
  7  2  1  0
 19 11  2  0
 21  3  1  0
 20  5  1  0
 18 14  1  0
  3 22  1  6
  4 23  1  0
  4 24  1  0
  5 25  1  6
  6 26  1  0
  6 27  1  0
  7 28  1  1
  8 29  1  0
  8 30  1  0
 10 31  1  0
 12 32  1  0
 13 33  1  0
 16 34  1  0
 20 35  1  0
 20 36  1  0
 21 37  1  0
 21 38  1  0
M  END
>  <meeko>  (91) 
{"is_sidechain": false}

$$$$

     RDKit          3D

 38 42  0  0  0  0  0  0  0  0999 V2000
    9.7950    4.1390  -56.2280 O   0  0  0  0  0  0  0  0  0  0  0  0
    9.9150    4.1240  -57.4490 C   0  0  0  0  0  0  0  0  0  0  0  0
   10.4070    2.9040  -58.2140 C   0  0  2  0  0  0  0  0  0  0  0  0
   11.6080    3.3350  -59.0610 C   0  0  0  0  0  0  0  0  0  0  0  0
   11.2010    4.4750  -60.0100 C   0  0  2  0  0  0  0  0  0  0  0  0
   10.7470    5.6830  -59.1720 C   0  0  0  0  0  0  0  0  0  0  0  0
    9.5260    5.3050  -58.3280 C   0  0  1  0  0  0  0  0  0  0  0  0
    8.3740    4.8340  -59.2260 C   0  0  0  0  0  0  0  0  0  0  0  0
    8.8050    3.5950  -60.0420 C   0  0  1  0  0  0  0  0  0  0  0  0
    7.7920    3.1730  -60.9920 N   0  0  0  0  0  0  0  0  0  0  0  0
    6.6240    2.7070  -60.7990 C   0  0  0  0  0  0  0  0  0  0  0  0
    5.9300    2.4350  -59.5030 C   0  0  0  0  0  0  0  0  0  0  0  0
    4.6480    2.0670  -59.4130 C   0  0  0  0  0  0  0  0  0  0  0  0
    3.9470    1.9110  -60.6720 C   0  0  0  0  0  0  0  0  0  0  0  0
    2.7080    1.6530  -60.9280 N   0  0  0  0  0  0  0  0  0  0  0  0
    2.5950    1.6640  -62.3120 N   0  0  0  0  0  0  0  0  0  0  0  0
    3.8600    1.7150  -62.9410 N   0  0  0  0  0  0  0  0  0  0  0  0
    4.7270    2.0350  -61.9270 C   0  0  0  0  0  0  0  0  0  0  0  0
    5.9520    2.4180  -61.9620 N   0  0  0  0  0  0  0  0  0  0  0  0
   10.0370    4.0060  -60.8990 C   0  0  0  0  0  0  0  0  0  0  0  0
    9.2520    2.4420  -59.1130 C   0  0  0  0  0  0  0  0  0  0  0  0
   10.7127    2.0842  -57.5473 H   0  0  0  0  0  0  0  0  0  0  0  0
   12.4146    3.6828  -58.3988 H   0  0  0  0  0  0  0  0  0  0  0  0
   11.9566    2.4777  -59.6555 H   0  0  0  0  0  0  0  0  0  0  0  0
   12.0550    4.7581  -60.6429 H   0  0  0  0  0  0  0  0  0  0  0  0
   11.5667    5.9946  -58.5079 H   0  0  0  0  0  0  0  0  0  0  0  0
   10.4785    6.5099  -59.8459 H   0  0  0  0  0  0  0  0  0  0  0  0
    9.2095    6.1807  -57.7423 H   0  0  0  0  0  0  0  0  0  0  0  0
    7.5083    4.5731  -58.5994 H   0  0  0  0  0  0  0  0  0  0  0  0
    8.1054    5.6445  -59.9195 H   0  0  0  0  0  0  0  0  0  0  0  0
    6.5060    2.5437  -58.5722 H   0  0  0  0  0  0  0  0  0  0  0  0
    4.1561    1.8935  -58.4445 H   0  0  0  0  0  0  0  0  0  0  0  0
    1.9600    0.9470  -62.6740 H   0  0  0  0  0  0  0  0  0  0  0  0
    3.9230    2.3460  -63.7360 H   0  0  0  0  0  0  0  0  0  0  0  0
   10.3655    3.1406  -61.4934 H   0  0  0  0  0  0  0  0  0  0  0  0
    9.7428    4.8381  -61.5555 H   0  0  0  0  0  0  0  0  0  0  0  0
    8.4040    2.1319  -58.4847 H   0  0  0  0  0  0  0  0  0  0  0  0
    9.5921    1.5961  -59.7285 H   0  0  0  0  0  0  0  0  0  0  0  0
  1  2  2  0
  2  3  1  0
  3  4  1  0
  4  5  1  0
  5  6  1  0
  6  7  1  0
  7  8  1  0
  8  9  1  0
  9 10  1  6
 10 11  2  0
 11 12  1  0
 12 13  2  0
 13 14  1  0
 14 15  2  0
 15 16  1  0
 16 17  1  0
 17 18  1  0
 18 19  2  0
  9 20  1  0
  9 21  1  0
  7  2  1  0
 19 11  1  0
 21  3  1  0
 20  5  1  0
 18 14  1  0
  3 22  1  1
  4 23  1  0
  4 24  1  0
  5 25  1  6
  6 26  1  0
  6 27  1  0
  7 28  1  1
  8 29  1  0
  8 30  1  0
 12 31  1  0
 13 32  1  0
 16 33  1  0
 17 34  1  0
 20 35  1  0
 20 36  1  0
 21 37  1  0
 21 38  1  0
M  END
>  <meeko>  (92) 
{"is_sidechain": false}

$$$$

     RDKit          3D

 38 42  0  0  0  0  0  0  0  0999 V2000
   12.0770    2.9330  -57.9910 O   0  0  0  0  0  0  0  0  0  0  0  0
   10.9840    3.3540  -58.3560 C   0  0  0  0  0  0  0  0  0  0  0  0
   10.8230    4.5680  -59.2530 C   0  0  2  0  0  0  0  0  0  0  0  0
   10.0080    5.6070  -58.4760 C   0  0  0  0  0  0  0  0  0  0  0  0
    8.6400    5.0160  -58.0850 C   0  0  2  0  0  0  0  0  0  0  0  0
    8.8630    3.7820  -57.1880 C   0  0  0  0  0  0  0  0  0  0  0  0
    9.6700    2.7140  -57.9380 C   0  0  1  0  0  0  0  0  0  0  0  0
    8.9390    2.2820  -59.2160 C   0  0  0  0  0  0  0  0  0  0  0  0
    8.6740    3.5100  -60.1190 C   0  0  1  0  0  0  0  0  0  0  0  0
    8.0470    3.1440  -61.3890 N   0  0  0  0  0  0  0  0  0  0  0  0
    6.8350    2.7470  -61.5130 C   0  0  0  0  0  0  0  0  0  0  0  0
    6.3420    2.3990  -62.8760 C   0  0  0  0  0  0  0  0  0  0  0  0
    5.0790    2.0530  -63.1390 C   0  0  0  0  0  0  0  0  0  0  0  0
    4.1910    2.0260  -61.9940 C   0  0  0  0  0  0  0  0  0  0  0  0
    2.9200    1.8150  -61.9120 N   0  0  0  0  0  0  0  0  0  0  0  0
    2.5900    1.9690  -60.5740 N   0  0  0  0  0  0  0  0  0  0  0  0
    3.7390    2.0730  -59.7570 N   0  0  0  0  0  0  0  0  0  0  0  0
    4.7680    2.2650  -60.6440 C   0  0  0  0  0  0  0  0  0  0  0  0
    5.9860    2.6220  -60.4450 N   0  0  0  0  0  0  0  0  0  0  0  0
    7.8820    4.5940  -59.3570 C   0  0  0  0  0  0  0  0  0  0  0  0
   10.0580    4.1150  -60.5010 C   0  0  0  0  0  0  0  0  0  0  0  0
   11.7887    5.0036  -59.5490 H   0  0  0  0  0  0  0  0  0  0  0  0
   10.5552    5.8931  -57.5657 H   0  0  0  0  0  0  0  0  0  0  0  0
    9.8518    6.4922  -59.1101 H   0  0  0  0  0  0  0  0  0  0  0  0
    8.0508    5.7694  -57.5417 H   0  0  0  0  0  0  0  0  0  0  0  0
    9.4138    4.0849  -56.2853 H   0  0  0  0  0  0  0  0  0  0  0  0
    7.8852    3.3611  -56.9109 H   0  0  0  0  0  0  0  0  0  0  0  0
    9.8147    1.8379  -57.2888 H   0  0  0  0  0  0  0  0  0  0  0  0
    9.5594    1.5562  -59.7621 H   0  0  0  0  0  0  0  0  0  0  0  0
    7.9777    1.8225  -58.9426 H   0  0  0  0  0  0  0  0  0  0  0  0
    7.0575    2.4288  -63.7110 H   0  0  0  0  0  0  0  0  0  0  0  0
    4.7365    1.8056  -64.1546 H   0  0  0  0  0  0  0  0  0  0  0  0
    1.8850    1.3010  -60.2480 H   0  0  0  0  0  0  0  0  0  0  0  0
    3.6870    2.7870  -59.0340 H   0  0  0  0  0  0  0  0  0  0  0  0
    7.7491    5.4709  -60.0077 H   0  0  0  0  0  0  0  0  0  0  0  0
    6.9020    4.1852  -59.0700 H   0  0  0  0  0  0  0  0  0  0  0  0
   10.6502    3.3531  -61.0290 H   0  0  0  0  0  0  0  0  0  0  0  0
    9.8917    4.9899  -61.1467 H   0  0  0  0  0  0  0  0  0  0  0  0
  1  2  2  0
  2  3  1  0
  3  4  1  0
  4  5  1  0
  5  6  1  0
  6  7  1  0
  7  8  1  0
  8  9  1  0
  9 10  1  6
 10 11  2  0
 11 12  1  0
 12 13  2  0
 13 14  1  0
 14 15  2  0
 15 16  1  0
 16 17  1  0
 17 18  1  0
 18 19  2  0
  9 20  1  0
  9 21  1  0
  7  2  1  0
 19 11  1  0
 21  3  1  0
 20  5  1  0
 18 14  1  0
  3 22  1  6
  4 23  1  0
  4 24  1  0
  5 25  1  1
  6 26  1  0
  6 27  1  0
  7 28  1  1
  8 29  1  0
  8 30  1  0
 12 31  1  0
 13 32  1  0
 16 33  1  0
 17 34  1  0
 20 35  1  0
 20 36  1  0
 21 37  1  0
 21 38  1  0
M  END
>  <meeko>  (93) 
{"is_sidechain": false}

$$$$

     RDKit          3D

 38 42  0  0  0  0  0  0  0  0999 V2000
    9.5930    4.1260  -56.3020 O   0  0  0  0  0  0  0  0  0  0  0  0
    9.7580    4.1030  -57.5170 C   0  0  0  0  0  0  0  0  0  0  0  0
   10.2520    2.8690  -58.2590 C   0  0  2  0  0  0  0  0  0  0  0  0
   11.4960    3.2680  -59.0570 C   0  0  0  0  0  0  0  0  0  0  0  0
   11.1520    4.4130  -60.0270 C   0  0  2  0  0  0  0  0  0  0  0  0
   10.6930    5.6350  -59.2120 C   0  0  0  0  0  0  0  0  0  0  0  0
    9.4320    5.2880  -58.4150 C   0  0  1  0  0  0  0  0  0  0  0  0
    8.3060    4.8420  -59.3580 C   0  0  0  0  0  0  0  0  0  0  0  0
    8.7380    3.5870  -60.1490 C   0  0  1  0  0  0  0  0  0  0  0  0
    7.7550    3.1890  -61.1450 N   0  0  0  0  0  0  0  0  0  0  0  0
    6.5600    2.7300  -61.0040 C   0  0  0  0  0  0  0  0  0  0  0  0
    5.8510    2.4800  -59.6710 C   0  0  0  0  0  0  0  0  0  0  0  0
    4.5940    1.9940  -59.6660 C   0  0  0  0  0  0  0  0  0  0  0  0
    4.0530    1.7620  -60.9360 C   0  0  0  0  0  0  0  0  0  0  0  0
    2.8260    1.2820  -61.2570 N   0  0  0  0  0  0  0  0  0  0  0  0
    2.6880    1.2040  -62.6010 N   0  0  0  0  0  0  0  0  0  0  0  0
    3.8260    1.6340  -63.1540 N   0  0  0  0  0  0  0  0  0  0  0  0
    4.6580    1.9740  -62.1400 C   0  0  0  0  0  0  0  0  0  0  0  0
    5.9050    2.4550  -62.1980 N   0  0  0  0  0  0  0  0  0  0  0  0
   10.0140    3.9670  -60.9590 C   0  0  0  0  0  0  0  0  0  0  0  0
    9.1240    2.4280  -59.2020 C   0  0  0  0  0  0  0  0  0  0  0  0
   10.5113    2.0451  -57.5778 H   0  0  0  0  0  0  0  0  0  0  0  0
   12.2825    3.6012  -58.3639 H   0  0  0  0  0  0  0  0  0  0  0  0
   11.8505    2.4002  -59.6326 H   0  0  0  0  0  0  0  0  0  0  0  0
   12.0363    4.6731  -60.6272 H   0  0  0  0  0  0  0  0  0  0  0  0
   11.4930    5.9314  -58.5176 H   0  0  0  0  0  0  0  0  0  0  0  0
   10.4697    6.4646  -59.8989 H   0  0  0  0  0  0  0  0  0  0  0  0
    9.1131    6.1720  -57.8434 H   0  0  0  0  0  0  0  0  0  0  0  0
    7.4084    4.6077  -58.7668 H   0  0  0  0  0  0  0  0  0  0  0  0
    8.0878    5.6550  -60.0661 H   0  0  0  0  0  0  0  0  0  0  0  0
    6.3644    2.6957  -58.7224 H   0  0  0  0  0  0  0  0  0  0  0  0
    4.0376    1.7955  -58.7381 H   0  0  0  0  0  0  0  0  0  0  0  0
    2.0530    0.9930  -60.6670 H   0  0  0  0  0  0  0  0  0  0  0  0
    6.4020    2.6310  -63.0600 H   0  0  0  0  0  0  0  0  0  0  0  0
   10.3458    3.0919  -61.5371 H   0  0  0  0  0  0  0  0  0  0  0  0
    9.7649    4.8030  -61.6292 H   0  0  0  0  0  0  0  0  0  0  0  0
    8.2458    2.1367  -58.6071 H   0  0  0  0  0  0  0  0  0  0  0  0
    9.4705    1.5737  -59.8021 H   0  0  0  0  0  0  0  0  0  0  0  0
  1  2  2  0
  2  3  1  0
  3  4  1  0
  4  5  1  0
  5  6  1  0
  6  7  1  0
  7  8  1  0
  8  9  1  0
  9 10  1  6
 10 11  2  0
 11 12  1  0
 12 13  2  0
 13 14  1  0
 14 15  1  0
 15 16  1  0
 16 17  2  0
 17 18  1  0
 18 19  1  0
  9 20  1  0
  9 21  1  0
  7  2  1  0
 19 11  1  0
 21  3  1  0
 20  5  1  0
 18 14  2  0
  3 22  1  1
  4 23  1  0
  4 24  1  0
  5 25  1  6
  6 26  1  0
  6 27  1  0
  7 28  1  1
  8 29  1  0
  8 30  1  0
 12 31  1  0
 13 32  1  0
 15 33  1  0
 19 34  1  0
 20 35  1  0
 20 36  1  0
 21 37  1  0
 21 38  1  0
M  END
>  <meeko>  (94) 
{"is_sidechain": false}

$$$$

     RDKit          3D

 38 42  0  0  0  0  0  0  0  0999 V2000
   11.8950    2.5210  -57.2340 O   0  0  0  0  0  0  0  0  0  0  0  0
   10.9580    3.0700  -57.8040 C   0  0  0  0  0  0  0  0  0  0  0  0
   10.5200    2.7040  -59.2130 C   0  0  2  0  0  0  0  0  0  0  0  0
   10.6550    3.9670  -60.0760 C   0  0  0  0  0  0  0  0  0  0  0  0
    9.8060    5.1130  -59.4890 C   0  0  2  0  0  0  0  0  0  0  0  0
   10.2990    5.4240  -58.0630 C   0  0  0  0  0  0  0  0  0  0  0  0
   10.1430    4.1860  -57.1740 C   0  0  1  0  0  0  0  0  0  0  0  0
    8.6820    3.7250  -57.1510 C   0  0  0  0  0  0  0  0  0  0  0  0
    8.1760    3.4020  -58.5900 C   0  0  1  0  0  0  0  0  0  0  0  0
    6.7830    3.0040  -58.4300 N   0  0  0  0  0  0  0  0  0  0  0  0
    5.9500    2.6790  -59.3590 C   0  0  0  0  0  0  0  0  0  0  0  0
    4.5660    2.3140  -58.8130 C   0  0  0  0  0  0  0  0  0  0  0  0
    3.5820    1.9520  -59.6570 C   0  0  0  0  0  0  0  0  0  0  0  0
    3.9560    1.9530  -61.0060 C   0  0  0  0  0  0  0  0  0  0  0  0
    3.2040    1.6400  -62.0910 N   0  0  0  0  0  0  0  0  0  0  0  0
    3.9370    1.7660  -63.2220 N   0  0  0  0  0  0  0  0  0  0  0  0
    5.1650    2.1600  -62.8730 N   0  0  0  0  0  0  0  0  0  0  0  0
    5.1790    2.2730  -61.5240 C   0  0  0  0  0  0  0  0  0  0  0  0
    6.1930    2.6390  -60.7250 N   0  0  0  0  0  0  0  0  0  0  0  0
    8.3290    4.6820  -59.4370 C   0  0  0  0  0  0  0  0  0  0  0  0
    9.0550    2.2560  -59.1380 C   0  0  0  0  0  0  0  0  0  0  0  0
   11.1270    1.8957  -59.6467 H   0  0  0  0  0  0  0  0  0  0  0  0
   11.7105    4.2756  -60.1041 H   0  0  0  0  0  0  0  0  0  0  0  0
   10.2990    3.7440  -61.0926 H   0  0  0  0  0  0  0  0  0  0  0  0
    9.9030    6.0086  -60.1203 H   0  0  0  0  0  0  0  0  0  0  0  0
   11.3591    5.7153  -58.0993 H   0  0  0  0  0  0  0  0  0  0  0  0
    9.7005    6.2469  -57.6450 H   0  0  0  0  0  0  0  0  0  0  0  0
   10.4717    4.4235  -56.1515 H   0  0  0  0  0  0  0  0  0  0  0  0
    8.5996    2.8213  -56.5293 H   0  0  0  0  0  0  0  0  0  0  0  0
    8.0650    4.5355  -56.7359 H   0  0  0  0  0  0  0  0  0  0  0  0
    4.3762    2.3478  -57.7300 H   0  0  0  0  0  0  0  0  0  0  0  0
    2.5722    1.6792  -59.3165 H   0  0  0  0  0  0  0  0  0  0  0  0
    2.2370    1.3460  -62.1620 H   0  0  0  0  0  0  0  0  0  0  0  0
    7.0930    2.8740  -61.1050 H   0  0  0  0  0  0  0  0  0  0  0  0
    7.9716    4.4862  -60.4587 H   0  0  0  0  0  0  0  0  0  0  0  0
    7.7364    5.4877  -58.9792 H   0  0  0  0  0  0  0  0  0  0  0  0
    8.9747    1.3851  -58.4708 H   0  0  0  0  0  0  0  0  0  0  0  0
    8.7087    1.9881  -60.1471 H   0  0  0  0  0  0  0  0  0  0  0  0
  1  2  2  0
  2  3  1  0
  3  4  1  0
  4  5  1  0
  5  6  1  0
  6  7  1  0
  7  8  1  0
  8  9  1  0
  9 10  1  1
 10 11  2  0
 11 12  1  0
 12 13  2  0
 13 14  1  0
 14 15  1  0
 15 16  1  0
 16 17  2  0
 17 18  1  0
 18 19  1  0
  9 20  1  0
  9 21  1  0
  7  2  1  0
 19 11  1  0
 21  3  1  0
 20  5  1  0
 18 14  2  0
  3 22  1  6
  4 23  1  0
  4 24  1  0
  5 25  1  6
  6 26  1  0
  6 27  1  0
  7 28  1  1
  8 29  1  0
  8 30  1  0
 12 31  1  0
 13 32  1  0
 15 33  1  0
 19 34  1  0
 20 35  1  0
 20 36  1  0
 21 37  1  0
 21 38  1  0
M  END
>  <meeko>  (95) 
{"is_sidechain": false}

$$$$

     RDKit          3D

 38 42  0  0  0  0  0  0  0  0999 V2000
   11.8350    2.3800  -57.1030 O   0  0  0  0  0  0  0  0  0  0  0  0
   10.9120    3.0370  -57.5720 C   0  0  0  0  0  0  0  0  0  0  0  0
   11.0540    3.8980  -58.8150 C   0  0  2  0  0  0  0  0  0  0  0  0
   10.7520    5.3430  -58.4040 C   0  0  0  0  0  0  0  0  0  0  0  0
    9.3290    5.4370  -57.8240 C   0  0  2  0  0  0  0  0  0  0  0  0
    9.2310    4.5340  -56.5770 C   0  0  0  0  0  0  0  0  0  0  0  0
    9.5260    3.0750  -56.9490 C   0  0  1  0  0  0  0  0  0  0  0  0
    8.5340    2.5740  -58.0070 C   0  0  0  0  0  0  0  0  0  0  0  0
    8.5740    3.4900  -59.2510 C   0  0  1  0  0  0  0  0  0  0  0  0
    7.7060    3.0180  -60.3190 N   0  0  0  0  0  0  0  0  0  0  0  0
    6.4610    2.6940  -60.3010 C   0  0  0  0  0  0  0  0  0  0  0  0
    5.5570    2.7300  -59.0870 C   0  0  0  0  0  0  0  0  0  0  0  0
    4.2740    2.3570  -59.2400 C   0  0  0  0  0  0  0  0  0  0  0  0
    3.8000    1.9440  -60.5130 C   0  0  0  0  0  0  0  0  0  0  0  0
    2.5790    1.5410  -60.8720 N   0  0  0  0  0  0  0  0  0  0  0  0
    2.7730    1.2940  -62.1830 N   0  0  0  0  0  0  0  0  0  0  0  0
    4.0000    1.5000  -62.7030 N   0  0  0  0  0  0  0  0  0  0  0  0
    4.6690    1.9200  -61.6300 C   0  0  0  0  0  0  0  0  0  0  0  0
    5.9580    2.2830  -61.5240 N   0  0  0  0  0  0  0  0  0  0  0  0
    8.3130    4.9630  -58.8810 C   0  0  0  0  0  0  0  0  0  0  0  0
   10.0200    3.4050  -59.8320 C   0  0  0  0  0  0  0  0  0  0  0  0
   12.0603    3.8415  -59.2556 H   0  0  0  0  0  0  0  0  0  0  0  0
   11.4780    5.6649  -57.6428 H   0  0  0  0  0  0  0  0  0  0  0  0
   10.8263    5.9937  -59.2878 H   0  0  0  0  0  0  0  0  0  0  0  0
    9.1091    6.4784  -57.5463 H   0  0  0  0  0  0  0  0  0  0  0  0
    9.9612    4.8715  -55.8267 H   0  0  0  0  0  0  0  0  0  0  0  0
    8.2118    4.5991  -56.1684 H   0  0  0  0  0  0  0  0  0  0  0  0
    9.4494    2.4460  -56.0498 H   0  0  0  0  0  0  0  0  0  0  0  0
    8.8035    1.5490  -58.3015 H   0  0  0  0  0  0  0  0  0  0  0  0
    7.5191    2.5879  -57.5831 H   0  0  0  0  0  0  0  0  0  0  0  0
    5.9390    3.0523  -58.1071 H   0  0  0  0  0  0  0  0  0  0  0  0
    3.5910    2.3719  -58.3778 H   0  0  0  0  0  0  0  0  0  0  0  0
    2.0100    0.9600  -62.7680 H   0  0  0  0  0  0  0  0  0  0  0  0
    6.5930    2.2700  -62.3100 H   0  0  0  0  0  0  0  0  0  0  0  0
    8.4096    5.5861  -59.7823 H   0  0  0  0  0  0  0  0  0  0  0  0
    7.2978    5.0535  -58.4673 H   0  0  0  0  0  0  0  0  0  0  0  0
   10.2418    2.3593  -60.0914 H   0  0  0  0  0  0  0  0  0  0  0  0
   10.0756    4.0455  -60.7246 H   0  0  0  0  0  0  0  0  0  0  0  0
  1  2  2  0
  2  3  1  0
  3  4  1  0
  4  5  1  0
  5  6  1  0
  6  7  1  0
  7  8  1  0
  8  9  1  0
  9 10  1  6
 10 11  2  0
 11 12  1  0
 12 13  2  0
 13 14  1  0
 14 15  2  0
 15 16  1  0
 16 17  1  0
 17 18  2  0
 18 19  1  0
  9 20  1  0
  9 21  1  0
  7  2  1  0
 19 11  1  0
 21  3  1  0
 20  5  1  0
 18 14  1  0
  3 22  1  6
  4 23  1  0
  4 24  1  0
  5 25  1  1
  6 26  1  0
  6 27  1  0
  7 28  1  1
  8 29  1  0
  8 30  1  0
 12 31  1  0
 13 32  1  0
 16 33  1  0
 19 34  1  0
 20 35  1  0
 20 36  1  0
 21 37  1  0
 21 38  1  0
M  END
>  <meeko>  (96) 
{"is_sidechain": false}

$$$$

     RDKit          3D

 38 42  0  0  0  0  0  0  0  0999 V2000
   12.2180    3.0020  -58.2300 O   0  0  0  0  0  0  0  0  0  0  0  0
   11.1010    3.4180  -58.5210 C   0  0  0  0  0  0  0  0  0  0  0  0
   10.8730    4.6180  -59.4230 C   0  0  2  0  0  0  0  0  0  0  0  0
   10.1200    5.6700  -58.6020 C   0  0  0  0  0  0  0  0  0  0  0  0
    8.7840    5.0890  -58.1020 C   0  0  2  0  0  0  0  0  0  0  0  0
    9.0710    3.8670  -57.2050 C   0  0  0  0  0  0  0  0  0  0  0  0
    9.8220    2.7870  -57.9950 C   0  0  1  0  0  0  0  0  0  0  0  0
    8.9990    2.3360  -59.2090 C   0  0  0  0  0  0  0  0  0  0  0  0
    8.6630    3.5500  -60.1040 C   0  0  1  0  0  0  0  0  0  0  0  0
    7.9430    3.1640  -61.3110 N   0  0  0  0  0  0  0  0  0  0  0  0
    6.7180    2.7760  -61.4040 C   0  0  0  0  0  0  0  0  0  0  0  0
    6.3090    2.4560  -62.8280 C   0  0  0  0  0  0  0  0  0  0  0  0
    5.0530    2.0380  -63.0580 C   0  0  0  0  0  0  0  0  0  0  0  0
    4.1470    1.9090  -61.9730 C   0  0  0  0  0  0  0  0  0  0  0  0
    2.8710    1.5170  -61.9760 N   0  0  0  0  0  0  0  0  0  0  0  0
    2.5780    1.6050  -60.6630 N   0  0  0  0  0  0  0  0  0  0  0  0
    3.5430    2.0170  -59.8130 N   0  0  0  0  0  0  0  0  0  0  0  0
    4.5590    2.2150  -60.6520 C   0  0  0  0  0  0  0  0  0  0  0  0
    5.8070    2.6360  -60.3710 N   0  0  0  0  0  0  0  0  0  0  0  0
    7.9330    4.6500  -59.3070 C   0  0  0  0  0  0  0  0  0  0  0  0
   10.0160    4.1450  -60.6010 C   0  0  0  0  0  0  0  0  0  0  0  0
   11.8128    5.0484  -59.7993 H   0  0  0  0  0  0  0  0  0  0  0  0
   10.7341    5.9669  -57.7390 H   0  0  0  0  0  0  0  0  0  0  0  0
    9.9187    6.5467  -59.2352 H   0  0  0  0  0  0  0  0  0  0  0  0
    8.2382    5.8525  -57.5282 H   0  0  0  0  0  0  0  0  0  0  0  0
    9.6852    4.1824  -56.3487 H   0  0  0  0  0  0  0  0  0  0  0  0
    8.1155    3.4512  -56.8526 H   0  0  0  0  0  0  0  0  0  0  0  0
   10.0152    1.9225  -57.3429 H   0  0  0  0  0  0  0  0  0  0  0  0
    9.5796    1.6049  -59.7907 H   0  0  0  0  0  0  0  0  0  0  0  0
    8.0627    1.8772  -58.8586 H   0  0  0  0  0  0  0  0  0  0  0  0
    7.0254    2.5637  -63.6557 H   0  0  0  0  0  0  0  0  0  0  0  0
    4.7287    1.7972  -64.0811 H   0  0  0  0  0  0  0  0  0  0  0  0
    1.6500    1.3650  -60.3200 H   0  0  0  0  0  0  0  0  0  0  0  0
    6.0620    2.8430  -59.4210 H   0  0  0  0  0  0  0  0  0  0  0  0
    7.7565    5.5162  -59.9617 H   0  0  0  0  0  0  0  0  0  0  0  0
    6.9744    4.2521  -58.9427 H   0  0  0  0  0  0  0  0  0  0  0  0
   10.5657    3.3723  -61.1584 H   0  0  0  0  0  0  0  0  0  0  0  0
    9.8026    5.0084  -61.2482 H   0  0  0  0  0  0  0  0  0  0  0  0
  1  2  2  0
  2  3  1  0
  3  4  1  0
  4  5  1  0
  5  6  1  0
  6  7  1  0
  7  8  1  0
  8  9  1  0
  9 10  1  6
 10 11  2  0
 11 12  1  0
 12 13  2  0
 13 14  1  0
 14 15  2  0
 15 16  1  0
 16 17  1  0
 17 18  2  0
 18 19  1  0
  9 20  1  0
  9 21  1  0
  7  2  1  0
 19 11  1  0
 21  3  1  0
 20  5  1  0
 18 14  1  0
  3 22  1  6
  4 23  1  0
  4 24  1  0
  5 25  1  1
  6 26  1  0
  6 27  1  0
  7 28  1  1
  8 29  1  0
  8 30  1  0
 12 31  1  0
 13 32  1  0
 16 33  1  0
 19 34  1  0
 20 35  1  0
 20 36  1  0
 21 37  1  0
 21 38  1  0
M  END
>  <meeko>  (97) 
{"is_sidechain": false}

$$$$

     RDKit          3D

 61 66  0  0  0  0  0  0  0  0999 V2000
    9.9920    3.6140  -55.7050 C   0  0  0  0  0  0  0  0  0  0  0  0
    9.8240    2.4960  -56.6470 N   0  0  0  0  0  0  0  0  0  0  0  0
    8.8500    1.6270  -56.0970 C   0  0  0  0  0  0  0  0  0  0  0  0
    7.4960    1.9750  -56.2470 C   0  0  0  0  0  0  0  0  0  0  0  0
    6.4960    1.1470  -55.7410 C   0  0  0  0  0  0  0  0  0  0  0  0
    6.8950   -0.0040  -55.0970 C   0  0  0  0  0  0  0  0  0  0  0  0
    8.2470   -0.2850  -54.9790 C   0  0  0  0  0  0  0  0  0  0  0  0
    9.2180    0.4930  -55.4690 N   0  0  0  0  0  0  0  0  0  0  0  0
    8.4180   -1.4810  -54.2810 N   0  0  0  0  0  0  0  0  0  0  0  0
    9.6250   -2.0450  -53.9550 C   0  0  0  0  0  0  0  0  0  0  0  0
   10.4300   -1.6410  -53.1260 O   0  0  0  0  0  0  0  0  0  0  0  0
    9.8420   -3.1710  -54.6950 O   0  0  0  0  0  0  0  0  0  0  0  0
   11.1780   -3.6720  -54.6100 C   0  0  0  0  0  0  0  0  0  0  0  0
   11.5430   -4.2230  -55.9650 C   0  0  0  0  0  0  0  0  0  0  0  0
   11.9400   -5.5610  -56.1050 C   0  0  0  0  0  0  0  0  0  0  0  0
   12.2980   -6.0650  -57.3560 C   0  0  0  0  0  0  0  0  0  0  0  0
   12.2700   -5.2380  -58.4770 C   0  0  0  0  0  0  0  0  0  0  0  0
   11.8890   -3.9030  -58.3470 C   0  0  0  0  0  0  0  0  0  0  0  0
   11.5310   -3.3970  -57.0970 C   0  0  0  0  0  0  0  0  0  0  0  0
    7.1080   -2.0360  -53.9390 C   0  0  0  0  0  0  0  0  0  0  0  0
    6.0500   -1.0520  -54.4560 C   0  0  0  0  0  0  0  0  0  0  0  0
    9.6830    2.8400  -58.0970 C   0  0  2  0  0  0  0  0  0  0  0  0
   11.0710    3.1180  -58.7580 C   0  0  0  0  0  0  0  0  0  0  0  0
   10.9210    3.5490  -60.2250 C   0  0  2  0  0  0  0  0  0  0  0  0
   10.1180    4.8560  -60.2930 C   0  0  0  0  0  0  0  0  0  0  0  0
    8.7450    4.6500  -59.6540 C   0  0  2  0  0  0  0  0  0  0  0  0
    8.8860    4.1860  -58.2000 C   0  0  0  0  0  0  0  0  0  0  0  0
    8.0480    3.5330  -60.4140 C   0  0  0  0  0  0  0  0  0  0  0  0
    6.9710    3.6890  -60.9810 O   0  0  0  0  0  0  0  0  0  0  0  0
    8.7920    2.2090  -60.3930 C   0  0  1  0  0  0  0  0  0  0  0  0
   10.1760    2.4490  -61.0050 C   0  0  0  0  0  0  0  0  0  0  0  0
    8.9070    1.7780  -58.9240 C   0  0  0  0  0  0  0  0  0  0  0  0
    9.9352    3.2361  -54.6735 H   0  0  0  0  0  0  0  0  0  0  0  0
   10.9714    4.0874  -55.8687 H   0  0  0  0  0  0  0  0  0  0  0  0
    9.1950    4.3543  -55.8687 H   0  0  0  0  0  0  0  0  0  0  0  0
    7.2247    2.9058  -56.7666 H   0  0  0  0  0  0  0  0  0  0  0  0
    5.4316    1.4018  -55.8511 H   0  0  0  0  0  0  0  0  0  0  0  0
   11.8671   -2.8592  -54.3371 H   0  0  0  0  0  0  0  0  0  0  0  0
   11.2495   -4.4556  -53.8413 H   0  0  0  0  0  0  0  0  0  0  0  0
   11.9693   -6.2174  -55.2228 H   0  0  0  0  0  0  0  0  0  0  0  0
   12.6029   -7.1170  -57.4573 H   0  0  0  0  0  0  0  0  0  0  0  0
   12.5481   -5.6378  -59.4633 H   0  0  0  0  0  0  0  0  0  0  0  0
   11.8707   -3.2482  -59.2307 H   0  0  0  0  0  0  0  0  0  0  0  0
   11.2371   -2.3415  -56.9993 H   0  0  0  0  0  0  0  0  0  0  0  0
    6.9771   -3.0169  -54.4192 H   0  0  0  0  0  0  0  0  0  0  0  0
    7.0142   -2.1750  -52.8518 H   0  0  0  0  0  0  0  0  0  0  0  0
    5.3817   -1.5302  -55.1873 H   0  0  0  0  0  0  0  0  0  0  0  0
    5.3800   -0.6666  -53.6733 H   0  0  0  0  0  0  0  0  0  0  0  0
   11.5782    3.9191  -58.2004 H   0  0  0  0  0  0  0  0  0  0  0  0
   11.6584    2.1884  -58.7302 H   0  0  0  0  0  0  0  0  0  0  0  0
   11.9158    3.7059  -60.6675 H   0  0  0  0  0  0  0  0  0  0  0  0
   10.6587    5.6461  -59.7514 H   0  0  0  0  0  0  0  0  0  0  0  0
    9.9900    5.1510  -61.3450 H   0  0  0  0  0  0  0  0  0  0  0  0
    8.1868    5.5973  -59.6861 H   0  0  0  0  0  0  0  0  0  0  0  0
    9.4185    4.9605  -57.6284 H   0  0  0  0  0  0  0  0  0  0  0  0
    7.8776    4.0200  -57.7931 H   0  0  0  0  0  0  0  0  0  0  0  0
    8.2782    1.4224  -60.9650 H   0  0  0  0  0  0  0  0  0  0  0  0
   10.7581    1.5166  -60.9631 H   0  0  0  0  0  0  0  0  0  0  0  0
   10.0548    2.7704  -62.0500 H   0  0  0  0  0  0  0  0  0  0  0  0
    7.8978    1.6597  -58.5027 H   0  0  0  0  0  0  0  0  0  0  0  0
    9.4551    0.8254  -58.8777 H   0  0  0  0  0  0  0  0  0  0  0  0
  1  2  1  0
  2  3  1  0
  3  4  2  0
  4  5  1  0
  5  6  2  0
  6  7  1  0
  7  8  2  0
  7  9  1  0
  9 10  1  0
 10 11  2  0
 10 12  1  0
 12 13  1  0
 13 14  1  0
 14 15  2  0
 15 16  1  0
 16 17  2  0
 17 18  1  0
 18 19  2  0
  9 20  1  0
 20 21  1  0
 22  2  1  1
 22 23  1  0
 23 24  1  0
 24 25  1  0
 25 26  1  0
 26 27  1  0
 26 28  1  0
 28 29  2  0
 28 30  1  0
 30 31  1  0
 30 32  1  0
  8  3  1  0
 19 14  1  0
 27 22  1  0
 21  6  1  0
 32 22  1  0
 31 24  1  0
  1 33  1  0
  1 34  1  0
  1 35  1  0
  4 36  1  0
  5 37  1  0
 13 38  1  0
 13 39  1  0
 15 40  1  0
 16 41  1  0
 17 42  1  0
 18 43  1  0
 19 44  1  0
 20 45  1  0
 20 46  1  0
 21 47  1  0
 21 48  1  0
 23 49  1  0
 23 50  1  0
 24 51  1  6
 25 52  1  0
 25 53  1  0
 26 54  1  1
 27 55  1  0
 27 56  1  0
 30 57  1  6
 31 58  1  0
 31 59  1  0
 32 60  1  0
 32 61  1  0
M  END
>  <meeko>  (98) 
{"is_sidechain": false}

$$$$

     RDKit          3D

 55 60  0  0  0  0  0  0  0  0999 V2000
    4.4210    2.4520  -57.9860 C   0  0  0  0  0  0  0  0  0  0  0  0
    5.7640    1.8180  -58.3210 C   0  0  0  0  0  0  0  0  0  0  0  0
    6.8200    2.3180  -57.4120 N   0  0  0  0  0  0  0  0  0  0  0  0
    7.1840    1.4430  -56.4250 C   0  0  0  0  0  0  0  0  0  0  0  0
    6.4370    0.6370  -55.7060 N   0  0  0  0  0  0  0  0  0  0  0  0
    7.2960   -0.0280  -54.8780 C   0  0  0  0  0  0  0  0  0  0  0  0
    6.9400   -0.9510  -53.9620 N   0  0  0  0  0  0  0  0  0  0  0  0
    7.9570   -1.4950  -53.2520 C   0  0  0  0  0  0  0  0  0  0  0  0
    7.5480   -2.5080  -52.2510 C   0  0  0  0  0  0  0  0  0  0  0  0
    6.5730   -3.4860  -52.5250 C   0  0  0  0  0  0  0  0  0  0  0  0
    6.2060   -4.4370  -51.5670 C   0  0  0  0  0  0  0  0  0  0  0  0
    6.8010   -4.4290  -50.3100 C   0  0  0  0  0  0  0  0  0  0  0  0
    7.7590   -3.4670  -50.0070 C   0  0  0  0  0  0  0  0  0  0  0  0
    8.1240   -2.5180  -50.9660 C   0  0  0  0  0  0  0  0  0  0  0  0
    9.3020   -1.1290  -53.4290 C   0  0  0  0  0  0  0  0  0  0  0  0
    9.6680   -0.1730  -54.3780 C   0  0  0  0  0  0  0  0  0  0  0  0
    8.6080    0.3630  -55.0950 C   0  0  0  0  0  0  0  0  0  0  0  0
    8.5100    1.2940  -56.0910 N   0  0  0  0  0  0  0  0  0  0  0  0
    7.8860    3.1950  -58.0020 C   0  0  2  0  0  0  0  0  0  0  0  0
    7.3200    3.9840  -59.2250 C   0  0  0  0  0  0  0  0  0  0  0  0
    8.3810    4.9030  -59.8510 C   0  0  2  0  0  0  0  0  0  0  0  0
    9.5860    4.0530  -60.2990 C   0  0  0  0  0  0  0  0  0  0  0  0
   10.1750    3.3040  -59.0980 C   0  0  2  0  0  0  0  0  0  0  0  0
    9.1250    2.3820  -58.4650 C   0  0  0  0  0  0  0  0  0  0  0  0
   10.5670    4.3550  -58.0710 C   0  0  0  0  0  0  0  0  0  0  0  0
   11.7260    4.5360  -57.7140 O   0  0  0  0  0  0  0  0  0  0  0  0
    9.4080    5.2120  -57.5860 C   0  0  1  0  0  0  0  0  0  0  0  0
    8.8410    5.9340  -58.8080 C   0  0  0  0  0  0  0  0  0  0  0  0
    8.3570    4.2790  -56.9740 C   0  0  0  0  0  0  0  0  0  0  0  0
    4.3039    2.5073  -56.8936 H   0  0  0  0  0  0  0  0  0  0  0  0
    4.3778    3.4656  -58.4112 H   0  0  0  0  0  0  0  0  0  0  0  0
    3.6109    1.8412  -58.4112 H   0  0  0  0  0  0  0  0  0  0  0  0
    5.6841    0.7260  -58.2156 H   0  0  0  0  0  0  0  0  0  0  0  0
    6.0323    2.0831  -59.3543 H   0  0  0  0  0  0  0  0  0  0  0  0
    6.0897   -3.5026  -53.5130 H   0  0  0  0  0  0  0  0  0  0  0  0
    5.4446   -5.1933  -51.8086 H   0  0  0  0  0  0  0  0  0  0  0  0
    6.5153   -5.1800  -49.5588 H   0  0  0  0  0  0  0  0  0  0  0  0
    8.2293   -3.4532  -49.0127 H   0  0  0  0  0  0  0  0  0  0  0  0
    8.8796   -1.7604  -50.7108 H   0  0  0  0  0  0  0  0  0  0  0  0
   10.0783   -1.6030  -52.8104 H   0  0  0  0  0  0  0  0  0  0  0  0
   10.7121    0.1308  -54.5439 H   0  0  0  0  0  0  0  0  0  0  0  0
    9.2710    1.7750  -56.5400 H   0  0  0  0  0  0  0  0  0  0  0  0
    6.9778    3.2659  -59.9847 H   0  0  0  0  0  0  0  0  0  0  0  0
    6.4886    4.6119  -58.8721 H   0  0  0  0  0  0  0  0  0  0  0  0
    7.9541    5.4258  -60.7196 H   0  0  0  0  0  0  0  0  0  0  0  0
    9.2575    3.3259  -61.0563 H   0  0  0  0  0  0  0  0  0  0  0  0
   10.3554    4.7137  -60.7251 H   0  0  0  0  0  0  0  0  0  0  0  0
   11.0313    2.6930  -59.4196 H   0  0  0  0  0  0  0  0  0  0  0  0
    8.8088    1.6331  -59.2060 H   0  0  0  0  0  0  0  0  0  0  0  0
    9.5709    1.8885  -57.5888 H   0  0  0  0  0  0  0  0  0  0  0  0
    9.7178    5.9481  -56.8295 H   0  0  0  0  0  0  0  0  0  0  0  0
    7.9842    6.5525  -58.5025 H   0  0  0  0  0  0  0  0  0  0  0  0
    9.6203    6.5741  -59.2473 H   0  0  0  0  0  0  0  0  0  0  0  0
    8.7920    3.7760  -56.0978 H   0  0  0  0  0  0  0  0  0  0  0  0
    7.4846    4.8833  -56.6845 H   0  0  0  0  0  0  0  0  0  0  0  0
  1  2  1  0
  2  3  1  0
  3  4  1  0
  4  5  2  0
  5  6  1  0
  6  7  1  0
  7  8  2  0
  8  9  1  0
  9 10  2  0
 10 11  1  0
 11 12  2  0
 12 13  1  0
 13 14  2  0
  8 15  1  0
 15 16  2  0
 16 17  1  0
 17 18  1  0
 19  3  1  1
 19 20  1  0
 20 21  1  0
 21 22  1  0
 22 23  1  0
 23 24  1  0
 23 25  1  0
 25 26  2  0
 25 27  1  0
 27 28  1  0
 27 29  1  0
 18  4  1  0
 24 19  1  0
 17  6  2  0
 29 19  1  0
 14  9  1  0
 28 21  1  0
  1 30  1  0
  1 31  1  0
  1 32  1  0
  2 33  1  0
  2 34  1  0
 10 35  1  0
 11 36  1  0
 12 37  1  0
 13 38  1  0
 14 39  1  0
 15 40  1  0
 16 41  1  0
 18 42  1  0
 20 43  1  0
 20 44  1  0
 21 45  1  6
 22 46  1  0
 22 47  1  0
 23 48  1  6
 24 49  1  0
 24 50  1  0
 27 51  1  1
 28 52  1  0
 28 53  1  0
 29 54  1  0
 29 55  1  0
M  END
>  <meeko>  (99) 
{"is_sidechain": false}

$$$$

     RDKit          3D

 55 60  0  0  0  0  0  0  0  0999 V2000
    4.5960    2.3130  -57.7720 C   0  0  0  0  0  0  0  0  0  0  0  0
    5.7380    2.6670  -56.8260 C   0  0  0  0  0  0  0  0  0  0  0  0
    7.0230    2.1120  -57.3260 N   0  0  0  0  0  0  0  0  0  0  0  0
    7.6030    1.2830  -56.4110 C   0  0  0  0  0  0  0  0  0  0  0  0
    8.8740    1.1300  -56.1150 N   0  0  0  0  0  0  0  0  0  0  0  0
    8.8950    0.1770  -55.1270 C   0  0  0  0  0  0  0  0  0  0  0  0
    9.9490   -0.4010  -54.4180 C   0  0  0  0  0  0  0  0  0  0  0  0
    9.6130   -1.3670  -53.4600 C   0  0  0  0  0  0  0  0  0  0  0  0
    8.2710   -1.7210  -53.2420 C   0  0  0  0  0  0  0  0  0  0  0  0
    7.8890   -2.7400  -52.2370 C   0  0  0  0  0  0  0  0  0  0  0  0
    8.6640   -2.9830  -51.0880 C   0  0  0  0  0  0  0  0  0  0  0  0
    8.2870   -3.9460  -50.1460 C   0  0  0  0  0  0  0  0  0  0  0  0
    7.1260   -4.6900  -50.3360 C   0  0  0  0  0  0  0  0  0  0  0  0
    6.3460   -4.4770  -51.4680 C   0  0  0  0  0  0  0  0  0  0  0  0
    6.7260   -3.5140  -52.4070 C   0  0  0  0  0  0  0  0  0  0  0  0
    7.2280   -1.1610  -53.9150 N   0  0  0  0  0  0  0  0  0  0  0  0
    7.6110   -0.2470  -54.8210 C   0  0  0  0  0  0  0  0  0  0  0  0
    6.8030    0.4740  -55.6470 N   0  0  0  0  0  0  0  0  0  0  0  0
    7.9460    3.0940  -57.9900 C   0  0  2  0  0  0  0  0  0  0  0  0
    7.2480    3.8040  -59.1970 C   0  0  0  0  0  0  0  0  0  0  0  0
    8.1720    4.8470  -59.8480 C   0  0  2  0  0  0  0  0  0  0  0  0
    9.4570    4.1530  -60.3360 C   0  0  0  0  0  0  0  0  0  0  0  0
   10.1670    3.4730  -59.1620 C   0  0  2  0  0  0  0  0  0  0  0  0
    9.2540    2.4310  -58.5010 C   0  0  0  0  0  0  0  0  0  0  0  0
   10.4590    4.5420  -58.1220 C   0  0  0  0  0  0  0  0  0  0  0  0
   11.5900    4.7840  -57.7140 O   0  0  0  0  0  0  0  0  0  0  0  0
    9.2270    5.2700  -57.6110 C   0  0  1  0  0  0  0  0  0  0  0  0
    8.5400    5.9220  -58.8130 C   0  0  0  0  0  0  0  0  0  0  0  0
    8.3130    4.2190  -56.9700 C   0  0  0  0  0  0  0  0  0  0  0  0
    3.7067    2.0373  -57.1862 H   0  0  0  0  0  0  0  0  0  0  0  0
    4.3627    3.1810  -58.4062 H   0  0  0  0  0  0  0  0  0  0  0  0
    4.8946    1.4653  -58.4062 H   0  0  0  0  0  0  0  0  0  0  0  0
    5.8209    3.7614  -56.7532 H   0  0  0  0  0  0  0  0  0  0  0  0
    5.5260    2.2346  -55.8370 H   0  0  0  0  0  0  0  0  0  0  0  0
   10.9942   -0.1120  -54.6024 H   0  0  0  0  0  0  0  0  0  0  0  0
   10.4070   -1.8524  -52.8735 H   0  0  0  0  0  0  0  0  0  0  0  0
    9.5852   -2.4038  -50.9272 H   0  0  0  0  0  0  0  0  0  0  0  0
    8.9085   -4.1154  -49.2544 H   0  0  0  0  0  0  0  0  0  0  0  0
    6.8262   -5.4440  -49.5933 H   0  0  0  0  0  0  0  0  0  0  0  0
    5.4304   -5.0663  -51.6241 H   0  0  0  0  0  0  0  0  0  0  0  0
    6.1019   -3.3575  -53.2992 H   0  0  0  0  0  0  0  0  0  0  0  0
    5.8000    0.4250  -55.6950 H   0  0  0  0  0  0  0  0  0  0  0  0
    6.9770    3.0478  -59.9485 H   0  0  0  0  0  0  0  0  0  0  0  0
    6.3528    4.3218  -58.8223 H   0  0  0  0  0  0  0  0  0  0  0  0
    7.6557    5.3156  -60.6988 H   0  0  0  0  0  0  0  0  0  0  0  0
    9.1975    3.3967  -61.0915 H   0  0  0  0  0  0  0  0  0  0  0  0
   10.1281    4.9060  -60.7749 H   0  0  0  0  0  0  0  0  0  0  0  0
   11.0792    2.9795  -59.5287 H   0  0  0  0  0  0  0  0  0  0  0  0
    9.0013    1.6534  -59.2369 H   0  0  0  0  0  0  0  0  0  0  0  0
    9.7841    1.9879  -57.6451 H   0  0  0  0  0  0  0  0  0  0  0  0
    9.4732    6.0462  -56.8714 H   0  0  0  0  0  0  0  0  0  0  0  0
    7.6261    6.4344  -58.4778 H   0  0  0  0  0  0  0  0  0  0  0  0
    9.2252    6.6495  -59.2726 H   0  0  0  0  0  0  0  0  0  0  0  0
    8.8310    3.7691  -56.1102 H   0  0  0  0  0  0  0  0  0  0  0  0
    7.3850    4.7137  -56.6474 H   0  0  0  0  0  0  0  0  0  0  0  0
  1  2  1  0
  2  3  1  0
  3  4  1  0
  4  5  2  0
  5  6  1  0
  6  7  2  0
  7  8  1  0
  8  9  2  0
  9 10  1  0
 10 11  2  0
 11 12  1  0
 12 13  2  0
 13 14  1  0
 14 15  2  0
  9 16  1  0
 16 17  2  0
 17 18  1  0
 19  3  1  1
 19 20  1  0
 20 21  1  0
 21 22  1  0
 22 23  1  0
 23 24  1  0
 23 25  1  0
 25 26  2  0
 25 27  1  0
 27 28  1  0
 27 29  1  0
 18  4  1  0
 24 19  1  0
 17  6  1  0
 29 19  1  0
 15 10  1  0
 28 21  1  0
  1 30  1  0
  1 31  1  0
  1 32  1  0
  2 33  1  0
  2 34  1  0
  7 35  1  0
  8 36  1  0
 11 37  1  0
 12 38  1  0
 13 39  1  0
 14 40  1  0
 15 41  1  0
 18 42  1  0
 20 43  1  0
 20 44  1  0
 21 45  1  6
 22 46  1  0
 22 47  1  0
 23 48  1  6
 24 49  1  0
 24 50  1  0
 27 51  1  1
 28 52  1  0
 28 53  1  0
 29 54  1  0
 29 55  1  0
M  END
>  <meeko>  (100) 
{"is_sidechain": false}

$$$$

     RDKit          3D

 55 60  0  0  0  0  0  0  0  0999 V2000
    6.1590    1.0970  -59.7950 C   0  0  0  0  0  0  0  0  0  0  0  0
    6.1260    2.4200  -59.0420 C   0  0  0  0  0  0  0  0  0  0  0  0
    7.1740    2.4740  -58.0110 N   0  0  0  0  0  0  0  0  0  0  0  0
    6.9950    1.6810  -56.8820 C   0  0  0  0  0  0  0  0  0  0  0  0
    5.8410    1.4510  -56.2990 N   0  0  0  0  0  0  0  0  0  0  0  0
    6.1470    0.6390  -55.2580 C   0  0  0  0  0  0  0  0  0  0  0  0
    5.4190    0.0490  -54.3040 C   0  0  0  0  0  0  0  0  0  0  0  0
    6.0760   -0.8020  -53.3080 C   0  0  0  0  0  0  0  0  0  0  0  0
    7.4160   -0.9930  -53.3470 C   0  0  0  0  0  0  0  0  0  0  0  0
    8.1010   -1.8380  -52.3570 C   0  0  0  0  0  0  0  0  0  0  0  0
    7.4760   -2.1450  -51.1410 C   0  0  0  0  0  0  0  0  0  0  0  0
    8.1240   -2.9380  -50.1920 C   0  0  0  0  0  0  0  0  0  0  0  0
    9.4030   -3.4300  -50.4490 C   0  0  0  0  0  0  0  0  0  0  0  0
   10.0360   -3.1280  -51.6540 C   0  0  0  0  0  0  0  0  0  0  0  0
    9.3890   -2.3360  -52.6050 C   0  0  0  0  0  0  0  0  0  0  0  0
    8.1870   -0.3770  -54.3220 N   0  0  0  0  0  0  0  0  0  0  0  0
    7.5960    0.4090  -55.2700 C   0  0  0  0  0  0  0  0  0  0  0  0
    8.0920    1.0570  -56.2760 N   0  0  0  0  0  0  0  0  0  0  0  0
    8.4610    3.1820  -58.2830 C   0  0  2  0  0  0  0  0  0  0  0  0
    8.2220    4.4260  -59.1830 C   0  0  0  0  0  0  0  0  0  0  0  0
    9.5470    5.1340  -59.5170 C   0  0  2  0  0  0  0  0  0  0  0  0
   10.4910    4.1470  -60.2310 C   0  0  0  0  0  0  0  0  0  0  0  0
   10.7770    2.9390  -59.3320 C   0  0  2  0  0  0  0  0  0  0  0  0
    9.4750    2.2130  -58.9700 C   0  0  0  0  0  0  0  0  0  0  0  0
   11.3760    3.4620  -58.0410 C   0  0  0  0  0  0  0  0  0  0  0  0
   12.4850    3.1330  -57.6340 O   0  0  0  0  0  0  0  0  0  0  0  0
   10.4780    4.4280  -57.2950 C   0  0  1  0  0  0  0  0  0  0  0  0
   10.2110    5.6190  -58.2180 C   0  0  0  0  0  0  0  0  0  0  0  0
    9.1710    3.6860  -56.9820 C   0  0  0  0  0  0  0  0  0  0  0  0
    6.1797    0.2657  -59.0749 H   0  0  0  0  0  0  0  0  0  0  0  0
    5.2627    1.0124  -60.4270 H   0  0  0  0  0  0  0  0  0  0  0  0
    7.0584    1.0572  -60.4270 H   0  0  0  0  0  0  0  0  0  0  0  0
    6.2824    3.2425  -59.7555 H   0  0  0  0  0  0  0  0  0  0  0  0
    5.1476    2.5143  -58.5481 H   0  0  0  0  0  0  0  0  0  0  0  0
    4.3303    0.2019  -54.2669 H   0  0  0  0  0  0  0  0  0  0  0  0
    5.4770   -1.2885  -52.5241 H   0  0  0  0  0  0  0  0  0  0  0  0
    6.4675   -1.7584  -50.9326 H   0  0  0  0  0  0  0  0  0  0  0  0
    7.6250   -3.1748  -49.2407 H   0  0  0  0  0  0  0  0  0  0  0  0
    9.9123   -4.0560  -49.7016 H   0  0  0  0  0  0  0  0  0  0  0  0
   11.0461   -3.5140  -51.8558 H   0  0  0  0  0  0  0  0  0  0  0  0
    9.8924   -2.1011  -53.5545 H   0  0  0  0  0  0  0  0  0  0  0  0
    9.1740   -0.5810  -54.3750 H   0  0  0  0  0  0  0  0  0  0  0  0
    7.7410    4.1049  -60.1187 H   0  0  0  0  0  0  0  0  0  0  0  0
    7.5777    5.1316  -58.6380 H   0  0  0  0  0  0  0  0  0  0  0  0
    9.3460    5.9939  -60.1728 H   0  0  0  0  0  0  0  0  0  0  0  0
   10.0183    3.8022  -61.1625 H   0  0  0  0  0  0  0  0  0  0  0  0
   11.4389    4.6578  -60.4559 H   0  0  0  0  0  0  0  0  0  0  0  0
   11.4497    2.2458  -59.8582 H   0  0  0  0  0  0  0  0  0  0  0  0
    9.0214    1.8105  -59.8877 H   0  0  0  0  0  0  0  0  0  0  0  0
    9.7125    1.4011  -58.2668 H   0  0  0  0  0  0  0  0  0  0  0  0
   10.9324    4.7873  -56.3599 H   0  0  0  0  0  0  0  0  0  0  0  0
    9.5436    6.3313  -57.7109 H   0  0  0  0  0  0  0  0  0  0  0  0
   11.1645    6.1113  -58.4599 H   0  0  0  0  0  0  0  0  0  0  0  0
    9.3977    2.8204  -56.3423 H   0  0  0  0  0  0  0  0  0  0  0  0
    8.4935    4.3877  -56.4734 H   0  0  0  0  0  0  0  0  0  0  0  0
  1  2  1  0
  2  3  1  0
  3  4  1  0
  4  5  2  0
  5  6  1  0
  6  7  2  0
  7  8  1  0
  8  9  2  0
  9 10  1  0
 10 11  2  0
 11 12  1  0
 12 13  2  0
 13 14  1  0
 14 15  2  0
  9 16  1  0
 16 17  1  0
 17 18  2  0
 19  3  1  1
 19 20  1  0
 20 21  1  0
 21 22  1  0
 22 23  1  0
 23 24  1  0
 23 25  1  0
 25 26  2  0
 25 27  1  0
 27 28  1  0
 27 29  1  0
 18  4  1  0
 24 19  1  0
 17  6  1  0
 29 19  1  0
 15 10  1  0
 28 21  1  0
  1 30  1  0
  1 31  1  0
  1 32  1  0
  2 33  1  0
  2 34  1  0
  7 35  1  0
  8 36  1  0
 11 37  1  0
 12 38  1  0
 13 39  1  0
 14 40  1  0
 15 41  1  0
 16 42  1  0
 20 43  1  0
 20 44  1  0
 21 45  1  6
 22 46  1  0
 22 47  1  0
 23 48  1  6
 24 49  1  0
 24 50  1  0
 27 51  1  1
 28 52  1  0
 28 53  1  0
 29 54  1  0
 29 55  1  0
M  END
>  <meeko>  (101) 
{"is_sidechain": false}

$$$$

     RDKit          3D

 56 61  0  0  0  0  0  0  0  0999 V2000
    6.0140    1.1340  -59.8140 C   0  0  0  0  0  0  0  0  0  0  0  0
    6.0390    2.4440  -59.0450 C   0  0  0  0  0  0  0  0  0  0  0  0
    7.1410    2.4620  -58.0280 N   0  0  0  0  0  0  0  0  0  0  0  0
    6.9590    1.6830  -56.9170 C   0  0  0  0  0  0  0  0  0  0  0  0
    5.8330    1.3960  -56.2620 N   0  0  0  0  0  0  0  0  0  0  0  0
    6.0900    0.5750  -55.1840 C   0  0  0  0  0  0  0  0  0  0  0  0
    5.3030    0.0010  -54.1980 C   0  0  0  0  0  0  0  0  0  0  0  0
    6.0110   -0.7980  -53.2750 C   0  0  0  0  0  0  0  0  0  0  0  0
    7.4140   -0.9890  -53.3660 C   0  0  0  0  0  0  0  0  0  0  0  0
    8.1560   -1.8230  -52.3980 C   0  0  0  0  0  0  0  0  0  0  0  0
    9.4710   -2.2600  -52.6450 C   0  0  0  0  0  0  0  0  0  0  0  0
   10.1620   -3.0450  -51.7160 C   0  0  0  0  0  0  0  0  0  0  0  0
    9.5510   -3.4140  -50.5210 C   0  0  0  0  0  0  0  0  0  0  0  0
    8.2490   -3.0030  -50.2560 C   0  0  0  0  0  0  0  0  0  0  0  0
    7.5610   -2.2190  -51.1860 C   0  0  0  0  0  0  0  0  0  0  0  0
    8.1740   -0.4290  -54.3550 N   0  0  0  0  0  0  0  0  0  0  0  0
    7.4500    0.3390  -55.2210 C   0  0  0  0  0  0  0  0  0  0  0  0
    7.9280    1.0120  -56.3000 N   0  0  0  0  0  0  0  0  0  0  0  0
    8.4190    3.2100  -58.3870 C   0  0  2  0  0  0  0  0  0  0  0  0
    8.2220    4.4490  -59.3010 C   0  0  0  0  0  0  0  0  0  0  0  0
    9.5500    5.1770  -59.5880 C   0  0  2  0  0  0  0  0  0  0  0  0
   10.5160    4.2140  -60.2950 C   0  0  0  0  0  0  0  0  0  0  0  0
   10.7460    2.9780  -59.4250 C   0  0  2  0  0  0  0  0  0  0  0  0
    9.4170    2.2670  -59.1310 C   0  0  0  0  0  0  0  0  0  0  0  0
   11.3000    3.4410  -58.0860 C   0  0  0  0  0  0  0  0  0  0  0  0
   12.3290    2.9870  -57.6020 O   0  0  0  0  0  0  0  0  0  0  0  0
   10.4130    4.4360  -57.3540 C   0  0  1  0  0  0  0  0  0  0  0  0
   10.1840    5.6390  -58.2670 C   0  0  0  0  0  0  0  0  0  0  0  0
    9.0880    3.7190  -57.0700 C   0  0  0  0  0  0  0  0  0  0  0  0
    5.9979    0.2930  -59.1052 H   0  0  0  0  0  0  0  0  0  0  0  0
    5.1150    1.0974  -60.4468 H   0  0  0  0  0  0  0  0  0  0  0  0
    6.9110    1.0631  -60.4468 H   0  0  0  0  0  0  0  0  0  0  0  0
    6.1924    3.2716  -59.7532 H   0  0  0  0  0  0  0  0  0  0  0  0
    5.0800    2.5535  -58.5175 H   0  0  0  0  0  0  0  0  0  0  0  0
    4.9000    1.6580  -56.5360 H   0  0  0  0  0  0  0  0  0  0  0  0
    4.2155    0.1556  -54.1397 H   0  0  0  0  0  0  0  0  0  0  0  0
    5.4581   -1.2878  -52.4599 H   0  0  0  0  0  0  0  0  0  0  0  0
    9.9649   -1.9788  -53.5868 H   0  0  0  0  0  0  0  0  0  0  0  0
   11.1904   -3.3714  -51.9303 H   0  0  0  0  0  0  0  0  0  0  0  0
   10.0958   -4.0283  -49.7890 H   0  0  0  0  0  0  0  0  0  0  0  0
    7.7609   -3.2950  -49.3145 H   0  0  0  0  0  0  0  0  0  0  0  0
    6.5304   -1.9042  -50.9654 H   0  0  0  0  0  0  0  0  0  0  0  0
    8.9100    1.0010  -56.5270 H   0  0  0  0  0  0  0  0  0  0  0  0
    7.7851    4.1196  -60.2552 H   0  0  0  0  0  0  0  0  0  0  0  0
    7.5571    5.1523  -58.7783 H   0  0  0  0  0  0  0  0  0  0  0  0
    9.3534    6.0496  -60.2283 H   0  0  0  0  0  0  0  0  0  0  0  0
   10.0845    3.9066  -61.2590 H   0  0  0  0  0  0  0  0  0  0  0  0
   11.4766    4.7227  -60.4636 H   0  0  0  0  0  0  0  0  0  0  0  0
   11.4296    2.2964  -59.9522 H   0  0  0  0  0  0  0  0  0  0  0  0
    8.9652    1.9456  -60.0810 H   0  0  0  0  0  0  0  0  0  0  0  0
    9.6230    1.4013  -58.4843 H   0  0  0  0  0  0  0  0  0  0  0  0
   10.8657    4.7873  -56.4150 H   0  0  0  0  0  0  0  0  0  0  0  0
    9.5111    6.3525  -57.7689 H   0  0  0  0  0  0  0  0  0  0  0  0
   11.1487    6.1240  -58.4773 H   0  0  0  0  0  0  0  0  0  0  0  0
    9.2808    2.8592  -56.4115 H   0  0  0  0  0  0  0  0  0  0  0  0
    8.4043    4.4344  -56.5896 H   0  0  0  0  0  0  0  0  0  0  0  0
  1  2  1  0
  2  3  1  0
  3  4  1  0
  4  5  1  0
  5  6  1  0
  6  7  1  0
  7  8  2  0
  8  9  1  0
  9 10  1  0
 10 11  2  0
 11 12  1  0
 12 13  2  0
 13 14  1  0
 14 15  2  0
  9 16  2  0
 16 17  1  0
 17 18  1  0
 19  3  1  1
 19 20  1  0
 20 21  1  0
 21 22  1  0
 22 23  1  0
 23 24  1  0
 23 25  1  0
 25 26  2  0
 25 27  1  0
 27 28  1  0
 27 29  1  0
 18  4  2  0
 24 19  1  0
 17  6  2  0
 29 19  1  0
 15 10  1  0
 28 21  1  0
  1 30  1  0
  1 31  1  0
  1 32  1  0
  2 33  1  0
  2 34  1  0
  5 35  1  0
  7 36  1  0
  8 37  1  0
 11 38  1  0
 12 39  1  0
 13 40  1  0
 14 41  1  0
 15 42  1  0
 18 43  1  0
 20 44  1  0
 20 45  1  0
 21 46  1  6
 22 47  1  0
 22 48  1  0
 23 49  1  6
 24 50  1  0
 24 51  1  0
 27 52  1  1
 28 53  1  0
 28 54  1  0
 29 55  1  0
 29 56  1  0
M  CHG  1  18   1
M  END
>  <meeko>  (102) 
{"is_sidechain": false}

$$$$

     RDKit          3D

 50 54  0  0  0  0  0  0  0  0999 V2000
   11.3690   -2.9500  -53.4260 C   0  0  0  0  0  0  0  0  0  0  0  0
   10.7230   -2.9610  -54.7520 N   0  0  0  0  0  0  0  0  0  0  0  0
   10.2930   -1.6380  -55.1060 C   0  0  0  0  0  0  0  0  0  0  0  0
   11.1400   -0.9090  -55.9630 C   0  0  0  0  0  0  0  0  0  0  0  0
   10.8070    0.3750  -56.3850 C   0  0  0  0  0  0  0  0  0  0  0  0
    9.6120    0.9780  -55.9780 C   0  0  0  0  0  0  0  0  0  0  0  0
    9.2730    2.3400  -56.4300 C   0  0  0  0  0  0  0  0  0  0  0  0
   10.0560    3.4440  -56.0530 C   0  0  0  0  0  0  0  0  0  0  0  0
    9.7430    4.7360  -56.4880 C   0  0  0  0  0  0  0  0  0  0  0  0
    8.6410    4.9450  -57.3100 C   0  0  0  0  0  0  0  0  0  0  0  0
    7.8490    3.8670  -57.6960 C   0  0  0  0  0  0  0  0  0  0  0  0
    8.1640    2.5770  -57.2600 C   0  0  0  0  0  0  0  0  0  0  0  0
    8.7530    0.2440  -55.1390 C   0  0  0  0  0  0  0  0  0  0  0  0
    7.5980    0.8120  -54.7390 F   0  0  0  0  0  0  0  0  0  0  0  0
    9.0670   -1.0520  -54.7050 N   0  0  0  0  0  0  0  0  0  0  0  0
    8.2410   -1.6800  -53.9470 O   0  0  0  0  0  0  0  0  0  0  0  0
   11.4080   -3.7400  -55.8360 C   0  0  2  0  0  0  0  0  0  0  0  0
   12.2730   -2.8690  -56.7820 C   0  0  0  0  0  0  0  0  0  0  0  0
   12.9690   -3.7330  -57.8500 C   0  0  2  0  0  0  0  0  0  0  0  0
   11.9060   -4.4680  -58.6900 C   0  0  0  0  0  0  0  0  0  0  0  0
   11.0450   -5.3560  -57.7850 C   0  0  2  0  0  0  0  0  0  0  0  0
   10.3620   -4.5150  -56.7010 C   0  0  0  0  0  0  0  0  0  0  0  0
   11.9700   -6.3320  -57.0840 C   0  0  0  0  0  0  0  0  0  0  0  0
   11.8520   -7.5490  -57.1800 O   0  0  0  0  0  0  0  0  0  0  0  0
   13.0440   -5.6680  -56.2440 C   0  0  1  0  0  0  0  0  0  0  0  0
   13.8750   -4.7750  -57.1690 C   0  0  0  0  0  0  0  0  0  0  0  0
   12.3320   -4.8220  -55.1840 C   0  0  0  0  0  0  0  0  0  0  0  0
   10.5974   -2.9631  -52.6421 H   0  0  0  0  0  0  0  0  0  0  0  0
   12.0110   -3.8373  -53.3235 H   0  0  0  0  0  0  0  0  0  0  0  0
   11.9804   -2.0413  -53.3235 H   0  0  0  0  0  0  0  0  0  0  0  0
   12.0819   -1.3625  -56.3052 H   0  0  0  0  0  0  0  0  0  0  0  0
   11.4929    0.9231  -57.0476 H   0  0  0  0  0  0  0  0  0  0  0  0
   10.9308    3.2895  -55.4042 H   0  0  0  0  0  0  0  0  0  0  0  0
   10.3686    5.5867  -56.1799 H   0  0  0  0  0  0  0  0  0  0  0  0
    8.3955    5.9603  -57.6547 H   0  0  0  0  0  0  0  0  0  0  0  0
    6.9754    4.0306  -58.3441 H   0  0  0  0  0  0  0  0  0  0  0  0
    7.5326    1.7321  -57.5721 H   0  0  0  0  0  0  0  0  0  0  0  0
   11.6276   -2.1314  -57.2814 H   0  0  0  0  0  0  0  0  0  0  0  0
   13.0456   -2.3645  -56.1832 H   0  0  0  0  0  0  0  0  0  0  0  0
   13.5756   -3.0832  -58.4979 H   0  0  0  0  0  0  0  0  0  0  0  0
   11.2643   -3.7294  -59.1927 H   0  0  0  0  0  0  0  0  0  0  0  0
   12.4092   -5.0965  -59.4395 H   0  0  0  0  0  0  0  0  0  0  0  0
   10.2825   -5.8648  -58.3931 H   0  0  0  0  0  0  0  0  0  0  0  0
    9.6882   -3.7905  -57.1818 H   0  0  0  0  0  0  0  0  0  0  0  0
    9.8005   -5.1920  -56.0405 H   0  0  0  0  0  0  0  0  0  0  0  0
   13.7046   -6.3994  -55.7555 H   0  0  0  0  0  0  0  0  0  0  0  0
   14.6459   -4.2573  -56.5793 H   0  0  0  0  0  0  0  0  0  0  0  0
   14.3508   -5.3984  -57.9404 H   0  0  0  0  0  0  0  0  0  0  0  0
   11.7186   -5.4822  -54.5532 H   0  0  0  0  0  0  0  0  0  0  0  0
   13.0967   -4.3058  -54.5850 H   0  0  0  0  0  0  0  0  0  0  0  0
  1  2  1  0
  2  3  1  0
  3  4  1  0
  4  5  2  0
  5  6  1  0
  6  7  1  0
  7  8  2  0
  8  9  1  0
  9 10  2  0
 10 11  1  0
 11 12  2  0
  6 13  2  0
 13 14  1  0
 13 15  1  0
 15 16  1  0
 17  2  1  1
 17 18  1  0
 18 19  1  0
 19 20  1  0
 20 21  1  0
 21 22  1  0
 21 23  1  0
 23 24  2  0
 23 25  1  0
 25 26  1  0
 25 27  1  0
 15  3  2  0
 22 17  1  0
 12  7  1  0
 27 17  1  0
 26 19  1  0
  1 28  1  0
  1 29  1  0
  1 30  1  0
  4 31  1  0
  5 32  1  0
  8 33  1  0
  9 34  1  0
 10 35  1  0
 11 36  1  0
 12 37  1  0
 18 38  1  0
 18 39  1  0
 19 40  1  6
 20 41  1  0
 20 42  1  0
 21 43  1  6
 22 44  1  0
 22 45  1  0
 25 46  1  1
 26 47  1  0
 26 48  1  0
 27 49  1  0
 27 50  1  0
M  CHG  2  15   1  16  -1
M  END
>  <meeko>  (103) 
{"is_sidechain": false}

$$$$

     RDKit          3D

 54 58  0  0  0  0  0  0  0  0999 V2000
   12.9960    7.4370  -60.7700 C   0  0  0  0  0  0  0  0  0  0  0  0
   13.2010    6.2440  -59.8560 C   0  0  0  0  0  0  0  0  0  0  0  0
   11.9690    5.9140  -59.1940 O   0  0  0  0  0  0  0  0  0  0  0  0
   11.5910    4.6110  -59.2500 C   0  0  0  0  0  0  0  0  0  0  0  0
   12.3710    3.6770  -59.3990 O   0  0  0  0  0  0  0  0  0  0  0  0
   10.1110    4.4170  -58.9810 C   0  0  1  0  0  0  0  0  0  0  0  0
    9.3180    4.5580  -60.3100 C   0  0  2  0  0  0  0  0  0  0  0  0
    7.8250    4.7630  -59.9740 C   0  0  0  0  0  0  0  0  0  0  0  0
    7.2910    3.5580  -59.1920 C   0  0  2  0  0  0  0  0  0  0  0  0
    8.0990    3.3390  -57.9090 C   0  0  0  0  0  0  0  0  0  0  0  0
    9.6420    3.1510  -58.2010 C   0  0  2  0  0  0  0  0  0  0  0  0
   10.3150    2.8550  -56.8970 N   0  0  0  0  0  0  0  0  0  0  0  0
   10.3590    3.8750  -55.8440 C   0  0  0  0  0  0  0  0  0  0  0  0
   10.0800    1.5980  -56.2930 C   0  0  0  0  0  0  0  0  0  0  0  0
    8.9500    1.4630  -55.4830 C   0  0  0  0  0  0  0  0  0  0  0  0
    8.6520    0.2470  -54.8710 C   0  0  0  0  0  0  0  0  0  0  0  0
    9.5310   -0.8100  -55.1170 C   0  0  0  0  0  0  0  0  0  0  0  0
    9.4690   -2.4250  -54.5370 S   0  0  0  0  0  0  0  0  0  0  0  0
   10.8990   -2.8600  -55.3680 C   0  0  0  0  0  0  0  0  0  0  0  0
   11.4230   -4.2500  -55.2700 C   0  0  0  0  0  0  0  0  0  0  0  0
   11.4180   -1.7950  -56.0740 C   0  0  0  0  0  0  0  0  0  0  0  0
   10.6390   -0.6090  -55.9330 C   0  0  0  0  0  0  0  0  0  0  0  0
   10.9230    0.5830  -56.5180 N   0  0  0  0  0  0  0  0  0  0  0  0
    9.7090    1.8770  -59.1150 C   0  0  0  0  0  0  0  0  0  0  0  0
    8.9350    2.0680  -60.4220 C   0  0  2  0  0  0  0  0  0  0  0  0
    9.4430    3.2930  -61.1850 C   0  0  0  0  0  0  0  0  0  0  0  0
    7.4880    2.3300  -60.0570 C   0  0  0  0  0  0  0  0  0  0  0  0
    6.5640    1.6170  -60.4310 O   0  0  0  0  0  0  0  0  0  0  0  0
   12.8406    8.3413  -60.1633 H   0  0  0  0  0  0  0  0  0  0  0  0
   13.8845    7.5695  -61.4048 H   0  0  0  0  0  0  0  0  0  0  0  0
   12.1142    7.2653  -61.4048 H   0  0  0  0  0  0  0  0  0  0  0  0
   13.5365    5.3823  -60.4517 H   0  0  0  0  0  0  0  0  0  0  0  0
   13.9606    6.4943  -59.1008 H   0  0  0  0  0  0  0  0  0  0  0  0
    9.8884    5.2188  -58.2616 H   0  0  0  0  0  0  0  0  0  0  0  0
    9.7309    5.4127  -60.8659 H   0  0  0  0  0  0  0  0  0  0  0  0
    7.7106    5.6718  -59.3648 H   0  0  0  0  0  0  0  0  0  0  0  0
    7.2561    4.8657  -60.9099 H   0  0  0  0  0  0  0  0  0  0  0  0
    6.2356    3.7335  -58.9363 H   0  0  0  0  0  0  0  0  0  0  0  0
    7.9662    4.2120  -57.2531 H   0  0  0  0  0  0  0  0  0  0  0  0
    7.7309    2.4196  -57.4302 H   0  0  0  0  0  0  0  0  0  0  0  0
   10.3379    3.3861  -54.8588 H   0  0  0  0  0  0  0  0  0  0  0  0
   11.2834    4.4632  -55.9417 H   0  0  0  0  0  0  0  0  0  0  0  0
    9.4887    4.5407  -55.9417 H   0  0  0  0  0  0  0  0  0  0  0  0
    8.2874    2.3269  -55.3263 H   0  0  0  0  0  0  0  0  0  0  0  0
    7.7688    0.1258  -54.2265 H   0  0  0  0  0  0  0  0  0  0  0  0
   11.5280   -4.5285  -54.2110 H   0  0  0  0  0  0  0  0  0  0  0  0
   10.7237   -4.9411  -55.7633 H   0  0  0  0  0  0  0  0  0  0  0  0
   12.4045   -4.3075  -55.7633 H   0  0  0  0  0  0  0  0  0  0  0  0
   12.3339   -1.8541  -56.6803 H   0  0  0  0  0  0  0  0  0  0  0  0
   10.7619    1.6658  -59.3533 H   0  0  0  0  0  0  0  0  0  0  0  0
    9.2498    1.0410  -58.5671 H   0  0  0  0  0  0  0  0  0  0  0  0
    9.0588    1.1734  -61.0500 H   0  0  0  0  0  0  0  0  0  0  0  0
   10.4986    3.1408  -61.4544 H   0  0  0  0  0  0  0  0  0  0  0  0
    8.8377    3.4251  -62.0939 H   0  0  0  0  0  0  0  0  0  0  0  0
  1  2  1  0
  2  3  1  0
  3  4  1  0
  4  5  2  0
  4  6  1  0
  6  7  1  0
  7  8  1  0
  8  9  1  0
  9 10  1  0
 10 11  1  0
 11 12  1  1
 12 13  1  0
 12 14  1  0
 14 15  1  0
 15 16  2  0
 16 17  1  0
 17 18  1  0
 18 19  1  0
 19 20  1  0
 19 21  2  0
 21 22  1  0
 22 23  1  0
 11 24  1  0
 24 25  1  0
 25 26  1  0
 25 27  1  0
 27 28  2  0
 11  6  1  0
 23 14  2  0
 26  7  1  0
 27  9  1  0
 22 17  2  0
  1 29  1  0
  1 30  1  0
  1 31  1  0
  2 32  1  0
  2 33  1  0
  6 34  1  1
  7 35  1  6
  8 36  1  0
  8 37  1  0
  9 38  1  1
 10 39  1  0
 10 40  1  0
 13 41  1  0
 13 42  1  0
 13 43  1  0
 15 44  1  0
 16 45  1  0
 20 46  1  0
 20 47  1  0
 20 48  1  0
 21 49  1  0
 24 50  1  0
 24 51  1  0
 25 52  1  6
 26 53  1  0
 26 54  1  0
M  END
>  <meeko>  (104) 
{"is_sidechain": false}

$$$$

     RDKit          3D

 43 46  0  0  0  0  0  0  0  0999 V2000
    8.9200    4.9690  -56.4560 C   0  0  0  0  0  0  0  0  0  0  0  0
    9.8250    3.8210  -56.9190 C   0  0  1  0  0  0  0  0  0  0  0  0
    9.0090    2.8280  -57.6350 N   0  0  0  0  0  0  0  0  0  0  0  0
    8.2710    1.9860  -56.7860 C   0  0  0  0  0  0  0  0  0  0  0  0
    6.8780    1.9610  -56.8170 C   0  0  0  0  0  0  0  0  0  0  0  0
    6.1660    1.1180  -55.9630 C   0  0  0  0  0  0  0  0  0  0  0  0
    6.9420    0.3450  -55.1060 C   0  0  0  0  0  0  0  0  0  0  0  0
    6.6040   -0.5760  -54.1450 N   0  0  0  0  0  0  0  0  0  0  0  0
    7.7310   -1.0900  -53.5370 C   0  0  0  0  0  0  0  0  0  0  0  0
    7.6790   -2.1040  -52.4820 C   0  0  0  0  0  0  0  0  0  0  0  0
    7.4640   -3.4500  -52.8080 C   0  0  0  0  0  0  0  0  0  0  0  0
    7.4080   -4.4260  -51.8080 C   0  0  0  0  0  0  0  0  0  0  0  0
    7.5700   -4.0670  -50.4730 C   0  0  0  0  0  0  0  0  0  0  0  0
    7.7900   -2.7340  -50.1350 C   0  0  0  0  0  0  0  0  0  0  0  0
    7.8450   -1.7580  -51.1340 C   0  0  0  0  0  0  0  0  0  0  0  0
    8.8160   -0.4730  -54.1440 C   0  0  0  0  0  0  0  0  0  0  0  0
    8.3270    0.4260  -55.1190 C   0  0  0  0  0  0  0  0  0  0  0  0
    9.0160    1.2430  -55.9490 N   0  0  0  0  0  0  0  0  0  0  0  0
   10.9300    4.3780  -57.8040 C   0  0  0  0  0  0  0  0  0  0  0  0
   12.2750    4.0170  -57.6150 C   0  0  0  0  0  0  0  0  0  0  0  0
   13.2740    4.5270  -58.4460 C   0  0  0  0  0  0  0  0  0  0  0  0
   12.9420    5.3980  -59.4810 C   0  0  0  0  0  0  0  0  0  0  0  0
   11.6140    5.7620  -59.6860 C   0  0  0  0  0  0  0  0  0  0  0  0
   10.6130    5.2540  -58.8550 C   0  0  0  0  0  0  0  0  0  0  0  0
    8.8975    4.9976  -55.3566 H   0  0  0  0  0  0  0  0  0  0  0  0
    9.3120    5.9225  -56.8396 H   0  0  0  0  0  0  0  0  0  0  0  0
    7.9013    4.8104  -56.8396 H   0  0  0  0  0  0  0  0  0  0  0  0
   10.2958    3.3262  -56.0567 H   0  0  0  0  0  0  0  0  0  0  0  0
    8.2630    3.3000  -58.1490 H   0  0  0  0  0  0  0  0  0  0  0  0
    6.3358    2.6106  -57.5199 H   0  0  0  0  0  0  0  0  0  0  0  0
    5.0671    1.0683  -55.9673 H   0  0  0  0  0  0  0  0  0  0  0  0
    5.6580   -0.8560  -53.9300 H   0  0  0  0  0  0  0  0  0  0  0  0
    7.3380   -3.7417  -53.8611 H   0  0  0  0  0  0  0  0  0  0  0  0
    7.2357   -5.4787  -52.0768 H   0  0  0  0  0  0  0  0  0  0  0  0
    7.5244   -4.8346  -49.6865 H   0  0  0  0  0  0  0  0  0  0  0  0
    7.9206   -2.4489  -49.0806 H   0  0  0  0  0  0  0  0  0  0  0  0
    8.0204   -0.7074  -50.8594 H   0  0  0  0  0  0  0  0  0  0  0  0
    9.8750   -0.6528  -53.9069 H   0  0  0  0  0  0  0  0  0  0  0  0
   12.5435    3.3249  -56.8033 H   0  0  0  0  0  0  0  0  0  0  0  0
   14.3236    4.2410  -58.2834 H   0  0  0  0  0  0  0  0  0  0  0  0
   13.7293    5.7984  -60.1366 H   0  0  0  0  0  0  0  0  0  0  0  0
   11.3528    6.4504  -60.5033 H   0  0  0  0  0  0  0  0  0  0  0  0
    9.5654    5.5430  -59.0254 H   0  0  0  0  0  0  0  0  0  0  0  0
  1  2  1  0
  2  3  1  0
  3  4  1  0
  4  5  1  0
  5  6  2  0
  6  7  1  0
  7  8  1  0
  8  9  1  0
  9 10  1  0
 10 11  2  0
 11 12  1  0
 12 13  2  0
 13 14  1  0
 14 15  2  0
  9 16  2  0
 16 17  1  0
 17 18  1  0
  2 19  1  0
 19 20  2  0
 20 21  1  0
 21 22  2  0
 22 23  1  0
 23 24  2  0
 18  4  2  0
 24 19  1  0
 17  7  2  0
 15 10  1  0
  1 25  1  0
  1 26  1  0
  1 27  1  0
  2 28  1  1
  3 29  1  0
  5 30  1  0
  6 31  1  0
  8 32  1  0
 11 33  1  0
 12 34  1  0
 13 35  1  0
 14 36  1  0
 15 37  1  0
 16 38  1  0
 20 39  1  0
 21 40  1  0
 22 41  1  0
 23 42  1  0
 24 43  1  0
M  END
>  <meeko>  (105) 
{"is_sidechain": false}

$$$$

     RDKit          3D

 43 46  0  0  0  0  0  0  0  0999 V2000
    9.0440    2.4820  -59.6120 C   0  0  0  0  0  0  0  0  0  0  0  0
    9.7990    3.1320  -58.4470 C   0  0  1  0  0  0  0  0  0  0  0  0
   10.0880    2.1160  -57.4270 N   0  0  0  0  0  0  0  0  0  0  0  0
    9.2120    1.5310  -56.6750 C   0  0  0  0  0  0  0  0  0  0  0  0
    7.7090    1.7830  -56.7110 C   0  0  0  0  0  0  0  0  0  0  0  0
    6.9050    1.1070  -55.8690 C   0  0  0  0  0  0  0  0  0  0  0  0
    7.5560    0.2060  -55.0080 C   0  0  0  0  0  0  0  0  0  0  0  0
    6.9400   -0.5800  -54.0810 N   0  0  0  0  0  0  0  0  0  0  0  0
    7.8940   -1.3380  -53.4160 C   0  0  0  0  0  0  0  0  0  0  0  0
    7.5500   -2.2960  -52.3640 C   0  0  0  0  0  0  0  0  0  0  0  0
    6.7080   -3.3790  -52.6430 C   0  0  0  0  0  0  0  0  0  0  0  0
    6.3700   -4.2970  -51.6450 C   0  0  0  0  0  0  0  0  0  0  0  0
    6.8750   -4.1440  -50.3560 C   0  0  0  0  0  0  0  0  0  0  0  0
    7.7210   -3.0750  -50.0660 C   0  0  0  0  0  0  0  0  0  0  0  0
    8.0560   -2.1570  -51.0630 C   0  0  0  0  0  0  0  0  0  0  0  0
    9.1320   -1.0090  -53.9680 C   0  0  0  0  0  0  0  0  0  0  0  0
    8.9000   -0.0410  -54.9550 C   0  0  0  0  0  0  0  0  0  0  0  0
    9.7400    0.6090  -55.7770 N   0  0  0  0  0  0  0  0  0  0  0  0
   10.9630    4.0520  -58.7910 C   0  0  0  0  0  0  0  0  0  0  0  0
   12.2750    3.8190  -58.3500 C   0  0  0  0  0  0  0  0  0  0  0  0
   13.3150    4.6820  -58.7100 C   0  0  0  0  0  0  0  0  0  0  0  0
   13.0640    5.7830  -59.5240 C   0  0  0  0  0  0  0  0  0  0  0  0
   11.7730    6.0220  -59.9860 C   0  0  0  0  0  0  0  0  0  0  0  0
   10.7350    5.1600  -59.6270 C   0  0  0  0  0  0  0  0  0  0  0  0
    8.2661    1.8123  -59.2166 H   0  0  0  0  0  0  0  0  0  0  0  0
    8.5761    3.2643  -60.2277 H   0  0  0  0  0  0  0  0  0  0  0  0
    9.7481    1.9030  -60.2277 H   0  0  0  0  0  0  0  0  0  0  0  0
    9.1142    3.8802  -58.0213 H   0  0  0  0  0  0  0  0  0  0  0  0
    7.2852    2.5107  -57.4187 H   0  0  0  0  0  0  0  0  0  0  0  0
    5.8144    1.2496  -55.8555 H   0  0  0  0  0  0  0  0  0  0  0  0
    5.9450   -0.6300  -53.9130 H   0  0  0  0  0  0  0  0  0  0  0  0
    6.3079   -3.5089  -53.6594 H   0  0  0  0  0  0  0  0  0  0  0  0
    5.7044   -5.1413  -51.8777 H   0  0  0  0  0  0  0  0  0  0  0  0
    6.6070   -4.8646  -49.5693 H   0  0  0  0  0  0  0  0  0  0  0  0
    8.1253   -2.9545  -49.0501 H   0  0  0  0  0  0  0  0  0  0  0  0
    8.7238   -1.3157  -50.8259 H   0  0  0  0  0  0  0  0  0  0  0  0
   10.1073   -1.4301  -53.6824 H   0  0  0  0  0  0  0  0  0  0  0  0
   10.7420    0.4870  -55.8000 H   0  0  0  0  0  0  0  0  0  0  0  0
   12.4877    2.9473  -57.7137 H   0  0  0  0  0  0  0  0  0  0  0  0
   14.3359    4.4899  -58.3483 H   0  0  0  0  0  0  0  0  0  0  0  0
   13.8836    6.4622  -59.8013 H   0  0  0  0  0  0  0  0  0  0  0  0
   11.5709    6.8885  -60.6328 H   0  0  0  0  0  0  0  0  0  0  0  0
    9.7198    5.3509  -60.0050 H   0  0  0  0  0  0  0  0  0  0  0  0
  1  2  1  0
  2  3  1  0
  3  4  2  0
  4  5  1  0
  5  6  2  0
  6  7  1  0
  7  8  1  0
  8  9  1  0
  9 10  1  0
 10 11  2  0
 11 12  1  0
 12 13  2  0
 13 14  1  0
 14 15  2  0
  9 16  2  0
 16 17  1  0
 17 18  1  0
  2 19  1  0
 19 20  2  0
 20 21  1  0
 21 22  2  0
 22 23  1  0
 23 24  2  0
 18  4  1  0
 24 19  1  0
 17  7  2  0
 15 10  1  0
  1 25  1  0
  1 26  1  0
  1 27  1  0
  2 28  1  1
  5 29  1  0
  6 30  1  0
  8 31  1  0
 11 32  1  0
 12 33  1  0
 13 34  1  0
 14 35  1  0
 15 36  1  0
 16 37  1  0
 18 38  1  0
 20 39  1  0
 21 40  1  0
 22 41  1  0
 23 42  1  0
 24 43  1  0
M  END
>  <meeko>  (106) 
{"is_sidechain": false}

$$$$

     RDKit          3D

 43 46  0  0  0  0  0  0  0  0999 V2000
    8.8560   -3.0670  -54.5720 C   0  0  0  0  0  0  0  0  0  0  0  0
    8.3550   -1.9820  -53.6170 C   0  0  1  0  0  0  0  0  0  0  0  0
    7.3900   -1.1310  -54.3180 N   0  0  0  0  0  0  0  0  0  0  0  0
    7.7810   -0.1480  -55.0640 C   0  0  0  0  0  0  0  0  0  0  0  0
    6.6290    0.6310  -55.6870 C   0  0  0  0  0  0  0  0  0  0  0  0
    6.8880    1.6780  -56.4900 C   0  0  0  0  0  0  0  0  0  0  0  0
    8.2530    1.9550  -56.6810 C   0  0  0  0  0  0  0  0  0  0  0  0
    8.7450    2.9610  -57.4560 N   0  0  0  0  0  0  0  0  0  0  0  0
   10.1320    2.9360  -57.4140 C   0  0  0  0  0  0  0  0  0  0  0  0
   10.9640    3.8860  -58.1550 C   0  0  0  0  0  0  0  0  0  0  0  0
   10.4090    4.7270  -59.1310 C   0  0  0  0  0  0  0  0  0  0  0  0
   11.2120    5.6280  -59.8350 C   0  0  0  0  0  0  0  0  0  0  0  0
   12.5780    5.7000  -59.5700 C   0  0  0  0  0  0  0  0  0  0  0  0
   13.1410    4.8740  -58.6000 C   0  0  0  0  0  0  0  0  0  0  0  0
   12.3380    3.9740  -57.8950 C   0  0  0  0  0  0  0  0  0  0  0  0
   10.4950    1.8700  -56.5930 C   0  0  0  0  0  0  0  0  0  0  0  0
    9.3080    1.2740  -56.1390 C   0  0  0  0  0  0  0  0  0  0  0  0
    9.0990    0.2230  -55.3230 N   0  0  0  0  0  0  0  0  0  0  0  0
    7.7300   -2.6310  -52.3900 C   0  0  0  0  0  0  0  0  0  0  0  0
    6.7800   -3.6560  -52.5120 C   0  0  0  0  0  0  0  0  0  0  0  0
    6.2320   -4.2620  -51.3800 C   0  0  0  0  0  0  0  0  0  0  0  0
    6.6290   -3.8530  -50.1090 C   0  0  0  0  0  0  0  0  0  0  0  0
    7.5750   -2.8390  -49.9700 C   0  0  0  0  0  0  0  0  0  0  0  0
    8.1240   -2.2320  -51.1020 C   0  0  0  0  0  0  0  0  0  0  0  0
    9.2475   -3.9148  -53.9907 H   0  0  0  0  0  0  0  0  0  0  0  0
    8.0250   -3.4097  -55.2060 H   0  0  0  0  0  0  0  0  0  0  0  0
    9.6558   -2.6566  -55.2060 H   0  0  0  0  0  0  0  0  0  0  0  0
    9.1939   -1.3545  -53.2815 H   0  0  0  0  0  0  0  0  0  0  0  0
    5.5891    0.3378  -55.4805 H   0  0  0  0  0  0  0  0  0  0  0  0
    6.0920    2.2728  -56.9618 H   0  0  0  0  0  0  0  0  0  0  0  0
    8.1970    3.6140  -58.0010 H   0  0  0  0  0  0  0  0  0  0  0  0
    9.3310    4.6766  -59.3442 H   0  0  0  0  0  0  0  0  0  0  0  0
   10.7653    6.2811  -60.5992 H   0  0  0  0  0  0  0  0  0  0  0  0
   13.2106    6.4078  -60.1258 H   0  0  0  0  0  0  0  0  0  0  0  0
   14.2191    4.9304  -58.3888 H   0  0  0  0  0  0  0  0  0  0  0  0
   12.7892    3.3277  -57.1277 H   0  0  0  0  0  0  0  0  0  0  0  0
   11.5197    1.5547  -56.3469 H   0  0  0  0  0  0  0  0  0  0  0  0
    9.8570   -0.3100  -54.9250 H   0  0  0  0  0  0  0  0  0  0  0  0
    6.4629   -3.9864  -53.5122 H   0  0  0  0  0  0  0  0  0  0  0  0
    5.4863   -5.0629  -51.4918 H   0  0  0  0  0  0  0  0  0  0  0  0
    6.1967   -4.3294  -49.2167 H   0  0  0  0  0  0  0  0  0  0  0  0
    7.8900   -2.5160  -48.9668 H   0  0  0  0  0  0  0  0  0  0  0  0
    8.8719   -1.4341  -50.9837 H   0  0  0  0  0  0  0  0  0  0  0  0
  1  2  1  0
  2  3  1  0
  3  4  2  0
  4  5  1  0
  5  6  2  0
  6  7  1  0
  7  8  1  0
  8  9  1  0
  9 10  1  0
 10 11  2  0
 11 12  1  0
 12 13  2  0
 13 14  1  0
 14 15  2  0
  9 16  2  0
 16 17  1  0
 17 18  1  0
  2 19  1  0
 19 20  2  0
 20 21  1  0
 21 22  2  0
 22 23  1  0
 23 24  2  0
 18  4  1  0
 24 19  1  0
 17  7  2  0
 15 10  1  0
  1 25  1  0
  1 26  1  0
  1 27  1  0
  2 28  1  1
  5 29  1  0
  6 30  1  0
  8 31  1  0
 11 32  1  0
 12 33  1  0
 13 34  1  0
 14 35  1  0
 15 36  1  0
 16 37  1  0
 18 38  1  0
 20 39  1  0
 21 40  1  0
 22 41  1  0
 23 42  1  0
 24 43  1  0
M  END
>  <meeko>  (107) 
{"is_sidechain": false}

$$$$

     RDKit          3D

 43 46  0  0  0  0  0  0  0  0999 V2000
    8.9490    5.2450  -56.4390 C   0  0  0  0  0  0  0  0  0  0  0  0
    9.8850    4.0790  -56.7640 C   0  0  1  0  0  0  0  0  0  0  0  0
    9.1250    2.9520  -57.2990 N   0  0  0  0  0  0  0  0  0  0  0  0
    8.3720    2.0420  -56.5880 C   0  0  0  0  0  0  0  0  0  0  0  0
    7.0520    1.8040  -56.8070 C   0  0  0  0  0  0  0  0  0  0  0  0
    6.3150    0.8220  -56.0150 C   0  0  0  0  0  0  0  0  0  0  0  0
    6.9670    0.1370  -55.0690 C   0  0  0  0  0  0  0  0  0  0  0  0
    6.5060   -0.8350  -54.2280 N   0  0  0  0  0  0  0  0  0  0  0  0
    7.5600   -1.1850  -53.5330 C   0  0  0  0  0  0  0  0  0  0  0  0
    7.5300   -2.2310  -52.4830 C   0  0  0  0  0  0  0  0  0  0  0  0
    7.8770   -1.8670  -51.1750 C   0  0  0  0  0  0  0  0  0  0  0  0
    7.8650   -2.8130  -50.1470 C   0  0  0  0  0  0  0  0  0  0  0  0
    7.5070   -4.1300  -50.4190 C   0  0  0  0  0  0  0  0  0  0  0  0
    7.1600   -4.5030  -51.7160 C   0  0  0  0  0  0  0  0  0  0  0  0
    7.1700   -3.5580  -52.7470 C   0  0  0  0  0  0  0  0  0  0  0  0
    8.8010   -0.4550  -53.8720 C   0  0  0  0  0  0  0  0  0  0  0  0
    8.3760    0.3680  -54.8300 C   0  0  0  0  0  0  0  0  0  0  0  0
    9.0070    1.3240  -55.5820 N   0  0  0  0  0  0  0  0  0  0  0  0
   10.9500    4.4760  -57.7780 C   0  0  0  0  0  0  0  0  0  0  0  0
   12.2930    4.0910  -57.6270 C   0  0  0  0  0  0  0  0  0  0  0  0
   13.2560    4.4800  -58.5600 C   0  0  0  0  0  0  0  0  0  0  0  0
   12.8930    5.2610  -59.6530 C   0  0  0  0  0  0  0  0  0  0  0  0
   11.5690    5.6610  -59.8120 C   0  0  0  0  0  0  0  0  0  0  0  0
   10.6030    5.2740  -58.8800 C   0  0  0  0  0  0  0  0  0  0  0  0
    8.8626    5.3526  -55.3477 H   0  0  0  0  0  0  0  0  0  0  0  0
    9.3562    6.1725  -56.8678 H   0  0  0  0  0  0  0  0  0  0  0  0
    7.9554    5.0481  -56.8678 H   0  0  0  0  0  0  0  0  0  0  0  0
   10.3808    3.7913  -55.8252 H   0  0  0  0  0  0  0  0  0  0  0  0
    9.5880    2.5060  -58.0850 H   0  0  0  0  0  0  0  0  0  0  0  0
    6.5277    2.3621  -57.5967 H   0  0  0  0  0  0  0  0  0  0  0  0
    5.2434    0.6491  -56.1934 H   0  0  0  0  0  0  0  0  0  0  0  0
    8.1613   -0.8273  -50.9557 H   0  0  0  0  0  0  0  0  0  0  0  0
    8.1383   -2.5171  -49.1234 H   0  0  0  0  0  0  0  0  0  0  0  0
    7.4980   -4.8760  -49.6107 H   0  0  0  0  0  0  0  0  0  0  0  0
    6.8772   -5.5443  -51.9297 H   0  0  0  0  0  0  0  0  0  0  0  0
    6.8941   -3.8583  -53.7686 H   0  0  0  0  0  0  0  0  0  0  0  0
    9.8092   -0.5630  -53.4456 H   0  0  0  0  0  0  0  0  0  0  0  0
   10.0100    1.4030  -55.5220 H   0  0  0  0  0  0  0  0  0  0  0  0
   12.5888    3.4763  -56.7641 H   0  0  0  0  0  0  0  0  0  0  0  0
   14.3031    4.1687  -58.4309 H   0  0  0  0  0  0  0  0  0  0  0  0
   13.6514    5.5620  -60.3907 H   0  0  0  0  0  0  0  0  0  0  0  0
   11.2830    6.2829  -60.6731 H   0  0  0  0  0  0  0  0  0  0  0  0
    9.5599    5.5977  -59.0108 H   0  0  0  0  0  0  0  0  0  0  0  0
  1  2  1  0
  2  3  1  0
  3  4  1  0
  4  5  2  0
  5  6  1  0
  6  7  2  0
  7  8  1  0
  8  9  2  0
  9 10  1  0
 10 11  2  0
 11 12  1  0
 12 13  2  0
 13 14  1  0
 14 15  2  0
  9 16  1  0
 16 17  2  0
 17 18  1  0
  2 19  1  0
 19 20  2  0
 20 21  1  0
 21 22  2  0
 22 23  1  0
 23 24  2  0
 18  4  1  0
 24 19  1  0
 17  7  1  0
 15 10  1  0
  1 25  1  0
  1 26  1  0
  1 27  1  0
  2 28  1  1
  3 29  1  0
  5 30  1  0
  6 31  1  0
 11 32  1  0
 12 33  1  0
 13 34  1  0
 14 35  1  0
 15 36  1  0
 16 37  1  0
 18 38  1  0
 20 39  1  0
 21 40  1  0
 22 41  1  0
 23 42  1  0
 24 43  1  0
M  END
>  <meeko>  (108) 
{"is_sidechain": false}

$$$$

     RDKit          3D

 54 59  0  0  0  0  0  0  0  0999 V2000
    9.0160   -3.8970  -49.9200 C   0  0  0  0  0  0  0  0  0  0  0  0
    8.7450   -2.9680  -51.0660 C   0  0  0  0  0  0  0  0  0  0  0  0
    9.6850   -2.8110  -52.0890 C   0  0  0  0  0  0  0  0  0  0  0  0
    9.4470   -1.9200  -53.1400 C   0  0  0  0  0  0  0  0  0  0  0  0
    8.2700   -1.1650  -53.1870 C   0  0  0  0  0  0  0  0  0  0  0  0
    8.0300   -0.2390  -54.2950 C   0  0  0  0  0  0  0  0  0  0  0  0
    8.9180    0.3820  -55.1610 C   0  0  0  0  0  0  0  0  0  0  0  0
    8.1750    1.1690  -56.0680 C   0  0  0  0  0  0  0  0  0  0  0  0
    8.6190    1.9510  -57.0810 N   0  0  0  0  0  0  0  0  0  0  0  0
    7.6510    2.5850  -57.7650 C   0  0  0  0  0  0  0  0  0  0  0  0
    8.0990    3.3810  -58.8740 N   0  0  0  0  0  0  0  0  0  0  0  0
    7.3640    3.0780  -59.9590 C   0  0  0  0  0  0  0  0  0  0  0  0
    6.7330    2.8580  -60.9050 N   0  0  0  0  0  0  0  0  0  0  0  0
    9.5490    3.7930  -58.9310 C   0  0  2  0  0  0  0  0  0  0  0  0
   10.4740    2.7490  -58.2500 C   0  0  0  0  0  0  0  0  0  0  0  0
   11.9370    3.2190  -58.2660 C   0  0  2  0  0  0  0  0  0  0  0  0
   12.0590    4.5450  -57.4940 C   0  0  0  0  0  0  0  0  0  0  0  0
   11.1570    5.6040  -58.1330 C   0  0  2  0  0  0  0  0  0  0  0  0
    9.6980    5.1320  -58.1450 C   0  0  0  0  0  0  0  0  0  0  0  0
   11.5920    5.7630  -59.5800 C   0  0  0  0  0  0  0  0  0  0  0  0
   11.9920    6.8260  -60.0420 O   0  0  0  0  0  0  0  0  0  0  0  0
   11.4940    4.4870  -60.4010 C   0  0  1  0  0  0  0  0  0  0  0  0
   12.3860    3.4400  -59.7250 C   0  0  0  0  0  0  0  0  0  0  0  0
   10.0260    4.0400  -60.3870 C   0  0  0  0  0  0  0  0  0  0  0  0
    6.2830    2.4700  -57.5270 C   0  0  0  0  0  0  0  0  0  0  0  0
    5.8340    1.6630  -56.4840 C   0  0  0  0  0  0  0  0  0  0  0  0
    6.8290    1.0150  -55.7570 C   0  0  0  0  0  0  0  0  0  0  0  0
    6.7660    0.1550  -54.6870 N   0  0  0  0  0  0  0  0  0  0  0  0
    7.3390   -1.3100  -52.1510 C   0  0  0  0  0  0  0  0  0  0  0  0
    7.5770   -2.2000  -51.0970 C   0  0  0  0  0  0  0  0  0  0  0  0
    8.8604   -3.3634  -48.9708 H   0  0  0  0  0  0  0  0  0  0  0  0
    8.3310   -4.7560  -49.9744 H   0  0  0  0  0  0  0  0  0  0  0  0
   10.0554   -4.2529  -49.9744 H   0  0  0  0  0  0  0  0  0  0  0  0
   10.6184   -3.3926  -52.0669 H   0  0  0  0  0  0  0  0  0  0  0  0
   10.1944   -1.8113  -53.9398 H   0  0  0  0  0  0  0  0  0  0  0  0
   10.0130    0.2791  -55.1441 H   0  0  0  0  0  0  0  0  0  0  0  0
   10.1523    2.6086  -57.2075 H   0  0  0  0  0  0  0  0  0  0  0  0
   10.4032    1.8019  -58.8050 H   0  0  0  0  0  0  0  0  0  0  0  0
   12.5720    2.4559  -57.7922 H   0  0  0  0  0  0  0  0  0  0  0  0
   11.7537    4.3882  -56.4489 H   0  0  0  0  0  0  0  0  0  0  0  0
   13.1031    4.8896  -57.5283 H   0  0  0  0  0  0  0  0  0  0  0  0
   11.2365    6.5421  -57.5640 H   0  0  0  0  0  0  0  0  0  0  0  0
    9.3607    4.9802  -57.1091 H   0  0  0  0  0  0  0  0  0  0  0  0
    9.0860    5.8993  -58.6416 H   0  0  0  0  0  0  0  0  0  0  0  0
   11.8200    4.6291  -61.4419 H   0  0  0  0  0  0  0  0  0  0  0  0
   12.3127    2.4904  -60.2754 H   0  0  0  0  0  0  0  0  0  0  0  0
   13.4261    3.7979  -59.7299 H   0  0  0  0  0  0  0  0  0  0  0  0
    9.4042    4.8239  -60.8440 H   0  0  0  0  0  0  0  0  0  0  0  0
    9.9330    3.1035  -60.9564 H   0  0  0  0  0  0  0  0  0  0  0  0
    5.5631    3.0122  -58.1577 H   0  0  0  0  0  0  0  0  0  0  0  0
    4.7655    1.5457  -56.2506 H   0  0  0  0  0  0  0  0  0  0  0  0
    5.9090   -0.1690  -54.2610 H   0  0  0  0  0  0  0  0  0  0  0  0
    6.4115   -0.7187  -52.1656 H   0  0  0  0  0  0  0  0  0  0  0  0
    6.8393   -2.2959  -50.2867 H   0  0  0  0  0  0  0  0  0  0  0  0
  1  2  1  0
  2  3  1  0
  3  4  2  0
  4  5  1  0
  5  6  1  0
  6  7  2  0
  7  8  1  0
  8  9  1  0
  9 10  2  0
 10 11  1  0
 11 12  1  0
 12 13  3  0
 14 11  1  6
 14 15  1  0
 15 16  1  0
 16 17  1  0
 17 18  1  0
 18 19  1  0
 18 20  1  0
 20 21  2  0
 20 22  1  0
 22 23  1  0
 22 24  1  0
 10 25  1  0
 25 26  2  0
 26 27  1  0
 27 28  1  0
  5 29  2  0
 29 30  1  0
 30  2  2  0
 28  6  1  0
 27  8  2  0
 19 14  1  0
 24 14  1  0
 23 16  1  0
  1 31  1  0
  1 32  1  0
  1 33  1  0
  3 34  1  0
  4 35  1  0
  7 36  1  0
 15 37  1  0
 15 38  1  0
 16 39  1  1
 17 40  1  0
 17 41  1  0
 18 42  1  1
 19 43  1  0
 19 44  1  0
 22 45  1  6
 23 46  1  0
 23 47  1  0
 24 48  1  0
 24 49  1  0
 25 50  1  0
 26 51  1  0
 28 52  1  0
 29 53  1  0
 30 54  1  0
M  END
>  <meeko>  (109) 
{"is_sidechain": false}

$$$$

     RDKit          3D

 54 59  0  0  0  0  0  0  0  0999 V2000
   12.7760    6.3510  -59.5130 C   0  0  0  0  0  0  0  0  0  0  0  0
   12.0730    5.2330  -58.8020 C   0  0  0  0  0  0  0  0  0  0  0  0
   10.6950    5.2970  -58.5650 C   0  0  0  0  0  0  0  0  0  0  0  0
   10.0420    4.2700  -57.8740 C   0  0  0  0  0  0  0  0  0  0  0  0
   10.7620    3.1670  -57.4030 C   0  0  0  0  0  0  0  0  0  0  0  0
   10.1250    2.0510  -56.6650 C   0  0  0  0  0  0  0  0  0  0  0  0
   10.7890    0.7380  -56.5120 C   0  0  0  0  0  0  0  0  0  0  0  0
    9.8930    0.0640  -55.7950 C   0  0  0  0  0  0  0  0  0  0  0  0
    9.8700   -1.2120  -55.2920 N   0  0  0  0  0  0  0  0  0  0  0  0
    8.7650   -1.6810  -54.6200 C   0  0  0  0  0  0  0  0  0  0  0  0
    8.7010   -3.0080  -54.1100 N   0  0  0  0  0  0  0  0  0  0  0  0
    9.6220   -3.7820  -54.7220 C   0  0  0  0  0  0  0  0  0  0  0  0
   10.4260   -4.4590  -55.2090 N   0  0  0  0  0  0  0  0  0  0  0  0
    8.2480   -3.2340  -52.6830 C   0  0  2  0  0  0  0  0  0  0  0  0
    9.4020   -3.0020  -51.6710 C   0  0  0  0  0  0  0  0  0  0  0  0
    8.9110   -3.2000  -50.2260 C   0  0  2  0  0  0  0  0  0  0  0  0
    8.3650   -4.6310  -50.0640 C   0  0  0  0  0  0  0  0  0  0  0  0
    7.2150   -4.8720  -51.0490 C   0  0  2  0  0  0  0  0  0  0  0  0
    7.6890   -4.6670  -52.4940 C   0  0  0  0  0  0  0  0  0  0  0  0
    6.1480   -3.8270  -50.7650 C   0  0  0  0  0  0  0  0  0  0  0  0
    4.9980   -4.1170  -50.4570 O   0  0  0  0  0  0  0  0  0  0  0  0
    6.6310   -2.3920  -50.9070 C   0  0  1  0  0  0  0  0  0  0  0  0
    7.7880   -2.1940  -49.9230 C   0  0  0  0  0  0  0  0  0  0  0  0
    7.1150   -2.2170  -52.3510 C   0  0  0  0  0  0  0  0  0  0  0  0
    7.6770   -0.9190  -54.3850 C   0  0  0  0  0  0  0  0  0  0  0  0
    7.6720    0.4620  -54.8680 C   0  0  0  0  0  0  0  0  0  0  0  0
    8.7400    0.9150  -55.5420 C   0  0  0  0  0  0  0  0  0  0  0  0
    8.9480    2.1450  -56.0960 N   0  0  0  0  0  0  0  0  0  0  0  0
   12.1430    3.1120  -57.6240 C   0  0  0  0  0  0  0  0  0  0  0  0
   12.7940    4.1390  -58.3150 C   0  0  0  0  0  0  0  0  0  0  0  0
   13.2096    7.0405  -58.7736 H   0  0  0  0  0  0  0  0  0  0  0  0
   13.5773    5.9381  -60.1434 H   0  0  0  0  0  0  0  0  0  0  0  0
   12.0567    6.8943  -60.1434 H   0  0  0  0  0  0  0  0  0  0  0  0
   10.1199    6.1627  -58.9253 H   0  0  0  0  0  0  0  0  0  0  0  0
    8.9575    4.3304  -57.7004 H   0  0  0  0  0  0  0  0  0  0  0  0
   11.7667    0.4059  -56.8913 H   0  0  0  0  0  0  0  0  0  0  0  0
   10.5960   -1.8630  -55.5520 H   0  0  0  0  0  0  0  0  0  0  0  0
   10.2119   -3.7171  -51.8777 H   0  0  0  0  0  0  0  0  0  0  0  0
    9.7649   -1.9694  -51.7813 H   0  0  0  0  0  0  0  0  0  0  0  0
    9.7478   -3.0401  -49.5301 H   0  0  0  0  0  0  0  0  0  0  0  0
    9.1712   -5.3525  -50.2627 H   0  0  0  0  0  0  0  0  0  0  0  0
    7.9918   -4.7594  -49.0372 H   0  0  0  0  0  0  0  0  0  0  0  0
    6.8400   -5.8993  -50.9309 H   0  0  0  0  0  0  0  0  0  0  0  0
    8.4793   -5.3971  -52.7229 H   0  0  0  0  0  0  0  0  0  0  0  0
    6.8347   -4.8083  -53.1724 H   0  0  0  0  0  0  0  0  0  0  0  0
    5.8409   -1.6578  -50.6908 H   0  0  0  0  0  0  0  0  0  0  0  0
    8.1790   -1.1705  -50.0210 H   0  0  0  0  0  0  0  0  0  0  0  0
    7.4233   -2.3563  -48.8980 H   0  0  0  0  0  0  0  0  0  0  0  0
    6.2707   -2.3815  -53.0366 H   0  0  0  0  0  0  0  0  0  0  0  0
    7.5113   -1.1976  -52.4685 H   0  0  0  0  0  0  0  0  0  0  0  0
    6.8120   -1.3272  -53.8418 H   0  0  0  0  0  0  0  0  0  0  0  0
    6.8082    1.1171  -54.6819 H   0  0  0  0  0  0  0  0  0  0  0  0
   12.7212    2.2538  -57.2510 H   0  0  0  0  0  0  0  0  0  0  0  0
   13.8808    4.0855  -58.4763 H   0  0  0  0  0  0  0  0  0  0  0  0
  1  2  1  0
  2  3  1  0
  3  4  2  0
  4  5  1  0
  5  6  1  0
  6  7  1  0
  7  8  2  0
  8  9  1  0
  9 10  1  0
 10 11  1  0
 11 12  1  0
 12 13  3  0
 14 11  1  6
 14 15  1  0
 15 16  1  0
 16 17  1  0
 17 18  1  0
 18 19  1  0
 18 20  1  0
 20 21  2  0
 20 22  1  0
 22 23  1  0
 22 24  1  0
 10 25  2  0
 25 26  1  0
 26 27  2  0
 27 28  1  0
  5 29  2  0
 29 30  1  0
 30  2  2  0
 28  6  2  0
 27  8  1  0
 19 14  1  0
 24 14  1  0
 23 16  1  0
  1 31  1  0
  1 32  1  0
  1 33  1  0
  3 34  1  0
  4 35  1  0
  7 36  1  0
  9 37  1  0
 15 38  1  0
 15 39  1  0
 16 40  1  1
 17 41  1  0
 17 42  1  0
 18 43  1  6
 19 44  1  0
 19 45  1  0
 22 46  1  1
 23 47  1  0
 23 48  1  0
 24 49  1  0
 24 50  1  0
 25 51  1  0
 26 52  1  0
 29 53  1  0
 30 54  1  0
M  END
>  <meeko>  (110) 
{"is_sidechain": false}

$$$$

     RDKit          3D

 51 56  0  0  0  0  0  0  0  0999 V2000
    6.1520    1.5190  -58.3530 C   0  0  0  0  0  0  0  0  0  0  0  0
    6.9300    2.3330  -57.4080 N   0  0  0  0  0  0  0  0  0  0  0  0
    7.4100    1.4710  -56.3840 C   0  0  0  0  0  0  0  0  0  0  0  0
    8.7800    1.5200  -56.1000 C   0  0  0  0  0  0  0  0  0  0  0  0
    9.3340    0.7170  -55.1040 C   0  0  0  0  0  0  0  0  0  0  0  0
    8.4340   -0.1030  -54.4340 C   0  0  0  0  0  0  0  0  0  0  0  0
    8.6040   -1.0110  -53.4160 N   0  0  0  0  0  0  0  0  0  0  0  0
    7.4000   -1.5800  -53.0860 C   0  0  0  0  0  0  0  0  0  0  0  0
    7.1980   -2.6460  -51.9850 C   0  0  0  0  0  0  0  0  0  0  0  0
    7.7800   -2.6910  -50.6970 C   0  0  0  0  0  0  0  0  0  0  0  0
    7.2900   -3.8300  -50.0980 C   0  0  0  0  0  0  0  0  0  0  0  0
    6.4460   -4.4840  -50.9370 O   0  0  0  0  0  0  0  0  0  0  0  0
    6.3940   -3.7580  -52.0860 C   0  0  0  0  0  0  0  0  0  0  0  0
    6.4350   -1.0290  -53.9010 C   0  0  0  0  0  0  0  0  0  0  0  0
    7.0800   -0.1010  -54.7510 C   0  0  0  0  0  0  0  0  0  0  0  0
    6.5450    0.6810  -55.7160 N   0  0  0  0  0  0  0  0  0  0  0  0
    7.9790    3.2370  -57.9920 C   0  0  2  0  0  0  0  0  0  0  0  0
    8.5730    4.2480  -56.9500 C   0  0  0  0  0  0  0  0  0  0  0  0
    9.6720    5.0000  -57.6590 C   0  0  0  0  0  0  0  0  0  0  0  0
   10.9120    4.4850  -57.5630 C   0  0  0  0  0  0  0  0  0  0  0  0
   11.2720    3.7720  -58.8280 C   0  0  0  0  0  0  0  0  0  0  0  0
   12.4360    3.7670  -59.2170 O   0  0  0  0  0  0  0  0  0  0  0  0
   10.1430    3.0150  -59.5610 C   0  0  2  0  0  0  0  0  0  0  0  0
    9.4630    3.9490  -60.5610 C   0  0  0  0  0  0  0  0  0  0  0  0
    8.4720    4.8950  -59.8710 C   0  0  2  0  0  0  0  0  0  0  0  0
    9.1880    5.7990  -58.8520 C   0  0  0  0  0  0  0  0  0  0  0  0
    7.3830    4.0650  -59.1710 C   0  0  0  0  0  0  0  0  0  0  0  0
    9.1210    2.3270  -58.6120 C   0  0  0  0  0  0  0  0  0  0  0  0
    5.4973    0.8340  -57.7943 H   0  0  0  0  0  0  0  0  0  0  0  0
    5.5390    2.1775  -58.9859 H   0  0  0  0  0  0  0  0  0  0  0  0
    6.8375    0.9364  -58.9859 H   0  0  0  0  0  0  0  0  0  0  0  0
    9.4282    2.2014  -56.6705 H   0  0  0  0  0  0  0  0  0  0  0  0
   10.4077    0.7315  -54.8653 H   0  0  0  0  0  0  0  0  0  0  0  0
    9.4870   -1.2260  -52.9760 H   0  0  0  0  0  0  0  0  0  0  0  0
    8.4815   -1.9639  -50.2620 H   0  0  0  0  0  0  0  0  0  0  0  0
    7.5465   -4.1635  -49.0817 H   0  0  0  0  0  0  0  0  0  0  0  0
    5.7947   -4.0221  -52.9698 H   0  0  0  0  0  0  0  0  0  0  0  0
    5.3611   -1.2671  -53.8920 H   0  0  0  0  0  0  0  0  0  0  0  0
    7.7932    4.9457  -56.6107 H   0  0  0  0  0  0  0  0  0  0  0  0
    8.9586    3.7237  -56.0632 H   0  0  0  0  0  0  0  0  0  0  0  0
   11.5654    4.5753  -56.6827 H   0  0  0  0  0  0  0  0  0  0  0  0
   10.6121    2.1820  -60.1051 H   0  0  0  0  0  0  0  0  0  0  0  0
   10.2327    4.5482  -61.0694 H   0  0  0  0  0  0  0  0  0  0  0  0
    8.9041    3.3325  -61.2805 H   0  0  0  0  0  0  0  0  0  0  0  0
    8.0126    5.5434  -60.6317 H   0  0  0  0  0  0  0  0  0  0  0  0
   10.0513    6.2758  -59.3391 H   0  0  0  0  0  0  0  0  0  0  0  0
    8.4756    6.5586  -58.4978 H   0  0  0  0  0  0  0  0  0  0  0  0
    6.6106    4.7432  -58.7793 H   0  0  0  0  0  0  0  0  0  0  0  0
    6.9501    3.3679  -59.9036 H   0  0  0  0  0  0  0  0  0  0  0  0
    8.6309    1.5230  -59.1807 H   0  0  0  0  0  0  0  0  0  0  0  0
    9.7163    1.9930  -57.7494 H   0  0  0  0  0  0  0  0  0  0  0  0
  1  2  1  0
  2  3  1  0
  3  4  1  0
  4  5  2  0
  5  6  1  0
  6  7  1  0
  7  8  1  0
  8  9  1  0
  9 10  1  0
 10 11  2  0
 11 12  1  0
 12 13  1  0
  8 14  2  0
 14 15  1  0
 15 16  1  0
 17  2  1  1
 17 18  1  0
 18 19  1  0
 19 20  2  0
 20 21  1  0
 21 22  2  0
 21 23  1  0
 23 24  1  0
 24 25  1  0
 25 26  1  0
 25 27  1  0
 23 28  1  0
 16  3  2  0
 27 17  1  0
 15  6  2  0
 28 17  1  0
 13  9  2  0
 26 19  1  0
  1 29  1  0
  1 30  1  0
  1 31  1  0
  4 32  1  0
  5 33  1  0
  7 34  1  0
 10 35  1  0
 11 36  1  0
 13 37  1  0
 14 38  1  0
 18 39  1  0
 18 40  1  0
 20 41  1  0
 23 42  1  6
 24 43  1  0
 24 44  1  0
 25 45  1  6
 26 46  1  0
 26 47  1  0
 27 48  1  0
 27 49  1  0
 28 50  1  0
 28 51  1  0
M  END
>  <meeko>  (111) 
{"is_sidechain": false}

$$$$

     RDKit          3D

 51 56  0  0  0  0  0  0  0  0999 V2000
    5.4640    2.2660  -57.1830 C   0  0  0  0  0  0  0  0  0  0  0  0
    6.9010    1.9490  -57.2880 N   0  0  0  0  0  0  0  0  0  0  0  0
    7.4550    1.1750  -56.2610 C   0  0  0  0  0  0  0  0  0  0  0  0
    8.7390    1.3290  -55.8410 C   0  0  0  0  0  0  0  0  0  0  0  0
    9.2810    0.5190  -54.7530 C   0  0  0  0  0  0  0  0  0  0  0  0
    8.4810   -0.3680  -54.1510 C   0  0  0  0  0  0  0  0  0  0  0  0
    8.7490   -1.2130  -53.1090 N   0  0  0  0  0  0  0  0  0  0  0  0
    7.6090   -1.8150  -52.9210 C   0  0  0  0  0  0  0  0  0  0  0  0
    7.4210   -2.8110  -51.8980 C   0  0  0  0  0  0  0  0  0  0  0  0
    8.2960   -3.1120  -50.8120 C   0  0  0  0  0  0  0  0  0  0  0  0
    7.7080   -4.1280  -50.0980 C   0  0  0  0  0  0  0  0  0  0  0  0
    6.5270   -4.4800  -50.6660 O   0  0  0  0  0  0  0  0  0  0  0  0
    6.3590   -3.6820  -51.7520 C   0  0  0  0  0  0  0  0  0  0  0  0
    6.5000   -1.4380  -53.8060 C   0  0  0  0  0  0  0  0  0  0  0  0
    7.0980   -0.5280  -54.5730 C   0  0  0  0  0  0  0  0  0  0  0  0
    6.6610    0.2360  -55.6190 N   0  0  0  0  0  0  0  0  0  0  0  0
    7.7560    2.9710  -58.0000 C   0  0  2  0  0  0  0  0  0  0  0  0
    8.0630    4.1780  -57.0480 C   0  0  0  0  0  0  0  0  0  0  0  0
    8.9800    5.1040  -57.8060 C   0  0  0  0  0  0  0  0  0  0  0  0
   10.3000    4.8980  -57.6390 C   0  0  0  0  0  0  0  0  0  0  0  0
   10.8630    4.1780  -58.8230 C   0  0  0  0  0  0  0  0  0  0  0  0
   11.2510    3.0200  -58.7050 O   0  0  0  0  0  0  0  0  0  0  0  0
    9.9710    3.1140  -59.4970 C   0  0  2  0  0  0  0  0  0  0  0  0
    9.1360    3.7700  -60.5960 C   0  0  0  0  0  0  0  0  0  0  0  0
    7.9260    4.5190  -60.0200 C   0  0  2  0  0  0  0  0  0  0  0  0
    8.3760    5.6560  -59.0820 C   0  0  0  0  0  0  0  0  0  0  0  0
    7.0310    3.5290  -59.2590 C   0  0  0  0  0  0  0  0  0  0  0  0
    9.0930    2.2930  -58.5090 C   0  0  0  0  0  0  0  0  0  0  0  0
    5.1789    2.3289  -56.1224 H   0  0  0  0  0  0  0  0  0  0  0  0
    5.2643    3.2298  -57.6741 H   0  0  0  0  0  0  0  0  0  0  0  0
    4.8773    1.4757  -57.6741 H   0  0  0  0  0  0  0  0  0  0  0  0
    9.3810    2.0769  -56.3293 H   0  0  0  0  0  0  0  0  0  0  0  0
   10.3274    0.6363  -54.4347 H   0  0  0  0  0  0  0  0  0  0  0  0
    9.2566   -2.6245  -50.5892 H   0  0  0  0  0  0  0  0  0  0  0  0
    8.1337   -4.5900  -49.1951 H   0  0  0  0  0  0  0  0  0  0  0  0
    5.4912   -3.7238  -52.4267 H   0  0  0  0  0  0  0  0  0  0  0  0
    5.4633   -1.8051  -53.8292 H   0  0  0  0  0  0  0  0  0  0  0  0
    5.6810    0.2490  -55.8610 H   0  0  0  0  0  0  0  0  0  0  0  0
    7.1311    4.6994  -56.7840 H   0  0  0  0  0  0  0  0  0  0  0  0
    8.5303    3.8359  -56.1128 H   0  0  0  0  0  0  0  0  0  0  0  0
   10.8803    5.2135  -56.7594 H   0  0  0  0  0  0  0  0  0  0  0  0
   10.6443    2.3670  -59.9426 H   0  0  0  0  0  0  0  0  0  0  0  0
    9.7678    4.4831  -61.1459 H   0  0  0  0  0  0  0  0  0  0  0  0
    8.7633    2.9779  -61.2621 H   0  0  0  0  0  0  0  0  0  0  0  0
    7.3598    4.9679  -60.8493 H   0  0  0  0  0  0  0  0  0  0  0  0
    9.1275    6.2714  -59.5983 H   0  0  0  0  0  0  0  0  0  0  0  0
    7.4957    6.2607  -58.8187 H   0  0  0  0  0  0  0  0  0  0  0  0
    6.1114    4.0444  -58.9450 H   0  0  0  0  0  0  0  0  0  0  0  0
    6.7942    2.6878  -59.9270 H   0  0  0  0  0  0  0  0  0  0  0  0
    8.8181    1.3538  -59.0114 H   0  0  0  0  0  0  0  0  0  0  0  0
    9.7130    2.1736  -57.6082 H   0  0  0  0  0  0  0  0  0  0  0  0
  1  2  1  0
  2  3  1  0
  3  4  2  0
  4  5  1  0
  5  6  2  0
  6  7  1  0
  7  8  2  0
  8  9  1  0
  9 10  1  0
 10 11  2  0
 11 12  1  0
 12 13  1  0
  8 14  1  0
 14 15  2  0
 15 16  1  0
 17  2  1  1
 17 18  1  0
 18 19  1  0
 19 20  2  0
 20 21  1  0
 21 22  2  0
 21 23  1  0
 23 24  1  0
 24 25  1  0
 25 26  1  0
 25 27  1  0
 23 28  1  0
 16  3  1  0
 27 17  1  0
 15  6  1  0
 28 17  1  0
 13  9  2  0
 26 19  1  0
  1 29  1  0
  1 30  1  0
  1 31  1  0
  4 32  1  0
  5 33  1  0
 10 34  1  0
 11 35  1  0
 13 36  1  0
 14 37  1  0
 16 38  1  0
 18 39  1  0
 18 40  1  0
 20 41  1  0
 23 42  1  6
 24 43  1  0
 24 44  1  0
 25 45  1  6
 26 46  1  0
 26 47  1  0
 27 48  1  0
 27 49  1  0
 28 50  1  0
 28 51  1  0
M  END
>  <meeko>  (112) 
{"is_sidechain": false}

$$$$

     RDKit          3D

 43 46  0  0  0  0  0  0  0  0999 V2000
   13.0910    7.8460  -60.9240 C   0  0  0  0  0  0  0  0  0  0  0  0
   12.7910    6.6410  -60.1960 N   0  0  0  0  0  0  0  0  0  0  0  0
   13.7120    5.8030  -59.6350 C   0  0  0  0  0  0  0  0  0  0  0  0
   13.1310    4.7840  -59.0390 N   0  0  0  0  0  0  0  0  0  0  0  0
   11.7890    4.9770  -59.2290 C   0  0  0  0  0  0  0  0  0  0  0  0
   10.8680    4.0350  -58.7000 C   0  0  0  0  0  0  0  0  0  0  0  0
    9.7570    3.5970  -59.3110 C   0  0  0  0  0  0  0  0  0  0  0  0
    8.8370    2.5840  -58.7320 C   0  0  0  0  0  0  0  0  0  0  0  0
    8.1790    1.8950  -59.5020 O   0  0  0  0  0  0  0  0  0  0  0  0
    8.7820    2.5840  -57.3660 N   0  0  0  0  0  0  0  0  0  0  0  0
    8.0230    1.7630  -56.5250 C   0  0  0  0  0  0  0  0  0  0  0  0
    6.6310    1.7230  -56.5420 C   0  0  0  0  0  0  0  0  0  0  0  0
    5.9450    0.8720  -55.6730 C   0  0  0  0  0  0  0  0  0  0  0  0
    6.7390    0.1030  -54.8300 C   0  0  0  0  0  0  0  0  0  0  0  0
    6.4260   -0.8220  -53.8680 N   0  0  0  0  0  0  0  0  0  0  0  0
    7.5650   -1.3400  -53.2790 C   0  0  0  0  0  0  0  0  0  0  0  0
    7.5250   -2.3550  -52.2130 C   0  0  0  0  0  0  0  0  0  0  0  0
    8.3050   -2.2050  -51.0560 C   0  0  0  0  0  0  0  0  0  0  0  0
    8.2750   -3.1640  -50.0350 C   0  0  0  0  0  0  0  0  0  0  0  0
    7.4640   -4.2910  -50.1540 C   0  0  0  0  0  0  0  0  0  0  0  0
    6.6820   -4.4590  -51.2920 C   0  0  0  0  0  0  0  0  0  0  0  0
    6.7170   -3.5000  -52.3040 C   0  0  0  0  0  0  0  0  0  0  0  0
    5.9450   -3.7060  -53.3860 F   0  0  0  0  0  0  0  0  0  0  0  0
    8.6330   -0.7070  -53.9030 C   0  0  0  0  0  0  0  0  0  0  0  0
    8.1230    0.1910  -54.8680 C   0  0  0  0  0  0  0  0  0  0  0  0
    8.7920    1.0140  -55.7080 N   0  0  0  0  0  0  0  0  0  0  0  0
   11.5490    6.1280  -59.9440 C   0  0  0  0  0  0  0  0  0  0  0  0
   13.2941    8.6619  -60.2148 H   0  0  0  0  0  0  0  0  0  0  0  0
   13.9756    7.6815  -61.5568 H   0  0  0  0  0  0  0  0  0  0  0  0
   12.2325    8.1154  -61.5568 H   0  0  0  0  0  0  0  0  0  0  0  0
   14.8000    5.9599  -59.6761 H   0  0  0  0  0  0  0  0  0  0  0  0
   11.0845    3.6285  -57.7011 H   0  0  0  0  0  0  0  0  0  0  0  0
    9.5125    4.0126  -60.2997 H   0  0  0  0  0  0  0  0  0  0  0  0
    9.2980    3.2760  -56.8410 H   0  0  0  0  0  0  0  0  0  0  0  0
    6.0714    2.3624  -57.2406 H   0  0  0  0  0  0  0  0  0  0  0  0
    4.8467    0.8139  -55.6566 H   0  0  0  0  0  0  0  0  0  0  0  0
    5.4840   -1.0960  -53.6180 H   0  0  0  0  0  0  0  0  0  0  0  0
    8.9501   -1.3205  -50.9490 H   0  0  0  0  0  0  0  0  0  0  0  0
    8.8939   -3.0268  -49.1361 H   0  0  0  0  0  0  0  0  0  0  0  0
    7.4424   -5.0438  -49.3522 H   0  0  0  0  0  0  0  0  0  0  0  0
    6.0382   -5.3452  -51.3934 H   0  0  0  0  0  0  0  0  0  0  0  0
    9.6973   -0.8764  -53.6828 H   0  0  0  0  0  0  0  0  0  0  0  0
   10.5757    6.5426  -60.2454 H   0  0  0  0  0  0  0  0  0  0  0  0
  1  2  1  0
  2  3  1  0
  3  4  2  0
  4  5  1  0
  5  6  1  0
  6  7  2  0
  7  8  1  0
  8  9  2  0
  8 10  1  0
 10 11  1  0
 11 12  1  0
 12 13  2  0
 13 14  1  0
 14 15  1  0
 15 16  1  0
 16 17  1  0
 17 18  2  0
 18 19  1  0
 19 20  2  0
 20 21  1  0
 21 22  2  0
 22 23  1  0
 16 24  2  0
 24 25  1  0
 25 26  1  0
  5 27  2  0
 27  2  1  0
 26 11  2  0
 25 14  2  0
 22 17  1  0
  1 28  1  0
  1 29  1  0
  1 30  1  0
  3 31  1  0
  6 32  1  0
  7 33  1  0
 10 34  1  0
 12 35  1  0
 13 36  1  0
 15 37  1  0
 18 38  1  0
 19 39  1  0
 20 40  1  0
 21 41  1  0
 24 42  1  0
 27 43  1  0
M  END
>  <meeko>  (113) 
{"is_sidechain": false}

$$$$

     RDKit          3D

 43 46  0  0  0  0  0  0  0  0999 V2000
   12.9180    7.8520  -60.9370 C   0  0  0  0  0  0  0  0  0  0  0  0
   12.7110    6.6320  -60.1990 N   0  0  0  0  0  0  0  0  0  0  0  0
   13.6960    5.8560  -59.6610 C   0  0  0  0  0  0  0  0  0  0  0  0
   13.1950    4.8090  -59.0410 N   0  0  0  0  0  0  0  0  0  0  0  0
   11.8390    4.9240  -59.1880 C   0  0  0  0  0  0  0  0  0  0  0  0
   10.9930    3.9350  -58.6210 C   0  0  0  0  0  0  0  0  0  0  0  0
    9.7570    3.6250  -59.0400 C   0  0  0  0  0  0  0  0  0  0  0  0
    8.9050    2.5970  -58.3950 C   0  0  0  0  0  0  0  0  0  0  0  0
    8.1960    1.8800  -59.0980 O   0  0  0  0  0  0  0  0  0  0  0  0
    9.0410    2.4960  -57.0290 N   0  0  0  0  0  0  0  0  0  0  0  0
    8.3550    1.6060  -56.2360 C   0  0  0  0  0  0  0  0  0  0  0  0
    7.0020    1.5630  -56.3310 C   0  0  0  0  0  0  0  0  0  0  0  0
    6.2310    0.6330  -55.5070 C   0  0  0  0  0  0  0  0  0  0  0  0
    6.8820   -0.1740  -54.6590 C   0  0  0  0  0  0  0  0  0  0  0  0
    6.3830   -1.1070  -53.7950 N   0  0  0  0  0  0  0  0  0  0  0  0
    7.4460   -1.6060  -53.2110 C   0  0  0  0  0  0  0  0  0  0  0  0
    7.3660   -2.6630  -52.1780 C   0  0  0  0  0  0  0  0  0  0  0  0
    6.1300   -3.2980  -51.9810 C   0  0  0  0  0  0  0  0  0  0  0  0
    5.9890   -4.3030  -51.0190 C   0  0  0  0  0  0  0  0  0  0  0  0
    7.0820   -4.6880  -50.2460 C   0  0  0  0  0  0  0  0  0  0  0  0
    8.3160   -4.0690  -50.4390 C   0  0  0  0  0  0  0  0  0  0  0  0
    8.4540   -3.0660  -51.4000 C   0  0  0  0  0  0  0  0  0  0  0  0
    9.6700   -2.5240  -51.5520 F   0  0  0  0  0  0  0  0  0  0  0  0
    8.7300   -1.0210  -53.6480 C   0  0  0  0  0  0  0  0  0  0  0  0
    8.3270   -0.1340  -54.5550 C   0  0  0  0  0  0  0  0  0  0  0  0
    8.9960    0.7550  -55.3490 N   0  0  0  0  0  0  0  0  0  0  0  0
   11.5090    6.0490  -59.9090 C   0  0  0  0  0  0  0  0  0  0  0  0
   13.0595    8.6862  -60.2341 H   0  0  0  0  0  0  0  0  0  0  0  0
   13.8117    7.7504  -61.5702 H   0  0  0  0  0  0  0  0  0  0  0  0
   12.0408    8.0509  -61.5702 H   0  0  0  0  0  0  0  0  0  0  0  0
   14.7709    6.0772  -59.7359 H   0  0  0  0  0  0  0  0  0  0  0  0
   11.3862    3.3726  -57.7612 H   0  0  0  0  0  0  0  0  0  0  0  0
    9.3531    4.1632  -59.9102 H   0  0  0  0  0  0  0  0  0  0  0  0
    9.7200    3.0880  -56.5690 H   0  0  0  0  0  0  0  0  0  0  0  0
    6.4819    2.2320  -57.0324 H   0  0  0  0  0  0  0  0  0  0  0  0
    5.1342    0.5967  -55.5823 H   0  0  0  0  0  0  0  0  0  0  0  0
    5.2630   -3.0020  -52.5898 H   0  0  0  0  0  0  0  0  0  0  0  0
    5.0137   -4.7902  -50.8725 H   0  0  0  0  0  0  0  0  0  0  0  0
    6.9719   -5.4766  -49.4870 H   0  0  0  0  0  0  0  0  0  0  0  0
    9.1827   -4.3715  -49.8329 H   0  0  0  0  0  0  0  0  0  0  0  0
    9.7507   -1.2564  -53.3122 H   0  0  0  0  0  0  0  0  0  0  0  0
   10.0100    0.8320  -55.3010 H   0  0  0  0  0  0  0  0  0  0  0  0
   10.5047    6.3998  -60.1888 H   0  0  0  0  0  0  0  0  0  0  0  0
  1  2  1  0
  2  3  1  0
  3  4  2  0
  4  5  1  0
  5  6  1  0
  6  7  2  0
  7  8  1  0
  8  9  2  0
  8 10  1  0
 10 11  1  0
 11 12  2  0
 12 13  1  0
 13 14  2  0
 14 15  1  0
 15 16  2  0
 16 17  1  0
 17 18  2  0
 18 19  1  0
 19 20  2  0
 20 21  1  0
 21 22  2  0
 22 23  1  0
 16 24  1  0
 24 25  2  0
 25 26  1  0
  5 27  2  0
 27  2  1  0
 26 11  1  0
 25 14  1  0
 22 17  1  0
  1 28  1  0
  1 29  1  0
  1 30  1  0
  3 31  1  0
  6 32  1  0
  7 33  1  0
 10 34  1  0
 12 35  1  0
 13 36  1  0
 18 37  1  0
 19 38  1  0
 20 39  1  0
 21 40  1  0
 24 41  1  0
 26 42  1  0
 27 43  1  0
M  END
>  <meeko>  (114) 
{"is_sidechain": false}

$$$$

     RDKit          3D

 44 47  0  0  0  0  0  0  0  0999 V2000
   13.0300    7.8940  -60.9810 C   0  0  0  0  0  0  0  0  0  0  0  0
   12.8110    6.6560  -60.2420 N   0  0  0  0  0  0  0  0  0  0  0  0
   13.7780    5.8560  -59.7750 C   0  0  0  0  0  0  0  0  0  0  0  0
   13.1770    4.8320  -59.1640 N   0  0  0  0  0  0  0  0  0  0  0  0
   11.8020    4.9440  -59.2260 C   0  0  0  0  0  0  0  0  0  0  0  0
   10.7780    3.9370  -58.6310 C   0  0  0  0  0  0  0  0  0  0  0  0
    9.6420    3.5630  -59.2380 C   0  0  0  0  0  0  0  0  0  0  0  0
    8.7230    2.5380  -58.6750 C   0  0  0  0  0  0  0  0  0  0  0  0
    8.0490    1.8870  -59.4610 O   0  0  0  0  0  0  0  0  0  0  0  0
    8.7130    2.4850  -57.3120 N   0  0  0  0  0  0  0  0  0  0  0  0
    7.9750    1.6370  -56.4800 C   0  0  0  0  0  0  0  0  0  0  0  0
    6.5860    1.5600  -56.4880 C   0  0  0  0  0  0  0  0  0  0  0  0
    5.9330    0.6840  -55.6200 C   0  0  0  0  0  0  0  0  0  0  0  0
    6.7560   -0.0700  -54.7890 C   0  0  0  0  0  0  0  0  0  0  0  0
    6.4720   -1.0060  -53.8240 N   0  0  0  0  0  0  0  0  0  0  0  0
    7.6340   -1.4980  -53.2590 C   0  0  0  0  0  0  0  0  0  0  0  0
    7.6460   -2.5070  -52.1950 C   0  0  0  0  0  0  0  0  0  0  0  0
    8.5420   -2.4070  -51.1180 C   0  0  0  0  0  0  0  0  0  0  0  0
    8.5520   -3.3700  -50.1030 C   0  0  0  0  0  0  0  0  0  0  0  0
    7.6690   -4.4460  -50.1460 C   0  0  0  0  0  0  0  0  0  0  0  0
    6.7690   -4.5580  -51.2030 C   0  0  0  0  0  0  0  0  0  0  0  0
    6.7600   -3.5950  -52.2120 C   0  0  0  0  0  0  0  0  0  0  0  0
    5.8830   -3.7480  -53.2150 F   0  0  0  0  0  0  0  0  0  0  0  0
    8.6790   -0.8310  -53.8820 C   0  0  0  0  0  0  0  0  0  0  0  0
    8.1360    0.0560  -54.8380 C   0  0  0  0  0  0  0  0  0  0  0  0
    8.7750    0.9030  -55.6800 N   0  0  0  0  0  0  0  0  0  0  0  0
   11.5740    6.1120  -59.9190 C   0  0  0  0  0  0  0  0  0  0  0  0
   13.1766    8.7228  -60.2727 H   0  0  0  0  0  0  0  0  0  0  0  0
   13.9237    7.7901  -61.6138 H   0  0  0  0  0  0  0  0  0  0  0  0
   12.1549    8.1030  -61.6138 H   0  0  0  0  0  0  0  0  0  0  0  0
   14.8621    6.0127  -59.8756 H   0  0  0  0  0  0  0  0  0  0  0  0
   13.6770    4.0680  -58.7180 H   0  0  0  0  0  0  0  0  0  0  0  0
   11.0001    3.5018  -57.6455 H   0  0  0  0  0  0  0  0  0  0  0  0
    9.3780    4.0357  -60.1955 H   0  0  0  0  0  0  0  0  0  0  0  0
    9.2390    3.1470  -56.7600 H   0  0  0  0  0  0  0  0  0  0  0  0
    6.0034    2.1887  -57.1775 H   0  0  0  0  0  0  0  0  0  0  0  0
    4.8369    0.5951  -55.5943 H   0  0  0  0  0  0  0  0  0  0  0  0
    5.5390   -1.2780  -53.5490 H   0  0  0  0  0  0  0  0  0  0  0  0
    9.2442   -1.5615  -51.0719 H   0  0  0  0  0  0  0  0  0  0  0  0
    9.2608   -3.2767  -49.2670 H   0  0  0  0  0  0  0  0  0  0  0  0
    7.6823   -5.2039  -49.3489 H   0  0  0  0  0  0  0  0  0  0  0  0
    6.0669   -5.4039  -51.2420 H   0  0  0  0  0  0  0  0  0  0  0  0
    9.7490   -0.9694  -53.6678 H   0  0  0  0  0  0  0  0  0  0  0  0
   10.5912    6.5370  -60.1710 H   0  0  0  0  0  0  0  0  0  0  0  0
  1  2  1  0
  2  3  1  0
  3  4  2  0
  4  5  1  0
  5  6  1  0
  6  7  2  0
  7  8  1  0
  8  9  2  0
  8 10  1  0
 10 11  1  0
 11 12  1  0
 12 13  2  0
 13 14  1  0
 14 15  1  0
 15 16  1  0
 16 17  1  0
 17 18  2  0
 18 19  1  0
 19 20  2  0
 20 21  1  0
 21 22  2  0
 22 23  1  0
 16 24  2  0
 24 25  1  0
 25 26  1  0
  5 27  2  0
 27  2  1  0
 26 11  2  0
 25 14  2  0
 22 17  1  0
  1 28  1  0
  1 29  1  0
  1 30  1  0
  3 31  1  0
  4 32  1  0
  6 33  1  0
  7 34  1  0
 10 35  1  0
 12 36  1  0
 13 37  1  0
 15 38  1  0
 18 39  1  0
 19 40  1  0
 20 41  1  0
 21 42  1  0
 24 43  1  0
 27 44  1  0
M  CHG  1   4   1
M  END
>  <meeko>  (115) 
{"is_sidechain": false}

$$$$

     RDKit          3D

 44 47  0  0  0  0  0  0  0  0999 V2000
   12.7450    7.8910  -60.8940 C   0  0  0  0  0  0  0  0  0  0  0  0
   12.7030    6.6280  -60.1650 N   0  0  0  0  0  0  0  0  0  0  0  0
   13.7770    5.9560  -59.7290 C   0  0  0  0  0  0  0  0  0  0  0  0
   13.3300    4.8560  -59.1190 N   0  0  0  0  0  0  0  0  0  0  0  0
   11.9510    4.7860  -59.1570 C   0  0  0  0  0  0  0  0  0  0  0  0
   11.0390    3.6680  -58.5810 C   0  0  0  0  0  0  0  0  0  0  0  0
    9.7450    3.5360  -58.9000 C   0  0  0  0  0  0  0  0  0  0  0  0
    8.8650    2.5300  -58.2560 C   0  0  0  0  0  0  0  0  0  0  0  0
    8.0560    1.9270  -58.9530 O   0  0  0  0  0  0  0  0  0  0  0  0
    9.0830    2.3450  -56.9120 N   0  0  0  0  0  0  0  0  0  0  0  0
    8.3620    1.4840  -56.1160 C   0  0  0  0  0  0  0  0  0  0  0  0
    7.0080    1.5020  -56.2080 C   0  0  0  0  0  0  0  0  0  0  0  0
    6.1970    0.6010  -55.3910 C   0  0  0  0  0  0  0  0  0  0  0  0
    6.8130   -0.2370  -54.5470 C   0  0  0  0  0  0  0  0  0  0  0  0
    6.2710   -1.1560  -53.6970 N   0  0  0  0  0  0  0  0  0  0  0  0
    7.3080   -1.6940  -53.1080 C   0  0  0  0  0  0  0  0  0  0  0  0
    7.2260   -2.7530  -52.0890 C   0  0  0  0  0  0  0  0  0  0  0  0
    5.9980   -3.3460  -51.7700 C   0  0  0  0  0  0  0  0  0  0  0  0
    5.9390   -4.3600  -50.8080 C   0  0  0  0  0  0  0  0  0  0  0  0
    7.1020   -4.7850  -50.1650 C   0  0  0  0  0  0  0  0  0  0  0  0
    8.3250   -4.1980  -50.4840 C   0  0  0  0  0  0  0  0  0  0  0  0
    8.3850   -3.1890  -51.4430 C   0  0  0  0  0  0  0  0  0  0  0  0
    9.5780   -2.6300  -51.6950 F   0  0  0  0  0  0  0  0  0  0  0  0
    8.6220   -1.1630  -53.5330 C   0  0  0  0  0  0  0  0  0  0  0  0
    8.2590   -0.2560  -54.4380 C   0  0  0  0  0  0  0  0  0  0  0  0
    8.9670    0.6010  -55.2350 N   0  0  0  0  0  0  0  0  0  0  0  0
   11.5570    5.9210  -59.8290 C   0  0  0  0  0  0  0  0  0  0  0  0
   12.7728    8.7264  -60.1789 H   0  0  0  0  0  0  0  0  0  0  0  0
   13.6446    7.9196  -61.5264 H   0  0  0  0  0  0  0  0  0  0  0  0
   11.8493    7.9793  -61.5264 H   0  0  0  0  0  0  0  0  0  0  0  0
   14.8287    6.2544  -59.8507 H   0  0  0  0  0  0  0  0  0  0  0  0
   13.9370    4.1590  -58.6990 H   0  0  0  0  0  0  0  0  0  0  0  0
   11.4785    2.9480  -57.8750 H   0  0  0  0  0  0  0  0  0  0  0  0
    9.3188    4.1981  -59.6681 H   0  0  0  0  0  0  0  0  0  0  0  0
    9.8480    2.8300  -56.4650 H   0  0  0  0  0  0  0  0  0  0  0  0
    6.5172    2.1997  -56.9025 H   0  0  0  0  0  0  0  0  0  0  0  0
    5.0997    0.6111  -55.4680 H   0  0  0  0  0  0  0  0  0  0  0  0
    5.0794   -3.0143  -52.2761 H   0  0  0  0  0  0  0  0  0  0  0  0
    4.9732   -4.8234  -50.5579 H   0  0  0  0  0  0  0  0  0  0  0  0
    7.0537   -5.5816  -49.4080 H   0  0  0  0  0  0  0  0  0  0  0  0
    9.2433   -4.5314  -49.9785 H   0  0  0  0  0  0  0  0  0  0  0  0
    9.6298   -1.4428  -53.1923 H   0  0  0  0  0  0  0  0  0  0  0  0
    9.9820    0.6380  -55.1690 H   0  0  0  0  0  0  0  0  0  0  0  0
   10.5219    6.2143  -60.0580 H   0  0  0  0  0  0  0  0  0  0  0  0
  1  2  1  0
  2  3  1  0
  3  4  2  0
  4  5  1  0
  5  6  1  0
  6  7  2  0
  7  8  1  0
  8  9  2  0
  8 10  1  0
 10 11  1  0
 11 12  2  0
 12 13  1  0
 13 14  2  0
 14 15  1  0
 15 16  2  0
 16 17  1  0
 17 18  2  0
 18 19  1  0
 19 20  2  0
 20 21  1  0
 21 22  2  0
 22 23  1  0
 16 24  1  0
 24 25  2  0
 25 26  1  0
  5 27  2  0
 27  2  1  0
 26 11  1  0
 25 14  1  0
 22 17  1  0
  1 28  1  0
  1 29  1  0
  1 30  1  0
  3 31  1  0
  4 32  1  0
  6 33  1  0
  7 34  1  0
 10 35  1  0
 12 36  1  0
 13 37  1  0
 18 38  1  0
 19 39  1  0
 20 40  1  0
 21 41  1  0
 24 42  1  0
 26 43  1  0
 27 44  1  0
M  CHG  1   4   1
M  END
>  <meeko>  (116) 
{"is_sidechain": false}

$$$$

     RDKit          3D

 39 41  0  0  0  0  0  0  0  0999 V2000
    2.5990    1.4590  -62.9160 N   0  0  0  0  0  0  0  0  0  0  0  0
    3.5110    1.7520  -61.9740 C   0  0  0  0  0  0  0  0  0  0  0  0
    4.8740    1.9180  -62.0530 C   0  0  0  0  0  0  0  0  0  0  0  0
    5.3400    2.2170  -60.7490 C   0  0  0  0  0  0  0  0  0  0  0  0
    6.6040    2.4660  -60.3320 N   0  0  0  0  0  0  0  0  0  0  0  0
    6.7440    2.7100  -59.0180 C   0  0  0  0  0  0  0  0  0  0  0  0
    8.0590    2.9740  -58.5990 N   0  0  0  0  0  0  0  0  0  0  0  0
    9.0680    2.2900  -59.4090 C   0  0  0  0  0  0  0  0  0  0  0  0
   10.3130    3.1740  -59.6190 C   0  0  2  0  0  0  0  0  0  0  0  0
   11.3230    3.0360  -58.4680 C   0  0  0  0  0  0  0  0  0  0  0  0
   12.5670    3.8870  -58.7100 C   0  0  0  0  0  0  0  0  0  0  0  0
   12.2110    5.3500  -58.9610 C   0  0  1  0  0  0  0  0  0  0  0  0
   13.3880    6.0760  -59.3000 O   0  0  0  0  0  0  0  0  0  0  0  0
   11.2070    5.4920  -60.1030 C   0  0  0  0  0  0  0  0  0  0  0  0
    9.9570    4.6500  -59.8610 C   0  0  0  0  0  0  0  0  0  0  0  0
    5.6840    2.7380  -58.1100 C   0  0  0  0  0  0  0  0  0  0  0  0
    4.3810    2.4830  -58.5390 C   0  0  0  0  0  0  0  0  0  0  0  0
    4.2410    2.2180  -59.8970 C   0  0  0  0  0  0  0  0  0  0  0  0
    3.1390    1.9290  -60.6670 N   0  0  0  0  0  0  0  0  0  0  0  0
    2.1720    2.1710  -63.5000 H   0  0  0  0  0  0  0  0  0  0  0  0
    2.6180    0.5450  -63.3640 H   0  0  0  0  0  0  0  0  0  0  0  0
    5.4889    1.8341  -62.9612 H   0  0  0  0  0  0  0  0  0  0  0  0
    8.1230    3.9860  -58.7280 H   0  0  0  0  0  0  0  0  0  0  0  0
    9.3689    1.3632  -58.8986 H   0  0  0  0  0  0  0  0  0  0  0  0
    8.6302    2.0684  -60.3935 H   0  0  0  0  0  0  0  0  0  0  0  0
   10.7944    2.8005  -60.5348 H   0  0  0  0  0  0  0  0  0  0  0  0
   10.8447    3.3602  -57.5320 H   0  0  0  0  0  0  0  0  0  0  0  0
   11.6326    1.9823  -58.4051 H   0  0  0  0  0  0  0  0  0  0  0  0
   13.2184    3.8254  -57.8258 H   0  0  0  0  0  0  0  0  0  0  0  0
   13.0779    3.5004  -59.6042 H   0  0  0  0  0  0  0  0  0  0  0  0
   11.7599    5.7485  -58.0403 H   0  0  0  0  0  0  0  0  0  0  0  0
   13.2280    6.5070  -60.1560 H   0  0  0  0  0  0  0  0  0  0  0  0
   10.9140    6.5486  -60.1913 H   0  0  0  0  0  0  0  0  0  0  0  0
   11.6860    5.1383  -61.0279 H   0  0  0  0  0  0  0  0  0  0  0  0
    9.4281    5.0399  -58.9788 H   0  0  0  0  0  0  0  0  0  0  0  0
    9.3204    4.7103  -60.7560 H   0  0  0  0  0  0  0  0  0  0  0  0
    5.8770    2.9623  -57.0506 H   0  0  0  0  0  0  0  0  0  0  0  0
    3.5233    2.4910  -57.8503 H   0  0  0  0  0  0  0  0  0  0  0  0
    2.1950    1.8490  -60.3200 H   0  0  0  0  0  0  0  0  0  0  0  0
  1  2  1  0
  2  3  2  0
  3  4  1  0
  4  5  1  0
  5  6  2  0
  6  7  1  0
  7  8  1  0
  8  9  1  0
  9 10  1  0
 10 11  1  0
 11 12  1  0
 12 13  1  0
 12 14  1  0
 14 15  1  0
  6 16  1  0
 16 17  2  0
 17 18  1  0
 18 19  1  0
 19  2  1  0
 18  4  2  0
 15  9  1  0
  1 20  1  0
  1 21  1  0
  3 22  1  0
  7 23  1  0
  8 24  1  0
  8 25  1  0
  9 26  1  1
 10 27  1  0
 10 28  1  0
 11 29  1  0
 11 30  1  0
 12 31  1  6
 13 32  1  0
 14 33  1  0
 14 34  1  0
 15 35  1  0
 15 36  1  0
 16 37  1  0
 17 38  1  0
 19 39  1  0
M  END
>  <meeko>  (117) 
{"is_sidechain": false}

$$$$

     RDKit          3D

 39 41  0  0  0  0  0  0  0  0999 V2000
    2.7440    1.8690  -63.2230 N   0  0  0  0  0  0  0  0  0  0  0  0
    3.8560    2.0060  -62.4800 C   0  0  0  0  0  0  0  0  0  0  0  0
    5.1430    2.3660  -62.8360 C   0  0  0  0  0  0  0  0  0  0  0  0
    5.8990    2.3460  -61.6520 C   0  0  0  0  0  0  0  0  0  0  0  0
    7.1950    2.6140  -61.4220 N   0  0  0  0  0  0  0  0  0  0  0  0
    7.6760    2.5040  -60.1220 C   0  0  0  0  0  0  0  0  0  0  0  0
    8.9340    2.7760  -59.9840 N   0  0  0  0  0  0  0  0  0  0  0  0
    9.6550    2.7190  -58.7220 C   0  0  0  0  0  0  0  0  0  0  0  0
   11.0280    3.3970  -58.8800 C   0  0  2  0  0  0  0  0  0  0  0  0
   11.5330    3.9220  -57.5330 C   0  0  0  0  0  0  0  0  0  0  0  0
   12.9570    4.4840  -57.6280 C   0  0  0  0  0  0  0  0  0  0  0  0
   13.2780    5.1320  -58.9800 C   0  0  1  0  0  0  0  0  0  0  0  0
   13.9250    4.1910  -59.8340 O   0  0  0  0  0  0  0  0  0  0  0  0
   12.0230    5.6360  -59.6820 C   0  0  0  0  0  0  0  0  0  0  0  0
   10.9890    4.5290  -59.9250 C   0  0  0  0  0  0  0  0  0  0  0  0
    6.7370    2.0910  -58.9920 C   0  0  0  0  0  0  0  0  0  0  0  0
    5.4450    1.8330  -59.2710 C   0  0  0  0  0  0  0  0  0  0  0  0
    5.0790    1.9750  -60.6200 C   0  0  0  0  0  0  0  0  0  0  0  0
    3.8300    1.7610  -61.1240 N   0  0  0  0  0  0  0  0  0  0  0  0
    1.8830    2.3190  -62.9190 H   0  0  0  0  0  0  0  0  0  0  0  0
    2.5740    1.0470  -63.7930 H   0  0  0  0  0  0  0  0  0  0  0  0
    5.5028    2.6177  -63.8446 H   0  0  0  0  0  0  0  0  0  0  0  0
    7.8660    2.8980  -62.1210 H   0  0  0  0  0  0  0  0  0  0  0  0
    9.0762    3.2411  -57.9459 H   0  0  0  0  0  0  0  0  0  0  0  0
    9.7982    1.6680  -58.4305 H   0  0  0  0  0  0  0  0  0  0  0  0
   11.7317    2.6340  -59.2443 H   0  0  0  0  0  0  0  0  0  0  0  0
   10.8592    4.7204  -57.1887 H   0  0  0  0  0  0  0  0  0  0  0  0
   11.5487    3.0793  -56.8262 H   0  0  0  0  0  0  0  0  0  0  0  0
   13.0837    5.2423  -56.8413 H   0  0  0  0  0  0  0  0  0  0  0  0
   13.6452    3.6342  -57.5087 H   0  0  0  0  0  0  0  0  0  0  0  0
   13.9379    5.9884  -58.7774 H   0  0  0  0  0  0  0  0  0  0  0  0
   13.3700    3.3930  -59.8710 H   0  0  0  0  0  0  0  0  0  0  0  0
   11.5618    6.4163  -59.0588 H   0  0  0  0  0  0  0  0  0  0  0  0
   12.3281    6.0240  -60.6650 H   0  0  0  0  0  0  0  0  0  0  0  0
    9.9866    4.9817  -59.9078 H   0  0  0  0  0  0  0  0  0  0  0  0
   11.2308    4.0744  -60.8970 H   0  0  0  0  0  0  0  0  0  0  0  0
    7.1113    2.0050  -57.9612 H   0  0  0  0  0  0  0  0  0  0  0  0
    4.7253    1.5316  -58.4956 H   0  0  0  0  0  0  0  0  0  0  0  0
    3.0180    1.4630  -60.6060 H   0  0  0  0  0  0  0  0  0  0  0  0
  1  2  1  0
  2  3  2  0
  3  4  1  0
  4  5  1  0
  5  6  1  0
  6  7  2  0
  7  8  1  0
  8  9  1  0
  9 10  1  0
 10 11  1  0
 11 12  1  0
 12 13  1  0
 12 14  1  0
 14 15  1  0
  6 16  1  0
 16 17  2  0
 17 18  1  0
 18 19  1  0
 19  2  1  0
 18  4  2  0
 15  9  1  0
  1 20  1  0
  1 21  1  0
  3 22  1  0
  5 23  1  0
  8 24  1  0
  8 25  1  0
  9 26  1  1
 10 27  1  0
 10 28  1  0
 11 29  1  0
 11 30  1  0
 12 31  1  6
 13 32  1  0
 14 33  1  0
 14 34  1  0
 15 35  1  0
 15 36  1  0
 16 37  1  0
 17 38  1  0
 19 39  1  0
M  END
>  <meeko>  (118) 
{"is_sidechain": false}

$$$$

     RDKit          3D

 39 41  0  0  0  0  0  0  0  0999 V2000
   13.4350    6.5480  -59.8030 N   0  0  0  0  0  0  0  0  0  0  0  0
   12.4740    5.6870  -59.4290 C   0  0  0  0  0  0  0  0  0  0  0  0
   11.1390    5.6140  -59.7780 C   0  0  0  0  0  0  0  0  0  0  0  0
   10.6090    4.5100  -59.0880 C   0  0  0  0  0  0  0  0  0  0  0  0
    9.3650    3.9940  -59.0640 N   0  0  0  0  0  0  0  0  0  0  0  0
    9.1420    2.8750  -58.2630 C   0  0  0  0  0  0  0  0  0  0  0  0
    8.0110    2.2590  -58.1110 N   0  0  0  0  0  0  0  0  0  0  0  0
    6.8170    2.7020  -58.8250 C   0  0  0  0  0  0  0  0  0  0  0  0
    6.6930    1.9790  -60.1790 C   0  0  2  0  0  0  0  0  0  0  0  0
    6.7520    2.9840  -61.3490 C   0  0  0  0  0  0  0  0  0  0  0  0
    6.0580    2.4390  -62.5890 C   0  0  0  0  0  0  0  0  0  0  0  0
    4.5660    2.2080  -62.3340 C   0  0  1  0  0  0  0  0  0  0  0  0
    4.0940    1.1970  -63.2230 O   0  0  0  0  0  0  0  0  0  0  0  0
    4.2480    1.8150  -60.8860 C   0  0  0  0  0  0  0  0  0  0  0  0
    5.4240    1.1020  -60.2220 C   0  0  0  0  0  0  0  0  0  0  0  0
   10.2800    2.2660  -57.4560 C   0  0  0  0  0  0  0  0  0  0  0  0
   11.5060    2.8140  -57.5150 C   0  0  0  0  0  0  0  0  0  0  0  0
   11.6130    3.9400  -58.3500 C   0  0  0  0  0  0  0  0  0  0  0  0
   12.7560    4.6540  -58.5610 N   0  0  0  0  0  0  0  0  0  0  0  0
   14.2680    6.6570  -59.2280 H   0  0  0  0  0  0  0  0  0  0  0  0
   13.5940    6.7970  -60.7760 H   0  0  0  0  0  0  0  0  0  0  0  0
   10.5983    6.2864  -60.4603 H   0  0  0  0  0  0  0  0  0  0  0  0
    8.6000    4.3970  -59.5800 H   0  0  0  0  0  0  0  0  0  0  0  0
    5.9287    2.4811  -58.2150 H   0  0  0  0  0  0  0  0  0  0  0  0
    6.8951    3.7839  -59.0076 H   0  0  0  0  0  0  0  0  0  0  0  0
    7.5536    1.3035  -60.2932 H   0  0  0  0  0  0  0  0  0  0  0  0
    6.2567    3.9174  -61.0435 H   0  0  0  0  0  0  0  0  0  0  0  0
    7.8087    3.1637  -61.5962 H   0  0  0  0  0  0  0  0  0  0  0  0
    6.1737    3.1608  -63.4110 H   0  0  0  0  0  0  0  0  0  0  0  0
    6.5193    1.4752  -62.8503 H   0  0  0  0  0  0  0  0  0  0  0  0
    4.0535    3.1643  -62.5154 H   0  0  0  0  0  0  0  0  0  0  0  0
    3.2480    1.4990  -63.5960 H   0  0  0  0  0  0  0  0  0  0  0  0
    4.0133    2.7244  -60.3133 H   0  0  0  0  0  0  0  0  0  0  0  0
    3.3918    1.1246  -60.8987 H   0  0  0  0  0  0  0  0  0  0  0  0
    5.1416    0.8379  -59.1922 H   0  0  0  0  0  0  0  0  0  0  0  0
    5.6542    0.2066  -60.8180 H   0  0  0  0  0  0  0  0  0  0  0  0
   10.0999    1.3815  -56.8274 H   0  0  0  0  0  0  0  0  0  0  0  0
   12.3613    2.4117  -56.9523 H   0  0  0  0  0  0  0  0  0  0  0  0
   13.6640    4.4620  -58.1640 H   0  0  0  0  0  0  0  0  0  0  0  0
  1  2  1  0
  2  3  2  0
  3  4  1  0
  4  5  1  0
  5  6  1  0
  6  7  2  0
  7  8  1  0
  8  9  1  0
  9 10  1  0
 10 11  1  0
 11 12  1  0
 12 13  1  0
 12 14  1  0
 14 15  1  0
  6 16  1  0
 16 17  2  0
 17 18  1  0
 18 19  1  0
 19  2  1  0
 18  4  2  0
 15  9  1  0
  1 20  1  0
  1 21  1  0
  3 22  1  0
  5 23  1  0
  8 24  1  0
  8 25  1  0
  9 26  1  1
 10 27  1  0
 10 28  1  0
 11 29  1  0
 11 30  1  0
 12 31  1  1
 13 32  1  0
 14 33  1  0
 14 34  1  0
 15 35  1  0
 15 36  1  0
 16 37  1  0
 17 38  1  0
 19 39  1  0
M  END
>  <meeko>  (119) 
{"is_sidechain": false}

$$$$

     RDKit          3D

 39 41  0  0  0  0  0  0  0  0999 V2000
    3.1510    1.7460  -61.3790 N   0  0  0  0  0  0  0  0  0  0  0  0
    4.3900    1.9220  -61.0860 C   0  0  0  0  0  0  0  0  0  0  0  0
    4.9940    1.7370  -59.7370 C   0  0  0  0  0  0  0  0  0  0  0  0
    6.2950    2.0170  -59.9270 C   0  0  0  0  0  0  0  0  0  0  0  0
    7.3600    2.0230  -59.0620 N   0  0  0  0  0  0  0  0  0  0  0  0
    8.6640    2.2780  -59.4570 C   0  0  0  0  0  0  0  0  0  0  0  0
    9.6550    2.2130  -58.5000 N   0  0  0  0  0  0  0  0  0  0  0  0
    9.6690    2.9410  -57.2390 C   0  0  0  0  0  0  0  0  0  0  0  0
   10.7950    3.9940  -57.2370 C   0  0  2  0  0  0  0  0  0  0  0  0
   10.3480    5.2820  -57.9600 C   0  0  0  0  0  0  0  0  0  0  0  0
   10.8140    5.3230  -59.4140 C   0  0  0  0  0  0  0  0  0  0  0  0
   12.3430    5.2780  -59.5160 C   0  0  1  0  0  0  0  0  0  0  0  0
   12.8660    6.6060  -59.5180 O   0  0  0  0  0  0  0  0  0  0  0  0
   13.0030    4.5180  -58.3630 C   0  0  0  0  0  0  0  0  0  0  0  0
   12.0990    3.4150  -57.8300 C   0  0  0  0  0  0  0  0  0  0  0  0
    8.8940    2.5780  -60.7620 C   0  0  0  0  0  0  0  0  0  0  0  0
    7.8070    2.6320  -61.7340 C   0  0  0  0  0  0  0  0  0  0  0  0
    6.5590    2.3610  -61.3330 C   0  0  0  0  0  0  0  0  0  0  0  0
    5.3610    2.3010  -61.9650 N   0  0  0  0  0  0  0  0  0  0  0  0
    2.6270    1.4610  -60.5460 H   0  0  0  0  0  0  0  0  0  0  0  0
    4.4928    1.4406  -58.8038 H   0  0  0  0  0  0  0  0  0  0  0  0
    7.2250    1.6500  -58.1350 H   0  0  0  0  0  0  0  0  0  0  0  0
   10.0240    1.2710  -58.4260 H   0  0  0  0  0  0  0  0  0  0  0  0
    8.7012    3.4454  -57.1013 H   0  0  0  0  0  0  0  0  0  0  0  0
    9.8454    2.2294  -56.4189 H   0  0  0  0  0  0  0  0  0  0  0  0
   11.0103    4.2668  -56.1933 H   0  0  0  0  0  0  0  0  0  0  0  0
    9.2495    5.3362  -57.9391 H   0  0  0  0  0  0  0  0  0  0  0  0
   10.8028    6.1362  -57.4370 H   0  0  0  0  0  0  0  0  0  0  0  0
   10.3946    4.4577  -59.9482 H   0  0  0  0  0  0  0  0  0  0  0  0
   10.4661    6.2658  -59.8612 H   0  0  0  0  0  0  0  0  0  0  0  0
   12.5715    4.7480  -60.4524 H   0  0  0  0  0  0  0  0  0  0  0  0
   12.5050    7.0650  -58.7410 H   0  0  0  0  0  0  0  0  0  0  0  0
   13.9409    4.0690  -58.7217 H   0  0  0  0  0  0  0  0  0  0  0  0
   13.1959    5.2298  -57.5469 H   0  0  0  0  0  0  0  0  0  0  0  0
   11.8453    2.7309  -58.6532 H   0  0  0  0  0  0  0  0  0  0  0  0
   12.6362    2.8819  -57.0317 H   0  0  0  0  0  0  0  0  0  0  0  0
    9.9224    2.7848  -61.0932 H   0  0  0  0  0  0  0  0  0  0  0  0
    8.0106    2.8922  -62.7832 H   0  0  0  0  0  0  0  0  0  0  0  0
    5.2150    2.4440  -62.9490 H   0  0  0  0  0  0  0  0  0  0  0  0
  1  2  2  3
  2  3  1  0
  3  4  2  0
  4  5  1  0
  5  6  1  0
  6  7  1  0
  7  8  1  0
  8  9  1  0
  9 10  1  0
 10 11  1  0
 11 12  1  0
 12 13  1  0
 12 14  1  0
 14 15  1  0
  6 16  2  0
 16 17  1  0
 17 18  2  0
 18 19  1  0
 19  2  1  0
 18  4  1  0
 15  9  1  0
  1 20  1  0
  3 21  1  0
  5 22  1  0
  7 23  1  0
  8 24  1  0
  8 25  1  0
  9 26  1  6
 10 27  1  0
 10 28  1  0
 11 29  1  0
 11 30  1  0
 12 31  1  1
 13 32  1  0
 14 33  1  0
 14 34  1  0
 15 35  1  0
 15 36  1  0
 16 37  1  0
 17 38  1  0
 19 39  1  0
M  END
>  <meeko>  (120) 
{"is_sidechain": false}

$$$$

     RDKit          3D

 39 41  0  0  0  0  0  0  0  0999 V2000
    2.5730    1.8950  -62.8440 N   0  0  0  0  0  0  0  0  0  0  0  0
    3.3890    1.9800  -61.7580 C   0  0  0  0  0  0  0  0  0  0  0  0
    4.8580    1.8390  -61.8230 C   0  0  0  0  0  0  0  0  0  0  0  0
    5.2070    1.9980  -60.5490 C   0  0  0  0  0  0  0  0  0  0  0  0
    6.4160    1.9810  -59.9030 N   0  0  0  0  0  0  0  0  0  0  0  0
    6.5520    2.2150  -58.5420 C   0  0  0  0  0  0  0  0  0  0  0  0
    7.8200    2.1980  -58.0020 N   0  0  0  0  0  0  0  0  0  0  0  0
    8.8500    3.2150  -58.1300 C   0  0  0  0  0  0  0  0  0  0  0  0
   10.1200    2.6740  -58.8200 C   0  0  2  0  0  0  0  0  0  0  0  0
   11.3900    3.1220  -58.0600 C   0  0  0  0  0  0  0  0  0  0  0  0
   12.1980    4.2110  -58.7670 C   0  0  0  0  0  0  0  0  0  0  0  0
   11.3010    5.2210  -59.4730 C   0  0  1  0  0  0  0  0  0  0  0  0
   12.0930    6.2230  -60.1000 O   0  0  0  0  0  0  0  0  0  0  0  0
   10.4170    4.5590  -60.5330 C   0  0  0  0  0  0  0  0  0  0  0  0
   10.2110    3.0610  -60.3050 C   0  0  0  0  0  0  0  0  0  0  0  0
    5.4270    2.4520  -57.8170 C   0  0  0  0  0  0  0  0  0  0  0  0
    4.1070    2.4560  -58.4430 C   0  0  0  0  0  0  0  0  0  0  0  0
    4.0170    2.2380  -59.7590 C   0  0  0  0  0  0  0  0  0  0  0  0
    2.9120    2.2110  -60.5620 N   0  0  0  0  0  0  0  0  0  0  0  0
    1.6440    2.2560  -62.6460 H   0  0  0  0  0  0  0  0  0  0  0  0
    2.9520    2.2340  -63.7180 H   0  0  0  0  0  0  0  0  0  0  0  0
    5.4976    1.6512  -62.6980 H   0  0  0  0  0  0  0  0  0  0  0  0
    7.2560    1.9120  -60.4530 H   0  0  0  0  0  0  0  0  0  0  0  0
    7.8590    1.6770  -57.1320 H   0  0  0  0  0  0  0  0  0  0  0  0
    8.4516    4.0499  -58.7252 H   0  0  0  0  0  0  0  0  0  0  0  0
    9.1289    3.5428  -57.1177 H   0  0  0  0  0  0  0  0  0  0  0  0
   10.0492    1.5768  -58.7863 H   0  0  0  0  0  0  0  0  0  0  0  0
   11.0845    3.5050  -57.0751 H   0  0  0  0  0  0  0  0  0  0  0  0
   12.0435    2.2397  -57.9931 H   0  0  0  0  0  0  0  0  0  0  0  0
   12.8097    4.7398  -58.0212 H   0  0  0  0  0  0  0  0  0  0  0  0
   12.8279    3.7265  -59.5276 H   0  0  0  0  0  0  0  0  0  0  0  0
   10.6513    5.6683  -58.7063 H   0  0  0  0  0  0  0  0  0  0  0  0
   11.6850    7.0860  -59.9130 H   0  0  0  0  0  0  0  0  0  0  0  0
    9.4334    5.0514  -60.5233 H   0  0  0  0  0  0  0  0  0  0  0  0
   10.9300    4.6721  -61.4994 H   0  0  0  0  0  0  0  0  0  0  0  0
    9.2773    2.7583  -60.8016 H   0  0  0  0  0  0  0  0  0  0  0  0
   11.0900    2.5464  -60.7204 H   0  0  0  0  0  0  0  0  0  0  0  0
    5.5121    2.6446  -56.7374 H   0  0  0  0  0  0  0  0  0  0  0  0
    3.2031    2.6352  -57.8422 H   0  0  0  0  0  0  0  0  0  0  0  0
  1  2  1  0
  2  3  1  0
  3  4  2  0
  4  5  1  0
  5  6  1  0
  6  7  1  0
  7  8  1  0
  8  9  1  0
  9 10  1  0
 10 11  1  0
 11 12  1  0
 12 13  1  0
 12 14  1  0
 14 15  1  0
  6 16  2  0
 16 17  1  0
 17 18  2  0
 18 19  1  0
 19  2  2  0
 18  4  1  0
 15  9  1  0
  1 20  1  0
  1 21  1  0
  3 22  1  0
  5 23  1  0
  7 24  1  0
  8 25  1  0
  8 26  1  0
  9 27  1  1
 10 28  1  0
 10 29  1  0
 11 30  1  0
 11 31  1  0
 12 32  1  6
 13 33  1  0
 14 34  1  0
 14 35  1  0
 15 36  1  0
 15 37  1  0
 16 38  1  0
 17 39  1  0
M  END
>  <meeko>  (121) 
{"is_sidechain": false}

$$$$

     RDKit          3D

 60 65  0  0  0  0  0  0  0  0999 V2000
    5.6400    0.0190  -53.2890 C   0  0  0  0  0  0  0  0  0  0  0  0
    6.0620   -0.4570  -54.5620 O   0  0  0  0  0  0  0  0  0  0  0  0
    7.3180   -0.1000  -54.9760 C   0  0  0  0  0  0  0  0  0  0  0  0
    7.6460    1.1310  -55.5520 C   0  0  0  0  0  0  0  0  0  0  0  0
    8.9620    1.3910  -55.9490 C   0  0  0  0  0  0  0  0  0  0  0  0
    9.3300    2.7510  -56.5950 C   0  0  0  0  0  0  0  0  0  0  0  0
    9.0640    3.3630  -57.7740 C   0  0  0  0  0  0  0  0  0  0  0  0
    8.3380    3.0950  -59.0980 C   0  0  0  0  0  0  0  0  0  0  0  0
    9.0250    3.1780  -60.3040 C   0  0  0  0  0  0  0  0  0  0  0  0
    8.5000    2.9410  -61.5310 N   0  0  0  0  0  0  0  0  0  0  0  0
    7.1920    2.6270  -61.4830 C   0  0  0  0  0  0  0  0  0  0  0  0
    6.4250    2.3510  -62.5790 N   0  0  0  0  0  0  0  0  0  0  0  0
    5.1310    2.0700  -62.2050 C   0  0  0  0  0  0  0  0  0  0  0  0
    4.0160    1.7360  -62.9830 C   0  0  0  0  0  0  0  0  0  0  0  0
    2.8090    1.5020  -62.3180 C   0  0  0  0  0  0  0  0  0  0  0  0
    2.7210    1.6000  -60.9310 C   0  0  0  0  0  0  0  0  0  0  0  0
    3.8450    1.9360  -60.1660 C   0  0  0  0  0  0  0  0  0  0  0  0
    5.0750    2.1750  -60.8110 C   0  0  0  0  0  0  0  0  0  0  0  0
    6.3840    2.5270  -60.3560 C   0  0  0  0  0  0  0  0  0  0  0  0
    6.9810    2.7740  -59.1070 C   0  0  0  0  0  0  0  0  0  0  0  0
    9.7830    4.5870  -57.4010 C   0  0  0  0  0  0  0  0  0  0  0  0
    9.9670    5.6620  -57.9320 O   0  0  0  0  0  0  0  0  0  0  0  0
   10.1830    3.9140  -56.0820 C   0  0  0  0  0  0  0  0  0  0  0  0
    9.9680    0.4500  -55.7560 C   0  0  0  0  0  0  0  0  0  0  0  0
    9.6450   -0.7810  -55.1930 C   0  0  0  0  0  0  0  0  0  0  0  0
   10.6610   -1.6830  -55.0100 O   0  0  0  0  0  0  0  0  0  0  0  0
   11.5340   -1.7260  -56.1470 C   0  0  0  0  0  0  0  0  0  0  0  0
   11.6500   -3.1400  -56.6680 C   0  0  0  0  0  0  0  0  0  0  0  0
   11.5250   -4.2300  -55.7940 C   0  0  0  0  0  0  0  0  0  0  0  0
   11.6490   -5.5360  -56.2680 C   0  0  0  0  0  0  0  0  0  0  0  0
   11.9050   -5.7660  -57.6180 C   0  0  0  0  0  0  0  0  0  0  0  0
   12.0380   -4.6900  -58.4960 C   0  0  0  0  0  0  0  0  0  0  0  0
   11.9120   -3.3830  -58.0240 C   0  0  0  0  0  0  0  0  0  0  0  0
    8.3360   -1.0460  -54.7730 C   0  0  0  0  0  0  0  0  0  0  0  0
    8.0430   -2.2710  -54.2200 O   0  0  0  0  0  0  0  0  0  0  0  0
    8.4190   -2.2790  -52.8430 C   0  0  0  0  0  0  0  0  0  0  0  0
    6.1467   -0.5525  -52.4974 H   0  0  0  0  0  0  0  0  0  0  0  0
    5.8956    1.0846  -53.1928 H   0  0  0  0  0  0  0  0  0  0  0  0
    4.5515   -0.1071  -53.1928 H   0  0  0  0  0  0  0  0  0  0  0  0
    6.8683    1.8960  -55.6932 H   0  0  0  0  0  0  0  0  0  0  0  0
   10.0871    3.4606  -60.2584 H   0  0  0  0  0  0  0  0  0  0  0  0
    6.7770    2.3620  -63.5230 H   0  0  0  0  0  0  0  0  0  0  0  0
    4.0872    1.6604  -64.0781 H   0  0  0  0  0  0  0  0  0  0  0  0
    1.9138    1.2361  -62.8994 H   0  0  0  0  0  0  0  0  0  0  0  0
    1.7591    1.4116  -60.4318 H   0  0  0  0  0  0  0  0  0  0  0  0
    3.7684    2.0127  -59.0714 H   0  0  0  0  0  0  0  0  0  0  0  0
    6.4007    2.7163  -58.1743 H   0  0  0  0  0  0  0  0  0  0  0  0
   11.2557    3.6978  -55.9699 H   0  0  0  0  0  0  0  0  0  0  0  0
   10.0412    4.3808  -55.0961 H   0  0  0  0  0  0  0  0  0  0  0  0
   11.0052    0.6759  -56.0446 H   0  0  0  0  0  0  0  0  0  0  0  0
   11.1292   -1.0796  -56.9396 H   0  0  0  0  0  0  0  0  0  0  0  0
   12.5313   -1.3737  -55.8451 H   0  0  0  0  0  0  0  0  0  0  0  0
   11.3276   -4.0535  -54.7263 H   0  0  0  0  0  0  0  0  0  0  0  0
   11.5446   -6.3845  -55.5758 H   0  0  0  0  0  0  0  0  0  0  0  0
   12.0023   -6.7960  -57.9916 H   0  0  0  0  0  0  0  0  0  0  0  0
   12.2424   -4.8722  -59.5614 H   0  0  0  0  0  0  0  0  0  0  0  0
   12.0189   -2.5379  -58.7200 H   0  0  0  0  0  0  0  0  0  0  0  0
    7.5154   -2.2598  -52.2160 H   0  0  0  0  0  0  0  0  0  0  0  0
    8.9966   -3.1896  -52.6259 H   0  0  0  0  0  0  0  0  0  0  0  0
    9.0348   -1.3938  -52.6259 H   0  0  0  0  0  0  0  0  0  0  0  0
  1  2  1  0
  2  3  1  0
  3  4  2  0
  4  5  1  0
  5  6  1  0
  6  7  2  0
  7  8  1  0
  8  9  1  0
  9 10  2  0
 10 11  1  0
 11 12  1  0
 12 13  1  0
 13 14  2  0
 14 15  1  0
 15 16  2  0
 16 17  1  0
 17 18  2  0
 18 19  1  0
 19 20  1  0
  7 21  1  0
 21 22  2  0
 21 23  1  0
  5 24  2  0
 24 25  1  0
 25 26  1  0
 26 27  1  0
 27 28  1  0
 28 29  2  0
 29 30  1  0
 30 31  2  0
 31 32  1  0
 32 33  2  0
 25 34  2  0
 34 35  1  0
 35 36  1  0
 34  3  1  0
 23  6  1  0
 33 28  1  0
 20  8  2  0
 19 11  2  0
 18 13  1  0
  1 37  1  0
  1 38  1  0
  1 39  1  0
  4 40  1  0
  9 41  1  0
 12 42  1  0
 14 43  1  0
 15 44  1  0
 16 45  1  0
 17 46  1  0
 20 47  1  0
 23 48  1  0
 23 49  1  0
 24 50  1  0
 27 51  1  0
 27 52  1  0
 29 53  1  0
 30 54  1  0
 31 55  1  0
 32 56  1  0
 33 57  1  0
 36 58  1  0
 36 59  1  0
 36 60  1  0
M  END
>  <meeko>  (122) 
{"is_sidechain": false}

$$$$

     RDKit          3D

 60 65  0  0  0  0  0  0  0  0999 V2000
    5.6590    0.0760  -53.3050 C   0  0  0  0  0  0  0  0  0  0  0  0
    6.0760   -0.3890  -54.5830 O   0  0  0  0  0  0  0  0  0  0  0  0
    7.3380   -0.0500  -54.9980 C   0  0  0  0  0  0  0  0  0  0  0  0
    7.6850    1.1790  -55.5650 C   0  0  0  0  0  0  0  0  0  0  0  0
    9.0070    1.4210  -55.9430 C   0  0  0  0  0  0  0  0  0  0  0  0
    9.3870    2.7790  -56.5770 C   0  0  0  0  0  0  0  0  0  0  0  0
    9.1800    3.3790  -57.7740 C   0  0  0  0  0  0  0  0  0  0  0  0
    8.4390    3.1150  -59.1220 C   0  0  0  0  0  0  0  0  0  0  0  0
    9.1100    3.2050  -60.2970 C   0  0  0  0  0  0  0  0  0  0  0  0
    8.5290    2.9600  -61.5240 N   0  0  0  0  0  0  0  0  0  0  0  0
    7.2100    2.6150  -61.6130 C   0  0  0  0  0  0  0  0  0  0  0  0
    6.4990    2.3440  -62.6770 N   0  0  0  0  0  0  0  0  0  0  0  0
    5.1910    2.0690  -62.1910 C   0  0  0  0  0  0  0  0  0  0  0  0
    4.0940    1.7350  -62.9630 C   0  0  0  0  0  0  0  0  0  0  0  0
    2.8750    1.4990  -62.3170 C   0  0  0  0  0  0  0  0  0  0  0  0
    2.7670    1.6000  -60.9170 C   0  0  0  0  0  0  0  0  0  0  0  0
    3.8750    1.9380  -60.1360 C   0  0  0  0  0  0  0  0  0  0  0  0
    5.0690    2.1660  -60.7910 C   0  0  0  0  0  0  0  0  0  0  0  0
    6.3970    2.5200  -60.3600 C   0  0  0  0  0  0  0  0  0  0  0  0
    7.0030    2.7740  -59.1920 C   0  0  0  0  0  0  0  0  0  0  0  0
    9.9780    4.5580  -57.4130 C   0  0  0  0  0  0  0  0  0  0  0  0
   10.3240    5.5680  -57.9940 O   0  0  0  0  0  0  0  0  0  0  0  0
   10.1660    3.9670  -56.0120 C   0  0  0  0  0  0  0  0  0  0  0  0
    9.9910    0.4500  -55.7890 C   0  0  0  0  0  0  0  0  0  0  0  0
    9.6610   -0.7740  -55.2090 C   0  0  0  0  0  0  0  0  0  0  0  0
   10.6980   -1.6620  -55.0940 O   0  0  0  0  0  0  0  0  0  0  0  0
   11.5700   -1.6900  -56.2280 C   0  0  0  0  0  0  0  0  0  0  0  0
   11.6350   -3.1150  -56.7220 C   0  0  0  0  0  0  0  0  0  0  0  0
   11.9400   -3.3900  -58.0620 C   0  0  0  0  0  0  0  0  0  0  0  0
   12.0170   -4.7080  -58.5130 C   0  0  0  0  0  0  0  0  0  0  0  0
   11.7970   -5.7630  -57.6290 C   0  0  0  0  0  0  0  0  0  0  0  0
   11.5060   -5.5010  -56.2920 C   0  0  0  0  0  0  0  0  0  0  0  0
   11.4300   -4.1840  -55.8380 C   0  0  0  0  0  0  0  0  0  0  0  0
    8.3310   -1.0380  -54.8490 C   0  0  0  0  0  0  0  0  0  0  0  0
    7.9930   -2.2580  -54.3120 O   0  0  0  0  0  0  0  0  0  0  0  0
    8.3920   -2.3070  -52.9410 C   0  0  0  0  0  0  0  0  0  0  0  0
    6.1736   -0.4978  -52.5202 H   0  0  0  0  0  0  0  0  0  0  0  0
    5.9091    1.1423  -53.2033 H   0  0  0  0  0  0  0  0  0  0  0  0
    4.5718   -0.0569  -53.2033 H   0  0  0  0  0  0  0  0  0  0  0  0
    6.9185    1.9539  -55.7132 H   0  0  0  0  0  0  0  0  0  0  0  0
   10.1726    3.4880  -60.2704 H   0  0  0  0  0  0  0  0  0  0  0  0
    9.0780    3.0320  -62.3690 H   0  0  0  0  0  0  0  0  0  0  0  0
    4.1770    1.6567  -64.0571 H   0  0  0  0  0  0  0  0  0  0  0  0
    1.9891    1.2309  -62.9114 H   0  0  0  0  0  0  0  0  0  0  0  0
    1.7981    1.4104  -60.4319 H   0  0  0  0  0  0  0  0  0  0  0  0
    3.7991    2.0193  -59.0416 H   0  0  0  0  0  0  0  0  0  0  0  0
    6.4168    2.7275  -58.2624 H   0  0  0  0  0  0  0  0  0  0  0  0
   11.2067    3.7548  -55.7259 H   0  0  0  0  0  0  0  0  0  0  0  0
    9.8830    4.4938  -55.0887 H   0  0  0  0  0  0  0  0  0  0  0  0
   11.0208    0.6463  -56.1220 H   0  0  0  0  0  0  0  0  0  0  0  0
   11.1756   -1.0365  -57.0201 H   0  0  0  0  0  0  0  0  0  0  0  0
   12.5727   -1.3319  -55.9518 H   0  0  0  0  0  0  0  0  0  0  0  0
   12.1198   -2.5613  -58.7627 H   0  0  0  0  0  0  0  0  0  0  0  0
   12.2516   -4.9149  -59.5676 H   0  0  0  0  0  0  0  0  0  0  0  0
   11.8531   -6.8017  -57.9868 H   0  0  0  0  0  0  0  0  0  0  0  0
   11.3360   -6.3335  -55.5935 H   0  0  0  0  0  0  0  0  0  0  0  0
   11.2078   -3.9829  -54.7796 H   0  0  0  0  0  0  0  0  0  0  0  0
    7.5066   -2.1983  -52.2973 H   0  0  0  0  0  0  0  0  0  0  0  0
    8.8788   -3.2717  -52.7350 H   0  0  0  0  0  0  0  0  0  0  0  0
    9.0978   -1.4888  -52.7350 H   0  0  0  0  0  0  0  0  0  0  0  0
  1  2  1  0
  2  3  1  0
  3  4  2  0
  4  5  1  0
  5  6  1  0
  6  7  2  0
  7  8  1  0
  8  9  2  0
  9 10  1  0
 10 11  1  0
 11 12  2  0
 12 13  1  0
 13 14  2  0
 14 15  1  0
 15 16  2  0
 16 17  1  0
 17 18  2  0
 18 19  1  0
 19 20  2  0
  7 21  1  0
 21 22  2  0
 21 23  1  0
  5 24  2  0
 24 25  1  0
 25 26  1  0
 26 27  1  0
 27 28  1  0
 28 29  2  0
 29 30  1  0
 30 31  2  0
 31 32  1  0
 32 33  2  0
 25 34  2  0
 34 35  1  0
 35 36  1  0
 34  3  1  0
 23  6  1  0
 33 28  1  0
 20  8  1  0
 19 11  1  0
 18 13  1  0
  1 37  1  0
  1 38  1  0
  1 39  1  0
  4 40  1  0
  9 41  1  0
 10 42  1  0
 14 43  1  0
 15 44  1  0
 16 45  1  0
 17 46  1  0
 20 47  1  0
 23 48  1  0
 23 49  1  0
 24 50  1  0
 27 51  1  0
 27 52  1  0
 29 53  1  0
 30 54  1  0
 31 55  1  0
 32 56  1  0
 33 57  1  0
 36 58  1  0
 36 59  1  0
 36 60  1  0
M  END
>  <meeko>  (123) 
{"is_sidechain": false}

$$$$

     RDKit          3D

 40 43  0  0  0  0  0  0  0  0999 V2000
    8.8820    4.6730  -56.7550 C   0  0  0  0  0  0  0  0  0  0  0  0
    9.2340    3.3210  -57.2080 N   0  0  0  0  0  0  0  0  0  0  0  0
    9.4820    3.2880  -58.6070 C   0  0  0  0  0  0  0  0  0  0  0  0
    9.2170    2.1500  -59.3830 C   0  0  0  0  0  0  0  0  0  0  0  0
    9.4670    2.1470  -60.7580 C   0  0  0  0  0  0  0  0  0  0  0  0
    9.9850    3.2820  -61.3760 C   0  0  0  0  0  0  0  0  0  0  0  0
   10.2540    4.4210  -60.6210 C   0  0  0  0  0  0  0  0  0  0  0  0
   10.0010    4.4230  -59.2470 C   0  0  0  0  0  0  0  0  0  0  0  0
    8.5450    2.3040  -56.4780 C   0  0  0  0  0  0  0  0  0  0  0  0
    7.1940    2.0710  -56.7860 C   0  0  0  0  0  0  0  0  0  0  0  0
    6.4560    1.0860  -56.1280 C   0  0  0  0  0  0  0  0  0  0  0  0
    7.1560    0.3590  -55.1750 C   0  0  0  0  0  0  0  0  0  0  0  0
    6.7780   -0.6660  -54.3450 N   0  0  0  0  0  0  0  0  0  0  0  0
    7.8360   -1.0830  -53.5620 C   0  0  0  0  0  0  0  0  0  0  0  0
    7.7250   -2.1540  -52.5710 C   0  0  0  0  0  0  0  0  0  0  0  0
    7.5000   -3.4820  -52.9610 C   0  0  0  0  0  0  0  0  0  0  0  0
    7.3920   -4.4970  -52.0050 C   0  0  0  0  0  0  0  0  0  0  0  0
    7.5090   -4.1950  -50.6500 C   0  0  0  0  0  0  0  0  0  0  0  0
    7.7380   -2.8810  -50.2490 C   0  0  0  0  0  0  0  0  0  0  0  0
    7.8470   -1.8670  -51.2050 C   0  0  0  0  0  0  0  0  0  0  0  0
    8.9140   -0.2800  -53.9080 C   0  0  0  0  0  0  0  0  0  0  0  0
    8.4940    0.6160  -54.9180 C   0  0  0  0  0  0  0  0  0  0  0  0
    9.2070    1.5700  -55.5560 N   0  0  0  0  0  0  0  0  0  0  0  0
    8.8747    4.7010  -55.6554 H   0  0  0  0  0  0  0  0  0  0  0  0
    9.6230    5.3916  -57.1352 H   0  0  0  0  0  0  0  0  0  0  0  0
    7.8847    4.9390  -57.1352 H   0  0  0  0  0  0  0  0  0  0  0  0
    8.8074    1.2488  -58.9034 H   0  0  0  0  0  0  0  0  0  0  0  0
    9.2542    1.2465  -61.3529 H   0  0  0  0  0  0  0  0  0  0  0  0
   10.1814    3.2791  -62.4583 H   0  0  0  0  0  0  0  0  0  0  0  0
   10.6654    5.3184  -61.1062 H   0  0  0  0  0  0  0  0  0  0  0  0
   10.2119    5.3281  -58.6585 H   0  0  0  0  0  0  0  0  0  0  0  0
    6.7071    2.6785  -57.5631 H   0  0  0  0  0  0  0  0  0  0  0  0
    5.3948    0.8990  -56.3490 H   0  0  0  0  0  0  0  0  0  0  0  0
    5.8450   -1.0490  -54.2980 H   0  0  0  0  0  0  0  0  0  0  0  0
    7.4076   -3.7278  -54.0292 H   0  0  0  0  0  0  0  0  0  0  0  0
    7.2145   -5.5349  -52.3233 H   0  0  0  0  0  0  0  0  0  0  0  0
    7.4207   -4.9930  -49.8981 H   0  0  0  0  0  0  0  0  0  0  0  0
    7.8331   -2.6411  -49.1797 H   0  0  0  0  0  0  0  0  0  0  0  0
    8.0307   -0.8319  -50.8812 H   0  0  0  0  0  0  0  0  0  0  0  0
    9.9223   -0.3318  -53.4713 H   0  0  0  0  0  0  0  0  0  0  0  0
  1  2  1  0
  2  3  1  0
  3  4  2  0
  4  5  1  0
  5  6  2  0
  6  7  1  0
  7  8  2  0
  2  9  1  0
  9 10  1  0
 10 11  2  0
 11 12  1  0
 12 13  1  0
 13 14  1  0
 14 15  1  0
 15 16  2  0
 16 17  1  0
 17 18  2  0
 18 19  1  0
 19 20  2  0
 14 21  2  0
 21 22  1  0
 22 23  1  0
  8  3  1  0
 23  9  2  0
 22 12  2  0
 20 15  1  0
  1 24  1  0
  1 25  1  0
  1 26  1  0
  4 27  1  0
  5 28  1  0
  6 29  1  0
  7 30  1  0
  8 31  1  0
 10 32  1  0
 11 33  1  0
 13 34  1  0
 16 35  1  0
 17 36  1  0
 18 37  1  0
 19 38  1  0
 20 39  1  0
 21 40  1  0
M  END
>  <meeko>  (124) 
{"is_sidechain": false}

$$$$

     RDKit          3D

 40 43  0  0  0  0  0  0  0  0999 V2000
   10.0260    4.1010  -56.4020 C   0  0  0  0  0  0  0  0  0  0  0  0
    9.1560    3.1970  -57.1590 N   0  0  0  0  0  0  0  0  0  0  0  0
    9.3130    3.2250  -58.5720 C   0  0  0  0  0  0  0  0  0  0  0  0
    9.9920    4.2960  -59.1870 C   0  0  0  0  0  0  0  0  0  0  0  0
   10.1720    4.3540  -60.5720 C   0  0  0  0  0  0  0  0  0  0  0  0
    9.6800    3.3350  -61.3800 C   0  0  0  0  0  0  0  0  0  0  0  0
    9.0090    2.2630  -60.8020 C   0  0  0  0  0  0  0  0  0  0  0  0
    8.8310    2.2090  -59.4140 C   0  0  0  0  0  0  0  0  0  0  0  0
    8.4280    2.2040  -56.4880 C   0  0  0  0  0  0  0  0  0  0  0  0
    7.1140    1.9560  -56.7530 C   0  0  0  0  0  0  0  0  0  0  0  0
    6.3720    0.9170  -56.0460 C   0  0  0  0  0  0  0  0  0  0  0  0
    7.0030    0.2010  -55.1080 C   0  0  0  0  0  0  0  0  0  0  0  0
    6.5190   -0.7900  -54.3030 N   0  0  0  0  0  0  0  0  0  0  0  0
    7.5380   -1.1150  -53.5440 C   0  0  0  0  0  0  0  0  0  0  0  0
    7.4710   -2.1650  -52.5000 C   0  0  0  0  0  0  0  0  0  0  0  0
    7.7930   -1.8110  -51.1820 C   0  0  0  0  0  0  0  0  0  0  0  0
    7.7460   -2.7600  -50.1600 C   0  0  0  0  0  0  0  0  0  0  0  0
    7.3770   -4.0730  -50.4450 C   0  0  0  0  0  0  0  0  0  0  0  0
    7.0560   -4.4360  -51.7520 C   0  0  0  0  0  0  0  0  0  0  0  0
    7.1020   -3.4870  -52.7780 C   0  0  0  0  0  0  0  0  0  0  0  0
    8.7780   -0.3530  -53.8080 C   0  0  0  0  0  0  0  0  0  0  0  0
    8.3950    0.4480  -54.8010 C   0  0  0  0  0  0  0  0  0  0  0  0
    9.0540    1.4060  -55.5260 N   0  0  0  0  0  0  0  0  0  0  0  0
    9.8722    3.9412  -55.3246 H   0  0  0  0  0  0  0  0  0  0  0  0
   11.0766    3.8974  -56.6566 H   0  0  0  0  0  0  0  0  0  0  0  0
    9.7823    5.1430  -56.6566 H   0  0  0  0  0  0  0  0  0  0  0  0
   10.3908    5.1076  -58.5607 H   0  0  0  0  0  0  0  0  0  0  0  0
   10.7028    5.2056  -61.0226 H   0  0  0  0  0  0  0  0  0  0  0  0
    9.8208    3.3766  -62.4702 H   0  0  0  0  0  0  0  0  0  0  0  0
    8.6168    1.4549  -61.4370 H   0  0  0  0  0  0  0  0  0  0  0  0
    8.3017    1.3515  -58.9730 H   0  0  0  0  0  0  0  0  0  0  0  0
    6.5997    2.5544  -57.5194 H   0  0  0  0  0  0  0  0  0  0  0  0
    5.3142    0.7261  -56.2797 H   0  0  0  0  0  0  0  0  0  0  0  0
    8.0853   -0.7759  -50.9516 H   0  0  0  0  0  0  0  0  0  0  0  0
    8.0003   -2.4715  -49.1294 H   0  0  0  0  0  0  0  0  0  0  0  0
    7.3391   -4.8218  -49.6401 H   0  0  0  0  0  0  0  0  0  0  0  0
    6.7654   -5.4728  -51.9771 H   0  0  0  0  0  0  0  0  0  0  0  0
    6.8474   -3.7800  -53.8072 H   0  0  0  0  0  0  0  0  0  0  0  0
    9.7582   -0.4280  -53.3144 H   0  0  0  0  0  0  0  0  0  0  0  0
    9.9630    1.7120  -55.2170 H   0  0  0  0  0  0  0  0  0  0  0  0
  1  2  1  0
  2  3  1  0
  3  4  2  0
  4  5  1  0
  5  6  2  0
  6  7  1  0
  7  8  2  0
  2  9  1  0
  9 10  2  0
 10 11  1  0
 11 12  2  0
 12 13  1  0
 13 14  2  0
 14 15  1  0
 15 16  2  0
 16 17  1  0
 17 18  2  0
 18 19  1  0
 19 20  2  0
 14 21  1  0
 21 22  2  0
 22 23  1  0
  8  3  1  0
 23  9  1  0
 22 12  1  0
 20 15  1  0
  1 24  1  0
  1 25  1  0
  1 26  1  0
  4 27  1  0
  5 28  1  0
  6 29  1  0
  7 30  1  0
  8 31  1  0
 10 32  1  0
 11 33  1  0
 16 34  1  0
 17 35  1  0
 18 36  1  0
 19 37  1  0
 20 38  1  0
 21 39  1  0
 23 40  1  0
M  END
>  <meeko>  (125) 
{"is_sidechain": false}

$$$$

     RDKit          3D

 46 49  0  0  0  0  0  0  0  0999 V2000
    8.6590    2.2470  -58.6970 C   0  0  0  0  0  0  0  0  0  0  0  0
    8.6180    2.8800  -57.3580 N   0  0  0  0  0  0  0  0  0  0  0  0
    7.9960    1.9010  -56.5050 C   0  0  0  0  0  0  0  0  0  0  0  0
    6.6100    1.7250  -56.6320 C   0  0  0  0  0  0  0  0  0  0  0  0
    5.9330    0.7960  -55.8420 C   0  0  0  0  0  0  0  0  0  0  0  0
    6.7240    0.0880  -54.9460 C   0  0  0  0  0  0  0  0  0  0  0  0
    6.4190   -0.8900  -54.0300 N   0  0  0  0  0  0  0  0  0  0  0  0
    7.5510   -1.2940  -53.3500 C   0  0  0  0  0  0  0  0  0  0  0  0
    7.5330   -2.3330  -52.3190 C   0  0  0  0  0  0  0  0  0  0  0  0
    6.9960   -3.5980  -52.5990 C   0  0  0  0  0  0  0  0  0  0  0  0
    6.9720   -4.5950  -51.6220 C   0  0  0  0  0  0  0  0  0  0  0  0
    7.4860   -4.3410  -50.3530 C   0  0  0  0  0  0  0  0  0  0  0  0
    8.0270   -3.0910  -50.0610 C   0  0  0  0  0  0  0  0  0  0  0  0
    8.0510   -2.0930  -51.0390 C   0  0  0  0  0  0  0  0  0  0  0  0
    8.6050   -0.5590  -53.8700 C   0  0  0  0  0  0  0  0  0  0  0  0
    8.0920    0.3090  -54.8610 C   0  0  0  0  0  0  0  0  0  0  0  0
    8.7480    1.2140  -55.6250 N   0  0  0  0  0  0  0  0  0  0  0  0
    9.9450    3.3120  -56.8340 C   0  0  0  0  0  0  0  0  0  0  0  0
   11.0720    2.6140  -57.6340 C   0  0  0  0  0  0  0  0  0  0  0  0
   12.3290    3.4560  -57.7000 C   0  0  0  0  0  0  0  0  0  0  0  0
   12.0430    4.7270  -58.4340 N   0  0  0  0  0  0  0  0  0  0  0  0
   10.6590    5.2760  -58.2580 C   0  0  0  0  0  0  0  0  0  0  0  0
   10.1070    4.8510  -56.9150 C   0  0  0  0  0  0  0  0  0  0  0  0
    8.7297    1.1551  -58.5844 H   0  0  0  0  0  0  0  0  0  0  0  0
    7.7426    2.4999  -59.2504 H   0  0  0  0  0  0  0  0  0  0  0  0
    9.5351    2.6160  -59.2504 H   0  0  0  0  0  0  0  0  0  0  0  0
    6.0505    2.3268  -57.3633 H   0  0  0  0  0  0  0  0  0  0  0  0
    4.8478    0.6351  -55.9229 H   0  0  0  0  0  0  0  0  0  0  0  0
    5.4980   -1.2800  -53.8910 H   0  0  0  0  0  0  0  0  0  0  0  0
    6.5892   -3.8069  -53.5994 H   0  0  0  0  0  0  0  0  0  0  0  0
    6.5466   -5.5823  -51.8549 H   0  0  0  0  0  0  0  0  0  0  0  0
    7.4649   -5.1259  -49.5826 H   0  0  0  0  0  0  0  0  0  0  0  0
    8.4356   -2.8893  -49.0598 H   0  0  0  0  0  0  0  0  0  0  0  0
    8.4810   -1.1087  -50.8017 H   0  0  0  0  0  0  0  0  0  0  0  0
    9.6587   -0.6376  -53.5643 H   0  0  0  0  0  0  0  0  0  0  0  0
   10.0115    3.0215  -55.7751 H   0  0  0  0  0  0  0  0  0  0  0  0
   11.3114    1.6567  -57.1480 H   0  0  0  0  0  0  0  0  0  0  0  0
   10.7126    2.4606  -58.6622 H   0  0  0  0  0  0  0  0  0  0  0  0
   12.6667    3.6904  -56.6797 H   0  0  0  0  0  0  0  0  0  0  0  0
   13.1155    2.8977  -58.2288 H   0  0  0  0  0  0  0  0  0  0  0  0
   12.7290    5.4380  -58.1470 H   0  0  0  0  0  0  0  0  0  0  0  0
   12.2030    4.5850  -59.4410 H   0  0  0  0  0  0  0  0  0  0  0  0
   10.6925    6.3743  -58.3082 H   0  0  0  0  0  0  0  0  0  0  0  0
   10.0098    4.8885  -59.0570 H   0  0  0  0  0  0  0  0  0  0  0  0
   10.7963    5.1808  -56.1237 H   0  0  0  0  0  0  0  0  0  0  0  0
    9.1165    5.3116  -56.7854 H   0  0  0  0  0  0  0  0  0  0  0  0
  1  2  1  0
  2  3  1  0
  3  4  1  0
  4  5  2  0
  5  6  1  0
  6  7  1  0
  7  8  1  0
  8  9  1  0
  9 10  2  0
 10 11  1  0
 11 12  2  0
 12 13  1  0
 13 14  2  0
  8 15  2  0
 15 16  1  0
 16 17  1  0
  2 18  1  0
 18 19  1  0
 19 20  1  0
 20 21  1  0
 21 22  1  0
 22 23  1  0
 17  3  2  0
 23 18  1  0
 16  6  2  0
 14  9  1  0
  1 24  1  0
  1 25  1  0
  1 26  1  0
  4 27  1  0
  5 28  1  0
  7 29  1  0
 10 30  1  0
 11 31  1  0
 12 32  1  0
 13 33  1  0
 14 34  1  0
 15 35  1  0
 18 36  1  0
 19 37  1  0
 19 38  1  0
 20 39  1  0
 20 40  1  0
 21 41  1  0
 21 42  1  0
 22 43  1  0
 22 44  1  0
 23 45  1  0
 23 46  1  0
M  CHG  1  21   1
M  END
>  <meeko>  (126) 
{"is_sidechain": false}

$$$$

     RDKit          3D

 46 49  0  0  0  0  0  0  0  0999 V2000
   10.5260    2.6610  -57.5010 C   0  0  0  0  0  0  0  0  0  0  0  0
    9.0530    2.6120  -57.6260 N   0  0  0  0  0  0  0  0  0  0  0  0
    8.3230    1.8310  -56.7310 C   0  0  0  0  0  0  0  0  0  0  0  0
    6.9680    1.7470  -56.7750 C   0  0  0  0  0  0  0  0  0  0  0  0
    6.2270    0.9540  -55.8020 C   0  0  0  0  0  0  0  0  0  0  0  0
    6.9110    0.2450  -54.8990 C   0  0  0  0  0  0  0  0  0  0  0  0
    6.4490   -0.6130  -53.9470 N   0  0  0  0  0  0  0  0  0  0  0  0
    7.5300   -1.1510  -53.4400 C   0  0  0  0  0  0  0  0  0  0  0  0
    7.5070   -2.1740  -52.3700 C   0  0  0  0  0  0  0  0  0  0  0  0
    7.8750   -1.8930  -51.0480 C   0  0  0  0  0  0  0  0  0  0  0  0
    7.8320   -2.8990  -50.0780 C   0  0  0  0  0  0  0  0  0  0  0  0
    7.4260   -4.1870  -50.4210 C   0  0  0  0  0  0  0  0  0  0  0  0
    7.0660   -4.4770  -51.7340 C   0  0  0  0  0  0  0  0  0  0  0  0
    7.1090   -3.4760  -52.7070 C   0  0  0  0  0  0  0  0  0  0  0  0
    8.7990   -0.6340  -54.0010 C   0  0  0  0  0  0  0  0  0  0  0  0
    8.3580    0.2650  -54.8800 C   0  0  0  0  0  0  0  0  0  0  0  0
    9.0120    1.1400  -55.7260 N   0  0  0  0  0  0  0  0  0  0  0  0
    8.5660    2.9380  -58.9970 C   0  0  0  0  0  0  0  0  0  0  0  0
    9.6870    2.8960  -60.0470 C   0  0  0  0  0  0  0  0  0  0  0  0
   10.1030    4.2670  -60.5640 C   0  0  0  0  0  0  0  0  0  0  0  0
   10.0010    5.2690  -59.4820 N   0  0  0  0  0  0  0  0  0  0  0  0
    8.6180    5.5150  -58.9980 C   0  0  0  0  0  0  0  0  0  0  0  0
    7.7710    4.2480  -59.0300 C   0  0  0  0  0  0  0  0  0  0  0  0
   10.8036    2.6702  -56.4366 H   0  0  0  0  0  0  0  0  0  0  0  0
   10.9648    1.7770  -57.9867 H   0  0  0  0  0  0  0  0  0  0  0  0
   10.9051    3.5723  -57.9867 H   0  0  0  0  0  0  0  0  0  0  0  0
    6.4193    2.2879  -57.5601 H   0  0  0  0  0  0  0  0  0  0  0  0
    5.1271    0.9394  -55.8108 H   0  0  0  0  0  0  0  0  0  0  0  0
    8.1986   -0.8785  -50.7723 H   0  0  0  0  0  0  0  0  0  0  0  0
    8.1196   -2.6729  -49.0406 H   0  0  0  0  0  0  0  0  0  0  0  0
    7.3900   -4.9748  -49.6541 H   0  0  0  0  0  0  0  0  0  0  0  0
    6.7477   -5.4944  -52.0052 H   0  0  0  0  0  0  0  0  0  0  0  0
    6.8288   -3.7103  -53.7446 H   0  0  0  0  0  0  0  0  0  0  0  0
    9.8334   -0.9174  -53.7565 H   0  0  0  0  0  0  0  0  0  0  0  0
    9.9020    0.7830  -56.0710 H   0  0  0  0  0  0  0  0  0  0  0  0
    7.8621    2.1408  -59.2781 H   0  0  0  0  0  0  0  0  0  0  0  0
   10.5669    2.4153  -59.5946 H   0  0  0  0  0  0  0  0  0  0  0  0
    9.2950    2.3362  -60.9090 H   0  0  0  0  0  0  0  0  0  0  0  0
   11.1424    4.2214  -60.9211 H   0  0  0  0  0  0  0  0  0  0  0  0
    9.4368    4.5585  -61.3893 H   0  0  0  0  0  0  0  0  0  0  0  0
   10.5580    4.9250  -58.6740 H   0  0  0  0  0  0  0  0  0  0  0  0
   10.4470    6.1570  -59.7460 H   0  0  0  0  0  0  0  0  0  0  0  0
    8.6640    5.8861  -57.9635 H   0  0  0  0  0  0  0  0  0  0  0  0
    8.1501    6.2548  -59.6641 H   0  0  0  0  0  0  0  0  0  0  0  0
    7.1011    4.2630  -58.1577 H   0  0  0  0  0  0  0  0  0  0  0  0
    7.2359    4.2594  -59.9910 H   0  0  0  0  0  0  0  0  0  0  0  0
  1  2  1  0
  2  3  1  0
  3  4  2  0
  4  5  1  0
  5  6  2  0
  6  7  1  0
  7  8  2  0
  8  9  1  0
  9 10  2  0
 10 11  1  0
 11 12  2  0
 12 13  1  0
 13 14  2  0
  8 15  1  0
 15 16  2  0
 16 17  1  0
  2 18  1  0
 18 19  1  0
 19 20  1  0
 20 21  1  0
 21 22  1  0
 22 23  1  0
 17  3  1  0
 23 18  1  0
 16  6  1  0
 14  9  1  0
  1 24  1  0
  1 25  1  0
  1 26  1  0
  4 27  1  0
  5 28  1  0
 10 29  1  0
 11 30  1  0
 12 31  1  0
 13 32  1  0
 14 33  1  0
 15 34  1  0
 17 35  1  0
 18 36  1  0
 19 37  1  0
 19 38  1  0
 20 39  1  0
 20 40  1  0
 21 41  1  0
 21 42  1  0
 22 43  1  0
 22 44  1  0
 23 45  1  0
 23 46  1  0
M  CHG  1  21   1
M  END
>  <meeko>  (127) 
{"is_sidechain": false}

$$$$

     RDKit          3D

 15 16  0  0  0  0  0  0  0  0999 V2000
   12.2090   -4.7800  -58.4900 C   0  0  0  0  0  0  0  0  0  0  0  0
   12.3500   -5.8740  -57.6320 C   0  0  0  0  0  0  0  0  0  0  0  0
   12.1050   -5.7590  -56.2580 C   0  0  0  0  0  0  0  0  0  0  0  0
   11.7150   -4.5000  -55.7960 C   0  0  0  0  0  0  0  0  0  0  0  0
   11.4000   -4.0290  -54.5480 N   0  0  0  0  0  0  0  0  0  0  0  0
   11.0840   -2.7040  -54.6630 C   0  0  0  0  0  0  0  0  0  0  0  0
   11.1750   -2.2900  -55.9060 N   0  0  0  0  0  0  0  0  0  0  0  0
   11.5660   -3.3930  -56.6260 C   0  0  0  0  0  0  0  0  0  0  0  0
   11.8160   -3.5290  -57.9990 C   0  0  0  0  0  0  0  0  0  0  0  0
   12.4093   -4.9032  -59.5646 H   0  0  0  0  0  0  0  0  0  0  0  0
   12.6598   -6.8456  -58.0444 H   0  0  0  0  0  0  0  0  0  0  0  0
   12.2141   -6.6163  -55.5775 H   0  0  0  0  0  0  0  0  0  0  0  0
   11.4010   -4.5650  -53.6920 H   0  0  0  0  0  0  0  0  0  0  0  0
   10.7898   -2.0635  -53.8185 H   0  0  0  0  0  0  0  0  0  0  0  0
   11.7056   -2.6699  -58.6770 H   0  0  0  0  0  0  0  0  0  0  0  0
  1  2  2  0
  2  3  1  0
  3  4  2  0
  4  5  1  0
  5  6  1  0
  6  7  2  0
  7  8  1  0
  8  9  2  0
  9  1  1  0
  8  4  1  0
  1 10  1  0
  2 11  1  0
  3 12  1  0
  5 13  1  0
  6 14  1  0
  9 15  1  0
M  END
>  <meeko>  (128) 
{"is_sidechain": false}

$$$$

     RDKit          3D

 16 17  0  0  0  0  0  0  0  0999 V2000
   12.2830   -5.8090  -57.4690 C   0  0  0  0  0  0  0  0  0  0  0  0
   12.2100   -4.7420  -58.3910 C   0  0  0  0  0  0  0  0  0  0  0  0
   11.8640   -3.4410  -57.9930 C   0  0  0  0  0  0  0  0  0  0  0  0
   11.6000   -3.2790  -56.6400 C   0  0  0  0  0  0  0  0  0  0  0  0
   11.2370   -2.1690  -55.9040 N   0  0  0  0  0  0  0  0  0  0  0  0
   11.0890   -2.4890  -54.6160 C   0  0  0  0  0  0  0  0  0  0  0  0
   11.3490   -3.7940  -54.4990 N   0  0  0  0  0  0  0  0  0  0  0  0
   11.6720   -4.3350  -55.7270 C   0  0  0  0  0  0  0  0  0  0  0  0
   12.0140   -5.6270  -56.1030 C   0  0  0  0  0  0  0  0  0  0  0  0
   12.5583   -6.8106  -57.8310 H   0  0  0  0  0  0  0  0  0  0  0  0
   12.4305   -4.9357  -59.4511 H   0  0  0  0  0  0  0  0  0  0  0  0
   11.8060   -2.6054  -58.7061 H   0  0  0  0  0  0  0  0  0  0  0  0
   11.1020   -1.2370  -56.2860 H   0  0  0  0  0  0  0  0  0  0  0  0
   10.8056   -1.8050  -53.8025 H   0  0  0  0  0  0  0  0  0  0  0  0
   11.3130   -4.3150  -53.6270 H   0  0  0  0  0  0  0  0  0  0  0  0
   12.0705   -6.4531  -55.3789 H   0  0  0  0  0  0  0  0  0  0  0  0
  1  2  2  0
  2  3  1  0
  3  4  2  0
  4  5  1  0
  5  6  2  0
  6  7  1  0
  7  8  1  0
  8  9  2  0
  9  1  1  0
  8  4  1  0
  1 10  1  0
  2 11  1  0
  3 12  1  0
  5 13  1  0
  6 14  1  0
  7 15  1  0
  9 16  1  0
M  CHG  1   5   1
M  END
>  <meeko>  (129) 
{"is_sidechain": false}

$$$$

     RDKit          3D

 50 54  0  0  0  0  0  0  0  0999 V2000
    5.8790    1.2970  -54.6920 O   0  0  0  0  0  0  0  0  0  0  0  0
    6.5320    0.8210  -55.6200 C   0  0  0  0  0  0  0  0  0  0  0  0
    6.3780    1.1510  -56.9410 O   0  0  0  0  0  0  0  0  0  0  0  0
    6.4260    2.5450  -57.2520 C   0  0  0  0  0  0  0  0  0  0  0  0
    7.2980    3.4080  -56.6720 C   0  0  0  0  0  0  0  0  0  0  0  0
    8.4610    2.9670  -56.1540 C   0  0  0  0  0  0  0  0  0  0  0  0
    9.0990    1.8940  -56.6990 C   0  0  0  0  0  0  0  0  0  0  0  0
    9.1150    1.3650  -57.9630 N   0  0  0  0  0  0  0  0  0  0  0  0
    9.0900    2.2870  -58.9610 C   0  0  0  0  0  0  0  0  0  0  0  0
   10.2540    2.8580  -59.4090 N   0  0  0  0  0  0  0  0  0  0  0  0
    9.9940    3.7600  -60.4080 C   0  0  0  0  0  0  0  0  0  0  0  0
    8.6310    3.7820  -60.6000 C   0  0  0  0  0  0  0  0  0  0  0  0
    8.0550    2.8500  -59.6920 C   0  0  0  0  0  0  0  0  0  0  0  0
    6.4830    2.6330  -59.6130 C   0  0  0  0  0  0  0  0  0  0  0  0
    5.7350    2.1530  -60.7990 C   0  0  0  0  0  0  0  0  0  0  0  0
    6.0460    2.6120  -62.0890 C   0  0  0  0  0  0  0  0  0  0  0  0
    5.3290    2.1580  -63.1990 C   0  0  0  0  0  0  0  0  0  0  0  0
    4.2940    1.2390  -63.0330 C   0  0  0  0  0  0  0  0  0  0  0  0
    3.9760    0.7730  -61.7580 C   0  0  0  0  0  0  0  0  0  0  0  0
    4.6940    1.2270  -60.6490 C   0  0  0  0  0  0  0  0  0  0  0  0
    5.7520    2.8530  -58.4250 N   0  0  0  0  0  0  0  0  0  0  0  0
    9.7170    0.9810  -55.8440 N   0  0  0  0  0  0  0  0  0  0  0  0
    8.8590    0.3370  -54.8230 C   0  0  2  0  0  0  0  0  0  0  0  0
    9.6770   -0.7390  -54.1020 C   0  0  0  0  0  0  0  0  0  0  0  0
    8.8980   -1.3720  -52.9480 C   0  0  0  0  0  0  0  0  0  0  0  0
    7.3820   -1.3490  -53.1450 C   0  0  0  0  0  0  0  0  0  0  0  0
    6.9950   -1.4380  -54.6170 C   0  0  0  0  0  0  0  0  0  0  0  0
    7.5780   -0.2810  -55.4480 C   0  0  1  0  0  0  0  0  0  0  0  0
    7.0527    4.4792  -56.6242 H   0  0  0  0  0  0  0  0  0  0  0  0
    8.8989    3.4777  -55.2837 H   0  0  0  0  0  0  0  0  0  0  0  0
   11.1500    2.6410  -59.0000 H   0  0  0  0  0  0  0  0  0  0  0  0
   10.7381    4.3568  -60.9558 H   0  0  0  0  0  0  0  0  0  0  0  0
    8.0863    4.4063  -61.3236 H   0  0  0  0  0  0  0  0  0  0  0  0
    6.8623    3.3363  -62.2271 H   0  0  0  0  0  0  0  0  0  0  0  0
    5.5814    2.5260  -64.2044 H   0  0  0  0  0  0  0  0  0  0  0  0
    3.7290    0.8820  -63.9067 H   0  0  0  0  0  0  0  0  0  0  0  0
    3.1596    0.0478  -61.6253 H   0  0  0  0  0  0  0  0  0  0  0  0
    4.4392    0.8532  -59.6463 H   0  0  0  0  0  0  0  0  0  0  0  0
    4.9490    2.2310  -58.4720 H   0  0  0  0  0  0  0  0  0  0  0  0
   10.0840    0.2870  -56.5000 H   0  0  0  0  0  0  0  0  0  0  0  0
    8.5264    1.1035  -54.1076 H   0  0  0  0  0  0  0  0  0  0  0  0
    9.9445   -1.5250  -54.8235 H   0  0  0  0  0  0  0  0  0  0  0  0
   10.5752   -0.2607  -53.6843 H   0  0  0  0  0  0  0  0  0  0  0  0
    9.2191   -2.4191  -52.8452 H   0  0  0  0  0  0  0  0  0  0  0  0
    9.1147   -0.7766  -52.0488 H   0  0  0  0  0  0  0  0  0  0  0  0
    6.9415   -2.2032  -52.6099 H   0  0  0  0  0  0  0  0  0  0  0  0
    7.0031   -0.3942  -52.7516 H   0  0  0  0  0  0  0  0  0  0  0  0
    7.3695   -2.3889  -55.0239 H   0  0  0  0  0  0  0  0  0  0  0  0
    5.8985   -1.3767  -54.6798 H   0  0  0  0  0  0  0  0  0  0  0  0
    7.8574   -0.7112  -56.4211 H   0  0  0  0  0  0  0  0  0  0  0  0
  1  2  2  0
  2  3  1  0
  3  4  1  0
  4  5  2  0
  5  6  1  0
  6  7  2  0
  7  8  1  0
  8  9  2  0
  9 10  1  0
 10 11  1  0
 11 12  2  0
 12 13  1  0
 13 14  2  0
 14 15  1  0
 15 16  2  0
 16 17  1  0
 17 18  2  0
 18 19  1  0
 19 20  2  0
 14 21  1  0
  7 22  1  0
 22 23  1  0
 23 24  1  0
 24 25  1  0
 25 26  1  0
 26 27  1  0
 27 28  1  0
 28  2  1  0
 21  4  1  0
 28 23  1  0
 13  9  1  0
 20 15  1  0
  5 29  1  0
  6 30  1  0
 10 31  1  0
 11 32  1  0
 12 33  1  0
 16 34  1  0
 17 35  1  0
 18 36  1  0
 19 37  1  0
 20 38  1  0
 21 39  1  0
 22 40  1  0
 23 41  1  1
 24 42  1  0
 24 43  1  0
 25 44  1  0
 25 45  1  0
 26 46  1  0
 26 47  1  0
 27 48  1  0
 27 49  1  0
 28 50  1  6
M  END
>  <meeko>  (130) 
{"is_sidechain": false}

$$$$

     RDKit          3D

 50 54  0  0  0  0  0  0  0  0999 V2000
   12.5620    4.3960  -56.6530 O   0  0  0  0  0  0  0  0  0  0  0  0
   11.8840    3.8710  -57.5280 C   0  0  0  0  0  0  0  0  0  0  0  0
   10.9610    2.8740  -57.3290 O   0  0  0  0  0  0  0  0  0  0  0  0
    9.9920    3.0600  -56.3040 C   0  0  0  0  0  0  0  0  0  0  0  0
    9.3690    4.2360  -56.0510 C   0  0  0  0  0  0  0  0  0  0  0  0
    9.3700    5.2560  -57.0460 C   0  0  0  0  0  0  0  0  0  0  0  0
    9.0950    4.9310  -58.3300 C   0  0  0  0  0  0  0  0  0  0  0  0
    8.3230    3.8440  -58.7430 N   0  0  0  0  0  0  0  0  0  0  0  0
    7.2960    3.1470  -58.1300 C   0  0  0  0  0  0  0  0  0  0  0  0
    6.1080    3.2730  -58.7190 N   0  0  0  0  0  0  0  0  0  0  0  0
    5.2520    2.4300  -58.0600 C   0  0  0  0  0  0  0  0  0  0  0  0
    5.8100    1.7120  -57.0840 C   0  0  0  0  0  0  0  0  0  0  0  0
    7.2100    2.0960  -57.0060 C   0  0  0  0  0  0  0  0  0  0  0  0
    8.1000    1.5460  -56.1390 C   0  0  0  0  0  0  0  0  0  0  0  0
    7.6720    0.3880  -55.3090 C   0  0  0  0  0  0  0  0  0  0  0  0
    8.6060   -0.5640  -54.8750 C   0  0  0  0  0  0  0  0  0  0  0  0
    8.1970   -1.6430  -54.0890 C   0  0  0  0  0  0  0  0  0  0  0  0
    6.8570   -1.7740  -53.7270 C   0  0  0  0  0  0  0  0  0  0  0  0
    5.9240   -0.8270  -54.1450 C   0  0  0  0  0  0  0  0  0  0  0  0
    6.3290    0.2530  -54.9320 C   0  0  0  0  0  0  0  0  0  0  0  0
    9.4200    1.8970  -55.8570 N   0  0  0  0  0  0  0  0  0  0  0  0
    9.8270    5.5940  -59.3210 N   0  0  0  0  0  0  0  0  0  0  0  0
   11.3150    5.6530  -59.2150 C   0  0  2  0  0  0  0  0  0  0  0  0
   11.8710    6.2950  -60.4910 C   0  0  0  0  0  0  0  0  0  0  0  0
   13.3850    6.4970  -60.4160 C   0  0  0  0  0  0  0  0  0  0  0  0
   14.0970    5.4850  -59.5190 C   0  0  0  0  0  0  0  0  0  0  0  0
   13.3870    4.1350  -59.5030 C   0  0  0  0  0  0  0  0  0  0  0  0
   11.9370    4.2430  -59.0040 C   0  0  1  0  0  0  0  0  0  0  0  0
    8.8670    4.4020  -55.0864 H   0  0  0  0  0  0  0  0  0  0  0  0
    9.5923    6.2980  -56.7725 H   0  0  0  0  0  0  0  0  0  0  0  0
    7.9470    4.1080  -59.6500 H   0  0  0  0  0  0  0  0  0  0  0  0
    4.1852    2.3513  -58.3165 H   0  0  0  0  0  0  0  0  0  0  0  0
    5.3037    0.9661  -56.4537 H   0  0  0  0  0  0  0  0  0  0  0  0
    9.6647   -0.4602  -55.1549 H   0  0  0  0  0  0  0  0  0  0  0  0
    8.9322   -2.3900  -53.7552 H   0  0  0  0  0  0  0  0  0  0  0  0
    6.5357   -2.6264  -53.1104 H   0  0  0  0  0  0  0  0  0  0  0  0
    4.8680   -0.9303  -53.8548 H   0  0  0  0  0  0  0  0  0  0  0  0
    5.5909    1.0009  -55.2574 H   0  0  0  0  0  0  0  0  0  0  0  0
   10.0460    1.0980  -55.9190 H   0  0  0  0  0  0  0  0  0  0  0  0
    9.5540    5.2520  -60.2400 H   0  0  0  0  0  0  0  0  0  0  0  0
   11.5831    6.2568  -58.3355 H   0  0  0  0  0  0  0  0  0  0  0  0
   11.6414    5.6425  -61.3463 H   0  0  0  0  0  0  0  0  0  0  0  0
   11.4011    7.2827  -60.6077 H   0  0  0  0  0  0  0  0  0  0  0  0
   13.7975    6.4108  -61.4321 H   0  0  0  0  0  0  0  0  0  0  0  0
   13.5549    7.4910  -59.9765 H   0  0  0  0  0  0  0  0  0  0  0  0
   15.1228    5.3422  -59.8896 H   0  0  0  0  0  0  0  0  0  0  0  0
   14.0957    5.8812  -58.4928 H   0  0  0  0  0  0  0  0  0  0  0  0
   13.3799    3.7272  -60.5246 H   0  0  0  0  0  0  0  0  0  0  0  0
   13.9324    3.4767  -58.8108 H   0  0  0  0  0  0  0  0  0  0  0  0
   11.3365    3.5441  -59.6048 H   0  0  0  0  0  0  0  0  0  0  0  0
  1  2  2  0
  2  3  1  0
  3  4  1  0
  4  5  2  0
  5  6  1  0
  6  7  2  0
  7  8  1  0
  8  9  1  0
  9 10  2  0
 10 11  1  0
 11 12  2  0
 12 13  1  0
 13 14  2  0
 14 15  1  0
 15 16  2  0
 16 17  1  0
 17 18  2  0
 18 19  1  0
 19 20  2  0
 14 21  1  0
  7 22  1  0
 22 23  1  0
 23 24  1  0
 24 25  1  0
 25 26  1  0
 26 27  1  0
 27 28  1  0
 28  2  1  0
 21  4  1  0
 28 23  1  0
 13  9  1  0
 20 15  1  0
  5 29  1  0
  6 30  1  0
  8 31  1  0
 11 32  1  0
 12 33  1  0
 16 34  1  0
 17 35  1  0
 18 36  1  0
 19 37  1  0
 20 38  1  0
 21 39  1  0
 22 40  1  0
 23 41  1  1
 24 42  1  0
 24 43  1  0
 25 44  1  0
 25 45  1  0
 26 46  1  0
 26 47  1  0
 27 48  1  0
 27 49  1  0
 28 50  1  6
M  END
>  <meeko>  (131) 
{"is_sidechain": false}

$$$$

     RDKit          3D

 50 54  0  0  0  0  0  0  0  0999 V2000
   10.9850    1.9350  -59.0210 O   0  0  0  0  0  0  0  0  0  0  0  0
   11.1900    3.0420  -58.5300 C   0  0  0  0  0  0  0  0  0  0  0  0
   11.1650    3.4130  -57.2170 O   0  0  0  0  0  0  0  0  0  0  0  0
    9.9600    3.2450  -56.4810 C   0  0  0  0  0  0  0  0  0  0  0  0
    9.3290    4.3540  -56.0330 C   0  0  0  0  0  0  0  0  0  0  0  0
    9.1560    5.4780  -56.7620 C   0  0  0  0  0  0  0  0  0  0  0  0
    8.8860    5.2440  -58.0730 C   0  0  0  0  0  0  0  0  0  0  0  0
    7.6280    4.7520  -58.4320 N   0  0  0  0  0  0  0  0  0  0  0  0
    7.3310    3.4090  -58.5440 C   0  0  0  0  0  0  0  0  0  0  0  0
    6.5710    3.0610  -59.6460 N   0  0  0  0  0  0  0  0  0  0  0  0
    6.4170    1.7080  -59.7500 C   0  0  0  0  0  0  0  0  0  0  0  0
    7.0360    1.1490  -58.6610 C   0  0  0  0  0  0  0  0  0  0  0  0
    7.5640    2.2110  -57.8650 C   0  0  0  0  0  0  0  0  0  0  0  0
    8.2680    1.8150  -56.4530 C   0  0  0  0  0  0  0  0  0  0  0  0
    7.5240    0.9440  -55.4990 C   0  0  0  0  0  0  0  0  0  0  0  0
    8.2290    0.1810  -54.5560 C   0  0  0  0  0  0  0  0  0  0  0  0
    7.5600   -0.6450  -53.6480 C   0  0  0  0  0  0  0  0  0  0  0  0
    6.1690   -0.7240  -53.6720 C   0  0  0  0  0  0  0  0  0  0  0  0
    5.4510    0.0200  -54.6050 C   0  0  0  0  0  0  0  0  0  0  0  0
    6.1250    0.8450  -55.5110 C   0  0  0  0  0  0  0  0  0  0  0  0
    9.6110    1.9650  -56.2480 N   0  0  0  0  0  0  0  0  0  0  0  0
    9.7360    5.6380  -59.1020 N   0  0  0  0  0  0  0  0  0  0  0  0
   11.1980    5.5610  -58.9530 C   0  0  2  0  0  0  0  0  0  0  0  0
   11.8100    6.6560  -59.8440 C   0  0  0  0  0  0  0  0  0  0  0  0
   13.3350    6.6140  -59.8260 C   0  0  0  0  0  0  0  0  0  0  0  0
   13.8620    5.2400  -60.2270 C   0  0  0  0  0  0  0  0  0  0  0  0
   13.2600    4.1340  -59.3670 C   0  0  0  0  0  0  0  0  0  0  0  0
   11.7280    4.1770  -59.3770 C   0  0  1  0  0  0  0  0  0  0  0  0
    8.9305    4.3399  -55.0078 H   0  0  0  0  0  0  0  0  0  0  0  0
    9.2271    6.4889  -56.3341 H   0  0  0  0  0  0  0  0  0  0  0  0
    7.3200    5.3250  -59.2080 H   0  0  0  0  0  0  0  0  0  0  0  0
    6.2250    3.7250  -60.3160 H   0  0  0  0  0  0  0  0  0  0  0  0
    5.8955    1.1688  -60.5545 H   0  0  0  0  0  0  0  0  0  0  0  0
    7.1122    0.0741  -58.4400 H   0  0  0  0  0  0  0  0  0  0  0  0
    9.3274    0.2337  -54.5307 H   0  0  0  0  0  0  0  0  0  0  0  0
    8.1317   -1.2326  -52.9146 H   0  0  0  0  0  0  0  0  0  0  0  0
    5.6402   -1.3714  -52.9569 H   0  0  0  0  0  0  0  0  0  0  0  0
    4.3530   -0.0413  -54.6293 H   0  0  0  0  0  0  0  0  0  0  0  0
    5.5481    1.4261  -56.2455 H   0  0  0  0  0  0  0  0  0  0  0  0
    9.4310    5.1440  -59.9370 H   0  0  0  0  0  0  0  0  0  0  0  0
   11.4759    5.7087  -57.8990 H   0  0  0  0  0  0  0  0  0  0  0  0
   11.4619    6.5102  -60.8772 H   0  0  0  0  0  0  0  0  0  0  0  0
   11.4901    7.6333  -59.4534 H   0  0  0  0  0  0  0  0  0  0  0  0
   13.7214    7.3646  -60.5312 H   0  0  0  0  0  0  0  0  0  0  0  0
   13.6737    6.8276  -58.8015 H   0  0  0  0  0  0  0  0  0  0  0  0
   13.6053    5.0528  -61.2801 H   0  0  0  0  0  0  0  0  0  0  0  0
   14.9522    5.2340  -60.0809 H   0  0  0  0  0  0  0  0  0  0  0  0
   13.5916    3.1599  -59.7559 H   0  0  0  0  0  0  0  0  0  0  0  0
   13.6000    4.2821  -58.3314 H   0  0  0  0  0  0  0  0  0  0  0  0
   11.3609    4.0298  -60.4034 H   0  0  0  0  0  0  0  0  0  0  0  0
  1  2  2  0
  2  3  1  0
  3  4  1  0
  4  5  2  0
  5  6  1  0
  6  7  2  0
  7  8  1  0
  8  9  1  0
  9 10  1  0
 10 11  1  0
 11 12  2  0
 12 13  1  0
 13 14  1  0
 14 15  1  0
 15 16  2  0
 16 17  1  0
 17 18  2  0
 18 19  1  0
 19 20  2  0
 14 21  2  0
  7 22  1  0
 22 23  1  0
 23 24  1  0
 24 25  1  0
 25 26  1  0
 26 27  1  0
 27 28  1  0
 28  2  1  0
 21  4  1  0
 28 23  1  0
 13  9  2  0
 20 15  1  0
  5 29  1  0
  6 30  1  0
  8 31  1  0
 10 32  1  0
 11 33  1  0
 12 34  1  0
 16 35  1  0
 17 36  1  0
 18 37  1  0
 19 38  1  0
 20 39  1  0
 22 40  1  0
 23 41  1  1
 24 42  1  0
 24 43  1  0
 25 44  1  0
 25 45  1  0
 26 46  1  0
 26 47  1  0
 27 48  1  0
 27 49  1  0
 28 50  1  6
M  END
>  <meeko>  (132) 
{"is_sidechain": false}

$$$$

     RDKit          3D

 50 55  0  0  0  0  0  0  0  0999 V2000
    6.6460    2.7290  -60.5990 O   0  0  0  0  0  0  0  0  0  0  0  0
    7.6030    3.2130  -60.0030 C   0  0  0  0  0  0  0  0  0  0  0  0
    7.4500    4.2290  -58.8840 C   0  0  2  0  0  0  0  0  0  0  0  0
    8.2020    5.4940  -59.3040 C   0  0  0  0  0  0  0  0  0  0  0  0
    9.6840    5.1630  -59.5560 C   0  0  2  0  0  0  0  0  0  0  0  0
    9.7810    4.1270  -60.6940 C   0  0  0  0  0  0  0  0  0  0  0  0
    9.0430    2.8390  -60.3080 C   0  0  1  0  0  0  0  0  0  0  0  0
    9.6390    2.2370  -59.0280 C   0  0  0  0  0  0  0  0  0  0  0  0
    9.5850    3.2680  -57.8740 C   0  0  1  0  0  0  0  0  0  0  0  0
   10.1070    2.7160  -56.6280 N   0  0  0  0  0  0  0  0  0  0  0  0
   10.0520    1.4480  -56.0870 C   0  0  0  0  0  0  0  0  0  0  0  0
   10.8640    0.4110  -56.4170 C   0  0  0  0  0  0  0  0  0  0  0  0
   10.7270   -0.9010  -55.7880 C   0  0  0  0  0  0  0  0  0  0  0  0
    9.7860   -1.0700  -54.8520 C   0  0  0  0  0  0  0  0  0  0  0  0
    9.4860   -2.1800  -54.1140 N   0  0  0  0  0  0  0  0  0  0  0  0
    8.5140   -1.7880  -53.3280 C   0  0  0  0  0  0  0  0  0  0  0  0
    7.8630   -2.6770  -52.3360 C   0  0  0  0  0  0  0  0  0  0  0  0
    8.3330   -2.6510  -51.0150 C   0  0  0  0  0  0  0  0  0  0  0  0
    7.7560   -3.4680  -50.0400 C   0  0  0  0  0  0  0  0  0  0  0  0
    6.7040   -4.3170  -50.3770 C   0  0  0  0  0  0  0  0  0  0  0  0
    6.2300   -4.3500  -51.6860 C   0  0  0  0  0  0  0  0  0  0  0  0
    6.8050   -3.5330  -52.6650 C   0  0  0  0  0  0  0  0  0  0  0  0
    8.1010   -0.3780  -53.5030 C   0  0  0  0  0  0  0  0  0  0  0  0
    8.9190    0.0230  -54.4740 C   0  0  0  0  0  0  0  0  0  0  0  0
    9.0730    1.2210  -55.1240 N   0  0  0  0  0  0  0  0  0  0  0  0
   10.3040    4.5770  -58.2750 C   0  0  0  0  0  0  0  0  0  0  0  0
    8.0840    3.6180  -57.6300 C   0  0  0  0  0  0  0  0  0  0  0  0
    6.3984    4.4809  -58.6826 H   0  0  0  0  0  0  0  0  0  0  0  0
    7.7557    5.8944  -60.2263 H   0  0  0  0  0  0  0  0  0  0  0  0
    8.1294    6.2420  -58.5008 H   0  0  0  0  0  0  0  0  0  0  0  0
   10.2267    6.0774  -59.8377 H   0  0  0  0  0  0  0  0  0  0  0  0
    9.3279    4.5454  -61.6048 H   0  0  0  0  0  0  0  0  0  0  0  0
   10.8405    3.8915  -60.8731 H   0  0  0  0  0  0  0  0  0  0  0  0
    9.1255    2.1116  -61.1290 H   0  0  0  0  0  0  0  0  0  0  0  0
    9.0625    1.3441  -58.7443 H   0  0  0  0  0  0  0  0  0  0  0  0
   10.6880    1.9642  -59.2155 H   0  0  0  0  0  0  0  0  0  0  0  0
   10.1850    3.4050  -55.8850 H   0  0  0  0  0  0  0  0  0  0  0  0
   11.6447    0.5622  -57.1770 H   0  0  0  0  0  0  0  0  0  0  0  0
   11.3848   -1.7335  -56.0785 H   0  0  0  0  0  0  0  0  0  0  0  0
    9.1629   -1.9817  -50.7444 H   0  0  0  0  0  0  0  0  0  0  0  0
    8.1320   -3.4411  -49.0066 H   0  0  0  0  0  0  0  0  0  0  0  0
    6.2484   -4.9605  -49.6100 H   0  0  0  0  0  0  0  0  0  0  0  0
    5.4000   -5.0213  -51.9512 H   0  0  0  0  0  0  0  0  0  0  0  0
    6.4247   -3.5631  -53.6967 H   0  0  0  0  0  0  0  0  0  0  0  0
    7.3231    0.1894  -52.9711 H   0  0  0  0  0  0  0  0  0  0  0  0
    8.5820    2.0230  -54.7660 H   0  0  0  0  0  0  0  0  0  0  0  0
   10.2066    5.3080  -57.4588 H   0  0  0  0  0  0  0  0  0  0  0  0
   11.3652    4.3564  -58.4626 H   0  0  0  0  0  0  0  0  0  0  0  0
    7.5398    2.7001  -57.3629 H   0  0  0  0  0  0  0  0  0  0  0  0
    8.0245    4.3535  -56.8142 H   0  0  0  0  0  0  0  0  0  0  0  0
  1  2  2  0
  2  3  1  0
  3  4  1  0
  4  5  1  0
  5  6  1  0
  6  7  1  0
  7  8  1  0
  8  9  1  0
  9 10  1  1
 10 11  1  0
 11 12  2  0
 12 13  1  0
 13 14  2  0
 14 15  1  0
 15 16  2  0
 16 17  1  0
 17 18  2  0
 18 19  1  0
 19 20  2  0
 20 21  1  0
 21 22  2  0
 16 23  1  0
 23 24  2  0
 24 25  1  0
  9 26  1  0
  9 27  1  0
  7  2  1  0
 25 11  1  0
 27  3  1  0
 26  5  1  0
 24 14  1  0
 22 17  1  0
  3 28  1  1
  4 29  1  0
  4 30  1  0
  5 31  1  6
  6 32  1  0
  6 33  1  0
  7 34  1  6
  8 35  1  0
  8 36  1  0
 10 37  1  0
 12 38  1  0
 13 39  1  0
 18 40  1  0
 19 41  1  0
 20 42  1  0
 21 43  1  0
 22 44  1  0
 23 45  1  0
 25 46  1  0
 26 47  1  0
 26 48  1  0
 27 49  1  0
 27 50  1  0
M  END
>  <meeko>  (133) 
{"is_sidechain": false}

$$$$

     RDKit          3D

 50 55  0  0  0  0  0  0  0  0999 V2000
    7.2610   -4.8190  -51.8070 O   0  0  0  0  0  0  0  0  0  0  0  0
    7.7820   -3.8570  -52.3620 C   0  0  0  0  0  0  0  0  0  0  0  0
    7.8940   -3.7390  -53.8710 C   0  0  2  0  0  0  0  0  0  0  0  0
    9.3840   -3.6520  -54.2150 C   0  0  0  0  0  0  0  0  0  0  0  0
   10.0140   -2.4350  -53.5140 C   0  0  2  0  0  0  0  0  0  0  0  0
    9.8620   -2.5980  -51.9880 C   0  0  0  0  0  0  0  0  0  0  0  0
    8.3780   -2.6840  -51.6040 C   0  0  1  0  0  0  0  0  0  0  0  0
    7.6310   -1.4210  -52.0520 C   0  0  0  0  0  0  0  0  0  0  0  0
    7.7970   -1.2050  -53.5790 C   0  0  1  0  0  0  0  0  0  0  0  0
    7.0420   -0.0430  -54.0680 N   0  0  0  0  0  0  0  0  0  0  0  0
    7.4990    0.7380  -55.1420 C   0  0  0  0  0  0  0  0  0  0  0  0
    6.5720    1.0090  -56.1560 C   0  0  0  0  0  0  0  0  0  0  0  0
    6.9150    1.7880  -57.2630 C   0  0  0  0  0  0  0  0  0  0  0  0
    8.2180    2.2670  -57.2660 C   0  0  0  0  0  0  0  0  0  0  0  0
    8.9050    3.0540  -58.1570 N   0  0  0  0  0  0  0  0  0  0  0  0
   10.2000    3.2720  -57.7270 C   0  0  0  0  0  0  0  0  0  0  0  0
   11.1620    4.0860  -58.4690 C   0  0  0  0  0  0  0  0  0  0  0  0
   12.5210    3.7450  -58.4720 C   0  0  0  0  0  0  0  0  0  0  0  0
   13.4500    4.5190  -59.1740 C   0  0  0  0  0  0  0  0  0  0  0  0
   13.0290    5.6400  -59.8860 C   0  0  0  0  0  0  0  0  0  0  0  0
   11.6800    5.9860  -59.8980 C   0  0  0  0  0  0  0  0  0  0  0  0
   10.7510    5.2130  -59.1940 C   0  0  0  0  0  0  0  0  0  0  0  0
   10.3210    2.6110  -56.5140 C   0  0  0  0  0  0  0  0  0  0  0  0
    9.0900    1.9780  -56.2260 C   0  0  0  0  0  0  0  0  0  0  0  0
    8.7480    1.2220  -55.1590 N   0  0  0  0  0  0  0  0  0  0  0  0
    9.2930   -1.1520  -53.9660 C   0  0  0  0  0  0  0  0  0  0  0  0
    7.1730   -2.4520  -54.2830 C   0  0  0  0  0  0  0  0  0  0  0  0
    7.4459   -4.5962  -54.3948 H   0  0  0  0  0  0  0  0  0  0  0  0
    9.8900   -4.5689  -53.8786 H   0  0  0  0  0  0  0  0  0  0  0  0
    9.4983   -3.5419  -55.3035 H   0  0  0  0  0  0  0  0  0  0  0  0
   11.0800   -2.3662  -53.7766 H   0  0  0  0  0  0  0  0  0  0  0  0
   10.3728   -3.5186  -51.6692 H   0  0  0  0  0  0  0  0  0  0  0  0
   10.3095   -1.7254  -51.4897 H   0  0  0  0  0  0  0  0  0  0  0  0
    8.2867   -2.7958  -50.5135 H   0  0  0  0  0  0  0  0  0  0  0  0
    6.5622   -1.5296  -51.8158 H   0  0  0  0  0  0  0  0  0  0  0  0
    8.0500   -0.5529  -51.5221 H   0  0  0  0  0  0  0  0  0  0  0  0
    6.0660   -0.2700  -54.2400 H   0  0  0  0  0  0  0  0  0  0  0  0
    5.5537    0.6002  -56.0790 H   0  0  0  0  0  0  0  0  0  0  0  0
    6.2044    2.0063  -58.0738 H   0  0  0  0  0  0  0  0  0  0  0  0
    8.5100    3.4420  -59.0010 H   0  0  0  0  0  0  0  0  0  0  0  0
   12.8607    2.8587  -57.9160 H   0  0  0  0  0  0  0  0  0  0  0  0
   14.5146    4.2425  -59.1641 H   0  0  0  0  0  0  0  0  0  0  0  0
   13.7599    6.2500  -60.4371 H   0  0  0  0  0  0  0  0  0  0  0  0
   11.3446    6.8688  -60.4621 H   0  0  0  0  0  0  0  0  0  0  0  0
    9.6872    5.4923  -59.2094 H   0  0  0  0  0  0  0  0  0  0  0  0
   11.2217    2.5838  -55.8831 H   0  0  0  0  0  0  0  0  0  0  0  0
    9.3809   -1.0532  -55.0580 H   0  0  0  0  0  0  0  0  0  0  0  0
    9.7584   -0.2887  -53.4678 H   0  0  0  0  0  0  0  0  0  0  0  0
    6.1123   -2.5293  -54.0021 H   0  0  0  0  0  0  0  0  0  0  0  0
    7.2780   -2.3268  -55.3708 H   0  0  0  0  0  0  0  0  0  0  0  0
  1  2  2  0
  2  3  1  0
  3  4  1  0
  4  5  1  0
  5  6  1  0
  6  7  1  0
  7  8  1  0
  8  9  1  0
  9 10  1  6
 10 11  1  0
 11 12  1  0
 12 13  2  0
 13 14  1  0
 14 15  1  0
 15 16  1  0
 16 17  1  0
 17 18  2  0
 18 19  1  0
 19 20  2  0
 20 21  1  0
 21 22  2  0
 16 23  2  0
 23 24  1  0
 24 25  1  0
  9 26  1  0
  9 27  1  0
  7  2  1  0
 25 11  2  0
 27  3  1  0
 26  5  1  0
 24 14  2  0
 22 17  1  0
  3 28  1  6
  4 29  1  0
  4 30  1  0
  5 31  1  1
  6 32  1  0
  6 33  1  0
  7 34  1  1
  8 35  1  0
  8 36  1  0
 10 37  1  0
 12 38  1  0
 13 39  1  0
 15 40  1  0
 18 41  1  0
 19 42  1  0
 20 43  1  0
 21 44  1  0
 22 45  1  0
 23 46  1  0
 26 47  1  0
 26 48  1  0
 27 49  1  0
 27 50  1  0
M  END
>  <meeko>  (134) 
{"is_sidechain": false}

$$$$

     RDKit          3D

 50 55  0  0  0  0  0  0  0  0999 V2000
   11.5320    6.3480  -59.7540 O   0  0  0  0  0  0  0  0  0  0  0  0
   10.7530    5.4270  -59.5300 C   0  0  0  0  0  0  0  0  0  0  0  0
   10.8980    4.0490  -60.1510 C   0  0  2  0  0  0  0  0  0  0  0  0
    9.6410    3.7920  -60.9890 C   0  0  0  0  0  0  0  0  0  0  0  0
    8.3900    3.8690  -60.0930 C   0  0  2  0  0  0  0  0  0  0  0  0
    8.2970    5.2770  -59.4720 C   0  0  0  0  0  0  0  0  0  0  0  0
    9.5420    5.5720  -58.6230 C   0  0  1  0  0  0  0  0  0  0  0  0
    9.6850    4.5400  -57.4970 C   0  0  0  0  0  0  0  0  0  0  0  0
    9.7300    3.1130  -58.0860 C   0  0  1  0  0  0  0  0  0  0  0  0
    9.9420    2.0960  -57.0680 N   0  0  0  0  0  0  0  0  0  0  0  0
    9.0890    1.4230  -56.3740 C   0  0  0  0  0  0  0  0  0  0  0  0
    7.5730    1.5440  -56.4640 C   0  0  0  0  0  0  0  0  0  0  0  0
    6.7990    0.7750  -55.6750 C   0  0  0  0  0  0  0  0  0  0  0  0
    7.4920   -0.0950  -54.8170 C   0  0  0  0  0  0  0  0  0  0  0  0
    6.9130   -0.9570  -53.9340 N   0  0  0  0  0  0  0  0  0  0  0  0
    7.9030   -1.6540  -53.2570 C   0  0  0  0  0  0  0  0  0  0  0  0
    7.6050   -2.6510  -52.2260 C   0  0  0  0  0  0  0  0  0  0  0  0
    8.4250   -2.7650  -51.0960 C   0  0  0  0  0  0  0  0  0  0  0  0
    8.1470   -3.7100  -50.1050 C   0  0  0  0  0  0  0  0  0  0  0  0
    7.0490   -4.5560  -50.2360 C   0  0  0  0  0  0  0  0  0  0  0  0
    6.2290   -4.4590  -51.3580 C   0  0  0  0  0  0  0  0  0  0  0  0
    6.5050   -3.5120  -52.3480 C   0  0  0  0  0  0  0  0  0  0  0  0
    9.1270   -1.1910  -53.7360 C   0  0  0  0  0  0  0  0  0  0  0  0
    8.8490   -0.2230  -54.7120 C   0  0  0  0  0  0  0  0  0  0  0  0
    9.6590    0.5230  -55.4800 N   0  0  0  0  0  0  0  0  0  0  0  0
    8.5010    2.8210  -58.9710 C   0  0  0  0  0  0  0  0  0  0  0  0
   10.9910    3.0400  -59.0040 C   0  0  0  0  0  0  0  0  0  0  0  0
   11.7901    3.9650  -60.7891 H   0  0  0  0  0  0  0  0  0  0  0  0
    9.5694    4.5512  -61.7818 H   0  0  0  0  0  0  0  0  0  0  0  0
    9.7037    2.7902  -61.4389 H   0  0  0  0  0  0  0  0  0  0  0  0
    7.4904    3.6697  -60.6938 H   0  0  0  0  0  0  0  0  0  0  0  0
    8.2219    6.0235  -60.2764 H   0  0  0  0  0  0  0  0  0  0  0  0
    7.4068    5.3242  -58.8275 H   0  0  0  0  0  0  0  0  0  0  0  0
    9.4590    6.5786  -58.1873 H   0  0  0  0  0  0  0  0  0  0  0  0
   10.6148    4.7338  -56.9421 H   0  0  0  0  0  0  0  0  0  0  0  0
    8.8210    4.6230  -56.8213 H   0  0  0  0  0  0  0  0  0  0  0  0
    7.1144    2.2540  -57.1680 H   0  0  0  0  0  0  0  0  0  0  0  0
    5.7004    0.8246  -55.7005 H   0  0  0  0  0  0  0  0  0  0  0  0
    5.9210   -1.0620  -53.7720 H   0  0  0  0  0  0  0  0  0  0  0  0
    9.2971   -2.1035  -50.9877 H   0  0  0  0  0  0  0  0  0  0  0  0
    8.7964   -3.7856  -49.2203 H   0  0  0  0  0  0  0  0  0  0  0  0
    6.8295   -5.2993  -49.4554 H   0  0  0  0  0  0  0  0  0  0  0  0
    5.3630   -5.1288  -51.4649 H   0  0  0  0  0  0  0  0  0  0  0  0
    5.8532   -3.4414  -53.2313 H   0  0  0  0  0  0  0  0  0  0  0  0
   10.1239   -1.5225  -53.4099 H   0  0  0  0  0  0  0  0  0  0  0  0
   10.6690    0.4900  -55.4640 H   0  0  0  0  0  0  0  0  0  0  0  0
    8.6045    1.8210  -59.4174 H   0  0  0  0  0  0  0  0  0  0  0  0
    7.5942    2.8642  -58.3498 H   0  0  0  0  0  0  0  0  0  0  0  0
   11.8857    3.2607  -58.4033 H   0  0  0  0  0  0  0  0  0  0  0  0
   11.0523    2.0289  -59.4329 H   0  0  0  0  0  0  0  0  0  0  0  0
  1  2  2  0
  2  3  1  0
  3  4  1  0
  4  5  1  0
  5  6  1  0
  6  7  1  0
  7  8  1  0
  8  9  1  0
  9 10  1  1
 10 11  2  0
 11 12  1  0
 12 13  2  0
 13 14  1  0
 14 15  1  0
 15 16  1  0
 16 17  1  0
 17 18  2  0
 18 19  1  0
 19 20  2  0
 20 21  1  0
 21 22  2  0
 16 23  2  0
 23 24  1  0
 24 25  1  0
  9 26  1  0
  9 27  1  0
  7  2  1  0
 25 11  1  0
 27  3  1  0
 26  5  1  0
 24 14  2  0
 22 17  1  0
  3 28  1  6
  4 29  1  0
  4 30  1  0
  5 31  1  6
  6 32  1  0
  6 33  1  0
  7 34  1  1
  8 35  1  0
  8 36  1  0
 12 37  1  0
 13 38  1  0
 15 39  1  0
 18 40  1  0
 19 41  1  0
 20 42  1  0
 21 43  1  0
 22 44  1  0
 23 45  1  0
 25 46  1  0
 26 47  1  0
 26 48  1  0
 27 49  1  0
 27 50  1  0
M  END
>  <meeko>  (135) 
{"is_sidechain": false}

$$$$

     RDKit          3D

 50 55  0  0  0  0  0  0  0  0999 V2000
   11.3270    6.0420  -59.9160 O   0  0  0  0  0  0  0  0  0  0  0  0
   10.6290    5.2220  -59.3300 C   0  0  0  0  0  0  0  0  0  0  0  0
    9.9110    4.0870  -60.0430 C   0  0  2  0  0  0  0  0  0  0  0  0
    8.4100    4.2710  -59.7940 C   0  0  0  0  0  0  0  0  0  0  0  0
    8.1230    4.2620  -58.2800 C   0  0  2  0  0  0  0  0  0  0  0  0
    8.8780    5.4290  -57.6170 C   0  0  0  0  0  0  0  0  0  0  0  0
   10.3860    5.2650  -57.8290 C   0  0  1  0  0  0  0  0  0  0  0  0
   10.8680    3.9320  -57.2480 C   0  0  0  0  0  0  0  0  0  0  0  0
   10.1150    2.7420  -57.9000 C   0  0  1  0  0  0  0  0  0  0  0  0
   10.7220    1.5290  -57.3850 N   0  0  0  0  0  0  0  0  0  0  0  0
   10.3870    0.6690  -56.4940 C   0  0  0  0  0  0  0  0  0  0  0  0
   11.4270   -0.4430  -56.3550 C   0  0  0  0  0  0  0  0  0  0  0  0
   11.2430   -1.4330  -55.4640 C   0  0  0  0  0  0  0  0  0  0  0  0
   10.0570   -1.3410  -54.7170 C   0  0  0  0  0  0  0  0  0  0  0  0
    9.6610   -2.2280  -53.7620 N   0  0  0  0  0  0  0  0  0  0  0  0
    8.4450   -1.8190  -53.2330 C   0  0  0  0  0  0  0  0  0  0  0  0
    7.7440   -2.5690  -52.1890 C   0  0  0  0  0  0  0  0  0  0  0  0
    6.7610   -3.5140  -52.5130 C   0  0  0  0  0  0  0  0  0  0  0  0
    6.0950   -4.2230  -51.5100 C   0  0  0  0  0  0  0  0  0  0  0  0
    6.4070   -3.9950  -50.1710 C   0  0  0  0  0  0  0  0  0  0  0  0
    7.3840   -3.0630  -49.8350 C   0  0  0  0  0  0  0  0  0  0  0  0
    8.0510   -2.3550  -50.8390 C   0  0  0  0  0  0  0  0  0  0  0  0
    8.0850   -0.6500  -53.9000 C   0  0  0  0  0  0  0  0  0  0  0  0
    9.1060   -0.3630  -54.8180 C   0  0  0  0  0  0  0  0  0  0  0  0
    9.2490    0.6480  -55.6970 N   0  0  0  0  0  0  0  0  0  0  0  0
    8.6060    2.9290  -57.6750 C   0  0  0  0  0  0  0  0  0  0  0  0
   10.4000    2.7740  -59.4250 C   0  0  0  0  0  0  0  0  0  0  0  0
   10.1075    4.0775  -61.1253 H   0  0  0  0  0  0  0  0  0  0  0  0
    8.0847    5.2312  -60.2209 H   0  0  0  0  0  0  0  0  0  0  0  0
    7.8606    3.4460  -60.2710 H   0  0  0  0  0  0  0  0  0  0  0  0
    7.0425    4.3724  -58.1059 H   0  0  0  0  0  0  0  0  0  0  0  0
    8.5482    6.3778  -58.0653 H   0  0  0  0  0  0  0  0  0  0  0  0
    8.6632    5.4316  -56.5382 H   0  0  0  0  0  0  0  0  0  0  0  0
   10.9195    6.0925  -57.3385 H   0  0  0  0  0  0  0  0  0  0  0  0
   11.9460    3.8244  -57.4384 H   0  0  0  0  0  0  0  0  0  0  0  0
   10.6676    3.9259  -56.1664 H   0  0  0  0  0  0  0  0  0  0  0  0
   12.3282   -0.4331  -56.9856 H   0  0  0  0  0  0  0  0  0  0  0  0
   11.9654   -2.2517  -55.3304 H   0  0  0  0  0  0  0  0  0  0  0  0
   10.1560   -3.0670  -53.4890 H   0  0  0  0  0  0  0  0  0  0  0  0
    6.5112   -3.6995  -53.5681 H   0  0  0  0  0  0  0  0  0  0  0  0
    5.3244   -4.9611  -51.7772 H   0  0  0  0  0  0  0  0  0  0  0  0
    5.8815   -4.5512  -49.3807 H   0  0  0  0  0  0  0  0  0  0  0  0
    7.6317   -2.8832  -48.7785 H   0  0  0  0  0  0  0  0  0  0  0  0
    8.8248   -1.6224  -50.5662 H   0  0  0  0  0  0  0  0  0  0  0  0
    7.1701   -0.0615  -53.7370 H   0  0  0  0  0  0  0  0  0  0  0  0
    8.5600    1.3720  -55.7770 H   0  0  0  0  0  0  0  0  0  0  0  0
    8.0647    2.0991  -58.1527 H   0  0  0  0  0  0  0  0  0  0  0  0
    8.4100    2.9417  -56.5927 H   0  0  0  0  0  0  0  0  0  0  0  0
   11.4832    2.6787  -59.5914 H   0  0  0  0  0  0  0  0  0  0  0  0
    9.8642    1.9396  -59.9010 H   0  0  0  0  0  0  0  0  0  0  0  0
  1  2  2  0
  2  3  1  0
  3  4  1  0
  4  5  1  0
  5  6  1  0
  6  7  1  0
  7  8  1  0
  8  9  1  0
  9 10  1  1
 10 11  2  0
 11 12  1  0
 12 13  2  0
 13 14  1  0
 14 15  1  0
 15 16  1  0
 16 17  1  0
 17 18  2  0
 18 19  1  0
 19 20  2  0
 20 21  1  0
 21 22  2  0
 16 23  2  0
 23 24  1  0
 24 25  1  0
  9 26  1  0
  9 27  1  0
  7  2  1  0
 25 11  1  0
 27  3  1  0
 26  5  1  0
 24 14  2  0
 22 17  1  0
  3 28  1  6
  4 29  1  0
  4 30  1  0
  5 31  1  6
  6 32  1  0
  6 33  1  0
  7 34  1  1
  8 35  1  0
  8 36  1  0
 12 37  1  0
 13 38  1  0
 15 39  1  0
 18 40  1  0
 19 41  1  0
 20 42  1  0
 21 43  1  0
 22 44  1  0
 23 45  1  0
 25 46  1  0
 26 47  1  0
 26 48  1  0
 27 49  1  0
 27 50  1  0
M  END
>  <meeko>  (136) 
{"is_sidechain": false}

$$$$

     RDKit          3D

 51 56  0  0  0  0  0  0  0  0999 V2000
    7.1440   -4.5990  -50.1860 C   0  0  0  0  0  0  0  0  0  0  0  0
    8.2190   -3.7150  -50.1640 C   0  0  0  0  0  0  0  0  0  0  0  0
    8.3490   -2.7490  -51.1640 C   0  0  0  0  0  0  0  0  0  0  0  0
    7.4040   -2.6600  -52.1970 C   0  0  0  0  0  0  0  0  0  0  0  0
    7.5930   -1.6140  -53.2310 C   0  0  0  0  0  0  0  0  0  0  0  0
    8.9370   -1.2100  -53.6950 C   0  0  0  0  0  0  0  0  0  0  0  0
    8.6410   -0.2670  -54.5890 C   0  0  0  0  0  0  0  0  0  0  0  0
    9.4150    0.5290  -55.3920 N   0  0  0  0  0  0  0  0  0  0  0  0
    8.8890    1.4200  -56.3220 C   0  0  0  0  0  0  0  0  0  0  0  0
    9.7960    2.1230  -57.0880 N   0  0  0  0  0  0  0  0  0  0  0  0
    9.6180    3.0660  -58.1930 C   0  0  2  0  0  0  0  0  0  0  0  0
   11.0120    3.2610  -58.8610 C   0  0  0  0  0  0  0  0  0  0  0  0
   10.9260    4.2420  -60.0420 C   0  0  1  0  0  0  0  0  0  0  0  0
    9.9450    3.6890  -61.0860 C   0  0  0  0  0  0  0  0  0  0  0  0
    8.5580    3.5020  -60.4520 C   0  0  2  0  0  0  0  0  0  0  0  0
    8.0510    4.8580  -59.9290 C   0  0  0  0  0  0  0  0  0  0  0  0
    9.0310    5.4280  -58.8870 C   0  0  2  0  0  0  0  0  0  0  0  0
   10.4140    5.5980  -59.5320 C   0  0  0  0  0  0  0  0  0  0  0  0
    9.1390    4.4490  -57.7030 C   0  0  0  0  0  0  0  0  0  0  0  0
    8.6650    2.5120  -59.2780 C   0  0  0  0  0  0  0  0  0  0  0  0
    7.5380    1.5290  -56.3960 C   0  0  0  0  0  0  0  0  0  0  0  0
    6.6580    0.7400  -55.5380 C   0  0  0  0  0  0  0  0  0  0  0  0
    7.2040   -0.1230  -54.6740 C   0  0  0  0  0  0  0  0  0  0  0  0
    6.5980   -0.9790  -53.8000 N   0  0  0  0  0  0  0  0  0  0  0  0
    6.3250   -3.5520  -52.2100 C   0  0  0  0  0  0  0  0  0  0  0  0
    6.1980   -4.5170  -51.2070 C   0  0  0  0  0  0  0  0  0  0  0  0
    7.0410   -5.3609  -49.3993 H   0  0  0  0  0  0  0  0  0  0  0  0
    8.9660   -3.7773  -49.3590 H   0  0  0  0  0  0  0  0  0  0  0  0
    9.1996   -2.0519  -51.1415 H   0  0  0  0  0  0  0  0  0  0  0  0
    9.9221   -1.5881  -53.3842 H   0  0  0  0  0  0  0  0  0  0  0  0
   10.4010    0.3260  -55.4570 H   0  0  0  0  0  0  0  0  0  0  0  0
   10.6410    2.2970  -56.5530 H   0  0  0  0  0  0  0  0  0  0  0  0
   11.7160    3.6577  -58.1146 H   0  0  0  0  0  0  0  0  0  0  0  0
   11.3582    2.2877  -59.2390 H   0  0  0  0  0  0  0  0  0  0  0  0
   11.9194    4.3673  -60.4975 H   0  0  0  0  0  0  0  0  0  0  0  0
    9.8699    4.3951  -61.9261 H   0  0  0  0  0  0  0  0  0  0  0  0
   10.3116    2.7174  -61.4488 H   0  0  0  0  0  0  0  0  0  0  0  0
    7.8572    3.1101  -61.2039 H   0  0  0  0  0  0  0  0  0  0  0  0
    7.9649    5.5622  -60.7697 H   0  0  0  0  0  0  0  0  0  0  0  0
    7.0683    4.7148  -59.4559 H   0  0  0  0  0  0  0  0  0  0  0  0
    8.6669    6.4026  -58.5299 H   0  0  0  0  0  0  0  0  0  0  0  0
   10.3387    6.2997  -60.3757 H   0  0  0  0  0  0  0  0  0  0  0  0
   11.1165    5.9905  -58.7820 H   0  0  0  0  0  0  0  0  0  0  0  0
    9.8585    4.8436  -56.9705 H   0  0  0  0  0  0  0  0  0  0  0  0
    8.1483    4.3401  -57.2374 H   0  0  0  0  0  0  0  0  0  0  0  0
    7.6674    2.3587  -58.8406 H   0  0  0  0  0  0  0  0  0  0  0  0
    9.0641    1.5571  -59.6507 H   0  0  0  0  0  0  0  0  0  0  0  0
    7.0951    2.2288  -57.1200 H   0  0  0  0  0  0  0  0  0  0  0  0
    5.5657    0.8534  -55.6011 H   0  0  0  0  0  0  0  0  0  0  0  0
    5.5747   -3.4931  -53.0123 H   0  0  0  0  0  0  0  0  0  0  0  0
    5.3479   -5.2149  -51.2232 H   0  0  0  0  0  0  0  0  0  0  0  0
  1  2  2  0
  2  3  1  0
  3  4  2  0
  4  5  1  0
  5  6  1  0
  6  7  2  0
  7  8  1  0
  8  9  1  0
  9 10  1  0
 11 10  1  1
 11 12  1  0
 12 13  1  0
 13 14  1  0
 14 15  1  0
 15 16  1  0
 16 17  1  0
 17 18  1  0
 17 19  1  0
 15 20  1  0
  9 21  2  0
 21 22  1  0
 22 23  2  0
 23 24  1  0
  4 25  1  0
 25 26  2  0
 26  1  1  0
 24  5  2  0
 23  7  1  0
 19 11  1  0
 20 11  1  0
 18 13  1  0
  1 27  1  0
  2 28  1  0
  3 29  1  0
  6 30  1  0
  8 31  1  0
 10 32  1  0
 12 33  1  0
 12 34  1  0
 13 35  1  6
 14 36  1  0
 14 37  1  0
 15 38  1  6
 16 39  1  0
 16 40  1  0
 17 41  1  1
 18 42  1  0
 18 43  1  0
 19 44  1  0
 19 45  1  0
 20 46  1  0
 20 47  1  0
 21 48  1  0
 22 49  1  0
 25 50  1  0
 26 51  1  0
M  END
>  <meeko>  (137) 
{"is_sidechain": false}

$$$$

     RDKit          3D

 51 56  0  0  0  0  0  0  0  0999 V2000
    6.8590   -4.3890  -50.3510 C   0  0  0  0  0  0  0  0  0  0  0  0
    6.2880   -4.4280  -51.6210 C   0  0  0  0  0  0  0  0  0  0  0  0
    6.6630   -3.4910  -52.5860 C   0  0  0  0  0  0  0  0  0  0  0  0
    7.6100   -2.5000  -52.2920 C   0  0  0  0  0  0  0  0  0  0  0  0
    7.9920   -1.5200  -53.3100 C   0  0  0  0  0  0  0  0  0  0  0  0
    9.2310   -1.2240  -53.8580 C   0  0  0  0  0  0  0  0  0  0  0  0
    9.0590   -0.2030  -54.8210 C   0  0  0  0  0  0  0  0  0  0  0  0
    9.9860    0.4030  -55.5990 N   0  0  0  0  0  0  0  0  0  0  0  0
    9.5170    1.3350  -56.4470 C   0  0  0  0  0  0  0  0  0  0  0  0
   10.4900    1.9510  -57.2410 N   0  0  0  0  0  0  0  0  0  0  0  0
   10.0430    2.9170  -58.2700 C   0  0  2  0  0  0  0  0  0  0  0  0
    9.0450    2.2910  -59.2770 C   0  0  0  0  0  0  0  0  0  0  0  0
    8.6960    3.2980  -60.3870 C   0  0  1  0  0  0  0  0  0  0  0  0
    8.0760    4.5570  -59.7550 C   0  0  0  0  0  0  0  0  0  0  0  0
    9.0740    5.2070  -58.7800 C   0  0  2  0  0  0  0  0  0  0  0  0
   10.3510    5.5890  -59.5440 C   0  0  0  0  0  0  0  0  0  0  0  0
   10.9790    4.3360  -60.1720 C   0  0  2  0  0  0  0  0  0  0  0  0
    9.9750    3.6920  -61.1400 C   0  0  0  0  0  0  0  0  0  0  0  0
   11.3180    3.3350  -59.0580 C   0  0  0  0  0  0  0  0  0  0  0  0
    9.4220    4.1980  -57.6680 C   0  0  0  0  0  0  0  0  0  0  0  0
    8.1780    1.7120  -56.5200 C   0  0  0  0  0  0  0  0  0  0  0  0
    7.2210    1.0910  -55.7170 C   0  0  0  0  0  0  0  0  0  0  0  0
    7.7070    0.1110  -54.8600 C   0  0  0  0  0  0  0  0  0  0  0  0
    7.0820   -0.6960  -53.9430 N   0  0  0  0  0  0  0  0  0  0  0  0
    8.1800   -2.4750  -51.0120 C   0  0  0  0  0  0  0  0  0  0  0  0
    7.8060   -3.4140  -50.0470 C   0  0  0  0  0  0  0  0  0  0  0  0
    6.5628   -5.1263  -49.5903 H   0  0  0  0  0  0  0  0  0  0  0  0
    5.5408   -5.1978  -51.8640 H   0  0  0  0  0  0  0  0  0  0  0  0
    6.2104   -3.5309  -53.5878 H   0  0  0  0  0  0  0  0  0  0  0  0
   10.1847   -1.7018  -53.5894 H   0  0  0  0  0  0  0  0  0  0  0  0
   10.8690    1.1390  -57.7370 H   0  0  0  0  0  0  0  0  0  0  0  0
    9.4997    1.3972  -59.7291 H   0  0  0  0  0  0  0  0  0  0  0  0
    8.1236    2.0183  -58.7416 H   0  0  0  0  0  0  0  0  0  0  0  0
    7.9804    2.8403  -61.0859 H   0  0  0  0  0  0  0  0  0  0  0  0
    7.8228    5.2753  -60.5487 H   0  0  0  0  0  0  0  0  0  0  0  0
    7.1679    4.2724  -59.2034 H   0  0  0  0  0  0  0  0  0  0  0  0
    8.6291    6.1089  -58.3343 H   0  0  0  0  0  0  0  0  0  0  0  0
   10.0999    6.3080  -60.3377 H   0  0  0  0  0  0  0  0  0  0  0  0
   11.0692    6.0425  -58.8451 H   0  0  0  0  0  0  0  0  0  0  0  0
   11.8922    4.6130  -60.7191 H   0  0  0  0  0  0  0  0  0  0  0  0
    9.7232    4.4101  -61.9343 H   0  0  0  0  0  0  0  0  0  0  0  0
   10.4262    2.7906  -61.5804 H   0  0  0  0  0  0  0  0  0  0  0  0
   11.7723    2.4392  -59.5066 H   0  0  0  0  0  0  0  0  0  0  0  0
   12.0177    3.8159  -58.3586 H   0  0  0  0  0  0  0  0  0  0  0  0
   10.1423    4.6577  -56.9753 H   0  0  0  0  0  0  0  0  0  0  0  0
    8.4994    3.9273  -57.1336 H   0  0  0  0  0  0  0  0  0  0  0  0
    7.8725    2.5063  -57.2169 H   0  0  0  0  0  0  0  0  0  0  0  0
    6.1549    1.3587  -55.7593 H   0  0  0  0  0  0  0  0  0  0  0  0
    6.0870   -0.7020  -53.7700 H   0  0  0  0  0  0  0  0  0  0  0  0
    8.9293   -1.7086  -50.7644 H   0  0  0  0  0  0  0  0  0  0  0  0
    8.2603   -3.3831  -49.0457 H   0  0  0  0  0  0  0  0  0  0  0  0
  1  2  2  0
  2  3  1  0
  3  4  2  0
  4  5  1  0
  5  6  2  0
  6  7  1  0
  7  8  1  0
  8  9  2  0
  9 10  1  0
 11 10  1  1
 11 12  1  0
 12 13  1  0
 13 14  1  0
 14 15  1  0
 15 16  1  0
 16 17  1  0
 17 18  1  0
 17 19  1  0
 15 20  1  0
  9 21  1  0
 21 22  2  0
 22 23  1  0
 23 24  1  0
  4 25  1  0
 25 26  2  0
 26  1  1  0
 24  5  1  0
 23  7  2  0
 19 11  1  0
 20 11  1  0
 18 13  1  0
  1 27  1  0
  2 28  1  0
  3 29  1  0
  6 30  1  0
 10 31  1  0
 12 32  1  0
 12 33  1  0
 13 34  1  6
 14 35  1  0
 14 36  1  0
 15 37  1  1
 16 38  1  0
 16 39  1  0
 17 40  1  6
 18 41  1  0
 18 42  1  0
 19 43  1  0
 19 44  1  0
 20 45  1  0
 20 46  1  0
 21 47  1  0
 22 48  1  0
 24 49  1  0
 25 50  1  0
 26 51  1  0
M  END
>  <meeko>  (138) 
{"is_sidechain": false}

$$$$

     RDKit          3D

 51 56  0  0  0  0  0  0  0  0999 V2000
    7.1680   -4.6190  -50.2650 C   0  0  0  0  0  0  0  0  0  0  0  0
    6.3430   -4.4990  -51.3800 C   0  0  0  0  0  0  0  0  0  0  0  0
    6.6150   -3.5330  -52.3520 C   0  0  0  0  0  0  0  0  0  0  0  0
    7.7140   -2.6730  -52.2180 C   0  0  0  0  0  0  0  0  0  0  0  0
    7.9880   -1.6620  -53.2400 C   0  0  0  0  0  0  0  0  0  0  0  0
    9.1970   -1.2410  -53.7920 C   0  0  0  0  0  0  0  0  0  0  0  0
    8.8980   -0.2560  -54.7430 C   0  0  0  0  0  0  0  0  0  0  0  0
    9.6870    0.4710  -55.5490 N   0  0  0  0  0  0  0  0  0  0  0  0
    9.0980    1.3900  -56.4120 C   0  0  0  0  0  0  0  0  0  0  0  0
    9.9330    2.0420  -57.1460 N   0  0  0  0  0  0  0  0  0  0  0  0
    9.6940    3.0670  -58.1510 C   0  0  2  0  0  0  0  0  0  0  0  0
    8.7600    2.5880  -59.2810 C   0  0  0  0  0  0  0  0  0  0  0  0
    8.6320    3.6750  -60.3620 C   0  0  1  0  0  0  0  0  0  0  0  0
    8.1000    4.9710  -59.7210 C   0  0  0  0  0  0  0  0  0  0  0  0
    9.0720    5.4690  -58.6360 C   0  0  2  0  0  0  0  0  0  0  0  0
   10.4500    5.7210  -59.2660 C   0  0  0  0  0  0  0  0  0  0  0  0
   10.9860    4.4220  -59.8870 C   0  0  2  0  0  0  0  0  0  0  0  0
   10.0140    3.9430  -60.9770 C   0  0  0  0  0  0  0  0  0  0  0  0
   11.0850    3.3450  -58.7940 C   0  0  0  0  0  0  0  0  0  0  0  0
    9.2040    4.3970  -57.5400 C   0  0  0  0  0  0  0  0  0  0  0  0
    7.5840    1.5500  -56.4260 C   0  0  0  0  0  0  0  0  0  0  0  0
    6.8300    0.8000  -55.6000 C   0  0  0  0  0  0  0  0  0  0  0  0
    7.5410   -0.0890  -54.7760 C   0  0  0  0  0  0  0  0  0  0  0  0
    6.9840   -0.9400  -53.8710 N   0  0  0  0  0  0  0  0  0  0  0  0
    8.5400   -2.8090  -51.0940 C   0  0  0  0  0  0  0  0  0  0  0  0
    8.2680   -3.7770  -50.1220 C   0  0  0  0  0  0  0  0  0  0  0  0
    6.9514   -5.3775  -49.4984 H   0  0  0  0  0  0  0  0  0  0  0  0
    5.4758   -5.1657  -51.4958 H   0  0  0  0  0  0  0  0  0  0  0  0
    5.9601   -3.4463  -53.2315 H   0  0  0  0  0  0  0  0  0  0  0  0
   10.1986   -1.6126  -53.5300 H   0  0  0  0  0  0  0  0  0  0  0  0
   10.6950    0.4120  -55.5870 H   0  0  0  0  0  0  0  0  0  0  0  0
    9.1744    1.6743  -59.7320 H   0  0  0  0  0  0  0  0  0  0  0  0
    7.7648    2.3815  -58.8604 H   0  0  0  0  0  0  0  0  0  0  0  0
    7.9370    3.3381  -61.1452 H   0  0  0  0  0  0  0  0  0  0  0  0
    7.9960    5.7435  -60.4972 H   0  0  0  0  0  0  0  0  0  0  0  0
    7.1228    4.7666  -59.2592 H   0  0  0  0  0  0  0  0  0  0  0  0
    8.6889    6.4020  -58.1971 H   0  0  0  0  0  0  0  0  0  0  0  0
   10.3585    6.4888  -60.0484 H   0  0  0  0  0  0  0  0  0  0  0  0
   11.1469    6.0649  -58.4875 H   0  0  0  0  0  0  0  0  0  0  0  0
   11.9783    4.6022  -60.3262 H   0  0  0  0  0  0  0  0  0  0  0  0
    9.9244    4.7181  -61.7524 H   0  0  0  0  0  0  0  0  0  0  0  0
   10.3987    3.0142  -61.4234 H   0  0  0  0  0  0  0  0  0  0  0  0
   11.4666    2.4148  -59.2401 H   0  0  0  0  0  0  0  0  0  0  0  0
   11.7660    3.7061  -58.0093 H   0  0  0  0  0  0  0  0  0  0  0  0
    9.9268    4.7375  -56.7839 H   0  0  0  0  0  0  0  0  0  0  0  0
    8.2204    4.2370  -57.0743 H   0  0  0  0  0  0  0  0  0  0  0  0
    7.1095    2.2730  -57.1059 H   0  0  0  0  0  0  0  0  0  0  0  0
    5.7331    0.8779  -55.5722 H   0  0  0  0  0  0  0  0  0  0  0  0
    5.9950   -1.0550  -53.6940 H   0  0  0  0  0  0  0  0  0  0  0  0
    9.4110   -2.1477  -50.9751 H   0  0  0  0  0  0  0  0  0  0  0  0
    8.9234   -3.8734  -49.2439 H   0  0  0  0  0  0  0  0  0  0  0  0
  1  2  2  0
  2  3  1  0
  3  4  2  0
  4  5  1  0
  5  6  2  0
  6  7  1  0
  7  8  1  0
  8  9  1  0
  9 10  2  0
 11 10  1  1
 11 12  1  0
 12 13  1  0
 13 14  1  0
 14 15  1  0
 15 16  1  0
 16 17  1  0
 17 18  1  0
 17 19  1  0
 15 20  1  0
  9 21  1  0
 21 22  2  0
 22 23  1  0
 23 24  1  0
  4 25  1  0
 25 26  2  0
 26  1  1  0
 24  5  1  0
 23  7  2  0
 19 11  1  0
 20 11  1  0
 18 13  1  0
  1 27  1  0
  2 28  1  0
  3 29  1  0
  6 30  1  0
  8 31  1  0
 12 32  1  0
 12 33  1  0
 13 34  1  6
 14 35  1  0
 14 36  1  0
 15 37  1  1
 16 38  1  0
 16 39  1  0
 17 40  1  6
 18 41  1  0
 18 42  1  0
 19 43  1  0
 19 44  1  0
 20 45  1  0
 20 46  1  0
 21 47  1  0
 22 48  1  0
 24 49  1  0
 25 50  1  0
 26 51  1  0
M  END
>  <meeko>  (139) 
{"is_sidechain": false}

$$$$

     RDKit          3D

 51 56  0  0  0  0  0  0  0  0999 V2000
    8.8750   -3.5250  -50.0500 C   0  0  0  0  0  0  0  0  0  0  0  0
    7.7060   -2.7680  -50.0610 C   0  0  0  0  0  0  0  0  0  0  0  0
    7.4390   -1.9090  -51.1310 C   0  0  0  0  0  0  0  0  0  0  0  0
    8.3400   -1.7970  -52.2000 C   0  0  0  0  0  0  0  0  0  0  0  0
    8.0700   -0.8980  -53.3240 C   0  0  0  0  0  0  0  0  0  0  0  0
    8.9460   -0.1650  -54.1220 C   0  0  0  0  0  0  0  0  0  0  0  0
    8.1680    0.5460  -55.0490 C   0  0  0  0  0  0  0  0  0  0  0  0
    8.5190    1.3890  -56.0380 N   0  0  0  0  0  0  0  0  0  0  0  0
    7.5050    1.9540  -56.8040 C   0  0  0  0  0  0  0  0  0  0  0  0
    7.6390    2.7780  -57.7870 N   0  0  0  0  0  0  0  0  0  0  0  0
    8.8850    3.3100  -58.3290 C   0  0  2  0  0  0  0  0  0  0  0  0
    9.5880    2.3160  -59.2770 C   0  0  0  0  0  0  0  0  0  0  0  0
   10.8400    2.9670  -59.8940 C   0  0  1  0  0  0  0  0  0  0  0  0
   10.4190    4.1960  -60.7160 C   0  0  0  0  0  0  0  0  0  0  0  0
    9.7110    5.2140  -59.8090 C   0  0  2  0  0  0  0  0  0  0  0  0
   10.6730    5.6560  -58.6960 C   0  0  0  0  0  0  0  0  0  0  0  0
   11.0950    4.4400  -57.8570 C   0  0  2  0  0  0  0  0  0  0  0  0
   11.7900    3.4110  -58.7670 C   0  0  0  0  0  0  0  0  0  0  0  0
    9.8450    3.8010  -57.2260 C   0  0  0  0  0  0  0  0  0  0  0  0
    8.4780    4.5510  -59.1750 C   0  0  0  0  0  0  0  0  0  0  0  0
    6.0470    1.6140  -56.5110 C   0  0  0  0  0  0  0  0  0  0  0  0
    5.7450    0.7650  -55.5130 C   0  0  0  0  0  0  0  0  0  0  0  0
    6.8530    0.2570  -54.8120 C   0  0  0  0  0  0  0  0  0  0  0  0
    6.7860   -0.6140  -53.7660 N   0  0  0  0  0  0  0  0  0  0  0  0
    9.5090   -2.5690  -52.1780 C   0  0  0  0  0  0  0  0  0  0  0  0
    9.7760   -3.4270  -51.1080 C   0  0  0  0  0  0  0  0  0  0  0  0
    9.0866   -4.1993  -49.2071 H   0  0  0  0  0  0  0  0  0  0  0  0
    6.9926   -2.8461  -49.2274 H   0  0  0  0  0  0  0  0  0  0  0  0
    6.5131   -1.3150  -51.1346 H   0  0  0  0  0  0  0  0  0  0  0  0
   10.0428   -0.1469  -54.0407 H   0  0  0  0  0  0  0  0  0  0  0  0
    9.4770    1.6180  -56.2380 H   0  0  0  0  0  0  0  0  0  0  0  0
    9.8851    1.4212  -58.7104 H   0  0  0  0  0  0  0  0  0  0  0  0
    8.8940    2.0357  -60.0831 H   0  0  0  0  0  0  0  0  0  0  0  0
   11.3514    2.2428  -60.5451 H   0  0  0  0  0  0  0  0  0  0  0  0
   11.3116    4.6614  -61.1595 H   0  0  0  0  0  0  0  0  0  0  0  0
    9.7297    3.8800  -61.5129 H   0  0  0  0  0  0  0  0  0  0  0  0
    9.4023    6.0879  -60.4015 H   0  0  0  0  0  0  0  0  0  0  0  0
   11.5651    6.1160  -59.1462 H   0  0  0  0  0  0  0  0  0  0  0  0
   10.1660    6.3855  -58.0473 H   0  0  0  0  0  0  0  0  0  0  0  0
   11.7877    4.7585  -57.0641 H   0  0  0  0  0  0  0  0  0  0  0  0
   12.6892    3.8657  -59.2084 H   0  0  0  0  0  0  0  0  0  0  0  0
   12.0682    2.5324  -58.1665 H   0  0  0  0  0  0  0  0  0  0  0  0
   10.1486    2.9476  -56.6019 H   0  0  0  0  0  0  0  0  0  0  0  0
    9.3298    4.5520  -56.6092 H   0  0  0  0  0  0  0  0  0  0  0  0
    7.9724    5.2797  -58.5244 H   0  0  0  0  0  0  0  0  0  0  0  0
    7.8049    4.2208  -59.9800 H   0  0  0  0  0  0  0  0  0  0  0  0
    5.2444    2.0625  -57.1149 H   0  0  0  0  0  0  0  0  0  0  0  0
    4.7098    0.4888  -55.2639 H   0  0  0  0  0  0  0  0  0  0  0  0
    5.9390   -0.9820  -53.3550 H   0  0  0  0  0  0  0  0  0  0  0  0
   10.2236   -2.4990  -53.0113 H   0  0  0  0  0  0  0  0  0  0  0  0
   10.6987   -4.0258  -51.1010 H   0  0  0  0  0  0  0  0  0  0  0  0
  1  2  2  0
  2  3  1  0
  3  4  2  0
  4  5  1  0
  5  6  2  0
  6  7  1  0
  7  8  1  0
  8  9  1  0
  9 10  2  0
 11 10  1  1
 11 12  1  0
 12 13  1  0
 13 14  1  0
 14 15  1  0
 15 16  1  0
 16 17  1  0
 17 18  1  0
 17 19  1  0
 15 20  1  0
  9 21  1  0
 21 22  2  0
 22 23  1  0
 23 24  1  0
  4 25  1  0
 25 26  2  0
 26  1  1  0
 24  5  1  0
 23  7  2  0
 19 11  1  0
 20 11  1  0
 18 13  1  0
  1 27  1  0
  2 28  1  0
  3 29  1  0
  6 30  1  0
  8 31  1  0
 12 32  1  0
 12 33  1  0
 13 34  1  6
 14 35  1  0
 14 36  1  0
 15 37  1  6
 16 38  1  0
 16 39  1  0
 17 40  1  1
 18 41  1  0
 18 42  1  0
 19 43  1  0
 19 44  1  0
 20 45  1  0
 20 46  1  0
 21 47  1  0
 22 48  1  0
 24 49  1  0
 25 50  1  0
 26 51  1  0
M  END
>  <meeko>  (140) 
{"is_sidechain": false}

$$$$

     RDKit          3D

 54 59  0  0  0  0  0  0  0  0999 V2000
    7.2210   -4.8010  -51.9500 O   0  0  0  0  0  0  0  0  0  0  0  0
    7.8660   -3.8780  -52.4270 C   0  0  0  0  0  0  0  0  0  0  0  0
    7.9890   -3.6450  -53.9250 C   0  0  2  0  0  0  0  0  0  0  0  0
    9.4750   -3.5050  -54.2730 C   0  0  0  0  0  0  0  0  0  0  0  0
   10.0990   -2.3470  -53.4740 C   0  0  2  0  0  0  0  0  0  0  0  0
    9.9710   -2.6610  -51.9710 C   0  0  0  0  0  0  0  0  0  0  0  0
    8.4950   -2.7860  -51.5760 C   0  0  1  0  0  0  0  0  0  0  0  0
    7.7400   -1.4850  -51.8990 C   0  0  0  0  0  0  0  0  0  0  0  0
    7.8670   -1.1700  -53.4070 C   0  0  1  0  0  0  0  0  0  0  0  0
    7.1090    0.0710  -53.7610 N   0  0  0  0  0  0  0  0  0  0  0  0
    6.2740    0.1080  -55.0070 C   0  0  0  0  0  0  0  0  0  0  0  0
    6.8230    1.1650  -55.9340 C   0  0  0  0  0  0  0  0  0  0  0  0
    6.0000    1.9490  -56.6730 C   0  0  0  0  0  0  0  0  0  0  0  0
    6.5590    2.9220  -57.6030 C   0  0  0  0  0  0  0  0  0  0  0  0
    7.8890    3.0380  -57.6990 C   0  0  0  0  0  0  0  0  0  0  0  0
    8.6200    3.8950  -58.4640 N   0  0  0  0  0  0  0  0  0  0  0  0
    9.8640    3.6550  -58.1310 C   0  0  0  0  0  0  0  0  0  0  0  0
   11.0180    4.3730  -58.7200 C   0  0  0  0  0  0  0  0  0  0  0  0
   10.8800    5.5650  -59.4440 C   0  0  0  0  0  0  0  0  0  0  0  0
   12.0070    6.1980  -59.9780 C   0  0  0  0  0  0  0  0  0  0  0  0
   13.2740    5.6480  -59.7950 C   0  0  0  0  0  0  0  0  0  0  0  0
   13.4200    4.4620  -59.0790 C   0  0  0  0  0  0  0  0  0  0  0  0
   12.2980    3.8270  -58.5460 C   0  0  0  0  0  0  0  0  0  0  0  0
   10.0360    2.5900  -57.1160 C   0  0  0  0  0  0  0  0  0  0  0  0
    8.7750    2.2200  -56.8940 C   0  0  0  0  0  0  0  0  0  0  0  0
    8.2160    1.2690  -56.0650 N   0  0  0  0  0  0  0  0  0  0  0  0
    9.3550   -1.0340  -53.7930 C   0  0  0  0  0  0  0  0  0  0  0  0
    7.2450   -2.3350  -54.2230 C   0  0  0  0  0  0  0  0  0  0  0  0
    7.5664   -4.4721  -54.5144 H   0  0  0  0  0  0  0  0  0  0  0  0
    9.9966   -4.4410  -54.0244 H   0  0  0  0  0  0  0  0  0  0  0  0
    9.5745   -3.2950  -55.3482 H   0  0  0  0  0  0  0  0  0  0  0  0
   11.1586   -2.2324  -53.7463 H   0  0  0  0  0  0  0  0  0  0  0  0
   10.4861   -3.6082  -51.7533 H   0  0  0  0  0  0  0  0  0  0  0  0
   10.4269   -1.8423  -51.3949 H   0  0  0  0  0  0  0  0  0  0  0  0
    8.4338   -3.0050  -50.4998 H   0  0  0  0  0  0  0  0  0  0  0  0
    6.6780   -1.6042  -51.6385 H   0  0  0  0  0  0  0  0  0  0  0  0
    8.1726   -0.6583  -51.3163 H   0  0  0  0  0  0  0  0  0  0  0  0
    7.7610    0.8680  -53.8340 H   0  0  0  0  0  0  0  0  0  0  0  0
    6.4880    0.3430  -52.9860 H   0  0  0  0  0  0  0  0  0  0  0  0
    6.3090   -0.8728  -55.5039 H   0  0  0  0  0  0  0  0  0  0  0  0
    5.2311    0.3445  -54.7491 H   0  0  0  0  0  0  0  0  0  0  0  0
    4.9092    1.8506  -56.5706 H   0  0  0  0  0  0  0  0  0  0  0  0
    5.8979    3.5515  -58.2167 H   0  0  0  0  0  0  0  0  0  0  0  0
    9.8824    6.0040  -59.5927 H   0  0  0  0  0  0  0  0  0  0  0  0
   11.8927    7.1338  -60.5447 H   0  0  0  0  0  0  0  0  0  0  0  0
   14.1580    6.1497  -60.2154 H   0  0  0  0  0  0  0  0  0  0  0  0
   14.4196    4.0264  -58.9339 H   0  0  0  0  0  0  0  0  0  0  0  0
   12.4184    2.8891  -57.9839 H   0  0  0  0  0  0  0  0  0  0  0  0
   10.9620    2.2052  -56.6639 H   0  0  0  0  0  0  0  0  0  0  0  0
    8.8160    0.9570  -55.3080 H   0  0  0  0  0  0  0  0  0  0  0  0
    9.4352   -0.8209  -54.8692 H   0  0  0  0  0  0  0  0  0  0  0  0
    9.8060   -0.2118  -53.2180 H   0  0  0  0  0  0  0  0  0  0  0  0
    6.1860   -2.4473  -53.9474 H   0  0  0  0  0  0  0  0  0  0  0  0
    7.3308   -2.1086  -55.2960 H   0  0  0  0  0  0  0  0  0  0  0  0
  1  2  2  0
  2  3  1  0
  3  4  1  0
  4  5  1  0
  5  6  1  0
  6  7  1  0
  7  8  1  0
  8  9  1  0
  9 10  1  1
 10 11  1  0
 11 12  1  0
 12 13  2  0
 13 14  1  0
 14 15  2  0
 15 16  1  0
 16 17  2  0
 17 18  1  0
 18 19  2  0
 19 20  1  0
 20 21  2  0
 21 22  1  0
 22 23  2  0
 17 24  1  0
 24 25  2  0
 25 26  1  0
  9 27  1  0
  9 28  1  0
  7  2  1  0
 26 12  1  0
 28  3  1  0
 27  5  1  0
 25 15  1  0
 23 18  1  0
  3 29  1  6
  4 30  1  0
  4 31  1  0
  5 32  1  6
  6 33  1  0
  6 34  1  0
  7 35  1  1
  8 36  1  0
  8 37  1  0
 10 38  1  0
 10 39  1  0
 11 40  1  0
 11 41  1  0
 13 42  1  0
 14 43  1  0
 19 44  1  0
 20 45  1  0
 21 46  1  0
 22 47  1  0
 23 48  1  0
 24 49  1  0
 26 50  1  0
 27 51  1  0
 27 52  1  0
 28 53  1  0
 28 54  1  0
M  CHG  1  10   1
M  END
>  <meeko>  (141) 
{"is_sidechain": false}

$$$$

     RDKit          3D

 54 59  0  0  0  0  0  0  0  0999 V2000
   10.2360   -4.0080  -54.8760 O   0  0  0  0  0  0  0  0  0  0  0  0
    9.5640   -3.4680  -54.0080 C   0  0  0  0  0  0  0  0  0  0  0  0
   10.1220   -2.3980  -53.0820 C   0  0  2  0  0  0  0  0  0  0  0  0
    9.8050   -2.8030  -51.6380 C   0  0  0  0  0  0  0  0  0  0  0  0
    8.2850   -2.9730  -51.4510 C   0  0  2  0  0  0  0  0  0  0  0  0
    7.7970   -4.0900  -52.3910 C   0  0  0  0  0  0  0  0  0  0  0  0
    8.0710   -3.7100  -53.8490 C   0  0  1  0  0  0  0  0  0  0  0  0
    7.3770   -2.3840  -54.1960 C   0  0  0  0  0  0  0  0  0  0  0  0
    7.8810   -1.2570  -53.2560 C   0  0  1  0  0  0  0  0  0  0  0  0
    7.1600   -0.0110  -53.6310 N   0  0  0  0  0  0  0  0  0  0  0  0
    6.2870    0.0370  -54.8580 C   0  0  0  0  0  0  0  0  0  0  0  0
    6.8010    1.0890  -55.8150 C   0  0  0  0  0  0  0  0  0  0  0  0
    5.9170    1.8330  -56.5930 C   0  0  0  0  0  0  0  0  0  0  0  0
    6.4180    2.7880  -57.4740 C   0  0  0  0  0  0  0  0  0  0  0  0
    7.8050    2.9190  -57.5060 C   0  0  0  0  0  0  0  0  0  0  0  0
    8.6260    3.7420  -58.2420 N   0  0  0  0  0  0  0  0  0  0  0  0
    9.9510    3.5140  -57.9300 C   0  0  0  0  0  0  0  0  0  0  0  0
   11.0530    4.2390  -58.5650 C   0  0  0  0  0  0  0  0  0  0  0  0
   12.3780    3.8020  -58.4320 C   0  0  0  0  0  0  0  0  0  0  0  0
   13.4230    4.5020  -59.0410 C   0  0  0  0  0  0  0  0  0  0  0  0
   13.1560    5.6450  -59.7910 C   0  0  0  0  0  0  0  0  0  0  0  0
   11.8430    6.0880  -59.9340 C   0  0  0  0  0  0  0  0  0  0  0  0
   10.7980    5.3880  -59.3270 C   0  0  0  0  0  0  0  0  0  0  0  0
    9.9650    2.5050  -56.9810 C   0  0  0  0  0  0  0  0  0  0  0  0
    8.6300    2.1370  -56.7090 C   0  0  0  0  0  0  0  0  0  0  0  0
    8.1580    1.2030  -55.8460 N   0  0  0  0  0  0  0  0  0  0  0  0
    7.5710   -1.6510  -51.7980 C   0  0  0  0  0  0  0  0  0  0  0  0
    9.4050   -1.0860  -53.4430 C   0  0  0  0  0  0  0  0  0  0  0  0
   11.2106   -2.2780  -53.1852 H   0  0  0  0  0  0  0  0  0  0  0  0
   10.3073   -3.7546  -51.4096 H   0  0  0  0  0  0  0  0  0  0  0  0
   10.1629   -2.0151  -50.9589 H   0  0  0  0  0  0  0  0  0  0  0  0
    8.0599   -3.2369  -50.4071 H   0  0  0  0  0  0  0  0  0  0  0  0
    8.3279   -5.0235  -52.1527 H   0  0  0  0  0  0  0  0  0  0  0  0
    6.7145   -4.2285  -52.2530 H   0  0  0  0  0  0  0  0  0  0  0  0
    7.7043   -4.5186  -54.4984 H   0  0  0  0  0  0  0  0  0  0  0  0
    7.6035   -2.1167  -55.2387 H   0  0  0  0  0  0  0  0  0  0  0  0
    6.2909   -2.5015  -54.0675 H   0  0  0  0  0  0  0  0  0  0  0  0
    6.5760    0.3340  -52.8550 H   0  0  0  0  0  0  0  0  0  0  0  0
    7.8180    0.7810  -53.7630 H   0  0  0  0  0  0  0  0  0  0  0  0
    6.3005   -0.9448  -55.3538 H   0  0  0  0  0  0  0  0  0  0  0  0
    5.2585    0.2895  -54.5608 H   0  0  0  0  0  0  0  0  0  0  0  0
    4.8325    1.6676  -56.5122 H   0  0  0  0  0  0  0  0  0  0  0  0
    5.7591    3.4015  -58.1061 H   0  0  0  0  0  0  0  0  0  0  0  0
    8.3090    4.4090  -58.9320 H   0  0  0  0  0  0  0  0  0  0  0  0
   12.5975    2.8995  -57.8427 H   0  0  0  0  0  0  0  0  0  0  0  0
   14.4588    4.1495  -58.9278 H   0  0  0  0  0  0  0  0  0  0  0  0
   13.9794    6.1961  -60.2689 H   0  0  0  0  0  0  0  0  0  0  0  0
   11.6290    6.9903  -60.5257 H   0  0  0  0  0  0  0  0  0  0  0  0
    9.7636    5.7420  -59.4481 H   0  0  0  0  0  0  0  0  0  0  0  0
   10.8618    2.0663  -56.5192 H   0  0  0  0  0  0  0  0  0  0  0  0
    7.9233   -0.8575  -51.1225 H   0  0  0  0  0  0  0  0  0  0  0  0
    6.4853   -1.7829  -51.6805 H   0  0  0  0  0  0  0  0  0  0  0  0
    9.6182   -0.8292  -54.4911 H   0  0  0  0  0  0  0  0  0  0  0  0
    9.7647   -0.2813  -52.7850 H   0  0  0  0  0  0  0  0  0  0  0  0
  1  2  2  0
  2  3  1  0
  3  4  1  0
  4  5  1  0
  5  6  1  0
  6  7  1  0
  7  8  1  0
  8  9  1  0
  9 10  1  6
 10 11  1  0
 11 12  1  0
 12 13  1  0
 13 14  2  0
 14 15  1  0
 15 16  1  0
 16 17  1  0
 17 18  1  0
 18 19  2  0
 19 20  1  0
 20 21  2  0
 21 22  1  0
 22 23  2  0
 17 24  2  0
 24 25  1  0
 25 26  1  0
  9 27  1  0
  9 28  1  0
  7  2  1  0
 26 12  2  0
 28  3  1  0
 27  5  1  0
 25 15  2  0
 23 18  1  0
  3 29  1  1
  4 30  1  0
  4 31  1  0
  5 32  1  1
  6 33  1  0
  6 34  1  0
  7 35  1  6
  8 36  1  0
  8 37  1  0
 10 38  1  0
 10 39  1  0
 11 40  1  0
 11 41  1  0
 13 42  1  0
 14 43  1  0
 16 44  1  0
 19 45  1  0
 20 46  1  0
 21 47  1  0
 22 48  1  0
 23 49  1  0
 24 50  1  0
 27 51  1  0
 27 52  1  0
 28 53  1  0
 28 54  1  0
M  CHG  1  10   1
M  END
>  <meeko>  (142) 
{"is_sidechain": false}

$$$$

     RDKit          3D

 42 46  0  0  0  0  0  0  0  0999 V2000
   12.2600    6.4010  -59.4610 O   0  0  0  0  0  0  0  0  0  0  0  0
   11.5640    5.4020  -59.3200 C   0  0  0  0  0  0  0  0  0  0  0  0
   12.0420    4.1570  -58.5940 C   0  0  2  0  0  0  0  0  0  0  0  0
   11.9780    2.9920  -59.5880 C   0  0  0  0  0  0  0  0  0  0  0  0
   10.5380    2.8180  -60.1020 C   0  0  2  0  0  0  0  0  0  0  0  0
   10.1000    4.1100  -60.8190 C   0  0  0  0  0  0  0  0  0  0  0  0
   10.1450    5.3010  -59.8530 C   0  0  1  0  0  0  0  0  0  0  0  0
    9.2230    5.0540  -58.6510 C   0  0  0  0  0  0  0  0  0  0  0  0
    9.6150    3.7400  -57.9300 C   0  0  1  0  0  0  0  0  0  0  0  0
    8.7820    3.4960  -56.7560 N   0  0  0  0  0  0  0  0  0  0  0  0
    8.1470    2.3630  -56.2940 C   0  0  0  0  0  0  0  0  0  0  0  0
    6.8690    2.0030  -56.5740 C   0  0  0  0  0  0  0  0  0  0  0  0
    6.2790    0.7780  -56.0380 C   0  0  0  0  0  0  0  0  0  0  0  0
    7.0190    0.0060  -55.2360 C   0  0  0  0  0  0  0  0  0  0  0  0
    6.6840   -1.1590  -54.6000 N   0  0  0  0  0  0  0  0  0  0  0  0
    7.7780   -1.4260  -53.9430 C   0  0  0  0  0  0  0  0  0  0  0  0
    7.7640   -2.6410  -53.1320 N   0  0  0  0  0  0  0  0  0  0  0  0
    8.8130   -2.8820  -52.5140 O   0  0  0  0  0  0  0  0  0  0  0  0
    6.7400   -3.3360  -53.1100 O   0  0  0  0  0  0  0  0  0  0  0  0
    8.9130   -0.5120  -54.0650 C   0  0  0  0  0  0  0  0  0  0  0  0
    8.3890    0.3780  -54.9070 C   0  0  0  0  0  0  0  0  0  0  0  0
    8.8920    1.5210  -55.4730 N   0  0  0  0  0  0  0  0  0  0  0  0
    9.5980    2.5490  -58.9120 C   0  0  0  0  0  0  0  0  0  0  0  0
   11.0830    3.9170  -57.4250 C   0  0  0  0  0  0  0  0  0  0  0  0
   13.0695    4.2583  -58.2145 H   0  0  0  0  0  0  0  0  0  0  0  0
   12.6453    3.2005  -60.4372 H   0  0  0  0  0  0  0  0  0  0  0  0
   12.2954    2.0680  -59.0826 H   0  0  0  0  0  0  0  0  0  0  0  0
   10.4930    1.9705  -60.8018 H   0  0  0  0  0  0  0  0  0  0  0  0
   10.7777    4.3030  -61.6637 H   0  0  0  0  0  0  0  0  0  0  0  0
    9.0691    3.9842  -61.1816 H   0  0  0  0  0  0  0  0  0  0  0  0
    9.8268    6.2122  -60.3807 H   0  0  0  0  0  0  0  0  0  0  0  0
    9.3126    5.8943  -57.9469 H   0  0  0  0  0  0  0  0  0  0  0  0
    8.1862    4.9690  -59.0084 H   0  0  0  0  0  0  0  0  0  0  0  0
    8.9730    4.1320  -55.9870 H   0  0  0  0  0  0  0  0  0  0  0  0
    6.2605    2.6508  -57.2221 H   0  0  0  0  0  0  0  0  0  0  0  0
    5.2458    0.4967  -56.2897 H   0  0  0  0  0  0  0  0  0  0  0  0
    9.9084   -0.5485  -53.5982 H   0  0  0  0  0  0  0  0  0  0  0  0
    9.7800    1.8690  -55.1450 H   0  0  0  0  0  0  0  0  0  0  0  0
    9.9300    1.6416  -58.3863 H   0  0  0  0  0  0  0  0  0  0  0  0
    8.5740    2.4145  -59.2907 H   0  0  0  0  0  0  0  0  0  0  0  0
   11.1267    4.7779  -56.7417 H   0  0  0  0  0  0  0  0  0  0  0  0
   11.3877    2.9962  -56.9061 H   0  0  0  0  0  0  0  0  0  0  0  0
  1  2  2  0
  2  3  1  0
  3  4  1  0
  4  5  1  0
  5  6  1  0
  6  7  1  0
  7  8  1  0
  8  9  1  0
  9 10  1  1
 10 11  1  0
 11 12  2  0
 12 13  1  0
 13 14  2  0
 14 15  1  0
 15 16  2  0
 16 17  1  0
 17 18  2  0
 17 19  1  0
 16 20  1  0
 20 21  2  0
 21 22  1  0
  9 23  1  0
  9 24  1  0
  7  2  1  0
 22 11  1  0
 24  3  1  0
 23  5  1  0
 21 14  1  0
  3 25  1  1
  4 26  1  0
  4 27  1  0
  5 28  1  6
  6 29  1  0
  6 30  1  0
  7 31  1  6
  8 32  1  0
  8 33  1  0
 10 34  1  0
 12 35  1  0
 13 36  1  0
 20 37  1  0
 22 38  1  0
 23 39  1  0
 23 40  1  0
 24 41  1  0
 24 42  1  0
M  CHG  2  17   1  19  -1
M  END
>  <meeko>  (143) 
{"is_sidechain": false}

$$$$

     RDKit          3D

 42 46  0  0  0  0  0  0  0  0999 V2000
   12.9320    3.6580  -57.5190 O   0  0  0  0  0  0  0  0  0  0  0  0
   11.7570    3.7460  -57.8650 C   0  0  0  0  0  0  0  0  0  0  0  0
   11.1650    2.9100  -58.9900 C   0  0  2  0  0  0  0  0  0  0  0  0
   10.6640    3.8810  -60.0640 C   0  0  0  0  0  0  0  0  0  0  0  0
    9.6250    4.8440  -59.4590 C   0  0  2  0  0  0  0  0  0  0  0  0
   10.2860    5.6610  -58.3350 C   0  0  0  0  0  0  0  0  0  0  0  0
   10.7790    4.7220  -57.2280 C   0  0  1  0  0  0  0  0  0  0  0  0
    9.6140    3.9040  -56.6560 C   0  0  0  0  0  0  0  0  0  0  0  0
    8.9520    3.0500  -57.7670 C   0  0  1  0  0  0  0  0  0  0  0  0
    7.7560    2.3380  -57.2940 N   0  0  0  0  0  0  0  0  0  0  0  0
    6.5620    2.3160  -58.0290 C   0  0  0  0  0  0  0  0  0  0  0  0
    5.3860    2.6100  -57.3280 C   0  0  0  0  0  0  0  0  0  0  0  0
    4.1410    2.5960  -57.9590 C   0  0  0  0  0  0  0  0  0  0  0  0
    4.1640    2.2650  -59.3070 C   0  0  0  0  0  0  0  0  0  0  0  0
    3.1640    2.1450  -60.2410 N   0  0  0  0  0  0  0  0  0  0  0  0
    3.7140    1.7870  -61.4430 C   0  0  0  0  0  0  0  0  0  0  0  0
    2.8800    1.5990  -62.5800 N   0  0  0  0  0  0  0  0  0  0  0  0
    2.5790    0.4380  -62.8710 O   0  0  0  0  0  0  0  0  0  0  0  0
    2.5330    2.6250  -63.1790 O   0  0  0  0  0  0  0  0  0  0  0  0
    5.0760    1.6680  -61.3060 C   0  0  0  0  0  0  0  0  0  0  0  0
    5.3640    1.9710  -59.9530 C   0  0  0  0  0  0  0  0  0  0  0  0
    6.5610    1.9890  -59.3290 N   0  0  0  0  0  0  0  0  0  0  0  0
    8.4610    4.0290  -58.8770 C   0  0  0  0  0  0  0  0  0  0  0  0
    9.9980    2.1030  -58.4060 C   0  0  0  0  0  0  0  0  0  0  0  0
   11.8991    2.2192  -59.4304 H   0  0  0  0  0  0  0  0  0  0  0  0
   11.5129    4.4603  -60.4561 H   0  0  0  0  0  0  0  0  0  0  0  0
   10.1954    3.3089  -60.8783 H   0  0  0  0  0  0  0  0  0  0  0  0
    9.2489    5.5234  -60.2381 H   0  0  0  0  0  0  0  0  0  0  0  0
   11.1393    6.2213  -58.7448 H   0  0  0  0  0  0  0  0  0  0  0  0
    9.5489    6.3609  -57.9145 H   0  0  0  0  0  0  0  0  0  0  0  0
   11.2390    5.3122  -56.4218 H   0  0  0  0  0  0  0  0  0  0  0  0
    9.9925    3.2390  -55.8657 H   0  0  0  0  0  0  0  0  0  0  0  0
    8.8635    4.5946  -56.2440 H   0  0  0  0  0  0  0  0  0  0  0  0
    7.5300    2.5740  -56.3310 H   0  0  0  0  0  0  0  0  0  0  0  0
    5.4445    2.8571  -56.2577 H   0  0  0  0  0  0  0  0  0  0  0  0
    3.2078    2.8306  -57.4259 H   0  0  0  0  0  0  0  0  0  0  0  0
    2.1750    2.2920  -60.0800 H   0  0  0  0  0  0  0  0  0  0  0  0
    5.7974    1.3928  -62.0895 H   0  0  0  0  0  0  0  0  0  0  0  0
    7.9916    3.4482  -59.6846 H   0  0  0  0  0  0  0  0  0  0  0  0
    7.7391    4.7274  -58.4285 H   0  0  0  0  0  0  0  0  0  0  0  0
   10.3815    1.4156  -57.6377 H   0  0  0  0  0  0  0  0  0  0  0  0
    9.5169    1.5349  -59.2158 H   0  0  0  0  0  0  0  0  0  0  0  0
  1  2  2  0
  2  3  1  0
  3  4  1  0
  4  5  1  0
  5  6  1  0
  6  7  1  0
  7  8  1  0
  8  9  1  0
  9 10  1  1
 10 11  1  0
 11 12  1  0
 12 13  2  0
 13 14  1  0
 14 15  1  0
 15 16  1  0
 16 17  1  0
 17 18  2  0
 17 19  1  0
 16 20  2  0
 20 21  1  0
 21 22  1  0
  9 23  1  0
  9 24  1  0
  7  2  1  0
 22 11  2  0
 24  3  1  0
 23  5  1  0
 21 14  2  0
  3 25  1  6
  4 26  1  0
  4 27  1  0
  5 28  1  6
  6 29  1  0
  6 30  1  0
  7 31  1  1
  8 32  1  0
  8 33  1  0
 10 34  1  0
 12 35  1  0
 13 36  1  0
 15 37  1  0
 20 38  1  0
 23 39  1  0
 23 40  1  0
 24 41  1  0
 24 42  1  0
M  CHG  2  17   1  19  -1
M  END
>  <meeko>  (144) 
{"is_sidechain": false}

$$$$

     RDKit          3D

 42 46  0  0  0  0  0  0  0  0999 V2000
    6.9310    3.4420  -61.2880 O   0  0  0  0  0  0  0  0  0  0  0  0
    7.7340    3.6820  -60.3920 C   0  0  0  0  0  0  0  0  0  0  0  0
    7.3570    4.4460  -59.1300 C   0  0  2  0  0  0  0  0  0  0  0  0
    8.3040    5.6430  -59.0080 C   0  0  0  0  0  0  0  0  0  0  0  0
    9.7630    5.1560  -58.9620 C   0  0  2  0  0  0  0  0  0  0  0  0
   10.0840    4.4230  -60.2760 C   0  0  0  0  0  0  0  0  0  0  0  0
    9.1770    3.1980  -60.4270 C   0  0  1  0  0  0  0  0  0  0  0  0
    9.3610    2.2420  -59.2410 C   0  0  0  0  0  0  0  0  0  0  0  0
    8.9960    2.9540  -57.9200 C   0  0  1  0  0  0  0  0  0  0  0  0
    9.2660    2.1320  -56.7500 N   0  0  0  0  0  0  0  0  0  0  0  0
    8.4760    1.3900  -56.0520 C   0  0  0  0  0  0  0  0  0  0  0  0
    6.9880    1.1870  -56.3020 C   0  0  0  0  0  0  0  0  0  0  0  0
    6.2830    0.3790  -55.4890 C   0  0  0  0  0  0  0  0  0  0  0  0
    7.0170   -0.2200  -54.4500 C   0  0  0  0  0  0  0  0  0  0  0  0
    6.5040   -1.0700  -53.5160 N   0  0  0  0  0  0  0  0  0  0  0  0
    7.5320   -1.4370  -52.6790 C   0  0  0  0  0  0  0  0  0  0  0  0
    7.2840   -2.3290  -51.5980 N   0  0  0  0  0  0  0  0  0  0  0  0
    6.4800   -3.2450  -51.8150 O   0  0  0  0  0  0  0  0  0  0  0  0
    7.8880   -2.1140  -50.5420 O   0  0  0  0  0  0  0  0  0  0  0  0
    8.7050   -0.8240  -53.0760 C   0  0  0  0  0  0  0  0  0  0  0  0
    8.3570   -0.0570  -54.2000 C   0  0  0  0  0  0  0  0  0  0  0  0
    9.0940    0.7410  -54.9890 N   0  0  0  0  0  0  0  0  0  0  0  0
    9.9390    4.1870  -57.7820 C   0  0  0  0  0  0  0  0  0  0  0  0
    7.5460    3.4850  -57.9480 C   0  0  0  0  0  0  0  0  0  0  0  0
    6.3189    4.8092  -59.1519 H   0  0  0  0  0  0  0  0  0  0  0  0
    8.1680    6.3052  -59.8757 H   0  0  0  0  0  0  0  0  0  0  0  0
    8.0765    6.1910  -58.0818 H   0  0  0  0  0  0  0  0  0  0  0  0
   10.4408    6.0132  -58.8359 H   0  0  0  0  0  0  0  0  0  0  0  0
    9.9193    5.1049  -61.1233 H   0  0  0  0  0  0  0  0  0  0  0  0
   11.1339    4.0953  -60.2597 H   0  0  0  0  0  0  0  0  0  0  0  0
    9.4242    2.6793  -61.3650 H   0  0  0  0  0  0  0  0  0  0  0  0
    8.7077    1.3672  -59.3748 H   0  0  0  0  0  0  0  0  0  0  0  0
   10.4126    1.9224  -59.1976 H   0  0  0  0  0  0  0  0  0  0  0  0
    6.4927    1.6972  -57.1413 H   0  0  0  0  0  0  0  0  0  0  0  0
    5.2066    0.1995  -55.6277 H   0  0  0  0  0  0  0  0  0  0  0  0
    5.5440   -1.3890  -53.4310 H   0  0  0  0  0  0  0  0  0  0  0  0
    9.6978   -0.9168  -52.6116 H   0  0  0  0  0  0  0  0  0  0  0  0
   10.0840    0.9190  -54.8790 H   0  0  0  0  0  0  0  0  0  0  0  0
    9.7045    4.7151  -56.8460 H   0  0  0  0  0  0  0  0  0  0  0  0
   10.9797    3.8307  -57.7760 H   0  0  0  0  0  0  0  0  0  0  0  0
    6.8510    2.6388  -58.0527 H   0  0  0  0  0  0  0  0  0  0  0  0
    7.3425    4.0238  -57.0108 H   0  0  0  0  0  0  0  0  0  0  0  0
  1  2  2  0
  2  3  1  0
  3  4  1  0
  4  5  1  0
  5  6  1  0
  6  7  1  0
  7  8  1  0
  8  9  1  0
  9 10  1  1
 10 11  2  0
 11 12  1  0
 12 13  2  0
 13 14  1  0
 14 15  1  0
 15 16  1  0
 16 17  1  0
 17 18  2  0
 17 19  1  0
 16 20  2  0
 20 21  1  0
 21 22  1  0
  9 23  1  0
  9 24  1  0
  7  2  1  0
 22 11  1  0
 24  3  1  0
 23  5  1  0
 21 14  2  0
  3 25  1  6
  4 26  1  0
  4 27  1  0
  5 28  1  1
  6 29  1  0
  6 30  1  0
  7 31  1  6
  8 32  1  0
  8 33  1  0
 12 34  1  0
 13 35  1  0
 15 36  1  0
 20 37  1  0
 22 38  1  0
 23 39  1  0
 23 40  1  0
 24 41  1  0
 24 42  1  0
M  CHG  2  17   1  19  -1
M  END
>  <meeko>  (145) 
{"is_sidechain": false}

$$$$

     RDKit          3D

 42 46  0  0  0  0  0  0  0  0999 V2000
   11.5940    4.7260  -57.9000 O   0  0  0  0  0  0  0  0  0  0  0  0
   10.4270    4.4940  -58.2010 C   0  0  0  0  0  0  0  0  0  0  0  0
   10.0230    3.3360  -59.1030 C   0  0  2  0  0  0  0  0  0  0  0  0
    9.1980    3.9080  -60.2590 C   0  0  0  0  0  0  0  0  0  0  0  0
    7.9700    4.6550  -59.7110 C   0  0  2  0  0  0  0  0  0  0  0  0
    8.4500    5.8280  -58.8370 C   0  0  0  0  0  0  0  0  0  0  0  0
    9.2590    5.2990  -57.6490 C   0  0  1  0  0  0  0  0  0  0  0  0
    8.4120    4.3370  -56.8050 C   0  0  0  0  0  0  0  0  0  0  0  0
    7.9590    3.1340  -57.6640 C   0  0  1  0  0  0  0  0  0  0  0  0
    7.0580    2.2470  -56.9400 N   0  0  0  0  0  0  0  0  0  0  0  0
    7.3670    1.3210  -56.0990 C   0  0  0  0  0  0  0  0  0  0  0  0
    6.1470    0.5970  -55.5420 C   0  0  0  0  0  0  0  0  0  0  0  0
    6.3040   -0.3980  -54.6510 C   0  0  0  0  0  0  0  0  0  0  0  0
    7.6380   -0.6810  -54.3090 C   0  0  0  0  0  0  0  0  0  0  0  0
    8.0310   -1.6450  -53.4280 N   0  0  0  0  0  0  0  0  0  0  0  0
    9.4050   -1.6120  -53.3630 C   0  0  0  0  0  0  0  0  0  0  0  0
   10.0970   -2.5200  -52.5120 N   0  0  0  0  0  0  0  0  0  0  0  0
   11.2560   -2.8080  -52.8240 O   0  0  0  0  0  0  0  0  0  0  0  0
    9.4700   -2.9400  -51.5310 O   0  0  0  0  0  0  0  0  0  0  0  0
    9.8930   -0.6280  -54.2010 C   0  0  0  0  0  0  0  0  0  0  0  0
    8.7570   -0.0480  -54.7920 C   0  0  0  0  0  0  0  0  0  0  0  0
    8.6450    0.9530  -55.6860 N   0  0  0  0  0  0  0  0  0  0  0  0
    7.1300    3.6940  -58.8540 C   0  0  0  0  0  0  0  0  0  0  0  0
    9.1740    2.3820  -58.2520 C   0  0  0  0  0  0  0  0  0  0  0  0
   10.8901    2.7984  -59.5141 H   0  0  0  0  0  0  0  0  0  0  0  0
    9.8195    4.6057  -60.8395 H   0  0  0  0  0  0  0  0  0  0  0  0
    8.8604    3.0833  -60.9039 H   0  0  0  0  0  0  0  0  0  0  0  0
    7.3592    5.0329  -60.5441 H   0  0  0  0  0  0  0  0  0  0  0  0
    9.0824    6.4964  -59.4397 H   0  0  0  0  0  0  0  0  0  0  0  0
    7.5758    6.3800  -58.4615 H   0  0  0  0  0  0  0  0  0  0  0  0
    9.5870    6.1486  -57.0321 H   0  0  0  0  0  0  0  0  0  0  0  0
    9.0109    3.9734  -55.9570 H   0  0  0  0  0  0  0  0  0  0  0  0
    7.5236    4.8698  -56.4350 H   0  0  0  0  0  0  0  0  0  0  0  0
    5.1379    0.8884  -55.8688 H   0  0  0  0  0  0  0  0  0  0  0  0
    5.4535   -0.9485  -54.2225 H   0  0  0  0  0  0  0  0  0  0  0  0
    7.4390   -2.2810  -52.9060 H   0  0  0  0  0  0  0  0  0  0  0  0
   10.9455   -0.3564  -54.3697 H   0  0  0  0  0  0  0  0  0  0  0  0
    9.4470    1.4350  -56.0580 H   0  0  0  0  0  0  0  0  0  0  0  0
    6.7911    2.8563  -59.4813 H   0  0  0  0  0  0  0  0  0  0  0  0
    6.2697    4.2478  -58.4501 H   0  0  0  0  0  0  0  0  0  0  0  0
    9.7875    1.9834  -57.4306 H   0  0  0  0  0  0  0  0  0  0  0  0
    8.8151    1.5573  -58.8852 H   0  0  0  0  0  0  0  0  0  0  0  0
  1  2  2  0
  2  3  1  0
  3  4  1  0
  4  5  1  0
  5  6  1  0
  6  7  1  0
  7  8  1  0
  8  9  1  0
  9 10  1  1
 10 11  2  0
 11 12  1  0
 12 13  2  0
 13 14  1  0
 14 15  1  0
 15 16  1  0
 16 17  1  0
 17 18  2  0
 17 19  1  0
 16 20  2  0
 20 21  1  0
 21 22  1  0
  9 23  1  0
  9 24  1  0
  7  2  1  0
 22 11  1  0
 24  3  1  0
 23  5  1  0
 21 14  2  0
  3 25  1  6
  4 26  1  0
  4 27  1  0
  5 28  1  6
  6 29  1  0
  6 30  1  0
  7 31  1  1
  8 32  1  0
  8 33  1  0
 12 34  1  0
 13 35  1  0
 15 36  1  0
 20 37  1  0
 22 38  1  0
 23 39  1  0
 23 40  1  0
 24 41  1  0
 24 42  1  0
M  CHG  2  17   1  19  -1
M  END
>  <meeko>  (146) 
{"is_sidechain": false}

$$$$

     RDKit          3D

 42 46  0  0  0  0  0  0  0  0999 V2000
    6.5400    1.4140  -57.1430 C   0  0  0  0  0  0  0  0  0  0  0  0
    7.0940    1.9440  -58.3910 N   0  0  0  0  0  0  0  0  0  0  0  0
    6.2060    1.9650  -59.4280 C   0  0  0  0  0  0  0  0  0  0  0  0
    6.4710    2.0040  -60.7210 N   0  0  0  0  0  0  0  0  0  0  0  0
    5.2410    2.0120  -61.3240 C   0  0  0  0  0  0  0  0  0  0  0  0
    4.8700    2.0490  -62.6740 C   0  0  0  0  0  0  0  0  0  0  0  0
    3.5010    2.0450  -62.9830 C   0  0  0  0  0  0  0  0  0  0  0  0
    2.5310    2.0060  -61.9730 C   0  0  0  0  0  0  0  0  0  0  0  0
    2.8880    1.9700  -60.6190 C   0  0  0  0  0  0  0  0  0  0  0  0
    4.2520    1.9750  -60.3600 C   0  0  0  0  0  0  0  0  0  0  0  0
    4.8650    1.9450  -59.1450 O   0  0  0  0  0  0  0  0  0  0  0  0
    8.2710    2.8550  -58.3400 C   0  0  2  0  0  0  0  0  0  0  0  0
    7.8850    4.3180  -58.7440 C   0  0  0  0  0  0  0  0  0  0  0  0
    9.0910    5.2690  -58.6890 C   0  0  2  0  0  0  0  0  0  0  0  0
   10.1830    4.7620  -59.6460 C   0  0  0  0  0  0  0  0  0  0  0  0
   10.5960    3.3400  -59.2590 C   0  0  2  0  0  0  0  0  0  0  0  0
    9.3910    2.3930  -59.3150 C   0  0  0  0  0  0  0  0  0  0  0  0
   11.0800    3.3820  -57.8180 C   0  0  0  0  0  0  0  0  0  0  0  0
   12.2090    3.0360  -57.4860 O   0  0  0  0  0  0  0  0  0  0  0  0
   10.0470    3.8920  -56.8250 C   0  0  1  0  0  0  0  0  0  0  0  0
    9.6490    5.3040  -57.2570 C   0  0  0  0  0  0  0  0  0  0  0  0
    8.8410    2.9460  -56.8900 C   0  0  0  0  0  0  0  0  0  0  0  0
    7.0398    1.8922  -56.2877 H   0  0  0  0  0  0  0  0  0  0  0  0
    5.4612    1.6249  -57.1020 H   0  0  0  0  0  0  0  0  0  0  0  0
    6.7029    0.3269  -57.1020 H   0  0  0  0  0  0  0  0  0  0  0  0
    5.6296    2.0803  -63.4690 H   0  0  0  0  0  0  0  0  0  0  0  0
    3.1843    2.0730  -64.0361 H   0  0  0  0  0  0  0  0  0  0  0  0
    1.4662    2.0036  -62.2491 H   0  0  0  0  0  0  0  0  0  0  0  0
    2.1380    1.9398  -59.8149 H   0  0  0  0  0  0  0  0  0  0  0  0
    7.4861    4.3096  -59.7691 H   0  0  0  0  0  0  0  0  0  0  0  0
    7.1338    4.6809  -58.0270 H   0  0  0  0  0  0  0  0  0  0  0  0
    8.7762    6.2798  -58.9876 H   0  0  0  0  0  0  0  0  0  0  0  0
    9.7945    4.7616  -60.6751 H   0  0  0  0  0  0  0  0  0  0  0  0
   11.0588    5.4242  -59.5793 H   0  0  0  0  0  0  0  0  0  0  0  0
   11.3721    2.9829  -59.9519 H   0  0  0  0  0  0  0  0  0  0  0  0
    8.9920    2.3793  -60.3400 H   0  0  0  0  0  0  0  0  0  0  0  0
    9.7222    1.3876  -59.0159 H   0  0  0  0  0  0  0  0  0  0  0  0
   10.4336    3.9222  -55.7956 H   0  0  0  0  0  0  0  0  0  0  0  0
    8.8792    5.6922  -56.5739 H   0  0  0  0  0  0  0  0  0  0  0  0
   10.5333    5.9576  -57.2262 H   0  0  0  0  0  0  0  0  0  0  0  0
    9.1540    1.9431  -56.5642 H   0  0  0  0  0  0  0  0  0  0  0  0
    8.0536    3.3405  -56.2309 H   0  0  0  0  0  0  0  0  0  0  0  0
  1  2  1  0
  2  3  1  0
  3  4  2  0
  4  5  1  0
  5  6  2  0
  6  7  1  0
  7  8  2  0
  8  9  1  0
  9 10  2  0
 10 11  1  0
 12  2  1  1
 12 13  1  0
 13 14  1  0
 14 15  1  0
 15 16  1  0
 16 17  1  0
 16 18  1  0
 18 19  2  0
 18 20  1  0
 20 21  1  0
 20 22  1  0
 11  3  1  0
 17 12  1  0
 10  5  1  0
 22 12  1  0
 21 14  1  0
  1 23  1  0
  1 24  1  0
  1 25  1  0
  6 26  1  0
  7 27  1  0
  8 28  1  0
  9 29  1  0
 13 30  1  0
 13 31  1  0
 14 32  1  6
 15 33  1  0
 15 34  1  0
 16 35  1  6
 17 36  1  0
 17 37  1  0
 20 38  1  1
 21 39  1  0
 21 40  1  0
 22 41  1  0
 22 42  1  0
M  END
>  <meeko>  (147) 
{"is_sidechain": false}

$$$$

     RDKit          3D

 76 82  0  0  0  0  0  0  0  0999 V2000
    9.2620   -2.9740  -52.1840 C   0  0  0  0  0  0  0  0  0  0  0  0
    8.7000   -2.9740  -53.6080 C   0  0  2  0  0  0  0  0  0  0  0  0
    9.7360   -2.5200  -54.6590 C   0  0  0  0  0  0  0  0  0  0  0  0
   11.0980   -3.2100  -54.4930 C   0  0  0  0  0  0  0  0  0  0  0  0
   11.6070   -4.0090  -55.7200 C   0  0  2  0  0  0  0  0  0  0  0  0
   10.4540   -4.7550  -56.4400 C   0  0  0  0  0  0  0  0  0  0  0  0
   10.9790   -5.4840  -57.6900 C   0  0  2  0  0  0  0  0  0  0  0  0
   12.0540   -6.4990  -57.2670 C   0  0  0  0  0  0  0  0  0  0  0  0
   13.2280   -5.7740  -56.5800 C   0  0  2  0  0  0  0  0  0  0  0  0
   12.6890   -5.0480  -55.3310 C   0  0  0  0  0  0  0  0  0  0  0  0
   13.8450   -4.7720  -57.5840 C   0  0  2  0  0  0  0  0  0  0  0  0
   15.1450   -4.1450  -57.0590 C   0  0  0  0  0  0  0  0  0  0  0  0
   15.5450   -3.0540  -57.8780 O   0  0  0  0  0  0  0  0  0  0  0  0
   12.7690   -3.7290  -57.9760 C   0  0  1  0  0  0  0  0  0  0  0  0
   11.5950   -4.4600  -58.6560 C   0  0  0  0  0  0  0  0  0  0  0  0
   12.2320   -3.0050  -56.7290 C   0  0  0  0  0  0  0  0  0  0  0  0
    7.4980   -2.1430  -53.6440 N   0  0  0  0  0  0  0  0  0  0  0  0
    6.6460   -1.8510  -52.5410 C   0  0  0  0  0  0  0  0  0  0  0  0
    6.9460   -0.3900  -52.7690 C   0  0  2  0  0  0  0  0  0  0  0  0
    6.0060    0.4410  -53.6270 C   0  0  0  0  0  0  0  0  0  0  0  0
    7.1200    0.2720  -54.6420 C   0  0  0  0  0  0  0  0  0  0  0  0
    7.6260    1.1280  -55.8450 C   0  0  0  0  0  0  0  0  0  0  0  0
    8.9370    1.3770  -56.0190 C   0  0  0  0  0  0  0  0  0  0  0  0
    9.4300    2.1950  -57.1140 C   0  0  0  0  0  0  0  0  0  0  0  0
    8.5570    2.7100  -57.9990 C   0  0  0  0  0  0  0  0  0  0  0  0
    7.2160    2.4590  -57.8530 N   0  0  0  0  0  0  0  0  0  0  0  0
    6.6580    1.6980  -56.8470 C   0  0  0  0  0  0  0  0  0  0  0  0
    5.4480    1.5100  -56.8190 O   0  0  0  0  0  0  0  0  0  0  0  0
    8.9800    3.5570  -59.1680 C   0  0  0  0  0  0  0  0  0  0  0  0
   10.4880    3.4980  -59.4280 C   0  0  0  0  0  0  0  0  0  0  0  0
   11.2430    3.6100  -58.1210 N   0  0  2  0  0  0  0  0  0  0  0  0
   12.7210    3.7620  -58.3210 C   0  0  0  0  0  0  0  0  0  0  0  0
   10.9070    2.4580  -57.1990 C   0  0  0  0  0  0  0  0  0  0  0  0
    7.4170   -0.9790  -54.2100 C   0  0  0  0  0  0  0  0  0  0  0  0
    9.3966   -4.0111  -51.8429 H   0  0  0  0  0  0  0  0  0  0  0  0
   10.2320   -2.4555  -52.1726 H   0  0  0  0  0  0  0  0  0  0  0  0
    8.5612   -2.4555  -51.5132 H   0  0  0  0  0  0  0  0  0  0  0  0
    8.4412   -4.0085  -53.8777 H   0  0  0  0  0  0  0  0  0  0  0  0
    9.3447   -2.7522  -55.6605 H   0  0  0  0  0  0  0  0  0  0  0  0
    9.8942   -1.4402  -54.5213 H   0  0  0  0  0  0  0  0  0  0  0  0
   11.8431   -2.4340  -54.2636 H   0  0  0  0  0  0  0  0  0  0  0  0
   10.9602   -3.9511  -53.6919 H   0  0  0  0  0  0  0  0  0  0  0  0
   10.0131   -5.4904  -55.7509 H   0  0  0  0  0  0  0  0  0  0  0  0
    9.6950   -4.0214  -56.7494 H   0  0  0  0  0  0  0  0  0  0  0  0
   10.1510   -6.0076  -58.1902 H   0  0  0  0  0  0  0  0  0  0  0  0
   11.6140   -7.2237  -56.5661 H   0  0  0  0  0  0  0  0  0  0  0  0
   12.4272   -7.0207  -58.1606 H   0  0  0  0  0  0  0  0  0  0  0  0
   14.0082   -6.4840  -56.2681 H   0  0  0  0  0  0  0  0  0  0  0  0
   12.2485   -5.7877  -54.6463 H   0  0  0  0  0  0  0  0  0  0  0  0
   13.5226   -4.5218  -54.8429 H   0  0  0  0  0  0  0  0  0  0  0  0
   14.1501   -5.3077  -58.4950 H   0  0  0  0  0  0  0  0  0  0  0  0
   14.9830   -3.7850  -56.0323 H   0  0  0  0  0  0  0  0  0  0  0  0
   15.9370   -4.9082  -57.0762 H   0  0  0  0  0  0  0  0  0  0  0  0
   15.9590   -2.3870  -57.3050 H   0  0  0  0  0  0  0  0  0  0  0  0
   13.2225   -2.9911  -58.6541 H   0  0  0  0  0  0  0  0  0  0  0  0
   10.8284   -3.7262  -58.9455 H   0  0  0  0  0  0  0  0  0  0  0  0
   11.9666   -4.9853  -59.5481 H   0  0  0  0  0  0  0  0  0  0  0  0
   13.0605   -2.4728  -56.2387 H   0  0  0  0  0  0  0  0  0  0  0  0
   11.4505   -2.2989  -57.0463 H   0  0  0  0  0  0  0  0  0  0  0  0
    5.5926   -2.1304  -52.6902 H   0  0  0  0  0  0  0  0  0  0  0  0
    6.7946   -2.3225  -51.5584 H   0  0  0  0  0  0  0  0  0  0  0  0
    7.3073    0.1466  -51.8793 H   0  0  0  0  0  0  0  0  0  0  0  0
    5.0474   -0.0332  -53.8845 H   0  0  0  0  0  0  0  0  0  0  0  0
    5.5782    1.4086  -53.3259 H   0  0  0  0  0  0  0  0  0  0  0  0
    9.6590    0.9472  -55.3090 H   0  0  0  0  0  0  0  0  0  0  0  0
    6.5310    2.8260  -58.5070 H   0  0  0  0  0  0  0  0  0  0  0  0
    8.4541    3.2032  -60.0670 H   0  0  0  0  0  0  0  0  0  0  0  0
    8.7252    4.6004  -58.9307 H   0  0  0  0  0  0  0  0  0  0  0  0
   10.7372    2.5421  -59.9119 H   0  0  0  0  0  0  0  0  0  0  0  0
   10.7745    4.3336  -60.0835 H   0  0  0  0  0  0  0  0  0  0  0  0
   10.9120    4.4630  -57.6500 H   0  0  0  0  0  0  0  0  0  0  0  0
   13.2201    3.8133  -57.3421 H   0  0  0  0  0  0  0  0  0  0  0  0
   13.1056    2.8987  -58.8838 H   0  0  0  0  0  0  0  0  0  0  0  0
   12.9218    4.6855  -58.8838 H   0  0  0  0  0  0  0  0  0  0  0  0
   11.4050    1.5512  -57.5729 H   0  0  0  0  0  0  0  0  0  0  0  0
   11.2551    2.7269  -56.1908 H   0  0  0  0  0  0  0  0  0  0  0  0
  1  2  1  0
  2  3  1  0
  3  4  1  0
  5  4  1  1
  5  6  1  0
  6  7  1  0
  7  8  1  0
  8  9  1  0
  9 10  1  0
  9 11  1  0
 11 12  1  0
 12 13  1  0
 11 14  1  0
 14 15  1  0
 14 16  1  0
  2 17  1  0
 17 18  1  0
 18 19  1  0
 19 20  1  0
 20 21  1  0
 21 22  1  0
 22 23  2  0
 23 24  1  0
 24 25  2  0
 25 26  1  0
 26 27  1  0
 27 28  2  0
 25 29  1  0
 29 30  1  0
 30 31  1  0
 31 32  1  0
 31 33  1  0
 21 34  2  0
 10  5  1  0
 34 17  1  0
 16  5  1  0
 34 19  1  0
 15  7  1  0
 27 22  1  0
 33 24  1  0
  1 35  1  0
  1 36  1  0
  1 37  1  0
  2 38  1  6
  3 39  1  0
  3 40  1  0
  4 41  1  0
  4 42  1  0
  6 43  1  0
  6 44  1  0
  7 45  1  6
  8 46  1  0
  8 47  1  0
  9 48  1  1
 10 49  1  0
 10 50  1  0
 11 51  1  6
 12 52  1  0
 12 53  1  0
 13 54  1  0
 14 55  1  6
 15 56  1  0
 15 57  1  0
 16 58  1  0
 16 59  1  0
 18 60  1  0
 18 61  1  0
 19 62  1  1
 20 63  1  0
 20 64  1  0
 23 65  1  0
 26 66  1  0
 29 67  1  0
 29 68  1  0
 30 69  1  0
 30 70  1  0
 31 71  1  1
 32 72  1  0
 32 73  1  0
 32 74  1  0
 33 75  1  0
 33 76  1  0
M  CHG  1  31   1
M  END
>  <meeko>  (148) 
{"is_sidechain": false}

$$$$

     RDKit          3D

 76 82  0  0  0  0  0  0  0  0999 V2000
    9.7710   -2.6330  -51.9960 C   0  0  0  0  0  0  0  0  0  0  0  0
    9.7560   -1.6140  -53.1370 C   0  0  1  0  0  0  0  0  0  0  0  0
   10.1500   -2.2690  -54.4770 C   0  0  0  0  0  0  0  0  0  0  0  0
   11.0540   -3.5140  -54.4450 C   0  0  0  0  0  0  0  0  0  0  0  0
   11.5760   -4.1090  -55.7830 C   0  0  2  0  0  0  0  0  0  0  0  0
   10.4630   -4.8180  -56.5930 C   0  0  0  0  0  0  0  0  0  0  0  0
   11.0390   -5.4550  -57.8690 C   0  0  2  0  0  0  0  0  0  0  0  0
   12.1060   -6.4920  -57.4840 C   0  0  0  0  0  0  0  0  0  0  0  0
   13.2500   -5.8100  -56.7110 C   0  0  2  0  0  0  0  0  0  0  0  0
   12.6640   -5.1710  -55.4390 C   0  0  0  0  0  0  0  0  0  0  0  0
   13.8940   -4.7370  -57.6180 C   0  0  2  0  0  0  0  0  0  0  0  0
   15.1720   -4.1430  -57.0110 C   0  0  0  0  0  0  0  0  0  0  0  0
   15.6560   -3.0780  -57.8230 O   0  0  0  0  0  0  0  0  0  0  0  0
   12.8230   -3.6730  -57.9650 C   0  0  1  0  0  0  0  0  0  0  0  0
   11.6780   -4.3580  -58.7360 C   0  0  0  0  0  0  0  0  0  0  0  0
   12.2420   -3.0390  -56.6850 C   0  0  0  0  0  0  0  0  0  0  0  0
    8.4130   -1.0170  -53.2840 N   0  0  0  0  0  0  0  0  0  0  0  0
    7.2820   -1.8790  -53.5100 C   0  0  0  0  0  0  0  0  0  0  0  0
    6.5510   -0.6230  -53.9290 C   0  0  2  0  0  0  0  0  0  0  0  0
    6.3370   -0.3890  -55.4090 C   0  0  0  0  0  0  0  0  0  0  0  0
    7.5440    0.5140  -55.2650 C   0  0  0  0  0  0  0  0  0  0  0  0
    8.0390    1.7320  -56.1210 C   0  0  0  0  0  0  0  0  0  0  0  0
    9.3560    1.9390  -56.3190 C   0  0  0  0  0  0  0  0  0  0  0  0
    9.8600    3.0560  -57.0970 C   0  0  0  0  0  0  0  0  0  0  0  0
    8.9900    3.9170  -57.6540 C   0  0  0  0  0  0  0  0  0  0  0  0
    7.6430    3.7270  -57.4760 N   0  0  0  0  0  0  0  0  0  0  0  0
    7.0770    2.6920  -56.7620 C   0  0  0  0  0  0  0  0  0  0  0  0
    5.8590    2.5980  -56.6950 O   0  0  0  0  0  0  0  0  0  0  0  0
    9.4210    5.0900  -58.4910 C   0  0  0  0  0  0  0  0  0  0  0  0
   10.8910    5.0080  -58.9120 C   0  0  0  0  0  0  0  0  0  0  0  0
   11.7440    4.5910  -57.7340 N   0  0  2  0  0  0  0  0  0  0  0  0
   13.2110    4.6870  -58.0220 C   0  0  0  0  0  0  0  0  0  0  0  0
   11.3480    3.2170  -57.2360 C   0  0  0  0  0  0  0  0  0  0  0  0
    8.0770   -0.2040  -54.2490 C   0  0  0  0  0  0  0  0  0  0  0  0
    9.7632   -2.1038  -51.0317 H   0  0  0  0  0  0  0  0  0  0  0  0
    8.8822   -3.2771  -52.0680 H   0  0  0  0  0  0  0  0  0  0  0  0
   10.6783   -3.2507  -52.0680 H   0  0  0  0  0  0  0  0  0  0  0  0
   10.4885   -0.8333  -52.8842 H   0  0  0  0  0  0  0  0  0  0  0  0
    9.2177   -2.5570  -54.9848 H   0  0  0  0  0  0  0  0  0  0  0  0
   10.7592   -1.5053  -54.9825 H   0  0  0  0  0  0  0  0  0  0  0  0
   11.9372   -3.2540  -53.8430 H   0  0  0  0  0  0  0  0  0  0  0  0
   10.3981   -4.3024  -54.0473 H   0  0  0  0  0  0  0  0  0  0  0  0
   10.0087   -5.6034  -55.9711 H   0  0  0  0  0  0  0  0  0  0  0  0
    9.7067   -4.0729  -56.8808 H   0  0  0  0  0  0  0  0  0  0  0  0
   10.2350   -5.9502  -58.4333 H   0  0  0  0  0  0  0  0  0  0  0  0
   11.6492   -7.2663  -56.8501 H   0  0  0  0  0  0  0  0  0  0  0  0
   12.5112   -6.9492  -58.3988 H   0  0  0  0  0  0  0  0  0  0  0  0
   14.0226   -6.5385  -56.4241 H   0  0  0  0  0  0  0  0  0  0  0  0
   12.2112   -5.9589  -54.8191 H   0  0  0  0  0  0  0  0  0  0  0  0
   13.4791   -4.6677  -54.8984 H   0  0  0  0  0  0  0  0  0  0  0  0
   14.2335   -5.2054  -58.5536 H   0  0  0  0  0  0  0  0  0  0  0  0
   14.9513   -3.7599  -56.0038 H   0  0  0  0  0  0  0  0  0  0  0  0
   15.9403   -4.9283  -56.9555 H   0  0  0  0  0  0  0  0  0  0  0  0
   15.8190   -2.3180  -57.2380 H   0  0  0  0  0  0  0  0  0  0  0  0
   13.2922   -2.8842  -58.5714 H   0  0  0  0  0  0  0  0  0  0  0  0
   10.9153   -3.6091  -58.9956 H   0  0  0  0  0  0  0  0  0  0  0  0
   12.0828   -4.8133  -59.6519 H   0  0  0  0  0  0  0  0  0  0  0  0
   13.0542   -2.5525  -56.1249 H   0  0  0  0  0  0  0  0  0  0  0  0
   11.4775   -2.3037  -56.9762 H   0  0  0  0  0  0  0  0  0  0  0  0
    7.4178   -2.6259  -54.3060 H   0  0  0  0  0  0  0  0  0  0  0  0
    6.8939   -2.5629  -52.7407 H   0  0  0  0  0  0  0  0  0  0  0  0
    5.6793   -0.3410  -53.3202 H   0  0  0  0  0  0  0  0  0  0  0  0
    6.4780   -1.2694  -56.0532 H   0  0  0  0  0  0  0  0  0  0  0  0
    5.3802   -0.0673  -55.8461 H   0  0  0  0  0  0  0  0  0  0  0  0
   10.0755    1.2355  -55.8746 H   0  0  0  0  0  0  0  0  0  0  0  0
    6.9580    4.3490  -57.8940 H   0  0  0  0  0  0  0  0  0  0  0  0
    8.7972    5.1243  -59.3963 H   0  0  0  0  0  0  0  0  0  0  0  0
    9.3009    5.9963  -57.8793 H   0  0  0  0  0  0  0  0  0  0  0  0
   10.9981    4.2684  -59.7192 H   0  0  0  0  0  0  0  0  0  0  0  0
   11.2212    5.9961  -59.2652 H   0  0  0  0  0  0  0  0  0  0  0  0
   11.5430    5.2460  -56.9660 H   0  0  0  0  0  0  0  0  0  0  0  0
   13.7690    4.7235  -57.0747 H   0  0  0  0  0  0  0  0  0  0  0  0
   13.5292    3.8078  -58.6014 H   0  0  0  0  0  0  0  0  0  0  0  0
   13.4119    5.6002  -58.6014 H   0  0  0  0  0  0  0  0  0  0  0  0
   11.7182    2.4646  -57.9480 H   0  0  0  0  0  0  0  0  0  0  0  0
   11.7907    3.0855  -56.2376 H   0  0  0  0  0  0  0  0  0  0  0  0
  1  2  1  0
  2  3  1  0
  3  4  1  0
  5  4  1  1
  5  6  1  0
  6  7  1  0
  7  8  1  0
  8  9  1  0
  9 10  1  0
  9 11  1  0
 11 12  1  0
 12 13  1  0
 11 14  1  0
 14 15  1  0
 14 16  1  0
  2 17  1  0
 17 18  1  0
 18 19  1  0
 19 20  1  0
 20 21  1  0
 21 22  1  0
 22 23  2  0
 23 24  1  0
 24 25  2  0
 25 26  1  0
 26 27  1  0
 27 28  2  0
 25 29  1  0
 29 30  1  0
 30 31  1  0
 31 32  1  0
 31 33  1  0
 21 34  2  0
 10  5  1  0
 34 17  1  0
 16  5  1  0
 34 19  1  0
 15  7  1  0
 27 22  1  0
 33 24  1  0
  1 35  1  0
  1 36  1  0
  1 37  1  0
  2 38  1  1
  3 39  1  0
  3 40  1  0
  4 41  1  0
  4 42  1  0
  6 43  1  0
  6 44  1  0
  7 45  1  6
  8 46  1  0
  8 47  1  0
  9 48  1  1
 10 49  1  0
 10 50  1  0
 11 51  1  6
 12 52  1  0
 12 53  1  0
 13 54  1  0
 14 55  1  6
 15 56  1  0
 15 57  1  0
 16 58  1  0
 16 59  1  0
 18 60  1  0
 18 61  1  0
 19 62  1  1
 20 63  1  0
 20 64  1  0
 23 65  1  0
 26 66  1  0
 29 67  1  0
 29 68  1  0
 30 69  1  0
 30 70  1  0
 31 71  1  1
 32 72  1  0
 32 73  1  0
 32 74  1  0
 33 75  1  0
 33 76  1  0
M  CHG  1  31   1
M  END
>  <meeko>  (149) 
{"is_sidechain": false}

$$$$

     RDKit          3D

 76 82  0  0  0  0  0  0  0  0999 V2000
   11.1610   -1.0640  -53.8440 C   0  0  0  0  0  0  0  0  0  0  0  0
    9.8530   -1.8390  -53.6580 C   0  0  2  0  0  0  0  0  0  0  0  0
   10.0620   -3.3590  -53.8480 C   0  0  0  0  0  0  0  0  0  0  0  0
    9.6580   -3.8830  -55.2370 C   0  0  0  0  0  0  0  0  0  0  0  0
   10.8250   -4.2560  -56.1850 C   0  0  2  0  0  0  0  0  0  0  0  0
   10.3900   -5.2460  -57.2920 C   0  0  0  0  0  0  0  0  0  0  0  0
   11.5910   -5.6310  -58.1770 C   0  0  2  0  0  0  0  0  0  0  0  0
   12.6690   -6.2960  -57.3080 C   0  0  0  0  0  0  0  0  0  0  0  0
   13.1470   -5.3180  -56.2200 C   0  0  2  0  0  0  0  0  0  0  0  0
   11.9400   -4.9360  -55.3420 C   0  0  0  0  0  0  0  0  0  0  0  0
   13.7250   -4.0250  -56.8480 C   0  0  1  0  0  0  0  0  0  0  0  0
   15.0480   -4.2380  -57.5950 C   0  0  0  0  0  0  0  0  0  0  0  0
   15.6560   -2.9830  -57.8790 O   0  0  0  0  0  0  0  0  0  0  0  0
   12.6410   -3.3790  -57.7420 C   0  0  1  0  0  0  0  0  0  0  0  0
   12.1630   -4.3620  -58.8280 C   0  0  0  0  0  0  0  0  0  0  0  0
   11.4320   -2.9990  -56.8620 C   0  0  0  0  0  0  0  0  0  0  0  0
    8.8200   -1.3660  -54.6080 N   0  0  0  0  0  0  0  0  0  0  0  0
    7.4680   -1.9680  -54.4570 C   0  0  0  0  0  0  0  0  0  0  0  0
    7.0000   -0.6650  -53.7720 C   0  0  2  0  0  0  0  0  0  0  0  0
    6.3100    0.4660  -54.5670 C   0  0  0  0  0  0  0  0  0  0  0  0
    7.6750    0.7970  -55.1580 C   0  0  0  0  0  0  0  0  0  0  0  0
    8.1370    1.7300  -56.3090 C   0  0  0  0  0  0  0  0  0  0  0  0
    9.2480    2.4820  -56.1990 C   0  0  0  0  0  0  0  0  0  0  0  0
    9.7120    3.3280  -57.2810 C   0  0  0  0  0  0  0  0  0  0  0  0
    9.0050    3.3870  -58.4250 C   0  0  0  0  0  0  0  0  0  0  0  0
    7.8590    2.6390  -58.5550 N   0  0  0  0  0  0  0  0  0  0  0  0
    7.3560    1.7970  -57.5860 C   0  0  0  0  0  0  0  0  0  0  0  0
    6.3320    1.1530  -57.7800 O   0  0  0  0  0  0  0  0  0  0  0  0
    9.4170    4.2390  -59.5940 C   0  0  0  0  0  0  0  0  0  0  0  0
   10.5280    5.2370  -59.2450 C   0  0  0  0  0  0  0  0  0  0  0  0
   11.5930    4.6060  -58.3740 N   0  0  2  0  0  0  0  0  0  0  0  0
   12.4260    3.5760  -59.0860 C   0  0  0  0  0  0  0  0  0  0  0  0
   10.9930    4.0850  -57.0820 C   0  0  0  0  0  0  0  0  0  0  0  0
    8.2380   -0.2100  -54.4760 C   0  0  0  0  0  0  0  0  0  0  0  0
   11.5825   -0.8143  -52.8591 H   0  0  0  0  0  0  0  0  0  0  0  0
   11.8778   -1.6833  -54.4032 H   0  0  0  0  0  0  0  0  0  0  0  0
   10.9621   -0.1379  -54.4032 H   0  0  0  0  0  0  0  0  0  0  0  0
    9.5138   -1.6555  -52.6278 H   0  0  0  0  0  0  0  0  0  0  0  0
   11.1276   -3.5828  -53.6915 H   0  0  0  0  0  0  0  0  0  0  0  0
    9.4092   -3.8611  -53.1189 H   0  0  0  0  0  0  0  0  0  0  0  0
    9.0412   -4.7821  -55.0917 H   0  0  0  0  0  0  0  0  0  0  0  0
    9.1305   -3.0514  -55.7271 H   0  0  0  0  0  0  0  0  0  0  0  0
    9.9796   -6.1533  -56.8248 H   0  0  0  0  0  0  0  0  0  0  0  0
    9.6268   -4.7631  -57.9200 H   0  0  0  0  0  0  0  0  0  0  0  0
   11.2691   -6.3334  -58.9600 H   0  0  0  0  0  0  0  0  0  0  0  0
   12.2494   -7.1942  -56.8313 H   0  0  0  0  0  0  0  0  0  0  0  0
   13.5230   -6.5744  -57.9430 H   0  0  0  0  0  0  0  0  0  0  0  0
   13.9346   -5.8064  -55.6275 H   0  0  0  0  0  0  0  0  0  0  0  0
   11.5332   -5.8455  -54.8758 H   0  0  0  0  0  0  0  0  0  0  0  0
   12.2788   -4.2250  -54.5740 H   0  0  0  0  0  0  0  0  0  0  0  0
   13.9872   -3.3367  -56.0310 H   0  0  0  0  0  0  0  0  0  0  0  0
   15.7262   -4.8379  -56.9703 H   0  0  0  0  0  0  0  0  0  0  0  0
   14.8475   -4.7634  -58.5404 H   0  0  0  0  0  0  0  0  0  0  0  0
   16.1570   -3.0860  -58.7070 H   0  0  0  0  0  0  0  0  0  0  0  0
   13.0718   -2.4914  -58.2285 H   0  0  0  0  0  0  0  0  0  0  0  0
   11.3822   -3.8813  -59.4357 H   0  0  0  0  0  0  0  0  0  0  0  0
   13.0164   -4.6375  -59.4650 H   0  0  0  0  0  0  0  0  0  0  0  0
   11.7599   -2.2936  -56.0842 H   0  0  0  0  0  0  0  0  0  0  0  0
   10.6639   -2.5370  -57.4996 H   0  0  0  0  0  0  0  0  0  0  0  0
    6.9606   -2.1883  -55.4078 H   0  0  0  0  0  0  0  0  0  0  0  0
    7.3332   -2.9450  -53.9699 H   0  0  0  0  0  0  0  0  0  0  0  0
    6.5283   -0.7979  -52.7872 H   0  0  0  0  0  0  0  0  0  0  0  0
    5.5646    0.1225  -55.2994 H   0  0  0  0  0  0  0  0  0  0  0  0
    5.6957    1.2304  -54.0687 H   0  0  0  0  0  0  0  0  0  0  0  0
    9.8208    2.4538  -55.2603 H   0  0  0  0  0  0  0  0  0  0  0  0
    7.3060    2.6600  -59.4070 H   0  0  0  0  0  0  0  0  0  0  0  0
    9.7770    3.5805  -60.3982 H   0  0  0  0  0  0  0  0  0  0  0  0
    8.5366    4.8212  -59.9038 H   0  0  0  0  0  0  0  0  0  0  0  0
   10.9934    5.5926  -60.1761 H   0  0  0  0  0  0  0  0  0  0  0  0
   10.0774    6.0707  -58.6865 H   0  0  0  0  0  0  0  0  0  0  0  0
   12.2410    5.3560  -58.1050 H   0  0  0  0  0  0  0  0  0  0  0  0
   12.9378    2.9431  -58.3461 H   0  0  0  0  0  0  0  0  0  0  0  0
   11.7764    2.9510  -59.7163 H   0  0  0  0  0  0  0  0  0  0  0  0
   13.1731    4.0805  -59.7163 H   0  0  0  0  0  0  0  0  0  0  0  0
   11.7230    3.4152  -56.6040 H   0  0  0  0  0  0  0  0  0  0  0  0
   10.7591    4.9596  -56.4573 H   0  0  0  0  0  0  0  0  0  0  0  0
  1  2  1  0
  2  3  1  0
  3  4  1  0
  5  4  1  1
  5  6  1  0
  6  7  1  0
  7  8  1  0
  8  9  1  0
  9 10  1  0
  9 11  1  0
 11 12  1  0
 12 13  1  0
 11 14  1  0
 14 15  1  0
 14 16  1  0
  2 17  1  0
 17 18  1  0
 18 19  1  0
 19 20  1  0
 20 21  1  0
 21 22  1  0
 22 23  2  0
 23 24  1  0
 24 25  2  0
 25 26  1  0
 26 27  1  0
 27 28  2  0
 25 29  1  0
 29 30  1  0
 30 31  1  0
 31 32  1  0
 31 33  1  0
 21 34  2  0
 10  5  1  0
 34 17  1  0
 16  5  1  0
 34 19  1  0
 15  7  1  0
 27 22  1  0
 33 24  1  0
  1 35  1  0
  1 36  1  0
  1 37  1  0
  2 38  1  1
  3 39  1  0
  3 40  1  0
  4 41  1  0
  4 42  1  0
  6 43  1  0
  6 44  1  0
  7 45  1  6
  8 46  1  0
  8 47  1  0
  9 48  1  1
 10 49  1  0
 10 50  1  0
 11 51  1  1
 12 52  1  0
 12 53  1  0
 13 54  1  0
 14 55  1  6
 15 56  1  0
 15 57  1  0
 16 58  1  0
 16 59  1  0
 18 60  1  0
 18 61  1  0
 19 62  1  1
 20 63  1  0
 20 64  1  0
 23 65  1  0
 26 66  1  0
 29 67  1  0
 29 68  1  0
 30 69  1  0
 30 70  1  0
 31 71  1  1
 32 72  1  0
 32 73  1  0
 32 74  1  0
 33 75  1  0
 33 76  1  0
M  CHG  1  31   1
M  END
>  <meeko>  (150) 
{"is_sidechain": false}

$$$$

     RDKit          3D

 76 82  0  0  0  0  0  0  0  0999 V2000
    9.8120   -2.6830  -52.3140 C   0  0  0  0  0  0  0  0  0  0  0  0
    9.6600   -1.4850  -53.2550 C   0  0  1  0  0  0  0  0  0  0  0  0
    9.9030   -1.8590  -54.7330 C   0  0  0  0  0  0  0  0  0  0  0  0
    9.7410   -3.3630  -55.0030 C   0  0  0  0  0  0  0  0  0  0  0  0
   10.8220   -4.0000  -55.9130 C   0  0  2  0  0  0  0  0  0  0  0  0
   10.2110   -5.0560  -56.8710 C   0  0  0  0  0  0  0  0  0  0  0  0
   11.2930   -5.6300  -57.8050 C   0  0  2  0  0  0  0  0  0  0  0  0
   12.3920   -6.2900  -56.9560 C   0  0  0  0  0  0  0  0  0  0  0  0
   13.0400   -5.2490  -56.0250 C   0  0  2  0  0  0  0  0  0  0  0  0
   11.9490   -4.6790  -55.0940 C   0  0  0  0  0  0  0  0  0  0  0  0
   13.6540   -4.0830  -56.8410 C   0  0  1  0  0  0  0  0  0  0  0  0
   14.8830   -4.4910  -57.6630 C   0  0  0  0  0  0  0  0  0  0  0  0
   15.6550   -3.3360  -57.9700 O   0  0  0  0  0  0  0  0  0  0  0  0
   12.5470   -3.4460  -57.7130 C   0  0  1  0  0  0  0  0  0  0  0  0
   11.8990   -4.4900  -58.6380 C   0  0  0  0  0  0  0  0  0  0  0  0
   11.4560   -2.8790  -56.7820 C   0  0  0  0  0  0  0  0  0  0  0  0
    8.3450   -0.8760  -53.0350 N   0  0  0  0  0  0  0  0  0  0  0  0
    7.1310   -1.6480  -52.7730 C   0  0  0  0  0  0  0  0  0  0  0  0
    6.3470   -0.3770  -53.1920 C   0  0  2  0  0  0  0  0  0  0  0  0
    5.8000   -0.0990  -54.6100 C   0  0  0  0  0  0  0  0  0  0  0  0
    7.1960    0.4680  -54.9370 C   0  0  0  0  0  0  0  0  0  0  0  0
    7.7790    1.3140  -56.0980 C   0  0  0  0  0  0  0  0  0  0  0  0
    9.0760    1.6780  -56.1010 C   0  0  0  0  0  0  0  0  0  0  0  0
    9.6600    2.4580  -57.1770 C   0  0  0  0  0  0  0  0  0  0  0  0
    8.8880    2.8310  -58.2150 C   0  0  0  0  0  0  0  0  0  0  0  0
    7.5600    2.4850  -58.2320 N   0  0  0  0  0  0  0  0  0  0  0  0
    6.9180    1.7600  -57.2490 C   0  0  0  0  0  0  0  0  0  0  0  0
    5.7200    1.5300  -57.3450 O   0  0  0  0  0  0  0  0  0  0  0  0
    9.4150    3.6200  -59.3830 C   0  0  0  0  0  0  0  0  0  0  0  0
   10.9460    3.6500  -59.4330 C   0  0  0  0  0  0  0  0  0  0  0  0
   11.5030    3.9220  -58.0530 N   0  0  2  0  0  0  0  0  0  0  0  0
   12.9820    4.1640  -58.0660 C   0  0  0  0  0  0  0  0  0  0  0  0
   11.1130    2.8260  -57.0840 C   0  0  0  0  0  0  0  0  0  0  0  0
    7.6740   -0.2460  -53.9250 C   0  0  0  0  0  0  0  0  0  0  0  0
    9.7682   -2.3375  -51.2706 H   0  0  0  0  0  0  0  0  0  0  0  0
    8.9975   -3.3992  -52.4977 H   0  0  0  0  0  0  0  0  0  0  0  0
   10.7795   -3.1731  -52.4977 H   0  0  0  0  0  0  0  0  0  0  0  0
   10.4387   -0.7442  -53.0208 H   0  0  0  0  0  0  0  0  0  0  0  0
    9.1820   -1.3106  -55.3570 H   0  0  0  0  0  0  0  0  0  0  0  0
   10.9416   -1.5898  -54.9754 H   0  0  0  0  0  0  0  0  0  0  0  0
    9.7630   -3.8850  -54.0350 H   0  0  0  0  0  0  0  0  0  0  0  0
    8.7898   -3.4708  -55.5448 H   0  0  0  0  0  0  0  0  0  0  0  0
    9.7749   -5.8731  -56.2777 H   0  0  0  0  0  0  0  0  0  0  0  0
    9.4341   -4.5734  -57.4822 H   0  0  0  0  0  0  0  0  0  0  0  0
   10.8490   -6.3783  -58.4780 H   0  0  0  0  0  0  0  0  0  0  0  0
   11.9495   -7.0943  -56.3499 H   0  0  0  0  0  0  0  0  0  0  0  0
   13.1621   -6.7040  -57.6236 H   0  0  0  0  0  0  0  0  0  0  0  0
   13.8399   -5.7360  -55.4479 H   0  0  0  0  0  0  0  0  0  0  0  0
   11.5186   -5.4985  -54.4997 H   0  0  0  0  0  0  0  0  0  0  0  0
   12.4072   -3.9263  -54.4356 H   0  0  0  0  0  0  0  0  0  0  0  0
   14.0378   -3.3339  -56.1328 H   0  0  0  0  0  0  0  0  0  0  0  0
   15.4947   -5.1967  -57.0817 H   0  0  0  0  0  0  0  0  0  0  0  0
   14.5556   -4.9712  -58.5969 H   0  0  0  0  0  0  0  0  0  0  0  0
   15.9220   -2.9370  -57.1240 H   0  0  0  0  0  0  0  0  0  0  0  0
   12.9981   -2.6561  -58.3315 H   0  0  0  0  0  0  0  0  0  0  0  0
   11.1053   -4.0096  -59.2290 H   0  0  0  0  0  0  0  0  0  0  0  0
   12.6671   -4.9030  -59.3084 H   0  0  0  0  0  0  0  0  0  0  0  0
   11.9054   -2.1233  -56.1210 H   0  0  0  0  0  0  0  0  0  0  0  0
   10.6664   -2.4304  -57.4028 H   0  0  0  0  0  0  0  0  0  0  0  0
    6.9857   -2.5186  -53.4294 H   0  0  0  0  0  0  0  0  0  0  0  0
    6.9545   -2.1575  -51.8142 H   0  0  0  0  0  0  0  0  0  0  0  0
    5.6527   -0.0016  -52.4259 H   0  0  0  0  0  0  0  0  0  0  0  0
    5.5199   -0.9961  -55.1816 H   0  0  0  0  0  0  0  0  0  0  0  0
    4.8784    0.4768  -54.7807 H   0  0  0  0  0  0  0  0  0  0  0  0
    9.7148    1.3736  -55.2588 H   0  0  0  0  0  0  0  0  0  0  0  0
    6.9490    2.7590  -58.9950 H   0  0  0  0  0  0  0  0  0  0  0  0
    9.0413    3.1653  -60.3123 H   0  0  0  0  0  0  0  0  0  0  0  0
    9.0657    4.6568  -59.2686 H   0  0  0  0  0  0  0  0  0  0  0  0
   11.3180    2.6787  -59.7911 H   0  0  0  0  0  0  0  0  0  0  0  0
   11.2696    4.4484  -60.1170 H   0  0  0  0  0  0  0  0  0  0  0  0
   11.0590    4.7840  -57.7090 H   0  0  0  0  0  0  0  0  0  0  0  0
   13.3527    4.2247  -57.0321 H   0  0  0  0  0  0  0  0  0  0  0  0
   13.4844    3.3361  -58.5877 H   0  0  0  0  0  0  0  0  0  0  0  0
   13.1944    5.1088  -58.5877 H   0  0  0  0  0  0  0  0  0  0  0  0
   11.7166    1.9327  -57.3021 H   0  0  0  0  0  0  0  0  0  0  0  0
   11.2952    3.2026  -56.0667 H   0  0  0  0  0  0  0  0  0  0  0  0
  1  2  1  0
  2  3  1  0
  3  4  1  0
  5  4  1  1
  5  6  1  0
  6  7  1  0
  7  8  1  0
  8  9  1  0
  9 10  1  0
  9 11  1  0
 11 12  1  0
 12 13  1  0
 11 14  1  0
 14 15  1  0
 14 16  1  0
  2 17  1  0
 17 18  1  0
 18 19  1  0
 19 20  1  0
 20 21  1  0
 21 22  1  0
 22 23  2  0
 23 24  1  0
 24 25  2  0
 25 26  1  0
 26 27  1  0
 27 28  2  0
 25 29  1  0
 29 30  1  0
 30 31  1  0
 31 32  1  0
 31 33  1  0
 21 34  2  0
 10  5  1  0
 34 17  1  0
 16  5  1  0
 34 19  1  0
 15  7  1  0
 27 22  1  0
 33 24  1  0
  1 35  1  0
  1 36  1  0
  1 37  1  0
  2 38  1  1
  3 39  1  0
  3 40  1  0
  4 41  1  0
  4 42  1  0
  6 43  1  0
  6 44  1  0
  7 45  1  6
  8 46  1  0
  8 47  1  0
  9 48  1  1
 10 49  1  0
 10 50  1  0
 11 51  1  1
 12 52  1  0
 12 53  1  0
 13 54  1  0
 14 55  1  6
 15 56  1  0
 15 57  1  0
 16 58  1  0
 16 59  1  0
 18 60  1  0
 18 61  1  0
 19 62  1  1
 20 63  1  0
 20 64  1  0
 23 65  1  0
 26 66  1  0
 29 67  1  0
 29 68  1  0
 30 69  1  0
 30 70  1  0
 31 71  1  1
 32 72  1  0
 32 73  1  0
 32 74  1  0
 33 75  1  0
 33 76  1  0
M  CHG  1  31   1
M  END
>  <meeko>  (151) 
{"is_sidechain": false}

$$$$

     RDKit          3D

 76 82  0  0  0  0  0  0  0  0999 V2000
   11.1730   -2.6470  -52.4010 C   0  0  0  0  0  0  0  0  0  0  0  0
    9.7270   -2.9040  -52.8320 C   0  0  2  0  0  0  0  0  0  0  0  0
    9.5990   -3.2410  -54.3330 C   0  0  0  0  0  0  0  0  0  0  0  0
   10.7690   -2.7060  -55.1700 C   0  0  0  0  0  0  0  0  0  0  0  0
   11.4060   -3.7100  -56.1650 C   0  0  2  0  0  0  0  0  0  0  0  0
   10.3380   -4.6170  -56.8300 C   0  0  0  0  0  0  0  0  0  0  0  0
   11.0050   -5.6430  -57.7640 C   0  0  2  0  0  0  0  0  0  0  0  0
   11.9690   -6.5190  -56.9500 C   0  0  0  0  0  0  0  0  0  0  0  0
   13.0630   -5.6470  -56.3060 C   0  0  2  0  0  0  0  0  0  0  0  0
   12.3850   -4.6250  -55.3770 C   0  0  0  0  0  0  0  0  0  0  0  0
   13.8510   -4.9270  -57.4310 C   0  0  2  0  0  0  0  0  0  0  0  0
   15.0870   -4.1680  -56.9270 C   0  0  0  0  0  0  0  0  0  0  0  0
   15.5940   -3.3430  -57.9670 O   0  0  0  0  0  0  0  0  0  0  0  0
   12.8800   -4.0160  -58.2180 C   0  0  1  0  0  0  0  0  0  0  0  0
   11.7880   -4.8970  -58.8560 C   0  0  0  0  0  0  0  0  0  0  0  0
   12.2000   -2.9930  -57.2860 C   0  0  0  0  0  0  0  0  0  0  0  0
    8.8600   -1.7670  -52.5260 N   0  0  0  0  0  0  0  0  0  0  0  0
    7.6850   -1.8230  -51.7130 C   0  0  0  0  0  0  0  0  0  0  0  0
    6.8990   -1.3990  -52.9280 C   0  0  1  0  0  0  0  0  0  0  0  0
    6.5540    0.0660  -53.1140 C   0  0  0  0  0  0  0  0  0  0  0  0
    7.7000    0.0060  -54.1030 C   0  0  0  0  0  0  0  0  0  0  0  0
    8.0450    0.8330  -55.3800 C   0  0  0  0  0  0  0  0  0  0  0  0
    9.3100    1.1860  -55.6690 C   0  0  0  0  0  0  0  0  0  0  0  0
    9.6420    1.9740  -56.8430 C   0  0  0  0  0  0  0  0  0  0  0  0
    8.6600    2.3530  -57.6820 C   0  0  0  0  0  0  0  0  0  0  0  0
    7.3600    1.9970  -57.4130 N   0  0  0  0  0  0  0  0  0  0  0  0
    6.9550    1.2640  -56.3180 C   0  0  0  0  0  0  0  0  0  0  0  0
    5.7730    0.9920  -56.1470 O   0  0  0  0  0  0  0  0  0  0  0  0
    8.9180    3.1580  -58.9260 C   0  0  0  0  0  0  0  0  0  0  0  0
   10.4040    3.2120  -59.3000 C   0  0  0  0  0  0  0  0  0  0  0  0
   11.2390    3.4720  -58.0670 N   0  0  2  0  0  0  0  0  0  0  0  0
   12.6790    3.7370  -58.3880 C   0  0  0  0  0  0  0  0  0  0  0  0
   11.0780    2.3550  -57.0560 C   0  0  0  0  0  0  0  0  0  0  0  0
    8.3870   -0.9160  -53.3860 C   0  0  0  0  0  0  0  0  0  0  0  0
   11.2319   -2.6365  -51.3026 H   0  0  0  0  0  0  0  0  0  0  0  0
   11.8203   -3.4442  -52.7953 H   0  0  0  0  0  0  0  0  0  0  0  0
   11.5060   -1.6756  -52.7953 H   0  0  0  0  0  0  0  0  0  0  0  0
    9.4029   -3.7805  -52.2517 H   0  0  0  0  0  0  0  0  0  0  0  0
    9.5595   -4.3346  -54.4445 H   0  0  0  0  0  0  0  0  0  0  0  0
    8.6825   -2.7571  -54.7017 H   0  0  0  0  0  0  0  0  0  0  0  0
   10.4033   -1.8447  -55.7483 H   0  0  0  0  0  0  0  0  0  0  0  0
   11.5619   -2.4589  -54.4487 H   0  0  0  0  0  0  0  0  0  0  0  0
    9.7786   -5.1505  -56.0474 H   0  0  0  0  0  0  0  0  0  0  0  0
    9.6572   -3.9880  -57.4222 H   0  0  0  0  0  0  0  0  0  0  0  0
   10.2366   -6.2779  -58.2292 H   0  0  0  0  0  0  0  0  0  0  0  0
   11.4079   -7.0403  -56.1604 H   0  0  0  0  0  0  0  0  0  0  0  0
   12.4417   -7.2519  -57.6203 H   0  0  0  0  0  0  0  0  0  0  0  0
   13.7629   -6.2592  -55.7183 H   0  0  0  0  0  0  0  0  0  0  0  0
   11.8244   -5.1641  -54.5992 H   0  0  0  0  0  0  0  0  0  0  0  0
   13.1649   -3.9935  -54.9265 H   0  0  0  0  0  0  0  0  0  0  0  0
   14.2607   -5.6933  -58.1054 H   0  0  0  0  0  0  0  0  0  0  0  0
   14.8073   -3.5425  -56.0664 H   0  0  0  0  0  0  0  0  0  0  0  0
   15.8599   -4.8886  -56.6214 H   0  0  0  0  0  0  0  0  0  0  0  0
   14.8370   -2.8780  -58.3610 H   0  0  0  0  0  0  0  0  0  0  0  0
   13.4515   -3.4714  -58.9841 H   0  0  0  0  0  0  0  0  0  0  0  0
   11.0969   -4.2615  -59.4292 H   0  0  0  0  0  0  0  0  0  0  0  0
   12.2628   -5.6313  -59.5234 H   0  0  0  0  0  0  0  0  0  0  0  0
   12.9701   -2.3537  -56.8297 H   0  0  0  0  0  0  0  0  0  0  0  0
   11.5004   -2.3866  -57.8800 H   0  0  0  0  0  0  0  0  0  0  0  0
    7.4374   -2.8256  -51.3341 H   0  0  0  0  0  0  0  0  0  0  0  0
    7.6153   -1.2765  -50.7609 H   0  0  0  0  0  0  0  0  0  0  0  0
    6.0727   -2.0709  -53.2034 H   0  0  0  0  0  0  0  0  0  0  0  0
    5.5627    0.2722  -53.5439 H   0  0  0  0  0  0  0  0  0  0  0  0
    6.4803    0.7949  -52.2935 H   0  0  0  0  0  0  0  0  0  0  0  0
   10.1189    0.8679  -54.9949 H   0  0  0  0  0  0  0  0  0  0  0  0
    6.5990    2.2710  -58.0270 H   0  0  0  0  0  0  0  0  0  0  0  0
    8.3618    2.7048  -59.7598 H   0  0  0  0  0  0  0  0  0  0  0  0
    8.5881    4.1886  -58.7285 H   0  0  0  0  0  0  0  0  0  0  0  0
   10.7024    2.2518  -59.7460 H   0  0  0  0  0  0  0  0  0  0  0  0
   10.5648    4.0255  -60.0228 H   0  0  0  0  0  0  0  0  0  0  0  0
   10.8690    4.3210  -57.6170 H   0  0  0  0  0  0  0  0  0  0  0  0
   13.2497    3.8420  -57.4535 H   0  0  0  0  0  0  0  0  0  0  0  0
   13.0846    2.8984  -58.9730 H   0  0  0  0  0  0  0  0  0  0  0  0
   12.7595    4.6650  -58.9730 H   0  0  0  0  0  0  0  0  0  0  0  0
   11.6274    1.4724  -57.4153 H   0  0  0  0  0  0  0  0  0  0  0  0
   11.4740    2.7149  -56.0949 H   0  0  0  0  0  0  0  0  0  0  0  0
  1  2  1  0
  2  3  1  0
  3  4  1  0
  5  4  1  1
  5  6  1  0
  6  7  1  0
  7  8  1  0
  8  9  1  0
  9 10  1  0
  9 11  1  0
 11 12  1  0
 12 13  1  0
 11 14  1  0
 14 15  1  0
 14 16  1  0
  2 17  1  0
 17 18  1  0
 18 19  1  0
 19 20  1  0
 20 21  1  0
 21 22  1  0
 22 23  2  0
 23 24  1  0
 24 25  2  0
 25 26  1  0
 26 27  1  0
 27 28  2  0
 25 29  1  0
 29 30  1  0
 30 31  1  0
 31 32  1  0
 31 33  1  0
 21 34  2  0
 10  5  1  0
 34 17  1  0
 16  5  1  0
 34 19  1  0
 15  7  1  0
 27 22  1  0
 33 24  1  0
  1 35  1  0
  1 36  1  0
  1 37  1  0
  2 38  1  1
  3 39  1  0
  3 40  1  0
  4 41  1  0
  4 42  1  0
  6 43  1  0
  6 44  1  0
  7 45  1  6
  8 46  1  0
  8 47  1  0
  9 48  1  1
 10 49  1  0
 10 50  1  0
 11 51  1  6
 12 52  1  0
 12 53  1  0
 13 54  1  0
 14 55  1  6
 15 56  1  0
 15 57  1  0
 16 58  1  0
 16 59  1  0
 18 60  1  0
 18 61  1  0
 19 62  1  6
 20 63  1  0
 20 64  1  0
 23 65  1  0
 26 66  1  0
 29 67  1  0
 29 68  1  0
 30 69  1  0
 30 70  1  0
 31 71  1  1
 32 72  1  0
 32 73  1  0
 32 74  1  0
 33 75  1  0
 33 76  1  0
M  CHG  1  31   1
M  END
>  <meeko>  (152) 
{"is_sidechain": false}

$$$$

     RDKit          3D

 76 82  0  0  0  0  0  0  0  0999 V2000
    9.0710   -2.4290  -52.2960 C   0  0  0  0  0  0  0  0  0  0  0  0
    9.4030   -1.3300  -53.3120 C   0  0  1  0  0  0  0  0  0  0  0  0
    9.9800   -1.9500  -54.5950 C   0  0  0  0  0  0  0  0  0  0  0  0
   11.1330   -2.9590  -54.4400 C   0  0  0  0  0  0  0  0  0  0  0  0
   11.5800   -3.8070  -55.6600 C   0  0  2  0  0  0  0  0  0  0  0  0
   10.3910   -4.4780  -56.3890 C   0  0  0  0  0  0  0  0  0  0  0  0
   10.8750   -5.2450  -57.6330 C   0  0  2  0  0  0  0  0  0  0  0  0
   11.8810   -6.3250  -57.1980 C   0  0  0  0  0  0  0  0  0  0  0  0
   13.1000   -5.6710  -56.5140 C   0  0  2  0  0  0  0  0  0  0  0  0
   12.6060   -4.9040  -55.2710 C   0  0  0  0  0  0  0  0  0  0  0  0
   13.7820   -4.7160  -57.5240 C   0  0  2  0  0  0  0  0  0  0  0  0
   15.1130   -4.1430  -57.0180 C   0  0  0  0  0  0  0  0  0  0  0  0
   15.5490   -3.0760  -57.8520 O   0  0  0  0  0  0  0  0  0  0  0  0
   12.7740   -3.6120  -57.9180 C   0  0  1  0  0  0  0  0  0  0  0  0
   11.5600   -4.2680  -58.6000 C   0  0  0  0  0  0  0  0  0  0  0  0
   12.2800   -2.8510  -56.6750 C   0  0  0  0  0  0  0  0  0  0  0  0
    8.2390   -0.5050  -53.6100 N   0  0  0  0  0  0  0  0  0  0  0  0
    6.8930   -0.9510  -53.4300 C   0  0  0  0  0  0  0  0  0  0  0  0
    6.6900   -0.7400  -54.9100 C   0  0  1  0  0  0  0  0  0  0  0  0
    6.0710    0.5570  -55.3940 C   0  0  0  0  0  0  0  0  0  0  0  0
    7.5100    0.8840  -55.7350 C   0  0  0  0  0  0  0  0  0  0  0  0
    8.1620    1.8220  -56.7970 C   0  0  0  0  0  0  0  0  0  0  0  0
    9.2700    2.5330  -56.5210 C   0  0  0  0  0  0  0  0  0  0  0  0
    9.8760    3.4240  -57.4940 C   0  0  0  0  0  0  0  0  0  0  0  0
    9.3160    3.5510  -58.7120 C   0  0  0  0  0  0  0  0  0  0  0  0
    8.1880    2.8300  -59.0200 N   0  0  0  0  0  0  0  0  0  0  0  0
    7.5500    1.9610  -58.1600 C   0  0  0  0  0  0  0  0  0  0  0  0
    6.5500    1.3500  -58.5140 O   0  0  0  0  0  0  0  0  0  0  0  0
    9.8680    4.4670  -59.7710 C   0  0  0  0  0  0  0  0  0  0  0  0
   10.9090    5.4490  -59.2240 C   0  0  0  0  0  0  0  0  0  0  0  0
   11.8650    4.7730  -58.2660 N   0  0  2  0  0  0  0  0  0  0  0  0
   12.8000    3.8000  -58.9300 C   0  0  0  0  0  0  0  0  0  0  0  0
   11.1180    4.1680  -57.0950 C   0  0  0  0  0  0  0  0  0  0  0  0
    8.0100    0.1910  -54.6830 C   0  0  0  0  0  0  0  0  0  0  0  0
    9.1904   -2.0339  -51.2764 H   0  0  0  0  0  0  0  0  0  0  0  0
    8.0324   -2.7611  -52.4413 H   0  0  0  0  0  0  0  0  0  0  0  0
    9.7520   -3.2806  -52.4413 H   0  0  0  0  0  0  0  0  0  0  0  0
   10.1628   -0.6720  -52.8652 H   0  0  0  0  0  0  0  0  0  0  0  0
    9.1570   -2.4666  -55.1105 H   0  0  0  0  0  0  0  0  0  0  0  0
   10.4198   -1.1034  -55.1425 H   0  0  0  0  0  0  0  0  0  0  0  0
   12.0133   -2.3893  -54.1075 H   0  0  0  0  0  0  0  0  0  0  0  0
   10.7278   -3.7067  -53.7423 H   0  0  0  0  0  0  0  0  0  0  0  0
    9.8967   -5.1805  -55.7019 H   0  0  0  0  0  0  0  0  0  0  0  0
    9.6868   -3.6959  -56.7089 H   0  0  0  0  0  0  0  0  0  0  0  0
   10.0181   -5.7168  -58.1361 H   0  0  0  0  0  0  0  0  0  0  0  0
   11.3933   -7.0129  -56.4916 H   0  0  0  0  0  0  0  0  0  0  0  0
   12.2208   -6.8784  -58.0858 H   0  0  0  0  0  0  0  0  0  0  0  0
   13.8335   -6.4271  -56.1971 H   0  0  0  0  0  0  0  0  0  0  0  0
   12.1284   -5.6127  -54.5784 H   0  0  0  0  0  0  0  0  0  0  0  0
   13.4707   -4.4191  -54.7944 H   0  0  0  0  0  0  0  0  0  0  0  0
   14.0590   -5.2944  -58.4177 H   0  0  0  0  0  0  0  0  0  0  0  0
   14.9786   -3.7684  -55.9925 H   0  0  0  0  0  0  0  0  0  0  0  0
   15.8714   -4.9395  -57.0362 H   0  0  0  0  0  0  0  0  0  0  0  0
   15.2000   -3.2380  -58.7440 H   0  0  0  0  0  0  0  0  0  0  0  0
   13.2749   -2.9053  -58.5960 H   0  0  0  0  0  0  0  0  0  0  0  0
   10.8438   -3.4876  -58.8966 H   0  0  0  0  0  0  0  0  0  0  0  0
   11.9011   -4.8204  -59.4880 H   0  0  0  0  0  0  0  0  0  0  0  0
   13.1403   -2.3745  -56.1823 H   0  0  0  0  0  0  0  0  0  0  0  0
   11.5480   -2.0971  -57.0002 H   0  0  0  0  0  0  0  0  0  0  0  0
    6.7970   -1.9955  -53.0988 H   0  0  0  0  0  0  0  0  0  0  0  0
    6.2274   -0.4908  -52.6849 H   0  0  0  0  0  0  0  0  0  0  0  0
    6.3234   -1.6204  -55.4582 H   0  0  0  0  0  0  0  0  0  0  0  0
    5.3855    0.4690  -56.2498 H   0  0  0  0  0  0  0  0  0  0  0  0
    5.4164    1.1977  -54.7849 H   0  0  0  0  0  0  0  0  0  0  0  0
    9.7313    2.4363  -55.5271 H   0  0  0  0  0  0  0  0  0  0  0  0
    7.7430    2.9060  -59.9290 H   0  0  0  0  0  0  0  0  0  0  0  0
   10.3397    3.8549  -60.5538 H   0  0  0  0  0  0  0  0  0  0  0  0
    9.0295    5.0596  -60.1656 H   0  0  0  0  0  0  0  0  0  0  0  0
   11.4823    5.8662  -60.0650 H   0  0  0  0  0  0  0  0  0  0  0  0
   10.3786    6.2425  -58.6771 H   0  0  0  0  0  0  0  0  0  0  0  0
   12.4620    5.5120  -57.8720 H   0  0  0  0  0  0  0  0  0  0  0  0
   13.3452    3.2326  -58.1613 H   0  0  0  0  0  0  0  0  0  0  0  0
   12.2217    3.1055  -59.5572 H   0  0  0  0  0  0  0  0  0  0  0  0
   13.5169    4.3502  -59.5572 H   0  0  0  0  0  0  0  0  0  0  0  0
   11.7909    3.4688  -56.5770 H   0  0  0  0  0  0  0  0  0  0  0  0
   10.8020    5.0004  -56.4491 H   0  0  0  0  0  0  0  0  0  0  0  0
  1  2  1  0
  2  3  1  0
  3  4  1  0
  5  4  1  1
  5  6  1  0
  6  7  1  0
  7  8  1  0
  8  9  1  0
  9 10  1  0
  9 11  1  0
 11 12  1  0
 12 13  1  0
 11 14  1  0
 14 15  1  0
 14 16  1  0
  2 17  1  0
 17 18  1  0
 18 19  1  0
 19 20  1  0
 20 21  1  0
 21 22  1  0
 22 23  2  0
 23 24  1  0
 24 25  2  0
 25 26  1  0
 26 27  1  0
 27 28  2  0
 25 29  1  0
 29 30  1  0
 30 31  1  0
 31 32  1  0
 31 33  1  0
 21 34  2  0
 10  5  1  0
 34 17  1  0
 16  5  1  0
 34 19  1  0
 15  7  1  0
 27 22  1  0
 33 24  1  0
  1 35  1  0
  1 36  1  0
  1 37  1  0
  2 38  1  1
  3 39  1  0
  3 40  1  0
  4 41  1  0
  4 42  1  0
  6 43  1  0
  6 44  1  0
  7 45  1  6
  8 46  1  0
  8 47  1  0
  9 48  1  1
 10 49  1  0
 10 50  1  0
 11 51  1  6
 12 52  1  0
 12 53  1  0
 13 54  1  0
 14 55  1  6
 15 56  1  0
 15 57  1  0
 16 58  1  0
 16 59  1  0
 18 60  1  0
 18 61  1  0
 19 62  1  6
 20 63  1  0
 20 64  1  0
 23 65  1  0
 26 66  1  0
 29 67  1  0
 29 68  1  0
 30 69  1  0
 30 70  1  0
 31 71  1  1
 32 72  1  0
 32 73  1  0
 32 74  1  0
 33 75  1  0
 33 76  1  0
M  CHG  1  31   1
M  END
>  <meeko>  (153) 
{"is_sidechain": false}

$$$$

     RDKit          3D

 76 82  0  0  0  0  0  0  0  0999 V2000
   10.3510   -0.4480  -54.0680 C   0  0  0  0  0  0  0  0  0  0  0  0
    9.3310   -1.5010  -53.6490 C   0  0  2  0  0  0  0  0  0  0  0  0
    9.8090   -2.9610  -53.7900 C   0  0  0  0  0  0  0  0  0  0  0  0
    9.5920   -3.7820  -55.0740 C   0  0  0  0  0  0  0  0  0  0  0  0
   10.7920   -4.1960  -55.9750 C   0  0  2  0  0  0  0  0  0  0  0  0
   10.2790   -5.2430  -57.0120 C   0  0  0  0  0  0  0  0  0  0  0  0
   11.4040   -5.6860  -57.9610 C   0  0  2  0  0  0  0  0  0  0  0  0
   12.5370   -6.3090  -57.1360 C   0  0  0  0  0  0  0  0  0  0  0  0
   13.0990   -5.2770  -56.1440 C   0  0  2  0  0  0  0  0  0  0  0  0
   11.9560   -4.8540  -55.1930 C   0  0  0  0  0  0  0  0  0  0  0  0
   13.6200   -4.0020  -56.8530 C   0  0  1  0  0  0  0  0  0  0  0  0
   14.9650   -4.1790  -57.5790 C   0  0  0  0  0  0  0  0  0  0  0  0
   15.6540   -2.9670  -57.8090 O   0  0  0  0  0  0  0  0  0  0  0  0
   12.4840   -3.4250  -57.7330 C   0  0  1  0  0  0  0  0  0  0  0  0
   11.9270   -4.4610  -58.7220 C   0  0  0  0  0  0  0  0  0  0  0  0
   11.3290   -2.9950  -56.7990 C   0  0  0  0  0  0  0  0  0  0  0  0
    8.0100   -1.2110  -54.1930 N   0  0  0  0  0  0  0  0  0  0  0  0
    6.7940   -1.1120  -53.4540 C   0  0  0  0  0  0  0  0  0  0  0  0
    6.1800   -0.6490  -54.7660 C   0  0  1  0  0  0  0  0  0  0  0  0
    5.9050    0.8270  -54.9690 C   0  0  0  0  0  0  0  0  0  0  0  0
    7.2300    0.8100  -55.6980 C   0  0  0  0  0  0  0  0  0  0  0  0
    7.8700    1.7610  -56.7610 C   0  0  0  0  0  0  0  0  0  0  0  0
    8.9640    2.4900  -56.4690 C   0  0  0  0  0  0  0  0  0  0  0  0
    9.5800    3.3840  -57.4370 C   0  0  0  0  0  0  0  0  0  0  0  0
    9.0380    3.5020  -58.6630 C   0  0  0  0  0  0  0  0  0  0  0  0
    7.9240    2.7690  -58.9870 N   0  0  0  0  0  0  0  0  0  0  0  0
    7.2830    1.8890  -58.1410 C   0  0  0  0  0  0  0  0  0  0  0  0
    6.3020    1.2700  -58.5320 O   0  0  0  0  0  0  0  0  0  0  0  0
    9.5990    4.4150  -59.7200 C   0  0  0  0  0  0  0  0  0  0  0  0
   10.6310    5.4040  -59.1670 C   0  0  0  0  0  0  0  0  0  0  0  0
   11.5750    4.7350  -58.1920 N   0  0  2  0  0  0  0  0  0  0  0  0
   12.5190    3.7580  -58.8380 C   0  0  0  0  0  0  0  0  0  0  0  0
   10.8130    4.1370  -57.0260 C   0  0  0  0  0  0  0  0  0  0  0  0
    7.7230   -0.2200  -54.9770 C   0  0  0  0  0  0  0  0  0  0  0  0
   10.7946    0.0099  -53.1716 H   0  0  0  0  0  0  0  0  0  0  0  0
   11.1423   -0.9220  -54.6673 H   0  0  0  0  0  0  0  0  0  0  0  0
    9.8520    0.3278  -54.6673 H   0  0  0  0  0  0  0  0  0  0  0  0
    9.2238   -1.4171  -52.5575 H   0  0  0  0  0  0  0  0  0  0  0  0
   10.8953   -2.9448  -53.6177 H   0  0  0  0  0  0  0  0  0  0  0  0
    9.1548   -3.4824  -53.0757 H   0  0  0  0  0  0  0  0  0  0  0  0
    9.0945   -4.7143  -54.7684 H   0  0  0  0  0  0  0  0  0  0  0  0
    9.0378   -3.0824  -55.7169 H   0  0  0  0  0  0  0  0  0  0  0  0
    9.8968   -6.1229  -56.4738 H   0  0  0  0  0  0  0  0  0  0  0  0
    9.4826   -4.7772  -57.6110 H   0  0  0  0  0  0  0  0  0  0  0  0
   11.0250   -6.4277  -58.6795 H   0  0  0  0  0  0  0  0  0  0  0  0
   12.1480   -7.1743  -56.5792 H   0  0  0  0  0  0  0  0  0  0  0  0
   13.3410   -6.6305  -57.8144 H   0  0  0  0  0  0  0  0  0  0  0  0
   13.9404   -5.7430  -55.6102 H   0  0  0  0  0  0  0  0  0  0  0  0
   11.5780   -5.7437  -54.6681 H   0  0  0  0  0  0  0  0  0  0  0  0
   12.3528   -4.1203  -54.4759 H   0  0  0  0  0  0  0  0  0  0  0  0
   13.8779   -3.2571  -56.0858 H   0  0  0  0  0  0  0  0  0  0  0  0
   15.6057   -4.8313  -56.9674 H   0  0  0  0  0  0  0  0  0  0  0  0
   14.7416   -4.6120  -58.5652 H   0  0  0  0  0  0  0  0  0  0  0  0
   15.2160   -2.2800  -57.2780 H   0  0  0  0  0  0  0  0  0  0  0  0
   12.8949   -2.5843  -58.3113 H   0  0  0  0  0  0  0  0  0  0  0  0
   11.1041   -4.0104  -59.2962 H   0  0  0  0  0  0  0  0  0  0  0  0
   12.7300   -4.7762  -59.4045 H   0  0  0  0  0  0  0  0  0  0  0  0
   11.6961   -2.2220  -56.1078 H   0  0  0  0  0  0  0  0  0  0  0  0
   10.5083   -2.6052  -57.4191 H   0  0  0  0  0  0  0  0  0  0  0  0
    6.4041   -2.0648  -53.0664 H   0  0  0  0  0  0  0  0  0  0  0  0
    6.7083   -0.5384  -52.5193 H   0  0  0  0  0  0  0  0  0  0  0  0
    5.3797   -1.2848  -55.1725 H   0  0  0  0  0  0  0  0  0  0  0  0
    5.0278    1.0629  -55.5894 H   0  0  0  0  0  0  0  0  0  0  0  0
    5.6709    1.5209  -54.1482 H   0  0  0  0  0  0  0  0  0  0  0  0
    9.4064    2.4066  -55.4653 H   0  0  0  0  0  0  0  0  0  0  0  0
    7.4950    2.8330  -59.9040 H   0  0  0  0  0  0  0  0  0  0  0  0
   10.0815    3.8006  -60.4945 H   0  0  0  0  0  0  0  0  0  0  0  0
    8.7628    5.0030  -60.1261 H   0  0  0  0  0  0  0  0  0  0  0  0
   11.2145    5.8163  -60.0034 H   0  0  0  0  0  0  0  0  0  0  0  0
   10.0928    6.2013  -58.6336 H   0  0  0  0  0  0  0  0  0  0  0  0
   12.1670    5.4770  -57.7970 H   0  0  0  0  0  0  0  0  0  0  0  0
   13.0586    3.1996  -58.0589 H   0  0  0  0  0  0  0  0  0  0  0  0
   11.9485    3.0559  -59.4638 H   0  0  0  0  0  0  0  0  0  0  0  0
   13.2403    4.3041  -59.4638 H   0  0  0  0  0  0  0  0  0  0  0  0
   11.4811    3.4454  -56.4918 H   0  0  0  0  0  0  0  0  0  0  0  0
   10.4841    4.9737  -56.3922 H   0  0  0  0  0  0  0  0  0  0  0  0
  1  2  1  0
  2  3  1  0
  3  4  1  0
  5  4  1  1
  5  6  1  0
  6  7  1  0
  7  8  1  0
  8  9  1  0
  9 10  1  0
  9 11  1  0
 11 12  1  0
 12 13  1  0
 11 14  1  0
 14 15  1  0
 14 16  1  0
  2 17  1  0
 17 18  1  0
 18 19  1  0
 19 20  1  0
 20 21  1  0
 21 22  1  0
 22 23  2  0
 23 24  1  0
 24 25  2  0
 25 26  1  0
 26 27  1  0
 27 28  2  0
 25 29  1  0
 29 30  1  0
 30 31  1  0
 31 32  1  0
 31 33  1  0
 21 34  2  0
 10  5  1  0
 34 17  1  0
 16  5  1  0
 34 19  1  0
 15  7  1  0
 27 22  1  0
 33 24  1  0
  1 35  1  0
  1 36  1  0
  1 37  1  0
  2 38  1  1
  3 39  1  0
  3 40  1  0
  4 41  1  0
  4 42  1  0
  6 43  1  0
  6 44  1  0
  7 45  1  6
  8 46  1  0
  8 47  1  0
  9 48  1  1
 10 49  1  0
 10 50  1  0
 11 51  1  1
 12 52  1  0
 12 53  1  0
 13 54  1  0
 14 55  1  6
 15 56  1  0
 15 57  1  0
 16 58  1  0
 16 59  1  0
 18 60  1  0
 18 61  1  0
 19 62  1  6
 20 63  1  0
 20 64  1  0
 23 65  1  0
 26 66  1  0
 29 67  1  0
 29 68  1  0
 30 69  1  0
 30 70  1  0
 31 71  1  1
 32 72  1  0
 32 73  1  0
 32 74  1  0
 33 75  1  0
 33 76  1  0
M  CHG  1  31   1
M  END
>  <meeko>  (154) 
{"is_sidechain": false}

$$$$

     RDKit          3D

 76 82  0  0  0  0  0  0  0  0999 V2000
    8.5230   -1.4480  -52.7250 C   0  0  0  0  0  0  0  0  0  0  0  0
    8.7820   -0.7370  -54.0530 C   0  0  1  0  0  0  0  0  0  0  0  0
    9.8120   -1.4530  -54.9550 C   0  0  0  0  0  0  0  0  0  0  0  0
    9.8150   -2.9870  -54.8750 C   0  0  0  0  0  0  0  0  0  0  0  0
   10.8310   -3.7080  -55.7990 C   0  0  2  0  0  0  0  0  0  0  0  0
   10.0570   -4.7390  -56.6670 C   0  0  0  0  0  0  0  0  0  0  0  0
   11.0100   -5.4880  -57.6110 C   0  0  2  0  0  0  0  0  0  0  0  0
   12.0650   -6.2270  -56.7750 C   0  0  0  0  0  0  0  0  0  0  0  0
   12.8750   -5.2210  -55.9380 C   0  0  2  0  0  0  0  0  0  0  0  0
   11.9100   -4.4740  -54.9930 C   0  0  0  0  0  0  0  0  0  0  0  0
   13.5760   -4.1800  -56.8490 C   0  0  1  0  0  0  0  0  0  0  0  0
   14.7020   -4.7780  -57.7040 C   0  0  0  0  0  0  0  0  0  0  0  0
   15.6550   -3.7770  -58.0420 O   0  0  0  0  0  0  0  0  0  0  0  0
   12.5040   -3.4610  -57.7040 C   0  0  1  0  0  0  0  0  0  0  0  0
   11.6960   -4.4730  -58.5370 C   0  0  0  0  0  0  0  0  0  0  0  0
   11.5380   -2.7170  -56.7590 C   0  0  0  0  0  0  0  0  0  0  0  0
    7.5520   -0.4500  -54.7970 N   0  0  0  0  0  0  0  0  0  0  0  0
    6.2920   -0.1250  -54.1980 C   0  0  0  0  0  0  0  0  0  0  0  0
    5.8720    0.2800  -55.6030 C   0  0  1  0  0  0  0  0  0  0  0  0
    5.7990    1.7510  -55.9540 C   0  0  0  0  0  0  0  0  0  0  0  0
    7.1870    1.5260  -56.5100 C   0  0  0  0  0  0  0  0  0  0  0  0
    8.0540    2.3110  -57.5480 C   0  0  0  0  0  0  0  0  0  0  0  0
    9.0750    3.0940  -57.1500 C   0  0  0  0  0  0  0  0  0  0  0  0
    9.8900    3.8420  -58.0920 C   0  0  0  0  0  0  0  0  0  0  0  0
    9.6170    3.7640  -59.4080 C   0  0  0  0  0  0  0  0  0  0  0  0
    8.5870    2.9680  -59.8410 N   0  0  0  0  0  0  0  0  0  0  0  0
    7.7730    2.2130  -59.0230 C   0  0  0  0  0  0  0  0  0  0  0  0
    6.8940    1.5130  -59.5120 O   0  0  0  0  0  0  0  0  0  0  0  0
   10.3950    4.5190  -60.4500 C   0  0  0  0  0  0  0  0  0  0  0  0
   11.2990    5.6020  -59.8520 C   0  0  0  0  0  0  0  0  0  0  0  0
   12.0120    5.1080  -58.6120 N   0  0  2  0  0  0  0  0  0  0  0  0
   13.0620    4.0680  -58.8940 C   0  0  0  0  0  0  0  0  0  0  0  0
   11.0190    4.6730  -57.5530 C   0  0  0  0  0  0  0  0  0  0  0  0
    7.4660    0.5080  -55.6710 C   0  0  0  0  0  0  0  0  0  0  0  0
    8.7693   -0.7719  -51.8930 H   0  0  0  0  0  0  0  0  0  0  0  0
    7.4628   -1.7345  -52.6631 H   0  0  0  0  0  0  0  0  0  0  0  0
    9.1506   -2.3493  -52.6631 H   0  0  0  0  0  0  0  0  0  0  0  0
    9.2304    0.2241  -53.7612 H   0  0  0  0  0  0  0  0  0  0  0  0
    9.6035   -1.1694  -55.9971 H   0  0  0  0  0  0  0  0  0  0  0  0
   10.8005   -1.1321  -54.5945 H   0  0  0  0  0  0  0  0  0  0  0  0
   10.0424   -3.2706  -53.8368 H   0  0  0  0  0  0  0  0  0  0  0  0
    8.8198   -3.3065  -55.2177 H   0  0  0  0  0  0  0  0  0  0  0  0
    9.5605   -5.4650  -56.0064 H   0  0  0  0  0  0  0  0  0  0  0  0
    9.3143   -4.1999  -57.2734 H   0  0  0  0  0  0  0  0  0  0  0  0
   10.4502   -6.2155  -58.2171 H   0  0  0  0  0  0  0  0  0  0  0  0
   11.5635   -6.9391  -56.1031 H   0  0  0  0  0  0  0  0  0  0  0  0
   12.7466   -6.7659  -57.4496 H   0  0  0  0  0  0  0  0  0  0  0  0
   13.6405   -5.7699  -55.3700 H   0  0  0  0  0  0  0  0  0  0  0  0
   11.4169   -5.2023  -54.3323 H   0  0  0  0  0  0  0  0  0  0  0  0
   12.4880   -3.7489  -54.4012 H   0  0  0  0  0  0  0  0  0  0  0  0
   14.0824   -3.4450  -56.2060 H   0  0  0  0  0  0  0  0  0  0  0  0
   15.2018   -5.5772  -57.1370 H   0  0  0  0  0  0  0  0  0  0  0  0
   14.2688   -5.1845  -58.6298 H   0  0  0  0  0  0  0  0  0  0  0  0
   15.4520   -2.9870  -57.5120 H   0  0  0  0  0  0  0  0  0  0  0  0
   13.0064   -2.7606  -58.3874 H   0  0  0  0  0  0  0  0  0  0  0  0
   10.9321   -3.9374  -59.1197 H   0  0  0  0  0  0  0  0  0  0  0  0
   12.3772   -5.0070  -59.2158 H   0  0  0  0  0  0  0  0  0  0  0  0
   12.1063   -1.9849  -56.1665 H   0  0  0  0  0  0  0  0  0  0  0  0
   10.7737   -2.2095  -57.3659 H   0  0  0  0  0  0  0  0  0  0  0  0
    5.7424   -0.9781  -53.7736 H   0  0  0  0  0  0  0  0  0  0  0  0
    6.1976    0.5438  -53.3297 H   0  0  0  0  0  0  0  0  0  0  0  0
    5.0450   -0.2955  -56.0444 H   0  0  0  0  0  0  0  0  0  0  0  0
    5.0322    2.0218  -56.6948 H   0  0  0  0  0  0  0  0  0  0  0  0
    5.5566    2.5384  -55.2251 H   0  0  0  0  0  0  0  0  0  0  0  0
    9.2994    3.1697  -56.0758 H   0  0  0  0  0  0  0  0  0  0  0  0
    8.3600    2.8810  -60.8270 H   0  0  0  0  0  0  0  0  0  0  0  0
   11.0221    3.8057  -61.0049 H   0  0  0  0  0  0  0  0  0  0  0  0
    9.6678    5.0212  -61.1049 H   0  0  0  0  0  0  0  0  0  0  0  0
   12.0483    5.8960  -60.6017 H   0  0  0  0  0  0  0  0  0  0  0  0
   10.6698    6.4590  -59.5696 H   0  0  0  0  0  0  0  0  0  0  0  0
   12.5150    5.9140  -58.2200 H   0  0  0  0  0  0  0  0  0  0  0  0
   13.4560    3.6778  -57.9440 H   0  0  0  0  0  0  0  0  0  0  0  0
   12.6168    3.2448  -59.4721 H   0  0  0  0  0  0  0  0  0  0  0  0
   13.8809    4.5211  -59.4721 H   0  0  0  0  0  0  0  0  0  0  0  0
   11.5549    4.0821  -56.7957 H   0  0  0  0  0  0  0  0  0  0  0  0
   10.5744    5.5873  -57.1329 H   0  0  0  0  0  0  0  0  0  0  0  0
  1  2  1  0
  2  3  1  0
  3  4  1  0
  5  4  1  1
  5  6  1  0
  6  7  1  0
  7  8  1  0
  8  9  1  0
  9 10  1  0
  9 11  1  0
 11 12  1  0
 12 13  1  0
 11 14  1  0
 14 15  1  0
 14 16  1  0
  2 17  1  0
 17 18  1  0
 18 19  1  0
 19 20  1  0
 20 21  1  0
 21 22  1  0
 22 23  2  0
 23 24  1  0
 24 25  2  0
 25 26  1  0
 26 27  1  0
 27 28  2  0
 25 29  1  0
 29 30  1  0
 30 31  1  0
 31 32  1  0
 31 33  1  0
 21 34  2  0
 10  5  1  0
 34 17  1  0
 16  5  1  0
 34 19  1  0
 15  7  1  0
 27 22  1  0
 33 24  1  0
  1 35  1  0
  1 36  1  0
  1 37  1  0
  2 38  1  1
  3 39  1  0
  3 40  1  0
  4 41  1  0
  4 42  1  0
  6 43  1  0
  6 44  1  0
  7 45  1  6
  8 46  1  0
  8 47  1  0
  9 48  1  1
 10 49  1  0
 10 50  1  0
 11 51  1  1
 12 52  1  0
 12 53  1  0
 13 54  1  0
 14 55  1  6
 15 56  1  0
 15 57  1  0
 16 58  1  0
 16 59  1  0
 18 60  1  0
 18 61  1  0
 19 62  1  6
 20 63  1  0
 20 64  1  0
 23 65  1  0
 26 66  1  0
 29 67  1  0
 29 68  1  0
 30 69  1  0
 30 70  1  0
 31 71  1  1
 32 72  1  0
 32 73  1  0
 32 74  1  0
 33 75  1  0
 33 76  1  0
M  CHG  1  31   1
M  END
>  <meeko>  (155) 
{"is_sidechain": false}

$$$$

     RDKit          3D

 76 82  0  0  0  0  0  0  0  0999 V2000
   11.0360   -2.6270  -52.6450 C   0  0  0  0  0  0  0  0  0  0  0  0
    9.5810   -2.9090  -53.0300 C   0  0  2  0  0  0  0  0  0  0  0  0
    9.4650   -3.1490  -54.5490 C   0  0  0  0  0  0  0  0  0  0  0  0
   10.7080   -2.6710  -55.3170 C   0  0  0  0  0  0  0  0  0  0  0  0
   11.4040   -3.7310  -56.2080 C   0  0  2  0  0  0  0  0  0  0  0  0
   10.3810   -4.6840  -56.8760 C   0  0  0  0  0  0  0  0  0  0  0  0
   11.1000   -5.6830  -57.8000 C   0  0  2  0  0  0  0  0  0  0  0  0
   12.0960   -6.5100  -56.9650 C   0  0  0  0  0  0  0  0  0  0  0  0
   13.1500   -5.5800  -56.3240 C   0  0  2  0  0  0  0  0  0  0  0  0
   12.4110   -4.5900  -55.4040 C   0  0  0  0  0  0  0  0  0  0  0  0
   13.9130   -4.8680  -57.4680 C   0  0  2  0  0  0  0  0  0  0  0  0
   15.1990   -4.1490  -57.0300 C   0  0  0  0  0  0  0  0  0  0  0  0
   15.5990   -3.1050  -57.8970 O   0  0  0  0  0  0  0  0  0  0  0  0
   12.9120   -3.9830  -58.2520 C   0  0  1  0  0  0  0  0  0  0  0  0
   11.8570   -4.9110  -58.8930 C   0  0  0  0  0  0  0  0  0  0  0  0
   12.1730   -2.9920  -57.3360 C   0  0  0  0  0  0  0  0  0  0  0  0
    8.6800   -1.8370  -52.6090 N   0  0  0  0  0  0  0  0  0  0  0  0
    7.4110   -2.0820  -51.9780 C   0  0  0  0  0  0  0  0  0  0  0  0
    7.1470   -0.6040  -52.2090 C   0  0  2  0  0  0  0  0  0  0  0  0
    6.2270   -0.1960  -53.3430 C   0  0  0  0  0  0  0  0  0  0  0  0
    7.5220    0.0090  -54.0990 C   0  0  0  0  0  0  0  0  0  0  0  0
    7.8840    0.8590  -55.3560 C   0  0  0  0  0  0  0  0  0  0  0  0
    9.1400    1.2900  -55.5740 C   0  0  0  0  0  0  0  0  0  0  0  0
    9.4890    2.0930  -56.7310 C   0  0  0  0  0  0  0  0  0  0  0  0
    8.5310    2.4250  -57.6170 C   0  0  0  0  0  0  0  0  0  0  0  0
    7.2420    1.9910  -57.4200 N   0  0  0  0  0  0  0  0  0  0  0  0
    6.8250    1.2230  -56.3540 C   0  0  0  0  0  0  0  0  0  0  0  0
    5.6560    0.8700  -56.2530 O   0  0  0  0  0  0  0  0  0  0  0  0
    8.8040    3.2730  -58.8300 C   0  0  0  0  0  0  0  0  0  0  0  0
   10.1600    3.9830  -58.7620 C   0  0  0  0  0  0  0  0  0  0  0  0
   11.2260    3.0220  -58.2870 N   0  0  1  0  0  0  0  0  0  0  0  0
   12.6070    3.5940  -58.3890 C   0  0  0  0  0  0  0  0  0  0  0  0
   10.9200    2.5170  -56.8920 C   0  0  0  0  0  0  0  0  0  0  0  0
    8.2010   -0.9210  -53.3950 C   0  0  0  0  0  0  0  0  0  0  0  0
   11.1284   -2.6091  -51.5490 H   0  0  0  0  0  0  0  0  0  0  0  0
   11.6833   -3.4164  -53.0547 H   0  0  0  0  0  0  0  0  0  0  0  0
   11.3415   -1.6529  -53.0547 H   0  0  0  0  0  0  0  0  0  0  0  0
    9.2714   -3.8201  -52.4970 H   0  0  0  0  0  0  0  0  0  0  0  0
    9.3331   -4.2265  -54.7269 H   0  0  0  0  0  0  0  0  0  0  0  0
    8.6036   -2.5705  -54.9140 H   0  0  0  0  0  0  0  0  0  0  0  0
   10.4034   -1.8350  -55.9638 H   0  0  0  0  0  0  0  0  0  0  0  0
   11.4458   -2.3987  -54.5479 H   0  0  0  0  0  0  0  0  0  0  0  0
    9.8389   -5.2381  -56.0955 H   0  0  0  0  0  0  0  0  0  0  0  0
    9.6772   -4.0876  -57.4752 H   0  0  0  0  0  0  0  0  0  0  0  0
   10.3665   -6.3539  -58.2711 H   0  0  0  0  0  0  0  0  0  0  0  0
   11.5513   -7.0438  -56.1723 H   0  0  0  0  0  0  0  0  0  0  0  0
   12.6038   -7.2323  -57.6210 H   0  0  0  0  0  0  0  0  0  0  0  0
   13.8833   -6.1284  -55.7144 H   0  0  0  0  0  0  0  0  0  0  0  0
   11.8668   -5.1539  -54.6320 H   0  0  0  0  0  0  0  0  0  0  0  0
   13.1519   -3.9209  -54.9421 H   0  0  0  0  0  0  0  0  0  0  0  0
   14.3118   -5.6324  -58.1511 H   0  0  0  0  0  0  0  0  0  0  0  0
   15.0334   -3.7232  -56.0294 H   0  0  0  0  0  0  0  0  0  0  0  0
   16.0032   -4.8994  -57.0436 H   0  0  0  0  0  0  0  0  0  0  0  0
   15.0350   -2.3370  -57.6980 H   0  0  0  0  0  0  0  0  0  0  0  0
   13.4761   -3.4072  -59.0005 H   0  0  0  0  0  0  0  0  0  0  0  0
   11.1436   -4.3059  -59.4718 H   0  0  0  0  0  0  0  0  0  0  0  0
   12.3630   -5.6281  -59.5560 H   0  0  0  0  0  0  0  0  0  0  0  0
   12.9061   -2.3091  -56.8818 H   0  0  0  0  0  0  0  0  0  0  0  0
   11.4454   -2.4342  -57.9439 H   0  0  0  0  0  0  0  0  0  0  0  0
    6.7434   -2.7658  -52.5227 H   0  0  0  0  0  0  0  0  0  0  0  0
    7.3185   -2.5566  -50.9900 H   0  0  0  0  0  0  0  0  0  0  0  0
    6.9987    0.0071  -51.3065 H   0  0  0  0  0  0  0  0  0  0  0  0
    5.5735   -0.9911  -53.7312 H   0  0  0  0  0  0  0  0  0  0  0  0
    5.4467    0.5736  -53.2491 H   0  0  0  0  0  0  0  0  0  0  0  0
    9.9269    1.0252  -54.8524 H   0  0  0  0  0  0  0  0  0  0  0  0
    6.4990    2.2240  -58.0730 H   0  0  0  0  0  0  0  0  0  0  0  0
    8.7887    2.6280  -59.7210 H   0  0  0  0  0  0  0  0  0  0  0  0
    8.0249    4.0482  -58.8756 H   0  0  0  0  0  0  0  0  0  0  0  0
   10.4259    4.3561  -59.7620 H   0  0  0  0  0  0  0  0  0  0  0  0
   10.0916    4.8231  -58.0552 H   0  0  0  0  0  0  0  0  0  0  0  0
   11.1930    2.1980  -58.9030 H   0  0  0  0  0  0  0  0  0  0  0  0
   13.0102    3.7610  -57.3793 H   0  0  0  0  0  0  0  0  0  0  0  0
   13.2560    2.8907  -58.9313 H   0  0  0  0  0  0  0  0  0  0  0  0
   12.5687    4.5503  -58.9313 H   0  0  0  0  0  0  0  0  0  0  0  0
   11.5688    1.6544  -56.6797 H   0  0  0  0  0  0  0  0  0  0  0  0
   11.1024    3.3450  -56.1912 H   0  0  0  0  0  0  0  0  0  0  0  0
  1  2  1  0
  2  3  1  0
  3  4  1  0
  5  4  1  1
  5  6  1  0
  6  7  1  0
  7  8  1  0
  8  9  1  0
  9 10  1  0
  9 11  1  0
 11 12  1  0
 12 13  1  0
 11 14  1  0
 14 15  1  0
 14 16  1  0
  2 17  1  0
 17 18  1  0
 18 19  1  0
 19 20  1  0
 20 21  1  0
 21 22  1  0
 22 23  2  0
 23 24  1  0
 24 25  2  0
 25 26  1  0
 26 27  1  0
 27 28  2  0
 25 29  1  0
 29 30  1  0
 30 31  1  0
 31 32  1  0
 31 33  1  0
 21 34  2  0
 10  5  1  0
 34 17  1  0
 16  5  1  0
 34 19  1  0
 15  7  1  0
 27 22  1  0
 33 24  1  0
  1 35  1  0
  1 36  1  0
  1 37  1  0
  2 38  1  1
  3 39  1  0
  3 40  1  0
  4 41  1  0
  4 42  1  0
  6 43  1  0
  6 44  1  0
  7 45  1  6
  8 46  1  0
  8 47  1  0
  9 48  1  1
 10 49  1  0
 10 50  1  0
 11 51  1  6
 12 52  1  0
 12 53  1  0
 13 54  1  0
 14 55  1  6
 15 56  1  0
 15 57  1  0
 16 58  1  0
 16 59  1  0
 18 60  1  0
 18 61  1  0
 19 62  1  1
 20 63  1  0
 20 64  1  0
 23 65  1  0
 26 66  1  0
 29 67  1  0
 29 68  1  0
 30 69  1  0
 30 70  1  0
 31 71  1  6
 32 72  1  0
 32 73  1  0
 32 74  1  0
 33 75  1  0
 33 76  1  0
M  CHG  1  31   1
M  END
>  <meeko>  (156) 
{"is_sidechain": false}

$$$$

     RDKit          3D

 76 82  0  0  0  0  0  0  0  0999 V2000
    9.0290   -2.9780  -51.6000 C   0  0  0  0  0  0  0  0  0  0  0  0
    9.0690   -2.3780  -53.0050 C   0  0  1  0  0  0  0  0  0  0  0  0
    9.6450   -3.3330  -54.0720 C   0  0  0  0  0  0  0  0  0  0  0  0
   11.0810   -3.0380  -54.5340 C   0  0  0  0  0  0  0  0  0  0  0  0
   11.5760   -3.8500  -55.7610 C   0  0  2  0  0  0  0  0  0  0  0  0
   10.4250   -4.6360  -56.4360 C   0  0  0  0  0  0  0  0  0  0  0  0
   10.9580   -5.4800  -57.6080 C   0  0  2  0  0  0  0  0  0  0  0  0
   12.0040   -6.4760  -57.0840 C   0  0  0  0  0  0  0  0  0  0  0  0
   13.1790   -5.7170  -56.4390 C   0  0  2  0  0  0  0  0  0  0  0  0
   12.6330   -4.8780  -55.2700 C   0  0  0  0  0  0  0  0  0  0  0  0
   13.8340   -4.8100  -57.5080 C   0  0  2  0  0  0  0  0  0  0  0  0
   15.1360   -4.1660  -57.0140 C   0  0  0  0  0  0  0  0  0  0  0  0
   15.5060   -3.1080  -57.8890 O   0  0  0  0  0  0  0  0  0  0  0  0
   12.7840   -3.7810  -58.0010 C   0  0  1  0  0  0  0  0  0  0  0  0
   11.6110   -4.5480  -58.6430 C   0  0  0  0  0  0  0  0  0  0  0  0
   12.2370   -2.9430  -56.8300 C   0  0  0  0  0  0  0  0  0  0  0  0
    7.7790   -1.8360  -53.4270 N   0  0  0  0  0  0  0  0  0  0  0  0
    6.6440   -1.5870  -52.6010 C   0  0  0  0  0  0  0  0  0  0  0  0
    6.7600   -0.1330  -52.9790 C   0  0  2  0  0  0  0  0  0  0  0  0
    5.9310    0.4050  -54.1340 C   0  0  0  0  0  0  0  0  0  0  0  0
    7.2620    0.3240  -54.8560 C   0  0  0  0  0  0  0  0  0  0  0  0
    7.8900    1.1100  -56.0500 C   0  0  0  0  0  0  0  0  0  0  0  0
    9.2190    1.3010  -56.1340 C   0  0  0  0  0  0  0  0  0  0  0  0
    9.8250    2.0510  -57.2210 C   0  0  0  0  0  0  0  0  0  0  0  0
    9.0420    2.5600  -58.1890 C   0  0  0  0  0  0  0  0  0  0  0  0
    7.6840    2.3700  -58.1330 N   0  0  0  0  0  0  0  0  0  0  0  0
    7.0220    1.6780  -57.1400 C   0  0  0  0  0  0  0  0  0  0  0  0
    5.8060    1.5460  -57.1900 O   0  0  0  0  0  0  0  0  0  0  0  0
    9.5830    3.3420  -59.3550 C   0  0  0  0  0  0  0  0  0  0  0  0
   11.1060    3.2370  -59.4870 C   0  0  0  0  0  0  0  0  0  0  0  0
   11.7910    3.3430  -58.1410 N   0  0  1  0  0  0  0  0  0  0  0  0
   11.7100    4.7140  -57.5290 C   0  0  0  0  0  0  0  0  0  0  0  0
   11.3150    2.2490  -57.2070 C   0  0  0  0  0  0  0  0  0  0  0  0
    7.6440   -0.7840  -54.1760 C   0  0  0  0  0  0  0  0  0  0  0  0
    9.0828   -2.1706  -50.8548 H   0  0  0  0  0  0  0  0  0  0  0  0
    8.0915   -3.5379  -51.4669 H   0  0  0  0  0  0  0  0  0  0  0  0
    9.8838   -3.6574  -51.4669 H   0  0  0  0  0  0  0  0  0  0  0  0
    9.7728   -1.5364  -52.9252 H   0  0  0  0  0  0  0  0  0  0  0  0
    9.6273   -4.3516  -53.6570 H   0  0  0  0  0  0  0  0  0  0  0  0
    9.0131   -3.1993  -54.9624 H   0  0  0  0  0  0  0  0  0  0  0  0
   11.1405   -1.9698  -54.7898 H   0  0  0  0  0  0  0  0  0  0  0  0
   11.7309   -3.3345  -53.6975 H   0  0  0  0  0  0  0  0  0  0  0  0
    9.9584   -5.3012  -55.6946 H   0  0  0  0  0  0  0  0  0  0  0  0
    9.6860   -3.9191  -56.8232 H   0  0  0  0  0  0  0  0  0  0  0  0
   10.1299   -6.0319  -58.0766 H   0  0  0  0  0  0  0  0  0  0  0  0
   11.5384   -7.1318  -56.3336 H   0  0  0  0  0  0  0  0  0  0  0  0
   12.3811   -7.0781  -57.9238 H   0  0  0  0  0  0  0  0  0  0  0  0
   13.9381   -6.4151  -56.0563 H   0  0  0  0  0  0  0  0  0  0  0  0
   12.1659   -5.5491  -54.5342 H   0  0  0  0  0  0  0  0  0  0  0  0
   13.4700   -4.3270  -54.8162 H   0  0  0  0  0  0  0  0  0  0  0  0
   14.1450   -5.4240  -58.3661 H   0  0  0  0  0  0  0  0  0  0  0  0
   14.9855   -3.7670  -56.0000 H   0  0  0  0  0  0  0  0  0  0  0  0
   15.9345   -4.9224  -56.9969 H   0  0  0  0  0  0  0  0  0  0  0  0
   14.9780   -2.3300  -57.6370 H   0  0  0  0  0  0  0  0  0  0  0  0
   13.2641   -3.1060  -58.7248 H   0  0  0  0  0  0  0  0  0  0  0  0
   10.8628   -3.8290  -59.0081 H   0  0  0  0  0  0  0  0  0  0  0  0
   11.9912   -5.1511  -59.4807 H   0  0  0  0  0  0  0  0  0  0  0  0
   13.0656   -2.3866  -56.3675 H   0  0  0  0  0  0  0  0  0  0  0  0
   11.4778   -2.2489  -57.2196 H   0  0  0  0  0  0  0  0  0  0  0  0
    5.7173   -2.0747  -52.9376 H   0  0  0  0  0  0  0  0  0  0  0  0
    6.6156   -1.9081  -51.5493 H   0  0  0  0  0  0  0  0  0  0  0  0
    6.8134    0.5596  -52.1261 H   0  0  0  0  0  0  0  0  0  0  0  0
    5.1418   -0.2634  -54.5087 H   0  0  0  0  0  0  0  0  0  0  0  0
    5.3037    1.3072  -54.0833 H   0  0  0  0  0  0  0  0  0  0  0  0
    9.8680    0.8756  -55.3544 H   0  0  0  0  0  0  0  0  0  0  0  0
    7.0650    2.7370  -58.8500 H   0  0  0  0  0  0  0  0  0  0  0  0
    9.1233    2.9592  -60.2781 H   0  0  0  0  0  0  0  0  0  0  0  0
    9.3382    4.4008  -59.1849 H   0  0  0  0  0  0  0  0  0  0  0  0
   11.3589    2.2674  -59.9408 H   0  0  0  0  0  0  0  0  0  0  0  0
   11.4548    4.0687  -60.1168 H   0  0  0  0  0  0  0  0  0  0  0  0
   12.7900    3.1660  -58.3040 H   0  0  0  0  0  0  0  0  0  0  0  0
   11.7151    4.6269  -56.4325 H   0  0  0  0  0  0  0  0  0  0  0  0
   12.5744    5.3120  -57.8534 H   0  0  0  0  0  0  0  0  0  0  0  0
   10.7812    5.2061  -57.8534 H   0  0  0  0  0  0  0  0  0  0  0  0
   11.7940    1.3047  -57.5050 H   0  0  0  0  0  0  0  0  0  0  0  0
   11.5900    2.5542  -56.1866 H   0  0  0  0  0  0  0  0  0  0  0  0
  1  2  1  0
  2  3  1  0
  3  4  1  0
  5  4  1  1
  5  6  1  0
  6  7  1  0
  7  8  1  0
  8  9  1  0
  9 10  1  0
  9 11  1  0
 11 12  1  0
 12 13  1  0
 11 14  1  0
 14 15  1  0
 14 16  1  0
  2 17  1  0
 17 18  1  0
 18 19  1  0
 19 20  1  0
 20 21  1  0
 21 22  1  0
 22 23  2  0
 23 24  1  0
 24 25  2  0
 25 26  1  0
 26 27  1  0
 27 28  2  0
 25 29  1  0
 29 30  1  0
 30 31  1  0
 31 32  1  0
 31 33  1  0
 21 34  2  0
 10  5  1  0
 34 17  1  0
 16  5  1  0
 34 19  1  0
 15  7  1  0
 27 22  1  0
 33 24  1  0
  1 35  1  0
  1 36  1  0
  1 37  1  0
  2 38  1  1
  3 39  1  0
  3 40  1  0
  4 41  1  0
  4 42  1  0
  6 43  1  0
  6 44  1  0
  7 45  1  6
  8 46  1  0
  8 47  1  0
  9 48  1  1
 10 49  1  0
 10 50  1  0
 11 51  1  6
 12 52  1  0
 12 53  1  0
 13 54  1  0
 14 55  1  6
 15 56  1  0
 15 57  1  0
 16 58  1  0
 16 59  1  0
 18 60  1  0
 18 61  1  0
 19 62  1  1
 20 63  1  0
 20 64  1  0
 23 65  1  0
 26 66  1  0
 29 67  1  0
 29 68  1  0
 30 69  1  0
 30 70  1  0
 31 71  1  6
 32 72  1  0
 32 73  1  0
 32 74  1  0
 33 75  1  0
 33 76  1  0
M  CHG  1  31   1
M  END
>  <meeko>  (157) 
{"is_sidechain": false}

$$$$

     RDKit          3D

 76 82  0  0  0  0  0  0  0  0999 V2000
   10.9150   -1.4700  -53.2090 C   0  0  0  0  0  0  0  0  0  0  0  0
    9.6640   -2.3580  -53.1030 C   0  0  2  0  0  0  0  0  0  0  0  0
    9.9980   -3.7330  -53.7260 C   0  0  0  0  0  0  0  0  0  0  0  0
    9.6590   -3.9070  -55.2160 C   0  0  0  0  0  0  0  0  0  0  0  0
   10.8290   -4.2340  -56.1820 C   0  0  2  0  0  0  0  0  0  0  0  0
   10.3800   -5.2150  -57.2980 C   0  0  0  0  0  0  0  0  0  0  0  0
   11.5700   -5.5890  -58.2000 C   0  0  2  0  0  0  0  0  0  0  0  0
   12.6540   -6.2660  -57.3500 C   0  0  0  0  0  0  0  0  0  0  0  0
   13.1540   -5.3020  -56.2620 C   0  0  2  0  0  0  0  0  0  0  0  0
   11.9520   -4.9370  -55.3630 C   0  0  0  0  0  0  0  0  0  0  0  0
   13.7180   -3.9860  -56.8510 C   0  0  1  0  0  0  0  0  0  0  0  0
   15.1010   -4.1230  -57.5090 C   0  0  0  0  0  0  0  0  0  0  0  0
   15.6480   -2.8970  -57.9530 O   0  0  0  0  0  0  0  0  0  0  0  0
   12.6330   -3.3460  -57.7530 C   0  0  1  0  0  0  0  0  0  0  0  0
   12.1340   -4.3120  -58.8410 C   0  0  0  0  0  0  0  0  0  0  0  0
   11.4270   -2.9750  -56.8580 C   0  0  0  0  0  0  0  0  0  0  0  0
    8.5210   -1.7550  -53.8330 N   0  0  0  0  0  0  0  0  0  0  0  0
    7.1680   -2.0180  -53.2670 C   0  0  0  0  0  0  0  0  0  0  0  0
    7.1550   -0.5810  -52.7040 C   0  0  2  0  0  0  0  0  0  0  0  0
    6.5110    0.5920  -53.4800 C   0  0  0  0  0  0  0  0  0  0  0  0
    7.7200    0.5580  -54.4110 C   0  0  0  0  0  0  0  0  0  0  0  0
    8.0550    1.2710  -55.7470 C   0  0  0  0  0  0  0  0  0  0  0  0
    9.3150    1.6220  -56.0590 C   0  0  0  0  0  0  0  0  0  0  0  0
    9.6440    2.2730  -57.3120 C   0  0  0  0  0  0  0  0  0  0  0  0
    8.6650    2.5360  -58.1970 C   0  0  0  0  0  0  0  0  0  0  0  0
    7.3680    2.1930  -57.8980 N   0  0  0  0  0  0  0  0  0  0  0  0
    6.9670    1.5740  -56.7330 C   0  0  0  0  0  0  0  0  0  0  0  0
    5.7890    1.3010  -56.5360 O   0  0  0  0  0  0  0  0  0  0  0  0
    8.9240    3.1920  -59.5260 C   0  0  0  0  0  0  0  0  0  0  0  0
   10.4130    3.2300  -59.8910 C   0  0  0  0  0  0  0  0  0  0  0  0
   11.2690    3.6120  -58.7030 N   0  0  1  0  0  0  0  0  0  0  0  0
   11.1050    5.0430  -58.2750 C   0  0  0  0  0  0  0  0  0  0  0  0
   11.0800    2.6310  -57.5630 C   0  0  0  0  0  0  0  0  0  0  0  0
    8.2200   -0.4920  -53.7470 C   0  0  0  0  0  0  0  0  0  0  0  0
   11.2716   -1.2169  -52.1996 H   0  0  0  0  0  0  0  0  0  0  0  0
   11.7040   -2.0113  -53.7516 H   0  0  0  0  0  0  0  0  0  0  0  0
   10.6643   -0.5466  -53.7516 H   0  0  0  0  0  0  0  0  0  0  0  0
    9.3793   -2.4615  -52.0455 H   0  0  0  0  0  0  0  0  0  0  0  0
   11.0784   -3.9015  -53.6063 H   0  0  0  0  0  0  0  0  0  0  0  0
    9.3634   -4.4575  -53.1945 H   0  0  0  0  0  0  0  0  0  0  0  0
    8.9280   -4.7252  -55.2945 H   0  0  0  0  0  0  0  0  0  0  0  0
    9.2958   -2.9201  -55.5386 H   0  0  0  0  0  0  0  0  0  0  0  0
    9.9754   -6.1276  -56.8361 H   0  0  0  0  0  0  0  0  0  0  0  0
    9.6092   -4.7259  -57.9117 H   0  0  0  0  0  0  0  0  0  0  0  0
   11.2418   -6.2810  -58.9896 H   0  0  0  0  0  0  0  0  0  0  0  0
   12.2344   -7.1647  -56.8744 H   0  0  0  0  0  0  0  0  0  0  0  0
   13.4977   -6.5439  -57.9988 H   0  0  0  0  0  0  0  0  0  0  0  0
   13.9616   -5.8038  -55.7088 H   0  0  0  0  0  0  0  0  0  0  0  0
   11.5472   -5.8562  -54.9146 H   0  0  0  0  0  0  0  0  0  0  0  0
   12.2989   -4.2445  -54.5819 H   0  0  0  0  0  0  0  0  0  0  0  0
   13.9351   -3.2946  -56.0234 H   0  0  0  0  0  0  0  0  0  0  0  0
   15.7914   -4.5649  -56.7754 H   0  0  0  0  0  0  0  0  0  0  0  0
   14.9698   -4.7553  -58.3995 H   0  0  0  0  0  0  0  0  0  0  0  0
   16.5370   -3.0850  -58.3000 H   0  0  0  0  0  0  0  0  0  0  0  0
   13.0747   -2.4692  -58.2491 H   0  0  0  0  0  0  0  0  0  0  0  0
   11.3440   -3.8209  -59.4281 H   0  0  0  0  0  0  0  0  0  0  0  0
   12.9764   -4.5812  -59.4951 H   0  0  0  0  0  0  0  0  0  0  0  0
   11.7594   -2.2724  -56.0796 H   0  0  0  0  0  0  0  0  0  0  0  0
   10.6519   -2.5140  -57.4879 H   0  0  0  0  0  0  0  0  0  0  0  0
    6.3921   -2.2163  -54.0211 H   0  0  0  0  0  0  0  0  0  0  0  0
    6.9867   -2.8837  -52.6130 H   0  0  0  0  0  0  0  0  0  0  0  0
    6.9449   -0.5031  -51.6271 H   0  0  0  0  0  0  0  0  0  0  0  0
    5.5532    0.3502  -53.9639 H   0  0  0  0  0  0  0  0  0  0  0  0
    6.1988    1.5170  -52.9731 H   0  0  0  0  0  0  0  0  0  0  0  0
   10.1210    1.4086  -55.3414 H   0  0  0  0  0  0  0  0  0  0  0  0
    6.6080    2.3790  -58.5460 H   0  0  0  0  0  0  0  0  0  0  0  0
    8.3856    2.6322  -60.3049 H   0  0  0  0  0  0  0  0  0  0  0  0
    8.5742    4.2325  -59.4550 H   0  0  0  0  0  0  0  0  0  0  0  0
   10.7189    2.2348  -60.2459 H   0  0  0  0  0  0  0  0  0  0  0  0
   10.5554    3.9881  -60.6752 H   0  0  0  0  0  0  0  0  0  0  0  0
   12.2470    3.5170  -59.0010 H   0  0  0  0  0  0  0  0  0  0  0  0
   11.0986    5.0987  -57.1764 H   0  0  0  0  0  0  0  0  0  0  0  0
   11.9405    5.6412  -58.6676 H   0  0  0  0  0  0  0  0  0  0  0  0
   10.1559    5.4367  -58.6676 H   0  0  0  0  0  0  0  0  0  0  0  0
   11.6318    1.7098  -57.8015 H   0  0  0  0  0  0  0  0  0  0  0  0
   11.4557    3.1186  -56.6513 H   0  0  0  0  0  0  0  0  0  0  0  0
  1  2  1  0
  2  3  1  0
  3  4  1  0
  5  4  1  1
  5  6  1  0
  6  7  1  0
  7  8  1  0
  8  9  1  0
  9 10  1  0
  9 11  1  0
 11 12  1  0
 12 13  1  0
 11 14  1  0
 14 15  1  0
 14 16  1  0
  2 17  1  0
 17 18  1  0
 18 19  1  0
 19 20  1  0
 20 21  1  0
 21 22  1  0
 22 23  2  0
 23 24  1  0
 24 25  2  0
 25 26  1  0
 26 27  1  0
 27 28  2  0
 25 29  1  0
 29 30  1  0
 30 31  1  0
 31 32  1  0
 31 33  1  0
 21 34  2  0
 10  5  1  0
 34 17  1  0
 16  5  1  0
 34 19  1  0
 15  7  1  0
 27 22  1  0
 33 24  1  0
  1 35  1  0
  1 36  1  0
  1 37  1  0
  2 38  1  1
  3 39  1  0
  3 40  1  0
  4 41  1  0
  4 42  1  0
  6 43  1  0
  6 44  1  0
  7 45  1  6
  8 46  1  0
  8 47  1  0
  9 48  1  1
 10 49  1  0
 10 50  1  0
 11 51  1  1
 12 52  1  0
 12 53  1  0
 13 54  1  0
 14 55  1  6
 15 56  1  0
 15 57  1  0
 16 58  1  0
 16 59  1  0
 18 60  1  0
 18 61  1  0
 19 62  1  1
 20 63  1  0
 20 64  1  0
 23 65  1  0
 26 66  1  0
 29 67  1  0
 29 68  1  0
 30 69  1  0
 30 70  1  0
 31 71  1  6
 32 72  1  0
 32 73  1  0
 32 74  1  0
 33 75  1  0
 33 76  1  0
M  CHG  1  31   1
M  END
>  <meeko>  (158) 
{"is_sidechain": false}

$$$$

     RDKit          3D

 76 82  0  0  0  0  0  0  0  0999 V2000
    8.8900   -3.0310  -51.5910 C   0  0  0  0  0  0  0  0  0  0  0  0
    9.2110   -2.0250  -52.7000 C   0  0  1  0  0  0  0  0  0  0  0  0
   10.2750   -2.5490  -53.6820 C   0  0  0  0  0  0  0  0  0  0  0  0
    9.7980   -3.4350  -54.8460 C   0  0  0  0  0  0  0  0  0  0  0  0
   10.8480   -4.0310  -55.8250 C   0  0  2  0  0  0  0  0  0  0  0  0
   10.2050   -4.9970  -56.8530 C   0  0  0  0  0  0  0  0  0  0  0  0
   11.2560   -5.5120  -57.8540 C   0  0  2  0  0  0  0  0  0  0  0  0
   12.3670   -6.2440  -57.0840 C   0  0  0  0  0  0  0  0  0  0  0  0
   13.0530   -5.2790  -56.1000 C   0  0  2  0  0  0  0  0  0  0  0  0
   11.9960   -4.7720  -55.0960 C   0  0  0  0  0  0  0  0  0  0  0  0
   13.6560   -4.0620  -56.8460 C   0  0  1  0  0  0  0  0  0  0  0  0
   14.8560   -4.4250  -57.7330 C   0  0  0  0  0  0  0  0  0  0  0  0
   15.6550   -3.2740  -57.9770 O   0  0  0  0  0  0  0  0  0  0  0  0
   12.5300   -3.3550  -57.6360 C   0  0  1  0  0  0  0  0  0  0  0  0
   11.8510   -4.3220  -58.6190 C   0  0  0  0  0  0  0  0  0  0  0  0
   11.4710   -2.8530  -56.6360 C   0  0  0  0  0  0  0  0  0  0  0  0
    7.9720   -1.6670  -53.3930 N   0  0  0  0  0  0  0  0  0  0  0  0
    6.7030   -1.5900  -52.7380 C   0  0  0  0  0  0  0  0  0  0  0  0
    6.6580   -0.1340  -53.1300 C   0  0  2  0  0  0  0  0  0  0  0  0
    5.9050    0.2720  -54.3820 C   0  0  0  0  0  0  0  0  0  0  0  0
    7.3030    0.3530  -54.9570 C   0  0  0  0  0  0  0  0  0  0  0  0
    7.9220    1.1830  -56.1240 C   0  0  0  0  0  0  0  0  0  0  0  0
    9.2450    1.4220  -56.1930 C   0  0  0  0  0  0  0  0  0  0  0  0
    9.8350    2.1760  -57.2850 C   0  0  0  0  0  0  0  0  0  0  0  0
    9.0430    2.6520  -58.2620 C   0  0  0  0  0  0  0  0  0  0  0  0
    7.6880    2.4290  -58.2100 N   0  0  0  0  0  0  0  0  0  0  0  0
    7.0450    1.7290  -57.2120 C   0  0  0  0  0  0  0  0  0  0  0  0
    5.8290    1.5780  -57.2350 O   0  0  0  0  0  0  0  0  0  0  0  0
    9.5760    3.4240  -59.4390 C   0  0  0  0  0  0  0  0  0  0  0  0
   11.1000    3.3290  -59.5720 C   0  0  0  0  0  0  0  0  0  0  0  0
   11.7860    3.4700  -58.2300 N   0  0  1  0  0  0  0  0  0  0  0  0
   11.6950    4.8530  -57.6470 C   0  0  0  0  0  0  0  0  0  0  0  0
   11.3210    2.3930  -57.2700 C   0  0  0  0  0  0  0  0  0  0  0  0
    7.7710   -0.6660  -54.1970 C   0  0  0  0  0  0  0  0  0  0  0  0
    9.0415   -2.5563  -50.6103 H   0  0  0  0  0  0  0  0  0  0  0  0
    7.8433   -3.3566  -51.6830 H   0  0  0  0  0  0  0  0  0  0  0  0
    9.5546   -3.9027  -51.6830 H   0  0  0  0  0  0  0  0  0  0  0  0
    9.6465   -1.1266  -52.2383 H   0  0  0  0  0  0  0  0  0  0  0  0
   10.7778   -1.6739  -54.1196 H   0  0  0  0  0  0  0  0  0  0  0  0
   10.9142   -3.2070  -53.0750 H   0  0  0  0  0  0  0  0  0  0  0  0
    9.2543   -4.2824  -54.4030 H   0  0  0  0  0  0  0  0  0  0  0  0
    9.2138   -2.7477  -55.4756 H   0  0  0  0  0  0  0  0  0  0  0  0
    9.7670   -5.8527  -56.3183 H   0  0  0  0  0  0  0  0  0  0  0  0
    9.4272   -4.4526  -57.4085 H   0  0  0  0  0  0  0  0  0  0  0  0
   10.7876   -6.2054  -58.5680 H   0  0  0  0  0  0  0  0  0  0  0  0
   11.9292   -7.0838  -56.5244 H   0  0  0  0  0  0  0  0  0  0  0  0
   13.1135   -6.6195  -57.7994 H   0  0  0  0  0  0  0  0  0  0  0  0
   13.8653   -5.8127  -55.5849 H   0  0  0  0  0  0  0  0  0  0  0  0
   11.5794   -5.6302  -54.5483 H   0  0  0  0  0  0  0  0  0  0  0  0
   12.4808   -4.0700  -54.4016 H   0  0  0  0  0  0  0  0  0  0  0  0
   14.0690   -3.3676  -56.0995 H   0  0  0  0  0  0  0  0  0  0  0  0
   15.4644   -5.1883  -57.2259 H   0  0  0  0  0  0  0  0  0  0  0  0
   14.4866   -4.8145  -58.6931 H   0  0  0  0  0  0  0  0  0  0  0  0
   15.0550   -2.5170  -58.0850 H   0  0  0  0  0  0  0  0  0  0  0  0
   12.9690   -2.5226  -58.2056 H   0  0  0  0  0  0  0  0  0  0  0  0
   11.0479   -3.7940  -59.1540 H   0  0  0  0  0  0  0  0  0  0  0  0
   12.5972   -4.6904  -59.3383 H   0  0  0  0  0  0  0  0  0  0  0  0
   11.9451   -2.1487  -55.9366 H   0  0  0  0  0  0  0  0  0  0  0  0
   10.6670   -2.3603  -57.2025 H   0  0  0  0  0  0  0  0  0  0  0  0
    5.9156   -2.2107  -53.1904 H   0  0  0  0  0  0  0  0  0  0  0  0
    6.5720   -1.9109  -51.6940 H   0  0  0  0  0  0  0  0  0  0  0  0
    6.5104    0.5666  -52.2949 H   0  0  0  0  0  0  0  0  0  0  0  0
    5.2531   -0.4992  -54.8184 H   0  0  0  0  0  0  0  0  0  0  0  0
    5.1679    1.0873  -54.4258 H   0  0  0  0  0  0  0  0  0  0  0  0
    9.8991    1.0344  -55.3981 H   0  0  0  0  0  0  0  0  0  0  0  0
    7.0660    2.7770  -58.9330 H   0  0  0  0  0  0  0  0  0  0  0  0
    9.1179    3.0262  -60.3565 H   0  0  0  0  0  0  0  0  0  0  0  0
    9.3231    4.4829  -59.2819 H   0  0  0  0  0  0  0  0  0  0  0  0
   11.3604    2.3520  -60.0052 H   0  0  0  0  0  0  0  0  0  0  0  0
   11.4407    4.1495  -60.2206 H   0  0  0  0  0  0  0  0  0  0  0  0
   12.7860    3.2960  -58.3900 H   0  0  0  0  0  0  0  0  0  0  0  0
   11.6992    4.7890  -56.5489 H   0  0  0  0  0  0  0  0  0  0  0  0
   12.5558    5.4498  -57.9828 H   0  0  0  0  0  0  0  0  0  0  0  0
   10.7634    5.3319  -57.9828 H   0  0  0  0  0  0  0  0  0  0  0  0
   11.8134    1.4479  -57.5425 H   0  0  0  0  0  0  0  0  0  0  0  0
   11.5884    2.7265  -56.2565 H   0  0  0  0  0  0  0  0  0  0  0  0
  1  2  1  0
  2  3  1  0
  3  4  1  0
  5  4  1  1
  5  6  1  0
  6  7  1  0
  7  8  1  0
  8  9  1  0
  9 10  1  0
  9 11  1  0
 11 12  1  0
 12 13  1  0
 11 14  1  0
 14 15  1  0
 14 16  1  0
  2 17  1  0
 17 18  1  0
 18 19  1  0
 19 20  1  0
 20 21  1  0
 21 22  1  0
 22 23  2  0
 23 24  1  0
 24 25  2  0
 25 26  1  0
 26 27  1  0
 27 28  2  0
 25 29  1  0
 29 30  1  0
 30 31  1  0
 31 32  1  0
 31 33  1  0
 21 34  2  0
 10  5  1  0
 34 17  1  0
 16  5  1  0
 34 19  1  0
 15  7  1  0
 27 22  1  0
 33 24  1  0
  1 35  1  0
  1 36  1  0
  1 37  1  0
  2 38  1  1
  3 39  1  0
  3 40  1  0
  4 41  1  0
  4 42  1  0
  6 43  1  0
  6 44  1  0
  7 45  1  6
  8 46  1  0
  8 47  1  0
  9 48  1  1
 10 49  1  0
 10 50  1  0
 11 51  1  1
 12 52  1  0
 12 53  1  0
 13 54  1  0
 14 55  1  6
 15 56  1  0
 15 57  1  0
 16 58  1  0
 16 59  1  0
 18 60  1  0
 18 61  1  0
 19 62  1  1
 20 63  1  0
 20 64  1  0
 23 65  1  0
 26 66  1  0
 29 67  1  0
 29 68  1  0
 30 69  1  0
 30 70  1  0
 31 71  1  6
 32 72  1  0
 32 73  1  0
 32 74  1  0
 33 75  1  0
 33 76  1  0
M  CHG  1  31   1
M  END
>  <meeko>  (159) 
{"is_sidechain": false}

$$$$

     RDKit          3D

 76 82  0  0  0  0  0  0  0  0999 V2000
    9.2790   -2.8810  -52.2520 C   0  0  0  0  0  0  0  0  0  0  0  0
    8.7110   -2.9660  -53.6730 C   0  0  2  0  0  0  0  0  0  0  0  0
    9.6980   -2.4130  -54.7250 C   0  0  0  0  0  0  0  0  0  0  0  0
   11.1300   -2.9630  -54.6110 C   0  0  0  0  0  0  0  0  0  0  0  0
   11.6280   -3.8650  -55.7720 C   0  0  2  0  0  0  0  0  0  0  0  0
   10.4500   -4.6040  -56.4610 C   0  0  0  0  0  0  0  0  0  0  0  0
   10.9540   -5.4410  -57.6510 C   0  0  2  0  0  0  0  0  0  0  0  0
   11.9760   -6.4710  -57.1450 C   0  0  0  0  0  0  0  0  0  0  0  0
   13.1750   -5.7550  -56.4930 C   0  0  2  0  0  0  0  0  0  0  0  0
   12.6580   -4.9210  -55.3040 C   0  0  0  0  0  0  0  0  0  0  0  0
   13.8470   -4.8480  -57.5560 C   0  0  2  0  0  0  0  0  0  0  0  0
   15.1620   -4.2150  -57.0760 C   0  0  0  0  0  0  0  0  0  0  0  0
   15.5070   -3.1030  -57.8910 O   0  0  0  0  0  0  0  0  0  0  0  0
   12.8230   -3.7900  -58.0290 C   0  0  1  0  0  0  0  0  0  0  0  0
   11.6270   -4.5150  -58.6760 C   0  0  0  0  0  0  0  0  0  0  0  0
   12.3020   -2.9600  -56.8420 C   0  0  0  0  0  0  0  0  0  0  0  0
    7.4400   -2.2490  -53.8000 N   0  0  0  0  0  0  0  0  0  0  0  0
    6.6360   -1.9550  -52.6430 C   0  0  0  0  0  0  0  0  0  0  0  0
    5.8360   -1.0610  -53.5750 C   0  0  1  0  0  0  0  0  0  0  0  0
    6.0460    0.4380  -53.5050 C   0  0  0  0  0  0  0  0  0  0  0  0
    6.9730    0.1990  -54.6750 C   0  0  0  0  0  0  0  0  0  0  0  0
    7.5180    1.1380  -55.7940 C   0  0  0  0  0  0  0  0  0  0  0  0
    8.8140    1.4980  -55.8420 C   0  0  0  0  0  0  0  0  0  0  0  0
    9.3350    2.3600  -56.8860 C   0  0  0  0  0  0  0  0  0  0  0  0
    8.5020    2.8290  -57.8330 C   0  0  0  0  0  0  0  0  0  0  0  0
    7.1740    2.4790  -57.8050 N   0  0  0  0  0  0  0  0  0  0  0  0
    6.5970    1.6610  -56.8570 C   0  0  0  0  0  0  0  0  0  0  0  0
    5.4020    1.3950  -56.9010 O   0  0  0  0  0  0  0  0  0  0  0  0
    8.9590    3.7390  -58.9410 C   0  0  0  0  0  0  0  0  0  0  0  0
   10.3510    4.3270  -58.6900 C   0  0  0  0  0  0  0  0  0  0  0  0
   11.2870    3.2490  -58.1910 N   0  0  1  0  0  0  0  0  0  0  0  0
   12.7110    3.7080  -58.1160 C   0  0  0  0  0  0  0  0  0  0  0  0
   10.8030    2.6770  -56.8740 C   0  0  0  0  0  0  0  0  0  0  0  0
    7.2800   -1.0640  -54.3080 C   0  0  0  0  0  0  0  0  0  0  0  0
    8.4639   -3.0030  -51.5234 H   0  0  0  0  0  0  0  0  0  0  0  0
   10.0233   -3.6778  -52.1064 H   0  0  0  0  0  0  0  0  0  0  0  0
    9.7574   -1.9013  -52.1064 H   0  0  0  0  0  0  0  0  0  0  0  0
    8.5429   -4.0365  -53.8621 H   0  0  0  0  0  0  0  0  0  0  0  0
    9.3120   -2.6654  -55.7237 H   0  0  0  0  0  0  0  0  0  0  0  0
    9.7655   -1.3291  -54.5497 H   0  0  0  0  0  0  0  0  0  0  0  0
   11.8122   -2.1029  -54.5417 H   0  0  0  0  0  0  0  0  0  0  0  0
   11.1182   -3.6148  -53.7250 H   0  0  0  0  0  0  0  0  0  0  0  0
    9.9649   -5.2691  -55.7315 H   0  0  0  0  0  0  0  0  0  0  0  0
    9.7329   -3.8572  -56.8325 H   0  0  0  0  0  0  0  0  0  0  0  0
   10.1081   -5.9600  -58.1254 H   0  0  0  0  0  0  0  0  0  0  0  0
   11.4956   -7.1249  -56.4023 H   0  0  0  0  0  0  0  0  0  0  0  0
   12.3344   -7.0690  -57.9959 H   0  0  0  0  0  0  0  0  0  0  0  0
   13.9179   -6.4777  -56.1244 H   0  0  0  0  0  0  0  0  0  0  0  0
   12.1793   -5.5919  -54.5754 H   0  0  0  0  0  0  0  0  0  0  0  0
   13.5108   -4.3989  -54.8456 H   0  0  0  0  0  0  0  0  0  0  0  0
   14.1421   -5.4776  -58.4084 H   0  0  0  0  0  0  0  0  0  0  0  0
   15.0427   -3.8779  -56.0357 H   0  0  0  0  0  0  0  0  0  0  0  0
   15.9629   -4.9661  -57.1424 H   0  0  0  0  0  0  0  0  0  0  0  0
   16.4560   -2.9320  -57.7700 H   0  0  0  0  0  0  0  0  0  0  0  0
   13.3170   -3.1182  -58.7464 H   0  0  0  0  0  0  0  0  0  0  0  0
   10.8975   -3.7708  -59.0281 H   0  0  0  0  0  0  0  0  0  0  0  0
   11.9863   -5.1168  -59.5237 H   0  0  0  0  0  0  0  0  0  0  0  0
   13.1458   -2.4266  -56.3800 H   0  0  0  0  0  0  0  0  0  0  0  0
   11.5513   -2.2494  -57.2183 H   0  0  0  0  0  0  0  0  0  0  0  0
    6.0830   -2.8113  -52.2294 H   0  0  0  0  0  0  0  0  0  0  0  0
    7.0643   -1.5963  -51.6954 H   0  0  0  0  0  0  0  0  0  0  0  0
    4.7792   -1.3318  -53.7156 H   0  0  0  0  0  0  0  0  0  0  0  0
    5.1584    1.0502  -53.7228 H   0  0  0  0  0  0  0  0  0  0  0  0
    6.3448    0.9694  -52.5894 H   0  0  0  0  0  0  0  0  0  0  0  0
    9.4993    1.1271  -55.0656 H   0  0  0  0  0  0  0  0  0  0  0  0
    6.5220    2.8170  -58.5060 H   0  0  0  0  0  0  0  0  0  0  0  0
    8.9837    3.1654  -59.8793 H   0  0  0  0  0  0  0  0  0  0  0  0
    8.2497    4.5781  -58.9943 H   0  0  0  0  0  0  0  0  0  0  0  0
   10.7443    4.7448  -59.6285 H   0  0  0  0  0  0  0  0  0  0  0  0
   10.2761    5.1193  -57.9306 H   0  0  0  0  0  0  0  0  0  0  0  0
   11.2540    2.4750  -58.8680 H   0  0  0  0  0  0  0  0  0  0  0  0
   13.0101    3.8044  -57.0619 H   0  0  0  0  0  0  0  0  0  0  0  0
   13.3598    2.9735  -58.6155 H   0  0  0  0  0  0  0  0  0  0  0  0
   12.8087    4.6831  -58.6155 H   0  0  0  0  0  0  0  0  0  0  0  0
   11.3613    1.7525  -56.6652 H   0  0  0  0  0  0  0  0  0  0  0  0
   10.9729    3.4379  -56.0981 H   0  0  0  0  0  0  0  0  0  0  0  0
  1  2  1  0
  2  3  1  0
  3  4  1  0
  5  4  1  1
  5  6  1  0
  6  7  1  0
  7  8  1  0
  8  9  1  0
  9 10  1  0
  9 11  1  0
 11 12  1  0
 12 13  1  0
 11 14  1  0
 14 15  1  0
 14 16  1  0
  2 17  1  0
 17 18  1  0
 18 19  1  0
 19 20  1  0
 20 21  1  0
 21 22  1  0
 22 23  2  0
 23 24  1  0
 24 25  2  0
 25 26  1  0
 26 27  1  0
 27 28  2  0
 25 29  1  0
 29 30  1  0
 30 31  1  0
 31 32  1  0
 31 33  1  0
 21 34  2  0
 10  5  1  0
 34 17  1  0
 16  5  1  0
 34 19  1  0
 15  7  1  0
 27 22  1  0
 33 24  1  0
  1 35  1  0
  1 36  1  0
  1 37  1  0
  2 38  1  6
  3 39  1  0
  3 40  1  0
  4 41  1  0
  4 42  1  0
  6 43  1  0
  6 44  1  0
  7 45  1  6
  8 46  1  0
  8 47  1  0
  9 48  1  1
 10 49  1  0
 10 50  1  0
 11 51  1  6
 12 52  1  0
 12 53  1  0
 13 54  1  0
 14 55  1  6
 15 56  1  0
 15 57  1  0
 16 58  1  0
 16 59  1  0
 18 60  1  0
 18 61  1  0
 19 62  1  6
 20 63  1  0
 20 64  1  0
 23 65  1  0
 26 66  1  0
 29 67  1  0
 29 68  1  0
 30 69  1  0
 30 70  1  0
 31 71  1  6
 32 72  1  0
 32 73  1  0
 32 74  1  0
 33 75  1  0
 33 76  1  0
M  CHG  1  31   1
M  END
>  <meeko>  (160) 
{"is_sidechain": false}

$$$$

     RDKit          3D

 76 82  0  0  0  0  0  0  0  0999 V2000
    9.1110   -2.6030  -52.3240 C   0  0  0  0  0  0  0  0  0  0  0  0
    9.7470   -1.4960  -53.1820 C   0  0  1  0  0  0  0  0  0  0  0  0
   10.2140   -2.1300  -54.5140 C   0  0  0  0  0  0  0  0  0  0  0  0
   11.0750   -3.3980  -54.4020 C   0  0  0  0  0  0  0  0  0  0  0  0
   11.5610   -4.0540  -55.7230 C   0  0  2  0  0  0  0  0  0  0  0  0
   10.4310   -4.7820  -56.4880 C   0  0  0  0  0  0  0  0  0  0  0  0
   10.9790   -5.4610  -57.7550 C   0  0  2  0  0  0  0  0  0  0  0  0
   12.0570   -6.4810  -57.3620 C   0  0  0  0  0  0  0  0  0  0  0  0
   13.2150   -5.7740  -56.6350 C   0  0  2  0  0  0  0  0  0  0  0  0
   12.6540   -5.1030  -55.3690 C   0  0  0  0  0  0  0  0  0  0  0  0
   13.8360   -4.7200  -57.5870 C   0  0  2  0  0  0  0  0  0  0  0  0
   15.1130   -4.0610  -57.0420 C   0  0  0  0  0  0  0  0  0  0  0  0
   15.5440   -3.0120  -57.8980 O   0  0  0  0  0  0  0  0  0  0  0  0
   12.7510   -3.6770  -57.9450 C   0  0  1  0  0  0  0  0  0  0  0  0
   11.5960   -4.3930  -58.6720 C   0  0  0  0  0  0  0  0  0  0  0  0
   12.1900   -3.0040  -56.6760 C   0  0  0  0  0  0  0  0  0  0  0  0
    8.7680   -0.4180  -53.4680 N   0  0  0  0  0  0  0  0  0  0  0  0
    7.4390   -0.5470  -52.8070 C   0  0  0  0  0  0  0  0  0  0  0  0
    6.8470   -1.0140  -54.1540 C   0  0  1  0  0  0  0  0  0  0  0  0
    6.1690   -0.0270  -55.1310 C   0  0  0  0  0  0  0  0  0  0  0  0
    7.5620    0.4810  -55.4860 C   0  0  0  0  0  0  0  0  0  0  0  0
    8.0740    1.6770  -56.3330 C   0  0  0  0  0  0  0  0  0  0  0  0
    9.3760    1.8130  -56.6430 C   0  0  0  0  0  0  0  0  0  0  0  0
    9.8670    2.9350  -57.4200 C   0  0  0  0  0  0  0  0  0  0  0  0
    9.0010    3.8730  -57.8470 C   0  0  0  0  0  0  0  0  0  0  0  0
    7.6650    3.7510  -57.5490 N   0  0  0  0  0  0  0  0  0  0  0  0
    7.1130    2.7200  -56.8190 C   0  0  0  0  0  0  0  0  0  0  0  0
    5.9090    2.6800  -56.5930 O   0  0  0  0  0  0  0  0  0  0  0  0
    9.4320    5.0760  -58.6390 C   0  0  0  0  0  0  0  0  0  0  0  0
   10.9490    5.2950  -58.6050 C   0  0  0  0  0  0  0  0  0  0  0  0
   11.6660    3.9810  -58.8220 N   0  0  1  0  0  0  0  0  0  0  0  0
   13.1440    4.1530  -58.9990 C   0  0  0  0  0  0  0  0  0  0  0  0
   11.3360    2.9940  -57.7220 C   0  0  0  0  0  0  0  0  0  0  0  0
    8.1090   -0.3490  -54.5890 C   0  0  0  0  0  0  0  0  0  0  0  0
    9.2476   -2.3653  -51.2587 H   0  0  0  0  0  0  0  0  0  0  0  0
    8.0365   -2.6703  -52.5499 H   0  0  0  0  0  0  0  0  0  0  0  0
    9.5941   -3.5651  -52.5499 H   0  0  0  0  0  0  0  0  0  0  0  0
   10.5941   -1.0534  -52.6375 H   0  0  0  0  0  0  0  0  0  0  0  0
    9.3162   -2.3853  -55.0961 H   0  0  0  0  0  0  0  0  0  0  0  0
   10.8628   -1.3767  -54.9847 H   0  0  0  0  0  0  0  0  0  0  0  0
   11.9683   -3.1388  -53.8148 H   0  0  0  0  0  0  0  0  0  0  0  0
   10.4121   -4.1472  -53.9446 H   0  0  0  0  0  0  0  0  0  0  0  0
    9.9860   -5.5457  -55.8332 H   0  0  0  0  0  0  0  0  0  0  0  0
    9.6723   -4.0426  -56.7841 H   0  0  0  0  0  0  0  0  0  0  0  0
   10.1628   -5.9763  -58.2824 H   0  0  0  0  0  0  0  0  0  0  0  0
   11.6166   -7.2371  -56.6953 H   0  0  0  0  0  0  0  0  0  0  0  0
   12.4443   -6.9636  -58.2714 H   0  0  0  0  0  0  0  0  0  0  0  0
   13.9975   -6.4914  -56.3469 H   0  0  0  0  0  0  0  0  0  0  0  0
   12.2138   -5.8741  -54.7197 H   0  0  0  0  0  0  0  0  0  0  0  0
   13.4781   -4.5863  -54.8554 H   0  0  0  0  0  0  0  0  0  0  0  0
   14.1702   -5.2415  -58.4960 H   0  0  0  0  0  0  0  0  0  0  0  0
   14.9083   -3.6498  -56.0425 H   0  0  0  0  0  0  0  0  0  0  0  0
   15.9066   -4.8208  -56.9882 H   0  0  0  0  0  0  0  0  0  0  0  0
   15.0140   -2.2240  -57.6980 H   0  0  0  0  0  0  0  0  0  0  0  0
   13.2035   -2.9053  -58.5851 H   0  0  0  0  0  0  0  0  0  0  0  0
   10.8250   -3.6571  -58.9441 H   0  0  0  0  0  0  0  0  0  0  0  0
   11.9859   -4.8778  -59.5792 H   0  0  0  0  0  0  0  0  0  0  0  0
   13.0069   -2.4862  -56.1521 H   0  0  0  0  0  0  0  0  0  0  0  0
   11.4095   -2.2885  -56.9741 H   0  0  0  0  0  0  0  0  0  0  0  0
    7.4012   -1.3030  -52.0088 H   0  0  0  0  0  0  0  0  0  0  0  0
    6.9965    0.2959  -52.2558 H   0  0  0  0  0  0  0  0  0  0  0  0
    6.3024   -1.9691  -54.1187 H   0  0  0  0  0  0  0  0  0  0  0  0
    5.6294   -0.5036  -55.9627 H   0  0  0  0  0  0  0  0  0  0  0  0
    5.3722    0.6559  -54.8012 H   0  0  0  0  0  0  0  0  0  0  0  0
   10.0894    1.0506  -56.2969 H   0  0  0  0  0  0  0  0  0  0  0  0
    6.9880    4.4420  -57.8570 H   0  0  0  0  0  0  0  0  0  0  0  0
    9.1197    4.9390  -59.6848 H   0  0  0  0  0  0  0  0  0  0  0  0
    8.9588    5.9592  -58.1852 H   0  0  0  0  0  0  0  0  0  0  0  0
   11.2331    6.0006  -59.3996 H   0  0  0  0  0  0  0  0  0  0  0  0
   11.2331    5.7038  -57.6241 H   0  0  0  0  0  0  0  0  0  0  0  0
   11.3020    3.5720  -59.6930 H   0  0  0  0  0  0  0  0  0  0  0  0
   13.6273    4.2092  -58.0125 H   0  0  0  0  0  0  0  0  0  0  0  0
   13.5486    3.2959  -59.5572 H   0  0  0  0  0  0  0  0  0  0  0  0
   13.3410    5.0801  -59.5572 H   0  0  0  0  0  0  0  0  0  0  0  0
   11.6719    1.9940  -58.0337 H   0  0  0  0  0  0  0  0  0  0  0  0
   11.8503    3.3289  -56.8091 H   0  0  0  0  0  0  0  0  0  0  0  0
  1  2  1  0
  2  3  1  0
  3  4  1  0
  5  4  1  1
  5  6  1  0
  6  7  1  0
  7  8  1  0
  8  9  1  0
  9 10  1  0
  9 11  1  0
 11 12  1  0
 12 13  1  0
 11 14  1  0
 14 15  1  0
 14 16  1  0
  2 17  1  0
 17 18  1  0
 18 19  1  0
 19 20  1  0
 20 21  1  0
 21 22  1  0
 22 23  2  0
 23 24  1  0
 24 25  2  0
 25 26  1  0
 26 27  1  0
 27 28  2  0
 25 29  1  0
 29 30  1  0
 30 31  1  0
 31 32  1  0
 31 33  1  0
 21 34  2  0
 10  5  1  0
 34 17  1  0
 16  5  1  0
 34 19  1  0
 15  7  1  0
 27 22  1  0
 33 24  1  0
  1 35  1  0
  1 36  1  0
  1 37  1  0
  2 38  1  1
  3 39  1  0
  3 40  1  0
  4 41  1  0
  4 42  1  0
  6 43  1  0
  6 44  1  0
  7 45  1  6
  8 46  1  0
  8 47  1  0
  9 48  1  1
 10 49  1  0
 10 50  1  0
 11 51  1  6
 12 52  1  0
 12 53  1  0
 13 54  1  0
 14 55  1  6
 15 56  1  0
 15 57  1  0
 16 58  1  0
 16 59  1  0
 18 60  1  0
 18 61  1  0
 19 62  1  1
 20 63  1  0
 20 64  1  0
 23 65  1  0
 26 66  1  0
 29 67  1  0
 29 68  1  0
 30 69  1  0
 30 70  1  0
 31 71  1  6
 32 72  1  0
 32 73  1  0
 32 74  1  0
 33 75  1  0
 33 76  1  0
M  CHG  1  31   1
M  END
>  <meeko>  (161) 
{"is_sidechain": false}

$$$$

     RDKit          3D

 76 82  0  0  0  0  0  0  0  0999 V2000
   10.7620   -2.5300  -52.3560 C   0  0  0  0  0  0  0  0  0  0  0  0
    9.4140   -2.5730  -53.0870 C   0  0  2  0  0  0  0  0  0  0  0  0
    9.6180   -2.6790  -54.6130 C   0  0  0  0  0  0  0  0  0  0  0  0
    9.7160   -4.0810  -55.2360 C   0  0  0  0  0  0  0  0  0  0  0  0
   10.8900   -4.4010  -56.2030 C   0  0  2  0  0  0  0  0  0  0  0  0
   10.4300   -5.1730  -57.4640 C   0  0  0  0  0  0  0  0  0  0  0  0
   11.6100   -5.4020  -58.4250 C   0  0  2  0  0  0  0  0  0  0  0  0
   12.6950   -6.2130  -57.7020 C   0  0  0  0  0  0  0  0  0  0  0  0
   13.2070   -5.4390  -56.4730 C   0  0  2  0  0  0  0  0  0  0  0  0
   12.0200   -5.2060  -55.5120 C   0  0  0  0  0  0  0  0  0  0  0  0
   13.7880   -4.0650  -56.8860 C   0  0  1  0  0  0  0  0  0  0  0  0
   15.0900   -4.1680  -57.6940 C   0  0  0  0  0  0  0  0  0  0  0  0
   15.6560   -2.8780  -57.8880 O   0  0  0  0  0  0  0  0  0  0  0  0
   12.6920   -3.2690  -57.6310 C   0  0  1  0  0  0  0  0  0  0  0  0
   12.1810   -4.0430  -58.8590 C   0  0  0  0  0  0  0  0  0  0  0  0
   11.5080   -3.0470  -56.6700 C   0  0  0  0  0  0  0  0  0  0  0  0
    8.6600   -1.3480  -52.7540 N   0  0  0  0  0  0  0  0  0  0  0  0
    7.4350   -1.4270  -51.9980 C   0  0  0  0  0  0  0  0  0  0  0  0
    6.7010   -1.1170  -53.2750 C   0  0  1  0  0  0  0  0  0  0  0  0
    6.2410    0.3050  -53.5240 C   0  0  0  0  0  0  0  0  0  0  0  0
    7.4670    0.3410  -54.4110 C   0  0  0  0  0  0  0  0  0  0  0  0
    7.8400    1.2040  -55.6560 C   0  0  0  0  0  0  0  0  0  0  0  0
    9.1110    1.5690  -55.9080 C   0  0  0  0  0  0  0  0  0  0  0  0
    9.4670    2.3860  -57.0530 C   0  0  0  0  0  0  0  0  0  0  0  0
    8.5010    2.8020  -57.8940 C   0  0  0  0  0  0  0  0  0  0  0  0
    7.1960    2.4380  -57.6630 N   0  0  0  0  0  0  0  0  0  0  0  0
    6.7710    1.6640  -56.6040 C   0  0  0  0  0  0  0  0  0  0  0  0
    5.5860    1.3820  -56.4690 O   0  0  0  0  0  0  0  0  0  0  0  0
    8.7810    3.6720  -59.0880 C   0  0  0  0  0  0  0  0  0  0  0  0
   10.1770    4.3030  -59.0460 C   0  0  0  0  0  0  0  0  0  0  0  0
   11.2010    3.2660  -58.6400 N   0  0  1  0  0  0  0  0  0  0  0  0
   12.6090    3.7640  -58.7720 C   0  0  0  0  0  0  0  0  0  0  0  0
   10.9140    2.7330  -57.2520 C   0  0  0  0  0  0  0  0  0  0  0  0
    8.1670   -0.5270  -53.6400 C   0  0  0  0  0  0  0  0  0  0  0  0
   10.5903   -2.5355  -51.2695 H   0  0  0  0  0  0  0  0  0  0  0  0
   11.3598   -3.4095  -52.6372 H   0  0  0  0  0  0  0  0  0  0  0  0
   11.3025   -1.6142  -52.6372 H   0  0  0  0  0  0  0  0  0  0  0  0
    8.8509   -3.4611  -52.7642 H   0  0  0  0  0  0  0  0  0  0  0  0
    8.7700   -2.1676  -55.0919 H   0  0  0  0  0  0  0  0  0  0  0  0
   10.6081   -2.2327  -54.7878 H   0  0  0  0  0  0  0  0  0  0  0  0
    9.7799   -4.7983  -54.4045 H   0  0  0  0  0  0  0  0  0  0  0  0
    8.8244   -4.1452  -55.8770 H   0  0  0  0  0  0  0  0  0  0  0  0
   10.0179   -6.1467  -57.1605 H   0  0  0  0  0  0  0  0  0  0  0  0
    9.6637   -4.5777  -57.9820 H   0  0  0  0  0  0  0  0  0  0  0  0
   11.2696   -5.9540  -59.3135 H   0  0  0  0  0  0  0  0  0  0  0  0
   12.2728   -7.1749  -57.3757 H   0  0  0  0  0  0  0  0  0  0  0  0
   13.5338   -6.3860  -58.3923 H   0  0  0  0  0  0  0  0  0  0  0  0
   14.0012   -6.0257  -55.9882 H   0  0  0  0  0  0  0  0  0  0  0  0
   11.6220   -6.1798  -55.1905 H   0  0  0  0  0  0  0  0  0  0  0  0
   12.3798   -4.6296  -54.6469 H   0  0  0  0  0  0  0  0  0  0  0  0
   14.0791   -3.5237  -55.9737 H   0  0  0  0  0  0  0  0  0  0  0  0
   15.8063   -4.7998  -57.1483 H   0  0  0  0  0  0  0  0  0  0  0  0
   14.8668   -4.6112  -58.6757 H   0  0  0  0  0  0  0  0  0  0  0  0
   16.4290   -2.8040  -57.3020 H   0  0  0  0  0  0  0  0  0  0  0  0
   13.1202   -2.3132  -57.9674 H   0  0  0  0  0  0  0  0  0  0  0  0
   11.3923   -3.4585  -59.3554 H   0  0  0  0  0  0  0  0  0  0  0  0
   13.0171   -4.2087  -59.5543 H   0  0  0  0  0  0  0  0  0  0  0  0
   11.8622   -2.4926  -55.7884 H   0  0  0  0  0  0  0  0  0  0  0  0
   10.7318   -2.4788  -57.2036 H   0  0  0  0  0  0  0  0  0  0  0  0
    7.2204   -2.4196  -51.5754 H   0  0  0  0  0  0  0  0  0  0  0  0
    7.2807   -0.8340  -51.0844 H   0  0  0  0  0  0  0  0  0  0  0  0
    5.9583   -1.8655  -53.5884 H   0  0  0  0  0  0  0  0  0  0  0  0
    5.2755    0.4103  -54.0405 H   0  0  0  0  0  0  0  0  0  0  0  0
    6.0306    1.0356  -52.7290 H   0  0  0  0  0  0  0  0  0  0  0  0
    9.9056    1.2370  -55.2236 H   0  0  0  0  0  0  0  0  0  0  0  0
    6.4460    2.7350  -58.2790 H   0  0  0  0  0  0  0  0  0  0  0  0
    8.6994    3.0584  -59.9973 H   0  0  0  0  0  0  0  0  0  0  0  0
    8.0462    4.4906  -59.0822 H   0  0  0  0  0  0  0  0  0  0  0  0
   10.4301    4.6944  -60.0424 H   0  0  0  0  0  0  0  0  0  0  0  0
   10.1814    5.1219  -58.3116 H   0  0  0  0  0  0  0  0  0  0  0  0
   11.1010    2.4680  -59.2810 H   0  0  0  0  0  0  0  0  0  0  0  0
   13.0394    3.9162  -57.7712 H   0  0  0  0  0  0  0  0  0  0  0  0
   13.2098    3.0238  -59.3208 H   0  0  0  0  0  0  0  0  0  0  0  0
   12.6108    4.7173  -59.3208 H   0  0  0  0  0  0  0  0  0  0  0  0
   11.5184    1.8282  -57.0904 H   0  0  0  0  0  0  0  0  0  0  0  0
   11.1679    3.5253  -56.5325 H   0  0  0  0  0  0  0  0  0  0  0  0
  1  2  1  0
  2  3  1  0
  3  4  1  0
  5  4  1  1
  5  6  1  0
  6  7  1  0
  7  8  1  0
  8  9  1  0
  9 10  1  0
  9 11  1  0
 11 12  1  0
 12 13  1  0
 11 14  1  0
 14 15  1  0
 14 16  1  0
  2 17  1  0
 17 18  1  0
 18 19  1  0
 19 20  1  0
 20 21  1  0
 21 22  1  0
 22 23  2  0
 23 24  1  0
 24 25  2  0
 25 26  1  0
 26 27  1  0
 27 28  2  0
 25 29  1  0
 29 30  1  0
 30 31  1  0
 31 32  1  0
 31 33  1  0
 21 34  2  0
 10  5  1  0
 34 17  1  0
 16  5  1  0
 34 19  1  0
 15  7  1  0
 27 22  1  0
 33 24  1  0
  1 35  1  0
  1 36  1  0
  1 37  1  0
  2 38  1  1
  3 39  1  0
  3 40  1  0
  4 41  1  0
  4 42  1  0
  6 43  1  0
  6 44  1  0
  7 45  1  6
  8 46  1  0
  8 47  1  0
  9 48  1  1
 10 49  1  0
 10 50  1  0
 11 51  1  1
 12 52  1  0
 12 53  1  0
 13 54  1  0
 14 55  1  6
 15 56  1  0
 15 57  1  0
 16 58  1  0
 16 59  1  0
 18 60  1  0
 18 61  1  0
 19 62  1  6
 20 63  1  0
 20 64  1  0
 23 65  1  0
 26 66  1  0
 29 67  1  0
 29 68  1  0
 30 69  1  0
 30 70  1  0
 31 71  1  6
 32 72  1  0
 32 73  1  0
 32 74  1  0
 33 75  1  0
 33 76  1  0
M  CHG  1  31   1
M  END
>  <meeko>  (162) 
{"is_sidechain": false}

$$$$

     RDKit          3D

 76 82  0  0  0  0  0  0  0  0999 V2000
    8.9220   -2.9660  -52.1120 C   0  0  0  0  0  0  0  0  0  0  0  0
    9.0450   -1.8270  -53.1290 C   0  0  1  0  0  0  0  0  0  0  0  0
   10.0570   -2.1430  -54.2520 C   0  0  0  0  0  0  0  0  0  0  0  0
    9.7560   -3.4600  -54.9800 C   0  0  0  0  0  0  0  0  0  0  0  0
   10.8730   -3.9850  -55.9190 C   0  0  2  0  0  0  0  0  0  0  0  0
   10.2340   -4.9870  -56.9210 C   0  0  0  0  0  0  0  0  0  0  0  0
   11.2940   -5.5470  -57.8830 C   0  0  2  0  0  0  0  0  0  0  0  0
   12.3730   -6.2720  -57.0680 C   0  0  0  0  0  0  0  0  0  0  0  0
   13.0570   -5.2930  -56.1000 C   0  0  2  0  0  0  0  0  0  0  0  0
   11.9800   -4.7400  -55.1360 C   0  0  0  0  0  0  0  0  0  0  0  0
   13.6950   -4.0880  -56.8390 C   0  0  1  0  0  0  0  0  0  0  0  0
   14.9940   -4.4140  -57.5920 C   0  0  0  0  0  0  0  0  0  0  0  0
   15.6560   -3.2800  -58.1160 O   0  0  0  0  0  0  0  0  0  0  0  0
   12.6040   -3.4010  -57.7000 C   0  0  1  0  0  0  0  0  0  0  0  0
   11.9200   -4.3840  -58.6640 C   0  0  0  0  0  0  0  0  0  0  0  0
   11.5270   -2.8420  -56.7400 C   0  0  0  0  0  0  0  0  0  0  0  0
    7.7540   -1.4940  -53.7400 N   0  0  0  0  0  0  0  0  0  0  0  0
    6.5820   -1.1470  -52.9900 C   0  0  0  0  0  0  0  0  0  0  0  0
    6.0090   -0.7210  -54.3340 C   0  0  1  0  0  0  0  0  0  0  0  0
    5.9280    0.7540  -54.6630 C   0  0  0  0  0  0  0  0  0  0  0  0
    7.2380    0.5110  -55.3760 C   0  0  0  0  0  0  0  0  0  0  0  0
    7.9990    1.2930  -56.4960 C   0  0  0  0  0  0  0  0  0  0  0  0
    9.3300    1.4830  -56.4290 C   0  0  0  0  0  0  0  0  0  0  0  0
   10.0600    2.2160  -57.4480 C   0  0  0  0  0  0  0  0  0  0  0  0
    9.3950    2.7140  -58.5080 C   0  0  0  0  0  0  0  0  0  0  0  0
    8.0390    2.5290  -58.6040 N   0  0  0  0  0  0  0  0  0  0  0  0
    7.2650    1.8540  -57.6850 C   0  0  0  0  0  0  0  0  0  0  0  0
    6.0590    1.7350  -57.8680 O   0  0  0  0  0  0  0  0  0  0  0  0
   10.0710    3.4730  -59.6160 C   0  0  0  0  0  0  0  0  0  0  0  0
   11.5990    3.3560  -59.5740 C   0  0  0  0  0  0  0  0  0  0  0  0
   12.1280    3.4790  -58.1620 N   0  0  1  0  0  0  0  0  0  0  0  0
   11.9910    4.8620  -57.5850 C   0  0  0  0  0  0  0  0  0  0  0  0
   11.5400    2.4050  -57.2680 C   0  0  0  0  0  0  0  0  0  0  0  0
    7.5900   -0.5250  -54.5870 C   0  0  0  0  0  0  0  0  0  0  0  0
    8.9665   -2.5541  -51.0930 H   0  0  0  0  0  0  0  0  0  0  0  0
    7.9626   -3.4845  -52.2564 H   0  0  0  0  0  0  0  0  0  0  0  0
    9.7486   -3.6773  -52.2564 H   0  0  0  0  0  0  0  0  0  0  0  0
    9.4107   -0.9633  -52.5542 H   0  0  0  0  0  0  0  0  0  0  0  0
   10.0329   -1.3239  -54.9858 H   0  0  0  0  0  0  0  0  0  0  0  0
   11.0465   -2.2462  -53.7826 H   0  0  0  0  0  0  0  0  0  0  0  0
    9.5662   -4.2305  -54.2182 H   0  0  0  0  0  0  0  0  0  0  0  0
    8.8941   -3.2505  -55.6305 H   0  0  0  0  0  0  0  0  0  0  0  0
    9.7806   -5.8179  -56.3606 H   0  0  0  0  0  0  0  0  0  0  0  0
    9.4685   -4.4588  -57.5083 H   0  0  0  0  0  0  0  0  0  0  0  0
   10.8348   -6.2547  -58.5889 H   0  0  0  0  0  0  0  0  0  0  0  0
   11.9077   -7.0859  -56.4926 H   0  0  0  0  0  0  0  0  0  0  0  0
   13.1273   -6.6810  -57.7562 H   0  0  0  0  0  0  0  0  0  0  0  0
   13.8542   -5.8367  -55.5719 H   0  0  0  0  0  0  0  0  0  0  0  0
   11.5252   -5.5767  -54.5855 H   0  0  0  0  0  0  0  0  0  0  0  0
   12.4593   -4.0374  -54.4384 H   0  0  0  0  0  0  0  0  0  0  0  0
   14.0509   -3.3673  -56.0881 H   0  0  0  0  0  0  0  0  0  0  0  0
   15.6780   -4.9232  -56.8971 H   0  0  0  0  0  0  0  0  0  0  0  0
   14.7147   -5.0436  -58.4497 H   0  0  0  0  0  0  0  0  0  0  0  0
   15.4100   -2.5200  -57.5620 H   0  0  0  0  0  0  0  0  0  0  0  0
   13.0820   -2.6126  -58.2999 H   0  0  0  0  0  0  0  0  0  0  0  0
   11.1327   -3.8563  -59.2222 H   0  0  0  0  0  0  0  0  0  0  0  0
   12.6718   -4.7841  -59.3602 H   0  0  0  0  0  0  0  0  0  0  0  0
   11.9962   -2.1253  -56.0499 H   0  0  0  0  0  0  0  0  0  0  0  0
   10.7471   -2.3456  -57.3361 H   0  0  0  0  0  0  0  0  0  0  0  0
    6.0675   -1.9915  -52.5083 H   0  0  0  0  0  0  0  0  0  0  0  0
    6.6065   -0.4850  -52.1118 H   0  0  0  0  0  0  0  0  0  0  0  0
    5.1240   -1.2753  -54.6796 H   0  0  0  0  0  0  0  0  0  0  0  0
    5.0873    1.0471  -55.3090 H   0  0  0  0  0  0  0  0  0  0  0  0
    5.7872    1.5376  -53.9040 H   0  0  0  0  0  0  0  0  0  0  0  0
    9.8834    1.0689  -55.5733 H   0  0  0  0  0  0  0  0  0  0  0  0
    7.5080    2.8890  -59.3910 H   0  0  0  0  0  0  0  0  0  0  0  0
    9.7152    3.0787  -60.5793 H   0  0  0  0  0  0  0  0  0  0  0  0
    9.8179    4.5360  -59.4899 H   0  0  0  0  0  0  0  0  0  0  0  0
   11.8935    2.3777  -59.9817 H   0  0  0  0  0  0  0  0  0  0  0  0
   12.0235    4.1750  -60.1732 H   0  0  0  0  0  0  0  0  0  0  0  0
   13.1370    3.2930  -58.2070 H   0  0  0  0  0  0  0  0  0  0  0  0
   11.9968    4.8033  -56.4866 H   0  0  0  0  0  0  0  0  0  0  0  0
   12.8318    5.4854  -57.9233 H   0  0  0  0  0  0  0  0  0  0  0  0
   11.0442    5.3083  -57.9233 H   0  0  0  0  0  0  0  0  0  0  0  0
   12.0421    1.4524  -57.4925 H   0  0  0  0  0  0  0  0  0  0  0  0
   11.6999    2.7274  -56.2285 H   0  0  0  0  0  0  0  0  0  0  0  0
  1  2  1  0
  2  3  1  0
  3  4  1  0
  5  4  1  1
  5  6  1  0
  6  7  1  0
  7  8  1  0
  8  9  1  0
  9 10  1  0
  9 11  1  0
 11 12  1  0
 12 13  1  0
 11 14  1  0
 14 15  1  0
 14 16  1  0
  2 17  1  0
 17 18  1  0
 18 19  1  0
 19 20  1  0
 20 21  1  0
 21 22  1  0
 22 23  2  0
 23 24  1  0
 24 25  2  0
 25 26  1  0
 26 27  1  0
 27 28  2  0
 25 29  1  0
 29 30  1  0
 30 31  1  0
 31 32  1  0
 31 33  1  0
 21 34  2  0
 10  5  1  0
 34 17  1  0
 16  5  1  0
 34 19  1  0
 15  7  1  0
 27 22  1  0
 33 24  1  0
  1 35  1  0
  1 36  1  0
  1 37  1  0
  2 38  1  1
  3 39  1  0
  3 40  1  0
  4 41  1  0
  4 42  1  0
  6 43  1  0
  6 44  1  0
  7 45  1  6
  8 46  1  0
  8 47  1  0
  9 48  1  1
 10 49  1  0
 10 50  1  0
 11 51  1  1
 12 52  1  0
 12 53  1  0
 13 54  1  0
 14 55  1  6
 15 56  1  0
 15 57  1  0
 16 58  1  0
 16 59  1  0
 18 60  1  0
 18 61  1  0
 19 62  1  6
 20 63  1  0
 20 64  1  0
 23 65  1  0
 26 66  1  0
 29 67  1  0
 29 68  1  0
 30 69  1  0
 30 70  1  0
 31 71  1  6
 32 72  1  0
 32 73  1  0
 32 74  1  0
 33 75  1  0
 33 76  1  0
M  CHG  1  31   1
M  END
>  <meeko>  (163) 
{"is_sidechain": false}

$$$$

     RDKit          3D

 76 82  0  0  0  0  0  0  0  0999 V2000
    9.2950   -3.0050  -52.1680 C   0  0  0  0  0  0  0  0  0  0  0  0
    8.7590   -2.9810  -53.6010 C   0  0  2  0  0  0  0  0  0  0  0  0
    9.8090   -2.4940  -54.6240 C   0  0  0  0  0  0  0  0  0  0  0  0
   11.1580   -3.2110  -54.4780 C   0  0  0  0  0  0  0  0  0  0  0  0
   11.6450   -3.9930  -55.7240 C   0  0  2  0  0  0  0  0  0  0  0  0
   10.4770   -4.6980  -56.4580 C   0  0  0  0  0  0  0  0  0  0  0  0
   10.9860   -5.4130  -57.7230 C   0  0  2  0  0  0  0  0  0  0  0  0
   12.0360   -6.4610  -57.3210 C   0  0  0  0  0  0  0  0  0  0  0  0
   13.2270   -5.7780  -56.6190 C   0  0  2  0  0  0  0  0  0  0  0  0
   12.7040   -5.0650  -55.3570 C   0  0  0  0  0  0  0  0  0  0  0  0
   13.8680   -4.7670  -57.6030 C   0  0  2  0  0  0  0  0  0  0  0  0
   15.1740   -4.1520  -57.0780 C   0  0  0  0  0  0  0  0  0  0  0  0
   15.5280   -3.0060  -57.8430 O   0  0  0  0  0  0  0  0  0  0  0  0
   12.8150   -3.6960  -57.9720 C   0  0  1  0  0  0  0  0  0  0  0  0
   11.6270   -4.3850  -58.6680 C   0  0  0  0  0  0  0  0  0  0  0  0
   12.2930   -2.9840  -56.7120 C   0  0  0  0  0  0  0  0  0  0  0  0
    7.5410   -2.1710  -53.6500 N   0  0  0  0  0  0  0  0  0  0  0  0
    6.6780   -1.9040  -52.5470 C   0  0  0  0  0  0  0  0  0  0  0  0
    6.9770   -0.4380  -52.7290 C   0  0  2  0  0  0  0  0  0  0  0  0
    6.0590    0.4150  -53.5930 C   0  0  0  0  0  0  0  0  0  0  0  0
    7.2150    0.2860  -54.5690 C   0  0  0  0  0  0  0  0  0  0  0  0
    7.7020    1.1240  -55.7750 C   0  0  0  0  0  0  0  0  0  0  0  0
    9.0590    1.4030  -55.9070 C   0  0  0  0  0  0  0  0  0  0  0  0
    9.5010    2.1740  -56.9900 C   0  0  0  0  0  0  0  0  0  0  0  0
    8.5510    2.6090  -57.9210 C   0  0  0  0  0  0  0  0  0  0  0  0
    7.2310    2.3410  -57.8060 N   0  0  0  0  0  0  0  0  0  0  0  0
    6.8420    1.6090  -56.7440 C   0  0  0  0  0  0  0  0  0  0  0  0
    5.5100    1.3620  -56.7320 O   0  0  0  0  0  0  0  0  0  0  0  0
    8.9390    3.4750  -59.0870 C   0  0  0  0  0  0  0  0  0  0  0  0
   10.4210    3.3720  -59.4180 C   0  0  0  0  0  0  0  0  0  0  0  0
   11.2330    3.5730  -58.1590 N   0  0  2  0  0  0  0  0  0  0  0  0
   12.6980    3.7300  -58.4390 C   0  0  0  0  0  0  0  0  0  0  0  0
   10.9600    2.4670  -57.1680 C   0  0  0  0  0  0  0  0  0  0  0  0
    7.4780   -0.9860  -54.1740 C   0  0  0  0  0  0  0  0  0  0  0  0
    8.4532   -2.9673  -51.4610 H   0  0  0  0  0  0  0  0  0  0  0  0
    9.8684   -3.9297  -52.0064 H   0  0  0  0  0  0  0  0  0  0  0  0
    9.9488   -2.1352  -52.0064 H   0  0  0  0  0  0  0  0  0  0  0  0
    8.5194   -4.0142  -53.8926 H   0  0  0  0  0  0  0  0  0  0  0  0
    9.4225   -2.6752  -55.6378 H   0  0  0  0  0  0  0  0  0  0  0  0
    9.9809   -1.4235  -54.4384 H   0  0  0  0  0  0  0  0  0  0  0  0
   11.9183   -2.4536  -54.2366 H   0  0  0  0  0  0  0  0  0  0  0  0
   11.0116   -3.9651  -53.6907 H   0  0  0  0  0  0  0  0  0  0  0  0
   10.0199   -5.4373  -55.7839 H   0  0  0  0  0  0  0  0  0  0  0  0
    9.7345   -3.9416  -56.7522 H   0  0  0  0  0  0  0  0  0  0  0  0
   10.1458   -5.9060  -58.2339 H   0  0  0  0  0  0  0  0  0  0  0  0
   11.5787   -7.1893  -56.6351 H   0  0  0  0  0  0  0  0  0  0  0  0
   12.3972   -6.9729  -58.2251 H   0  0  0  0  0  0  0  0  0  0  0  0
   13.9901   -6.5127  -56.3225 H   0  0  0  0  0  0  0  0  0  0  0  0
   12.2467   -5.8081  -54.6872 H   0  0  0  0  0  0  0  0  0  0  0  0
   13.5494   -4.5671  -54.8595 H   0  0  0  0  0  0  0  0  0  0  0  0
   14.1687   -5.3091  -58.5117 H   0  0  0  0  0  0  0  0  0  0  0  0
   15.0386   -3.8578  -56.0268 H   0  0  0  0  0  0  0  0  0  0  0  0
   15.9777   -4.8982  -57.1625 H   0  0  0  0  0  0  0  0  0  0  0  0
   16.3870   -2.6910  -57.5130 H   0  0  0  0  0  0  0  0  0  0  0  0
   13.2857   -2.9548  -58.6347 H   0  0  0  0  0  0  0  0  0  0  0  0
   10.8782   -3.6281  -58.9442 H   0  0  0  0  0  0  0  0  0  0  0  0
   11.9878   -4.9008  -59.5701 H   0  0  0  0  0  0  0  0  0  0  0  0
   13.1326   -2.4800  -56.2109 H   0  0  0  0  0  0  0  0  0  0  0  0
   11.5281   -2.2542  -57.0160 H   0  0  0  0  0  0  0  0  0  0  0  0
    5.6261   -2.1791  -52.7139 H   0  0  0  0  0  0  0  0  0  0  0  0
    6.8196   -2.4009  -51.5759 H   0  0  0  0  0  0  0  0  0  0  0  0
    7.3140    0.0743  -51.8157 H   0  0  0  0  0  0  0  0  0  0  0  0
    5.1150   -0.0576  -53.9020 H   0  0  0  0  0  0  0  0  0  0  0  0
    5.6101    1.3683  -53.2772 H   0  0  0  0  0  0  0  0  0  0  0  0
    9.7783    1.0215  -55.1674 H   0  0  0  0  0  0  0  0  0  0  0  0
    5.3190    1.3850  -55.7790 H   0  0  0  0  0  0  0  0  0  0  0  0
    8.3578    3.1633  -59.9674 H   0  0  0  0  0  0  0  0  0  0  0  0
    8.7280    4.5195  -58.8141 H   0  0  0  0  0  0  0  0  0  0  0  0
   10.6349    2.3779  -59.8376 H   0  0  0  0  0  0  0  0  0  0  0  0
   10.6873    4.1452  -60.1537 H   0  0  0  0  0  0  0  0  0  0  0  0
   10.9170    4.4480  -57.7190 H   0  0  0  0  0  0  0  0  0  0  0  0
   13.2487    3.7890  -57.4886 H   0  0  0  0  0  0  0  0  0  0  0  0
   13.0556    2.8650  -59.0169 H   0  0  0  0  0  0  0  0  0  0  0  0
   12.8642    4.6511  -59.0169 H   0  0  0  0  0  0  0  0  0  0  0  0
   11.4589    1.5521  -57.5203 H   0  0  0  0  0  0  0  0  0  0  0  0
   11.3452    2.8017  -56.1935 H   0  0  0  0  0  0  0  0  0  0  0  0
  1  2  1  0
  2  3  1  0
  3  4  1  0
  5  4  1  1
  5  6  1  0
  6  7  1  0
  7  8  1  0
  8  9  1  0
  9 10  1  0
  9 11  1  0
 11 12  1  0
 12 13  1  0
 11 14  1  0
 14 15  1  0
 14 16  1  0
  2 17  1  0
 17 18  1  0
 18 19  1  0
 19 20  1  0
 20 21  1  0
 21 22  1  0
 22 23  2  0
 23 24  1  0
 24 25  2  0
 25 26  1  0
 26 27  2  0
 27 28  1  0
 25 29  1  0
 29 30  1  0
 30 31  1  0
 31 32  1  0
 31 33  1  0
 21 34  2  0
 10  5  1  0
 34 17  1  0
 16  5  1  0
 34 19  1  0
 15  7  1  0
 27 22  1  0
 33 24  1  0
  1 35  1  0
  1 36  1  0
  1 37  1  0
  2 38  1  6
  3 39  1  0
  3 40  1  0
  4 41  1  0
  4 42  1  0
  6 43  1  0
  6 44  1  0
  7 45  1  6
  8 46  1  0
  8 47  1  0
  9 48  1  1
 10 49  1  0
 10 50  1  0
 11 51  1  6
 12 52  1  0
 12 53  1  0
 13 54  1  0
 14 55  1  6
 15 56  1  0
 15 57  1  0
 16 58  1  0
 16 59  1  0
 18 60  1  0
 18 61  1  0
 19 62  1  1
 20 63  1  0
 20 64  1  0
 23 65  1  0
 28 66  1  0
 29 67  1  0
 29 68  1  0
 30 69  1  0
 30 70  1  0
 31 71  1  1
 32 72  1  0
 32 73  1  0
 32 74  1  0
 33 75  1  0
 33 76  1  0
M  CHG  1  31   1
M  END
>  <meeko>  (164) 
{"is_sidechain": false}

$$$$

     RDKit          3D

 76 82  0  0  0  0  0  0  0  0999 V2000
   10.4360   -2.6020  -52.4990 C   0  0  0  0  0  0  0  0  0  0  0  0
   10.3760   -1.4000  -53.4470 C   0  0  1  0  0  0  0  0  0  0  0  0
   10.7800   -1.8240  -54.8730 C   0  0  0  0  0  0  0  0  0  0  0  0
   10.3270   -3.2520  -55.2170 C   0  0  0  0  0  0  0  0  0  0  0  0
   11.2330   -4.0310  -56.2050 C   0  0  2  0  0  0  0  0  0  0  0  0
   10.3380   -5.0170  -57.0070 C   0  0  0  0  0  0  0  0  0  0  0  0
   11.1760   -5.8240  -58.0080 C   0  0  2  0  0  0  0  0  0  0  0  0
   12.2430   -6.6230  -57.2400 C   0  0  0  0  0  0  0  0  0  0  0  0
   13.1740   -5.6580  -56.4730 C   0  0  2  0  0  0  0  0  0  0  0  0
   12.3140   -4.8630  -55.4710 C   0  0  0  0  0  0  0  0  0  0  0  0
   13.8660   -4.7410  -57.5120 C   0  0  2  0  0  0  0  0  0  0  0  0
   15.0590   -3.9340  -56.9740 C   0  0  0  0  0  0  0  0  0  0  0  0
   15.6190   -3.0310  -57.9070 O   0  0  0  0  0  0  0  0  0  0  0  0
   12.7820   -3.8890  -58.2210 C   0  0  1  0  0  0  0  0  0  0  0  0
   11.8520   -4.8510  -58.9890 C   0  0  0  0  0  0  0  0  0  0  0  0
   11.9270   -3.0900  -57.2190 C   0  0  0  0  0  0  0  0  0  0  0  0
    9.0600   -0.7610  -53.4410 N   0  0  0  0  0  0  0  0  0  0  0  0
    7.8520   -1.5230  -53.3290 C   0  0  0  0  0  0  0  0  0  0  0  0
    7.1430   -0.2270  -53.6820 C   0  0  2  0  0  0  0  0  0  0  0  0
    6.6280   -0.0540  -55.0960 C   0  0  0  0  0  0  0  0  0  0  0  0
    7.9030    0.7450  -55.2810 C   0  0  0  0  0  0  0  0  0  0  0  0
    8.3510    1.7560  -56.3730 C   0  0  0  0  0  0  0  0  0  0  0  0
    9.7090    1.9050  -56.6410 C   0  0  0  0  0  0  0  0  0  0  0  0
   10.1250    2.8170  -57.6200 C   0  0  0  0  0  0  0  0  0  0  0  0
    9.1430    3.5300  -58.3140 C   0  0  0  0  0  0  0  0  0  0  0  0
    7.8220    3.3960  -58.0650 N   0  0  0  0  0  0  0  0  0  0  0  0
    7.4600    2.5140  -57.1120 C   0  0  0  0  0  0  0  0  0  0  0  0
    6.1200    2.4200  -56.9610 O   0  0  0  0  0  0  0  0  0  0  0  0
    9.5090    4.5550  -59.3520 C   0  0  0  0  0  0  0  0  0  0  0  0
   10.9090    4.3410  -59.9070 C   0  0  0  0  0  0  0  0  0  0  0  0
   11.8890    4.1980  -58.7630 N   0  0  2  0  0  0  0  0  0  0  0  0
   13.3160    4.2280  -59.2210 C   0  0  0  0  0  0  0  0  0  0  0  0
   11.5800    2.9640  -57.9490 C   0  0  0  0  0  0  0  0  0  0  0  0
    8.5850    0.0230  -54.3620 C   0  0  0  0  0  0  0  0  0  0  0  0
   10.4184   -2.2487  -51.4574 H   0  0  0  0  0  0  0  0  0  0  0  0
    9.5693   -3.2549  -52.6795 H   0  0  0  0  0  0  0  0  0  0  0  0
   11.3634   -3.1654  -52.6795 H   0  0  0  0  0  0  0  0  0  0  0  0
   11.0953   -0.6512  -53.0838 H   0  0  0  0  0  0  0  0  0  0  0  0
   10.3224   -1.1270  -55.5905 H   0  0  0  0  0  0  0  0  0  0  0  0
   11.8784   -1.8010  -54.9283 H   0  0  0  0  0  0  0  0  0  0  0  0
   10.2797   -3.8255  -54.2795 H   0  0  0  0  0  0  0  0  0  0  0  0
    9.3579   -3.1421  -55.7256 H   0  0  0  0  0  0  0  0  0  0  0  0
    9.8473   -5.7093  -56.3070 H   0  0  0  0  0  0  0  0  0  0  0  0
    9.5864   -4.4376  -57.5633 H   0  0  0  0  0  0  0  0  0  0  0  0
   10.5356   -6.5211  -58.5684 H   0  0  0  0  0  0  0  0  0  0  0  0
   11.7489   -7.2977  -56.5254 H   0  0  0  0  0  0  0  0  0  0  0  0
   12.8395   -7.2092  -57.9545 H   0  0  0  0  0  0  0  0  0  0  0  0
   13.9552   -6.1866  -55.9071 H   0  0  0  0  0  0  0  0  0  0  0  0
   11.8214   -5.5657  -54.7829 H   0  0  0  0  0  0  0  0  0  0  0  0
   12.9687   -4.1751  -54.9158 H   0  0  0  0  0  0  0  0  0  0  0  0
   14.3570   -5.3812  -58.2597 H   0  0  0  0  0  0  0  0  0  0  0  0
   14.7199   -3.3595  -56.0994 H   0  0  0  0  0  0  0  0  0  0  0  0
   15.8464   -4.6618  -56.7284 H   0  0  0  0  0  0  0  0  0  0  0  0
   15.8700   -3.5500  -58.6900 H   0  0  0  0  0  0  0  0  0  0  0  0
   13.2838   -3.1729  -58.8884 H   0  0  0  0  0  0  0  0  0  0  0  0
   11.0806   -4.2695  -59.5151 H   0  0  0  0  0  0  0  0  0  0  0  0
   12.4463   -5.4250  -59.7151 H   0  0  0  0  0  0  0  0  0  0  0  0
   12.5749   -2.3885  -56.6730 H   0  0  0  0  0  0  0  0  0  0  0  0
   11.1517   -2.5451  -57.7775 H   0  0  0  0  0  0  0  0  0  0  0  0
    7.7405   -2.3314  -54.0666 H   0  0  0  0  0  0  0  0  0  0  0  0
    7.6017   -2.1147  -52.4361 H   0  0  0  0  0  0  0  0  0  0  0  0
    6.4525    0.1683  -52.9224 H   0  0  0  0  0  0  0  0  0  0  0  0
    6.5571   -0.9769  -55.6904 H   0  0  0  0  0  0  0  0  0  0  0  0
    5.6258    0.3285  -55.3394 H   0  0  0  0  0  0  0  0  0  0  0  0
   10.4508    1.3104  -56.0876 H   0  0  0  0  0  0  0  0  0  0  0  0
    5.9800    2.8400  -56.0960 H   0  0  0  0  0  0  0  0  0  0  0  0
    8.7872    4.4933  -60.1798 H   0  0  0  0  0  0  0  0  0  0  0  0
    9.4855    5.5439  -58.8709 H   0  0  0  0  0  0  0  0  0  0  0  0
   10.9248    3.4275  -60.5197 H   0  0  0  0  0  0  0  0  0  0  0  0
   11.1932    5.2037  -60.5274 H   0  0  0  0  0  0  0  0  0  0  0  0
   11.7580    5.0050  -58.1370 H   0  0  0  0  0  0  0  0  0  0  0  0
   13.9819    4.2420  -58.3455 H   0  0  0  0  0  0  0  0  0  0  0  0
   13.5255    3.3341  -59.8268 H   0  0  0  0  0  0  0  0  0  0  0  0
   13.4878    5.1300  -59.8268 H   0  0  0  0  0  0  0  0  0  0  0  0
   11.8993    2.0801  -58.5207 H   0  0  0  0  0  0  0  0  0  0  0  0
   12.1205    3.0600  -56.9957 H   0  0  0  0  0  0  0  0  0  0  0  0
  1  2  1  0
  2  3  1  0
  3  4  1  0
  5  4  1  1
  5  6  1  0
  6  7  1  0
  7  8  1  0
  8  9  1  0
  9 10  1  0
  9 11  1  0
 11 12  1  0
 12 13  1  0
 11 14  1  0
 14 15  1  0
 14 16  1  0
  2 17  1  0
 17 18  1  0
 18 19  1  0
 19 20  1  0
 20 21  1  0
 21 22  1  0
 22 23  2  0
 23 24  1  0
 24 25  2  0
 25 26  1  0
 26 27  2  0
 27 28  1  0
 25 29  1  0
 29 30  1  0
 30 31  1  0
 31 32  1  0
 31 33  1  0
 21 34  2  0
 10  5  1  0
 34 17  1  0
 16  5  1  0
 34 19  1  0
 15  7  1  0
 27 22  1  0
 33 24  1  0
  1 35  1  0
  1 36  1  0
  1 37  1  0
  2 38  1  1
  3 39  1  0
  3 40  1  0
  4 41  1  0
  4 42  1  0
  6 43  1  0
  6 44  1  0
  7 45  1  6
  8 46  1  0
  8 47  1  0
  9 48  1  1
 10 49  1  0
 10 50  1  0
 11 51  1  6
 12 52  1  0
 12 53  1  0
 13 54  1  0
 14 55  1  6
 15 56  1  0
 15 57  1  0
 16 58  1  0
 16 59  1  0
 18 60  1  0
 18 61  1  0
 19 62  1  1
 20 63  1  0
 20 64  1  0
 23 65  1  0
 28 66  1  0
 29 67  1  0
 29 68  1  0
 30 69  1  0
 30 70  1  0
 31 71  1  1
 32 72  1  0
 32 73  1  0
 32 74  1  0
 33 75  1  0
 33 76  1  0
M  CHG  1  31   1
M  END
>  <meeko>  (165) 
{"is_sidechain": false}

$$$$

     RDKit          3D

 76 82  0  0  0  0  0  0  0  0999 V2000
   10.7690   -1.3240  -53.4930 C   0  0  0  0  0  0  0  0  0  0  0  0
    9.6910   -2.3360  -53.0770 C   0  0  2  0  0  0  0  0  0  0  0  0
   10.0370   -3.7070  -53.7020 C   0  0  0  0  0  0  0  0  0  0  0  0
    9.7010   -3.8090  -55.1970 C   0  0  0  0  0  0  0  0  0  0  0  0
   10.8610   -4.2570  -56.1240 C   0  0  2  0  0  0  0  0  0  0  0  0
   10.3770   -5.2400  -57.2190 C   0  0  0  0  0  0  0  0  0  0  0  0
   11.5390   -5.6160  -58.1560 C   0  0  2  0  0  0  0  0  0  0  0  0
   12.6520   -6.2800  -57.3320 C   0  0  0  0  0  0  0  0  0  0  0  0
   13.1820   -5.3040  -56.2670 C   0  0  2  0  0  0  0  0  0  0  0  0
   12.0070   -4.9380  -55.3300 C   0  0  0  0  0  0  0  0  0  0  0  0
   13.7230   -3.9940  -56.8900 C   0  0  1  0  0  0  0  0  0  0  0  0
   15.0850   -4.1300  -57.5900 C   0  0  0  0  0  0  0  0  0  0  0  0
   15.6560   -2.8980  -57.9800 O   0  0  0  0  0  0  0  0  0  0  0  0
   12.6090   -3.3680  -57.7650 C   0  0  1  0  0  0  0  0  0  0  0  0
   12.0780   -4.3450  -58.8270 C   0  0  0  0  0  0  0  0  0  0  0  0
   11.4330   -2.9970  -56.8360 C   0  0  0  0  0  0  0  0  0  0  0  0
    8.3430   -1.9140  -53.5060 N   0  0  0  0  0  0  0  0  0  0  0  0
    7.2840   -1.7810  -52.5390 C   0  0  0  0  0  0  0  0  0  0  0  0
    7.3830   -0.2890  -52.7330 C   0  0  2  0  0  0  0  0  0  0  0  0
    6.4030    0.3940  -53.6700 C   0  0  0  0  0  0  0  0  0  0  0  0
    7.5920    0.3680  -54.6150 C   0  0  0  0  0  0  0  0  0  0  0  0
    7.9370    1.1960  -55.8850 C   0  0  0  0  0  0  0  0  0  0  0  0
    9.2780    1.5040  -56.1200 C   0  0  0  0  0  0  0  0  0  0  0  0
    9.6370    2.2310  -57.2630 C   0  0  0  0  0  0  0  0  0  0  0  0
    8.6200    2.6070  -58.1400 C   0  0  0  0  0  0  0  0  0  0  0  0
    7.3210    2.3290  -57.9140 N   0  0  0  0  0  0  0  0  0  0  0  0
    6.9940    1.6370  -56.8030 C   0  0  0  0  0  0  0  0  0  0  0  0
    5.6550    1.4490  -56.6750 O   0  0  0  0  0  0  0  0  0  0  0  0
    8.9030    3.4180  -59.3730 C   0  0  0  0  0  0  0  0  0  0  0  0
   10.3550    3.3110  -59.8110 C   0  0  0  0  0  0  0  0  0  0  0  0
   11.2580    3.5850  -58.6280 N   0  0  2  0  0  0  0  0  0  0  0  0
   12.6950    3.7430  -59.0260 C   0  0  0  0  0  0  0  0  0  0  0  0
   11.0730    2.5320  -57.5620 C   0  0  0  0  0  0  0  0  0  0  0  0
    8.0590   -0.7970  -54.1100 C   0  0  0  0  0  0  0  0  0  0  0  0
   11.2311   -0.8902  -52.5940 H   0  0  0  0  0  0  0  0  0  0  0  0
   11.5387   -1.8334  -54.0915 H   0  0  0  0  0  0  0  0  0  0  0  0
   10.3092   -0.5237  -54.0915 H   0  0  0  0  0  0  0  0  0  0  0  0
    9.6768   -2.4018  -51.9791 H   0  0  0  0  0  0  0  0  0  0  0  0
   11.1154   -3.8833  -53.5761 H   0  0  0  0  0  0  0  0  0  0  0  0
    9.4241   -4.4592  -53.1838 H   0  0  0  0  0  0  0  0  0  0  0  0
    8.8810   -4.5336  -55.3093 H   0  0  0  0  0  0  0  0  0  0  0  0
    9.4445   -2.7875  -55.5144 H   0  0  0  0  0  0  0  0  0  0  0  0
    9.9875   -6.1511  -56.7413 H   0  0  0  0  0  0  0  0  0  0  0  0
    9.5861   -4.7543  -57.8094 H   0  0  0  0  0  0  0  0  0  0  0  0
   11.1883   -6.3151  -58.9295 H   0  0  0  0  0  0  0  0  0  0  0  0
   12.2509   -7.1760  -56.8357 H   0  0  0  0  0  0  0  0  0  0  0  0
   13.4769   -6.5592  -58.0040 H   0  0  0  0  0  0  0  0  0  0  0  0
   14.0082   -5.7950  -55.7319 H   0  0  0  0  0  0  0  0  0  0  0  0
   11.6235   -5.8544  -54.8576 H   0  0  0  0  0  0  0  0  0  0  0  0
   12.3713   -4.2366  -54.5649 H   0  0  0  0  0  0  0  0  0  0  0  0
   13.9640   -3.2949  -56.0756 H   0  0  0  0  0  0  0  0  0  0  0  0
   15.7802   -4.6304  -56.8999 H   0  0  0  0  0  0  0  0  0  0  0  0
   14.9135   -4.7070  -58.5107 H   0  0  0  0  0  0  0  0  0  0  0  0
   16.6180   -3.0240  -58.0220 H   0  0  0  0  0  0  0  0  0  0  0  0
   13.0322   -2.4956  -58.2845 H   0  0  0  0  0  0  0  0  0  0  0  0
   11.2681   -3.8615  -59.3929 H   0  0  0  0  0  0  0  0  0  0  0  0
   12.8993   -4.6183  -59.5058 H   0  0  0  0  0  0  0  0  0  0  0  0
   11.7867   -2.2847  -56.0761 H   0  0  0  0  0  0  0  0  0  0  0  0
   10.6349   -2.5482  -57.4456 H   0  0  0  0  0  0  0  0  0  0  0  0
    6.3239   -2.2209  -52.8468 H   0  0  0  0  0  0  0  0  0  0  0  0
    7.3504   -2.2403  -51.5417 H   0  0  0  0  0  0  0  0  0  0  0  0
    7.5823    0.2922  -51.8206 H   0  0  0  0  0  0  0  0  0  0  0  0
    5.5363   -0.2099  -53.9768 H   0  0  0  0  0  0  0  0  0  0  0  0
    5.8322    1.2996  -53.4170 H   0  0  0  0  0  0  0  0  0  0  0  0
   10.0514    1.1768  -55.4095 H   0  0  0  0  0  0  0  0  0  0  0  0
    5.4970    0.6840  -56.1000 H   0  0  0  0  0  0  0  0  0  0  0  0
    8.2595    3.0578  -60.1892 H   0  0  0  0  0  0  0  0  0  0  0  0
    8.6986    4.4728  -59.1373 H   0  0  0  0  0  0  0  0  0  0  0  0
   10.5491    2.2983  -60.1942 H   0  0  0  0  0  0  0  0  0  0  0  0
   10.5548    4.0466  -60.6041 H   0  0  0  0  0  0  0  0  0  0  0  0
   10.9610    4.4810  -58.2140 H   0  0  0  0  0  0  0  0  0  0  0  0
   13.3200    3.8117  -58.1234 H   0  0  0  0  0  0  0  0  0  0  0  0
   13.0077    2.8738  -59.6233 H   0  0  0  0  0  0  0  0  0  0  0  0
   12.8114    4.6594  -59.6233 H   0  0  0  0  0  0  0  0  0  0  0  0
   11.5600    1.6053  -57.8997 H   0  0  0  0  0  0  0  0  0  0  0  0
   11.5206    2.9253  -56.6374 H   0  0  0  0  0  0  0  0  0  0  0  0
  1  2  1  0
  2  3  1  0
  3  4  1  0
  5  4  1  1
  5  6  1  0
  6  7  1  0
  7  8  1  0
  8  9  1  0
  9 10  1  0
  9 11  1  0
 11 12  1  0
 12 13  1  0
 11 14  1  0
 14 15  1  0
 14 16  1  0
  2 17  1  0
 17 18  1  0
 18 19  1  0
 19 20  1  0
 20 21  1  0
 21 22  1  0
 22 23  2  0
 23 24  1  0
 24 25  2  0
 25 26  1  0
 26 27  2  0
 27 28  1  0
 25 29  1  0
 29 30  1  0
 30 31  1  0
 31 32  1  0
 31 33  1  0
 21 34  2  0
 10  5  1  0
 34 17  1  0
 16  5  1  0
 34 19  1  0
 15  7  1  0
 27 22  1  0
 33 24  1  0
  1 35  1  0
  1 36  1  0
  1 37  1  0
  2 38  1  1
  3 39  1  0
  3 40  1  0
  4 41  1  0
  4 42  1  0
  6 43  1  0
  6 44  1  0
  7 45  1  6
  8 46  1  0
  8 47  1  0
  9 48  1  1
 10 49  1  0
 10 50  1  0
 11 51  1  1
 12 52  1  0
 12 53  1  0
 13 54  1  0
 14 55  1  6
 15 56  1  0
 15 57  1  0
 16 58  1  0
 16 59  1  0
 18 60  1  0
 18 61  1  0
 19 62  1  1
 20 63  1  0
 20 64  1  0
 23 65  1  0
 28 66  1  0
 29 67  1  0
 29 68  1  0
 30 69  1  0
 30 70  1  0
 31 71  1  1
 32 72  1  0
 32 73  1  0
 32 74  1  0
 33 75  1  0
 33 76  1  0
M  CHG  1  31   1
M  END
>  <meeko>  (166) 
{"is_sidechain": false}

$$$$

     RDKit          3D

 76 82  0  0  0  0  0  0  0  0999 V2000
    9.3030   -2.7100  -52.3160 C   0  0  0  0  0  0  0  0  0  0  0  0
    9.4760   -1.4800  -53.2080 C   0  0  1  0  0  0  0  0  0  0  0  0
    9.9520   -1.8420  -54.6310 C   0  0  0  0  0  0  0  0  0  0  0  0
    9.7440   -3.3250  -54.9730 C   0  0  0  0  0  0  0  0  0  0  0  0
   10.8190   -3.9580  -55.8940 C   0  0  2  0  0  0  0  0  0  0  0  0
   10.1930   -4.9810  -56.8780 C   0  0  0  0  0  0  0  0  0  0  0  0
   11.2690   -5.5510  -57.8210 C   0  0  2  0  0  0  0  0  0  0  0  0
   12.3520   -6.2480  -56.9840 C   0  0  0  0  0  0  0  0  0  0  0  0
   13.0160   -5.2390  -56.0280 C   0  0  2  0  0  0  0  0  0  0  0  0
   11.9310   -4.6720  -55.0870 C   0  0  0  0  0  0  0  0  0  0  0  0
   13.6520   -4.0670  -56.8170 C   0  0  1  0  0  0  0  0  0  0  0  0
   14.8740   -4.4830  -57.6480 C   0  0  0  0  0  0  0  0  0  0  0  0
   15.6540   -3.3430  -57.9880 O   0  0  0  0  0  0  0  0  0  0  0  0
   12.5570   -3.3910  -57.6770 C   0  0  1  0  0  0  0  0  0  0  0  0
   11.8950   -4.4040  -58.6280 C   0  0  0  0  0  0  0  0  0  0  0  0
   11.4740   -2.8270  -56.7360 C   0  0  0  0  0  0  0  0  0  0  0  0
    8.2240   -0.7170  -53.2230 N   0  0  0  0  0  0  0  0  0  0  0  0
    6.9300   -1.3180  -53.0740 C   0  0  0  0  0  0  0  0  0  0  0  0
    6.3920    0.0270  -53.5380 C   0  0  2  0  0  0  0  0  0  0  0  0
    5.8940    0.1600  -54.9630 C   0  0  0  0  0  0  0  0  0  0  0  0
    7.2760    0.7250  -55.2230 C   0  0  0  0  0  0  0  0  0  0  0  0
    7.8680    1.5170  -56.4230 C   0  0  0  0  0  0  0  0  0  0  0  0
    9.2100    1.8890  -56.3850 C   0  0  0  0  0  0  0  0  0  0  0  0
    9.7620    2.6000  -57.4600 C   0  0  0  0  0  0  0  0  0  0  0  0
    8.9340    2.8940  -58.5480 C   0  0  0  0  0  0  0  0  0  0  0  0
    7.6270    2.5500  -58.5920 N   0  0  0  0  0  0  0  0  0  0  0  0
    7.1300    1.8720  -57.5380 C   0  0  0  0  0  0  0  0  0  0  0  0
    5.8150    1.5850  -57.6760 O   0  0  0  0  0  0  0  0  0  0  0  0
    9.4400    3.6850  -59.7220 C   0  0  0  0  0  0  0  0  0  0  0  0
   10.9570    3.6420  -59.8390 C   0  0  0  0  0  0  0  0  0  0  0  0
   11.5740    3.9960  -58.5040 N   0  0  2  0  0  0  0  0  0  0  0  0
   13.0560    4.2130  -58.5950 C   0  0  0  0  0  0  0  0  0  0  0  0
   11.2140    2.9660  -57.4610 C   0  0  0  0  0  0  0  0  0  0  0  0
    7.8480    0.0180  -54.2270 C   0  0  0  0  0  0  0  0  0  0  0  0
    9.3458   -2.4059  -51.2597 H   0  0  0  0  0  0  0  0  0  0  0  0
    8.3300   -3.1794  -52.5233 H   0  0  0  0  0  0  0  0  0  0  0  0
   10.1088   -3.4295  -52.5233 H   0  0  0  0  0  0  0  0  0  0  0  0
   10.2740   -0.8518  -52.7854 H   0  0  0  0  0  0  0  0  0  0  0  0
    9.3900   -1.2330  -55.3544 H   0  0  0  0  0  0  0  0  0  0  0  0
   11.0325   -1.6413  -54.6781 H   0  0  0  0  0  0  0  0  0  0  0  0
    9.7307   -3.8910  -54.0299 H   0  0  0  0  0  0  0  0  0  0  0  0
    8.7997   -3.3743  -55.5351 H   0  0  0  0  0  0  0  0  0  0  0  0
    9.7409   -5.8041  -56.3052 H   0  0  0  0  0  0  0  0  0  0  0  0
    9.4261   -4.4718  -57.4801 H   0  0  0  0  0  0  0  0  0  0  0  0
   10.8159   -6.2767  -58.5124 H   0  0  0  0  0  0  0  0  0  0  0  0
   11.8930   -7.0571  -56.3969 H   0  0  0  0  0  0  0  0  0  0  0  0
   13.1168   -6.6609  -57.6582 H   0  0  0  0  0  0  0  0  0  0  0  0
   13.8062   -5.7510  -55.4594 H   0  0  0  0  0  0  0  0  0  0  0  0
   11.4856   -5.4973  -54.5121 H   0  0  0  0  0  0  0  0  0  0  0  0
   12.3988   -3.9416  -54.4105 H   0  0  0  0  0  0  0  0  0  0  0  0
   14.0485   -3.3397  -56.0933 H   0  0  0  0  0  0  0  0  0  0  0  0
   15.4896   -5.1818  -57.0625 H   0  0  0  0  0  0  0  0  0  0  0  0
   14.5282   -4.9675  -58.5730 H   0  0  0  0  0  0  0  0  0  0  0  0
   15.2670   -2.9540  -58.7910 H   0  0  0  0  0  0  0  0  0  0  0  0
   13.0217   -2.5941  -58.2761 H   0  0  0  0  0  0  0  0  0  0  0  0
   11.1109   -3.8981  -59.2104 H   0  0  0  0  0  0  0  0  0  0  0  0
   12.6577   -4.8141  -59.3062 H   0  0  0  0  0  0  0  0  0  0  0  0
   11.9344   -2.0943  -56.0569 H   0  0  0  0  0  0  0  0  0  0  0  0
   10.6937   -2.3506  -57.3477 H   0  0  0  0  0  0  0  0  0  0  0  0
    6.7258   -2.1614  -53.7500 H   0  0  0  0  0  0  0  0  0  0  0  0
    6.6006   -1.8052  -52.1444 H   0  0  0  0  0  0  0  0  0  0  0  0
    5.7627    0.5704  -52.8178 H   0  0  0  0  0  0  0  0  0  0  0  0
    5.6672   -0.7872  -55.4743 H   0  0  0  0  0  0  0  0  0  0  0  0
    4.9632    0.6784  -55.2366 H   0  0  0  0  0  0  0  0  0  0  0  0
    9.8327    1.6266  -55.5170 H   0  0  0  0  0  0  0  0  0  0  0  0
    5.8360    0.9330  -58.3970 H   0  0  0  0  0  0  0  0  0  0  0  0
    9.0027    3.2705  -60.6423 H   0  0  0  0  0  0  0  0  0  0  0  0
    9.1443    4.7339  -59.5727 H   0  0  0  0  0  0  0  0  0  0  0  0
   11.2739    2.6305  -60.1331 H   0  0  0  0  0  0  0  0  0  0  0  0
   11.2875    4.3645  -60.5997 H   0  0  0  0  0  0  0  0  0  0  0  0
   11.1600    4.8870  -58.1940 H   0  0  0  0  0  0  0  0  0  0  0  0
   13.4804    4.2751  -57.5821 H   0  0  0  0  0  0  0  0  0  0  0  0
   13.5171    3.3728  -59.1348 H   0  0  0  0  0  0  0  0  0  0  0  0
   13.2569    5.1501  -59.1348 H   0  0  0  0  0  0  0  0  0  0  0  0
   11.8023    2.0564  -57.6522 H   0  0  0  0  0  0  0  0  0  0  0  0
   11.4372    3.4081  -56.4788 H   0  0  0  0  0  0  0  0  0  0  0  0
  1  2  1  0
  2  3  1  0
  3  4  1  0
  5  4  1  1
  5  6  1  0
  6  7  1  0
  7  8  1  0
  8  9  1  0
  9 10  1  0
  9 11  1  0
 11 12  1  0
 12 13  1  0
 11 14  1  0
 14 15  1  0
 14 16  1  0
  2 17  1  0
 17 18  1  0
 18 19  1  0
 19 20  1  0
 20 21  1  0
 21 22  1  0
 22 23  2  0
 23 24  1  0
 24 25  2  0
 25 26  1  0
 26 27  2  0
 27 28  1  0
 25 29  1  0
 29 30  1  0
 30 31  1  0
 31 32  1  0
 31 33  1  0
 21 34  2  0
 10  5  1  0
 34 17  1  0
 16  5  1  0
 34 19  1  0
 15  7  1  0
 27 22  1  0
 33 24  1  0
  1 35  1  0
  1 36  1  0
  1 37  1  0
  2 38  1  1
  3 39  1  0
  3 40  1  0
  4 41  1  0
  4 42  1  0
  6 43  1  0
  6 44  1  0
  7 45  1  6
  8 46  1  0
  8 47  1  0
  9 48  1  1
 10 49  1  0
 10 50  1  0
 11 51  1  1
 12 52  1  0
 12 53  1  0
 13 54  1  0
 14 55  1  6
 15 56  1  0
 15 57  1  0
 16 58  1  0
 16 59  1  0
 18 60  1  0
 18 61  1  0
 19 62  1  1
 20 63  1  0
 20 64  1  0
 23 65  1  0
 28 66  1  0
 29 67  1  0
 29 68  1  0
 30 69  1  0
 30 70  1  0
 31 71  1  1
 32 72  1  0
 32 73  1  0
 32 74  1  0
 33 75  1  0
 33 76  1  0
M  CHG  1  31   1
M  END
>  <meeko>  (167) 
{"is_sidechain": false}

$$$$

     RDKit          3D

 76 82  0  0  0  0  0  0  0  0999 V2000
    9.2180   -2.9490  -52.2480 C   0  0  0  0  0  0  0  0  0  0  0  0
    8.7010   -2.9220  -53.6850 C   0  0  2  0  0  0  0  0  0  0  0  0
    9.7230   -2.3950  -54.7180 C   0  0  0  0  0  0  0  0  0  0  0  0
   11.1540   -2.9380  -54.5830 C   0  0  0  0  0  0  0  0  0  0  0  0
   11.6390   -3.8360  -55.7510 C   0  0  2  0  0  0  0  0  0  0  0  0
   10.4540   -4.5680  -56.4330 C   0  0  0  0  0  0  0  0  0  0  0  0
   10.9490   -5.4060  -57.6250 C   0  0  2  0  0  0  0  0  0  0  0  0
   11.9660   -6.4440  -57.1230 C   0  0  0  0  0  0  0  0  0  0  0  0
   13.1710   -5.7360  -56.4730 C   0  0  2  0  0  0  0  0  0  0  0  0
   12.6630   -4.9000  -55.2820 C   0  0  0  0  0  0  0  0  0  0  0  0
   13.8470   -4.8330  -57.5360 C   0  0  2  0  0  0  0  0  0  0  0  0
   15.1660   -4.2110  -57.0570 C   0  0  0  0  0  0  0  0  0  0  0  0
   15.5000   -3.0840  -57.8580 O   0  0  0  0  0  0  0  0  0  0  0  0
   12.8280   -3.7680  -58.0070 C   0  0  1  0  0  0  0  0  0  0  0  0
   11.6250   -4.4840  -58.6510 C   0  0  0  0  0  0  0  0  0  0  0  0
   12.3160   -2.9340  -56.8190 C   0  0  0  0  0  0  0  0  0  0  0  0
    7.4110   -2.2330  -53.7320 N   0  0  0  0  0  0  0  0  0  0  0  0
    6.6280   -1.9140  -52.5720 C   0  0  0  0  0  0  0  0  0  0  0  0
    5.7950   -1.0620  -53.5170 C   0  0  1  0  0  0  0  0  0  0  0  0
    5.9930    0.4420  -53.4960 C   0  0  0  0  0  0  0  0  0  0  0  0
    6.8850    0.1720  -54.6900 C   0  0  0  0  0  0  0  0  0  0  0  0
    7.4800    1.0930  -55.7850 C   0  0  0  0  0  0  0  0  0  0  0  0
    8.8480    1.3490  -55.7920 C   0  0  0  0  0  0  0  0  0  0  0  0
    9.3900    2.1770  -56.7820 C   0  0  0  0  0  0  0  0  0  0  0  0
    8.5230    2.7050  -57.7450 C   0  0  0  0  0  0  0  0  0  0  0  0
    7.1900    2.4720  -57.7450 N   0  0  0  0  0  0  0  0  0  0  0  0
    6.7070    1.6730  -56.7720 C   0  0  0  0  0  0  0  0  0  0  0  0
    5.3670    1.4920  -56.8510 O   0  0  0  0  0  0  0  0  0  0  0  0
    9.0240    3.6350  -58.8150 C   0  0  0  0  0  0  0  0  0  0  0  0
   10.5220    3.4970  -59.0480 C   0  0  0  0  0  0  0  0  0  0  0  0
   11.2490    3.5820  -57.7260 N   0  0  2  0  0  0  0  0  0  0  0  0
   12.7350    3.6960  -57.8900 C   0  0  0  0  0  0  0  0  0  0  0  0
   10.8660    2.4260  -56.8320 C   0  0  0  0  0  0  0  0  0  0  0  0
    7.2210   -1.0690  -54.2740 C   0  0  0  0  0  0  0  0  0  0  0  0
    8.3677   -2.9046  -51.5515 H   0  0  0  0  0  0  0  0  0  0  0  0
    9.7825   -3.8778  -52.0788 H   0  0  0  0  0  0  0  0  0  0  0  0
    9.8761   -2.0840  -52.0788 H   0  0  0  0  0  0  0  0  0  0  0  0
    8.5461   -3.9643  -54.0005 H   0  0  0  0  0  0  0  0  0  0  0  0
    9.3555   -2.6589  -55.7206 H   0  0  0  0  0  0  0  0  0  0  0  0
    9.7971   -1.3124  -54.5380 H   0  0  0  0  0  0  0  0  0  0  0  0
   11.8372   -2.0790  -54.5094 H   0  0  0  0  0  0  0  0  0  0  0  0
   11.1512   -3.5793  -53.6893 H   0  0  0  0  0  0  0  0  0  0  0  0
    9.9694   -5.2311  -55.7013 H   0  0  0  0  0  0  0  0  0  0  0  0
    9.7377   -3.8181  -56.7998 H   0  0  0  0  0  0  0  0  0  0  0  0
   10.0981   -5.9184  -58.0977 H   0  0  0  0  0  0  0  0  0  0  0  0
   11.4834   -7.0960  -56.3801 H   0  0  0  0  0  0  0  0  0  0  0  0
   12.3183   -7.0433  -57.9755 H   0  0  0  0  0  0  0  0  0  0  0  0
   13.9097   -6.4642  -56.1068 H   0  0  0  0  0  0  0  0  0  0  0  0
   12.1805   -5.5676  -54.5530 H   0  0  0  0  0  0  0  0  0  0  0  0
   13.5198   -4.3852  -54.8228 H   0  0  0  0  0  0  0  0  0  0  0  0
   14.1369   -5.4623  -58.3903 H   0  0  0  0  0  0  0  0  0  0  0  0
   15.0578   -3.8925  -56.0097 H   0  0  0  0  0  0  0  0  0  0  0  0
   15.9667   -4.9604  -57.1422 H   0  0  0  0  0  0  0  0  0  0  0  0
   16.3120   -3.3060  -58.3470 H   0  0  0  0  0  0  0  0  0  0  0  0
   13.3249   -3.1004  -58.7263 H   0  0  0  0  0  0  0  0  0  0  0  0
   10.8996   -3.7344  -59.0002 H   0  0  0  0  0  0  0  0  0  0  0  0
   11.9775   -5.0875  -59.5005 H   0  0  0  0  0  0  0  0  0  0  0  0
   13.1645   -2.4071  -56.3582 H   0  0  0  0  0  0  0  0  0  0  0  0
   11.5707   -2.2162  -57.1923 H   0  0  0  0  0  0  0  0  0  0  0  0
    6.0967   -2.7643  -52.1196 H   0  0  0  0  0  0  0  0  0  0  0  0
    7.0696   -1.5182  -51.6455 H   0  0  0  0  0  0  0  0  0  0  0  0
    4.7395   -1.3505  -53.6294 H   0  0  0  0  0  0  0  0  0  0  0  0
    5.0937    1.0407  -53.7028 H   0  0  0  0  0  0  0  0  0  0  0  0
    6.3155    1.0036  -52.6068 H   0  0  0  0  0  0  0  0  0  0  0  0
    9.4987    0.9038  -55.0250 H   0  0  0  0  0  0  0  0  0  0  0  0
    5.1830    1.0870  -55.9850 H   0  0  0  0  0  0  0  0  0  0  0  0
    8.4980    3.4091  -59.7543 H   0  0  0  0  0  0  0  0  0  0  0  0
    8.8295    4.6653  -58.4823 H   0  0  0  0  0  0  0  0  0  0  0  0
   10.7315    2.5255  -59.5195 H   0  0  0  0  0  0  0  0  0  0  0  0
   10.8660    4.3073  -59.7076 H   0  0  0  0  0  0  0  0  0  0  0  0
   10.9340    4.4390  -57.2490 H   0  0  0  0  0  0  0  0  0  0  0  0
   13.2115    3.7326  -56.8992 H   0  0  0  0  0  0  0  0  0  0  0  0
   13.1105    2.8240  -58.4455 H   0  0  0  0  0  0  0  0  0  0  0  0
   12.9731    4.6151  -58.4455 H   0  0  0  0  0  0  0  0  0  0  0  0
   11.3605    1.5173  -57.2058 H   0  0  0  0  0  0  0  0  0  0  0  0
   11.1868    2.6840  -55.8119 H   0  0  0  0  0  0  0  0  0  0  0  0
  1  2  1  0
  2  3  1  0
  3  4  1  0
  5  4  1  1
  5  6  1  0
  6  7  1  0
  7  8  1  0
  8  9  1  0
  9 10  1  0
  9 11  1  0
 11 12  1  0
 12 13  1  0
 11 14  1  0
 14 15  1  0
 14 16  1  0
  2 17  1  0
 17 18  1  0
 18 19  1  0
 19 20  1  0
 20 21  1  0
 21 22  1  0
 22 23  2  0
 23 24  1  0
 24 25  2  0
 25 26  1  0
 26 27  2  0
 27 28  1  0
 25 29  1  0
 29 30  1  0
 30 31  1  0
 31 32  1  0
 31 33  1  0
 21 34  2  0
 10  5  1  0
 34 17  1  0
 16  5  1  0
 34 19  1  0
 15  7  1  0
 27 22  1  0
 33 24  1  0
  1 35  1  0
  1 36  1  0
  1 37  1  0
  2 38  1  6
  3 39  1  0
  3 40  1  0
  4 41  1  0
  4 42  1  0
  6 43  1  0
  6 44  1  0
  7 45  1  6
  8 46  1  0
  8 47  1  0
  9 48  1  1
 10 49  1  0
 10 50  1  0
 11 51  1  6
 12 52  1  0
 12 53  1  0
 13 54  1  0
 14 55  1  6
 15 56  1  0
 15 57  1  0
 16 58  1  0
 16 59  1  0
 18 60  1  0
 18 61  1  0
 19 62  1  6
 20 63  1  0
 20 64  1  0
 23 65  1  0
 28 66  1  0
 29 67  1  0
 29 68  1  0
 30 69  1  0
 30 70  1  0
 31 71  1  1
 32 72  1  0
 32 73  1  0
 32 74  1  0
 33 75  1  0
 33 76  1  0
M  CHG  1  31   1
M  END
>  <meeko>  (168) 
{"is_sidechain": false}

$$$$

     RDKit          3D

 76 82  0  0  0  0  0  0  0  0999 V2000
    8.8690   -2.1880  -52.4470 C   0  0  0  0  0  0  0  0  0  0  0  0
    9.4370   -1.2510  -53.5130 C   0  0  1  0  0  0  0  0  0  0  0  0
   10.0340   -1.9840  -54.7370 C   0  0  0  0  0  0  0  0  0  0  0  0
   11.0990   -3.0520  -54.4510 C   0  0  0  0  0  0  0  0  0  0  0  0
   11.5880   -3.8660  -55.6800 C   0  0  2  0  0  0  0  0  0  0  0  0
   10.4200   -4.5780  -56.4090 C   0  0  0  0  0  0  0  0  0  0  0  0
   10.9310   -5.3200  -57.6560 C   0  0  2  0  0  0  0  0  0  0  0  0
   11.9720   -6.3670  -57.2260 C   0  0  0  0  0  0  0  0  0  0  0  0
   13.1620   -5.6780  -56.5310 C   0  0  2  0  0  0  0  0  0  0  0  0
   12.6380   -4.9360  -55.2860 C   0  0  0  0  0  0  0  0  0  0  0  0
   13.8150   -4.6950  -57.5310 C   0  0  2  0  0  0  0  0  0  0  0  0
   15.1310   -4.1080  -57.0010 C   0  0  0  0  0  0  0  0  0  0  0  0
   15.5520   -3.0460  -57.8470 O   0  0  0  0  0  0  0  0  0  0  0  0
   12.7720   -3.6190  -57.9280 C   0  0  1  0  0  0  0  0  0  0  0  0
   11.5830   -4.3140  -58.6170 C   0  0  0  0  0  0  0  0  0  0  0  0
   12.2490   -2.8800  -56.6840 C   0  0  0  0  0  0  0  0  0  0  0  0
    8.4780   -0.1690  -53.8030 N   0  0  0  0  0  0  0  0  0  0  0  0
    7.2390   -0.0030  -53.0300 C   0  0  0  0  0  0  0  0  0  0  0  0
    6.4280   -0.4340  -54.2750 C   0  0  1  0  0  0  0  0  0  0  0  0
    5.9070    0.6110  -55.2830 C   0  0  0  0  0  0  0  0  0  0  0  0
    7.3170    0.6160  -55.9050 C   0  0  0  0  0  0  0  0  0  0  0  0
    8.0030    1.6480  -56.8350 C   0  0  0  0  0  0  0  0  0  0  0  0
    9.1560    2.2980  -56.4090 C   0  0  0  0  0  0  0  0  0  0  0  0
    9.7680    3.2360  -57.2470 C   0  0  0  0  0  0  0  0  0  0  0  0
    9.1760    3.4930  -58.4890 C   0  0  0  0  0  0  0  0  0  0  0  0
    8.0610    2.8580  -58.9210 N   0  0  0  0  0  0  0  0  0  0  0  0
    7.5050    1.9610  -58.0850 C   0  0  0  0  0  0  0  0  0  0  0  0
    6.3910    1.3780  -58.5900 O   0  0  0  0  0  0  0  0  0  0  0  0
    9.7950    4.4580  -59.4620 C   0  0  0  0  0  0  0  0  0  0  0  0
   10.7720    5.4190  -58.7990 C   0  0  0  0  0  0  0  0  0  0  0  0
   11.7290    4.6880  -57.8860 N   0  0  2  0  0  0  0  0  0  0  0  0
   12.6980    3.7880  -58.6020 C   0  0  0  0  0  0  0  0  0  0  0  0
   10.9750    3.9870  -56.7800 C   0  0  0  0  0  0  0  0  0  0  0  0
    7.7550   -0.1270  -54.8790 C   0  0  0  0  0  0  0  0  0  0  0  0
    9.1077   -1.7943  -51.4480 H   0  0  0  0  0  0  0  0  0  0  0  0
    7.7773   -2.2564  -52.5630 H   0  0  0  0  0  0  0  0  0  0  0  0
    9.3134   -3.1875  -52.5630 H   0  0  0  0  0  0  0  0  0  0  0  0
   10.3299   -0.7551  -53.1047 H   0  0  0  0  0  0  0  0  0  0  0  0
    9.2051   -2.4743  -55.2685 H   0  0  0  0  0  0  0  0  0  0  0  0
   10.5542   -1.2053  -55.3140 H   0  0  0  0  0  0  0  0  0  0  0  0
   11.9722   -2.5483  -54.0108 H   0  0  0  0  0  0  0  0  0  0  0  0
   10.6184   -3.7811  -53.7821 H   0  0  0  0  0  0  0  0  0  0  0  0
    9.9537   -5.3013  -55.7239 H   0  0  0  0  0  0  0  0  0  0  0  0
    9.6850   -3.8222  -56.7228 H   0  0  0  0  0  0  0  0  0  0  0  0
   10.0915   -5.8180  -58.1632 H   0  0  0  0  0  0  0  0  0  0  0  0
   11.5056   -7.0782  -56.5284 H   0  0  0  0  0  0  0  0  0  0  0  0
   12.3355   -6.8996  -58.1172 H   0  0  0  0  0  0  0  0  0  0  0  0
   13.9179   -6.4115  -56.2137 H   0  0  0  0  0  0  0  0  0  0  0  0
   12.1731   -5.6623  -54.6032 H   0  0  0  0  0  0  0  0  0  0  0  0
   13.4842   -4.4334  -54.7947 H   0  0  0  0  0  0  0  0  0  0  0  0
   14.1089   -5.2400  -58.4402 H   0  0  0  0  0  0  0  0  0  0  0  0
   14.9772   -3.7252  -55.9813 H   0  0  0  0  0  0  0  0  0  0  0  0
   15.9022   -4.8923  -56.9864 H   0  0  0  0  0  0  0  0  0  0  0  0
   16.5130   -2.9480  -57.7330 H   0  0  0  0  0  0  0  0  0  0  0  0
   13.2513   -2.8933  -58.6015 H   0  0  0  0  0  0  0  0  0  0  0  0
   10.8402   -3.5579  -58.9113 H   0  0  0  0  0  0  0  0  0  0  0  0
   11.9451   -4.8490  -59.5073 H   0  0  0  0  0  0  0  0  0  0  0  0
   13.0898   -2.3731  -56.1880 H   0  0  0  0  0  0  0  0  0  0  0  0
   11.4911   -2.1505  -57.0055 H   0  0  0  0  0  0  0  0  0  0  0  0
    7.1467   -0.6853  -52.1721 H   0  0  0  0  0  0  0  0  0  0  0  0
    7.0192    0.9437  -52.5147 H   0  0  0  0  0  0  0  0  0  0  0  0
    5.6897   -1.2306  -54.1008 H   0  0  0  0  0  0  0  0  0  0  0  0
    5.1123    0.2474  -55.9510 H   0  0  0  0  0  0  0  0  0  0  0  0
    5.4173    1.5390  -54.9528 H   0  0  0  0  0  0  0  0  0  0  0  0
    9.5838    2.0762  -55.4202 H   0  0  0  0  0  0  0  0  0  0  0  0
    6.2070    0.7080  -57.9080 H   0  0  0  0  0  0  0  0  0  0  0  0
   10.3332    3.8848  -60.2313 H   0  0  0  0  0  0  0  0  0  0  0  0
    8.9818    5.0589  -59.8952 H   0  0  0  0  0  0  0  0  0  0  0  0
   11.3477    5.9390  -59.5788 H   0  0  0  0  0  0  0  0  0  0  0  0
   10.1968    6.1365  -58.1954 H   0  0  0  0  0  0  0  0  0  0  0  0
   12.3040    5.4070  -57.4260 H   0  0  0  0  0  0  0  0  0  0  0  0
   13.2960    3.2325  -57.8646 H   0  0  0  0  0  0  0  0  0  0  0  0
   12.1421    3.0785  -59.2326 H   0  0  0  0  0  0  0  0  0  0  0  0
   13.3646    4.3947  -59.2326 H   0  0  0  0  0  0  0  0  0  0  0  0
   11.6580    3.2755  -56.2929 H   0  0  0  0  0  0  0  0  0  0  0  0
   10.6174    4.7687  -56.0937 H   0  0  0  0  0  0  0  0  0  0  0  0
  1  2  1  0
  2  3  1  0
  3  4  1  0
  5  4  1  1
  5  6  1  0
  6  7  1  0
  7  8  1  0
  8  9  1  0
  9 10  1  0
  9 11  1  0
 11 12  1  0
 12 13  1  0
 11 14  1  0
 14 15  1  0
 14 16  1  0
  2 17  1  0
 17 18  1  0
 18 19  1  0
 19 20  1  0
 20 21  1  0
 21 22  1  0
 22 23  2  0
 23 24  1  0
 24 25  2  0
 25 26  1  0
 26 27  2  0
 27 28  1  0
 25 29  1  0
 29 30  1  0
 30 31  1  0
 31 32  1  0
 31 33  1  0
 21 34  2  0
 10  5  1  0
 34 17  1  0
 16  5  1  0
 34 19  1  0
 15  7  1  0
 27 22  1  0
 33 24  1  0
  1 35  1  0
  1 36  1  0
  1 37  1  0
  2 38  1  1
  3 39  1  0
  3 40  1  0
  4 41  1  0
  4 42  1  0
  6 43  1  0
  6 44  1  0
  7 45  1  6
  8 46  1  0
  8 47  1  0
  9 48  1  1
 10 49  1  0
 10 50  1  0
 11 51  1  6
 12 52  1  0
 12 53  1  0
 13 54  1  0
 14 55  1  6
 15 56  1  0
 15 57  1  0
 16 58  1  0
 16 59  1  0
 18 60  1  0
 18 61  1  0
 19 62  1  1
 20 63  1  0
 20 64  1  0
 23 65  1  0
 28 66  1  0
 29 67  1  0
 29 68  1  0
 30 69  1  0
 30 70  1  0
 31 71  1  1
 32 72  1  0
 32 73  1  0
 32 74  1  0
 33 75  1  0
 33 76  1  0
M  CHG  1  31   1
M  END
>  <meeko>  (169) 
{"is_sidechain": false}

$$$$

     RDKit          3D

 76 82  0  0  0  0  0  0  0  0999 V2000
   10.4470   -0.8750  -53.9130 C   0  0  0  0  0  0  0  0  0  0  0  0
    9.4770   -1.9390  -53.3790 C   0  0  2  0  0  0  0  0  0  0  0  0
    9.9830   -3.3570  -53.7390 C   0  0  0  0  0  0  0  0  0  0  0  0
    9.6670   -3.7970  -55.1790 C   0  0  0  0  0  0  0  0  0  0  0  0
   10.8780   -4.1680  -56.0750 C   0  0  2  0  0  0  0  0  0  0  0  0
   10.3990   -5.1850  -57.1490 C   0  0  0  0  0  0  0  0  0  0  0  0
   11.5600   -5.6080  -58.0640 C   0  0  2  0  0  0  0  0  0  0  0  0
   12.6560   -6.2650  -57.2120 C   0  0  0  0  0  0  0  0  0  0  0  0
   13.1800   -5.2660  -56.1650 C   0  0  2  0  0  0  0  0  0  0  0  0
   12.0070   -4.8490  -55.2530 C   0  0  0  0  0  0  0  0  0  0  0  0
   13.7500   -3.9940  -56.8470 C   0  0  1  0  0  0  0  0  0  0  0  0
   15.0440   -4.2510  -57.6300 C   0  0  0  0  0  0  0  0  0  0  0  0
   15.6560   -3.0070  -57.9480 O   0  0  0  0  0  0  0  0  0  0  0  0
   12.6440   -3.3600  -57.7250 C   0  0  1  0  0  0  0  0  0  0  0  0
   12.1230   -4.3650  -58.7660 C   0  0  0  0  0  0  0  0  0  0  0  0
   11.4720   -2.9420  -56.8110 C   0  0  0  0  0  0  0  0  0  0  0  0
    8.1380   -1.7370  -53.9590 N   0  0  0  0  0  0  0  0  0  0  0  0
    7.0030   -1.5950  -53.0760 C   0  0  0  0  0  0  0  0  0  0  0  0
    6.2790   -1.0180  -54.2740 C   0  0  1  0  0  0  0  0  0  0  0  0
    6.0910    0.4860  -54.3430 C   0  0  0  0  0  0  0  0  0  0  0  0
    7.3010    0.4190  -55.2510 C   0  0  0  0  0  0  0  0  0  0  0  0
    7.9030    1.4210  -56.2670 C   0  0  0  0  0  0  0  0  0  0  0  0
    9.2360    1.8000  -56.1440 C   0  0  0  0  0  0  0  0  0  0  0  0
    9.7890    2.6930  -57.0690 C   0  0  0  0  0  0  0  0  0  0  0  0
    8.9710    3.1560  -58.1040 C   0  0  0  0  0  0  0  0  0  0  0  0
    7.6710    2.8000  -58.2330 N   0  0  0  0  0  0  0  0  0  0  0  0
    7.1760    1.9430  -57.3200 C   0  0  0  0  0  0  0  0  0  0  0  0
    5.8730    1.6370  -57.5270 O   0  0  0  0  0  0  0  0  0  0  0  0
    9.4810    4.1470  -59.1140 C   0  0  0  0  0  0  0  0  0  0  0  0
   11.0000    4.1440  -59.2100 C   0  0  0  0  0  0  0  0  0  0  0  0
   11.5930    4.2710  -57.8240 N   0  0  2  0  0  0  0  0  0  0  0  0
   13.0730    4.5180  -57.8520 C   0  0  0  0  0  0  0  0  0  0  0  0
   11.2350    3.0720  -56.9800 C   0  0  0  0  0  0  0  0  0  0  0  0
    7.8100   -0.6770  -54.6430 C   0  0  0  0  0  0  0  0  0  0  0  0
   10.9216   -0.3544  -53.0681 H   0  0  0  0  0  0  0  0  0  0  0  0
   11.2209   -1.3593  -54.5267 H   0  0  0  0  0  0  0  0  0  0  0  0
    9.8934   -0.1491  -54.5267 H   0  0  0  0  0  0  0  0  0  0  0  0
    9.4213   -1.8424  -52.2847 H   0  0  0  0  0  0  0  0  0  0  0  0
   11.0746   -3.3774  -53.6045 H   0  0  0  0  0  0  0  0  0  0  0  0
    9.4563   -4.0570  -53.0737 H   0  0  0  0  0  0  0  0  0  0  0  0
    9.0118   -4.6787  -55.1221 H   0  0  0  0  0  0  0  0  0  0  0  0
    9.2120   -2.9171  -55.6572 H   0  0  0  0  0  0  0  0  0  0  0  0
    9.9946   -6.0757  -56.6459 H   0  0  0  0  0  0  0  0  0  0  0  0
    9.6242   -4.7052  -57.7650 H   0  0  0  0  0  0  0  0  0  0  0  0
   11.2051   -6.3249  -58.8191 H   0  0  0  0  0  0  0  0  0  0  0  0
   12.2402   -7.1450  -56.6995 H   0  0  0  0  0  0  0  0  0  0  0  0
   13.4861   -6.5710  -57.8657 H   0  0  0  0  0  0  0  0  0  0  0  0
   13.9819   -5.7481  -55.5867 H   0  0  0  0  0  0  0  0  0  0  0  0
   11.6016   -5.7431  -54.7568 H   0  0  0  0  0  0  0  0  0  0  0  0
   12.3802   -4.1309  -54.5080 H   0  0  0  0  0  0  0  0  0  0  0  0
   14.0436   -3.2825  -56.0611 H   0  0  0  0  0  0  0  0  0  0  0  0
   15.7312   -4.8525  -57.0168 H   0  0  0  0  0  0  0  0  0  0  0  0
   14.8117   -4.7951  -58.5574 H   0  0  0  0  0  0  0  0  0  0  0  0
   16.4340   -2.9130  -57.3720 H   0  0  0  0  0  0  0  0  0  0  0  0
   13.0642   -2.4916  -58.2536 H   0  0  0  0  0  0  0  0  0  0  0  0
   11.3282   -3.8924  -59.3618 H   0  0  0  0  0  0  0  0  0  0  0  0
   12.9531   -4.6670  -59.4215 H   0  0  0  0  0  0  0  0  0  0  0  0
   11.8362   -2.2178  -56.0675 H   0  0  0  0  0  0  0  0  0  0  0  0
   10.6850   -2.4919  -57.4339 H   0  0  0  0  0  0  0  0  0  0  0  0
    6.5899   -2.5404  -52.6945 H   0  0  0  0  0  0  0  0  0  0  0  0
    7.0653   -1.0685  -52.1122 H   0  0  0  0  0  0  0  0  0  0  0  0
    5.3966   -1.5739  -54.6236 H   0  0  0  0  0  0  0  0  0  0  0  0
    5.1593    0.8262  -54.8186 H   0  0  0  0  0  0  0  0  0  0  0  0
    6.0229    1.1368  -53.4588 H   0  0  0  0  0  0  0  0  0  0  0  0
    9.8516    1.4002  -55.3247 H   0  0  0  0  0  0  0  0  0  0  0  0
    5.7740    1.8700  -58.4670 H   0  0  0  0  0  0  0  0  0  0  0  0
    9.0637    3.8939  -60.0998 H   0  0  0  0  0  0  0  0  0  0  0  0
    9.1662    5.1500  -58.7900 H   0  0  0  0  0  0  0  0  0  0  0  0
   11.3366    3.2022  -59.6680 H   0  0  0  0  0  0  0  0  0  0  0  0
   11.3300    4.9912  -59.8291 H   0  0  0  0  0  0  0  0  0  0  0  0
   11.1620    5.0900  -57.3730 H   0  0  0  0  0  0  0  0  0  0  0  0
   13.4537    4.5815  -56.8219 H   0  0  0  0  0  0  0  0  0  0  0  0
   13.5729    3.6909  -58.3773 H   0  0  0  0  0  0  0  0  0  0  0  0
   13.2772    5.4626  -58.3773 H   0  0  0  0  0  0  0  0  0  0  0  0
   11.8409    2.2169  -57.3141 H   0  0  0  0  0  0  0  0  0  0  0  0
   11.4367    3.3401  -55.9324 H   0  0  0  0  0  0  0  0  0  0  0  0
  1  2  1  0
  2  3  1  0
  3  4  1  0
  5  4  1  1
  5  6  1  0
  6  7  1  0
  7  8  1  0
  8  9  1  0
  9 10  1  0
  9 11  1  0
 11 12  1  0
 12 13  1  0
 11 14  1  0
 14 15  1  0
 14 16  1  0
  2 17  1  0
 17 18  1  0
 18 19  1  0
 19 20  1  0
 20 21  1  0
 21 22  1  0
 22 23  2  0
 23 24  1  0
 24 25  2  0
 25 26  1  0
 26 27  2  0
 27 28  1  0
 25 29  1  0
 29 30  1  0
 30 31  1  0
 31 32  1  0
 31 33  1  0
 21 34  2  0
 10  5  1  0
 34 17  1  0
 16  5  1  0
 34 19  1  0
 15  7  1  0
 27 22  1  0
 33 24  1  0
  1 35  1  0
  1 36  1  0
  1 37  1  0
  2 38  1  1
  3 39  1  0
  3 40  1  0
  4 41  1  0
  4 42  1  0
  6 43  1  0
  6 44  1  0
  7 45  1  6
  8 46  1  0
  8 47  1  0
  9 48  1  1
 10 49  1  0
 10 50  1  0
 11 51  1  1
 12 52  1  0
 12 53  1  0
 13 54  1  0
 14 55  1  6
 15 56  1  0
 15 57  1  0
 16 58  1  0
 16 59  1  0
 18 60  1  0
 18 61  1  0
 19 62  1  6
 20 63  1  0
 20 64  1  0
 23 65  1  0
 28 66  1  0
 29 67  1  0
 29 68  1  0
 30 69  1  0
 30 70  1  0
 31 71  1  1
 32 72  1  0
 32 73  1  0
 32 74  1  0
 33 75  1  0
 33 76  1  0
M  CHG  1  31   1
M  END
>  <meeko>  (170) 
{"is_sidechain": false}

$$$$

     RDKit          3D

 76 82  0  0  0  0  0  0  0  0999 V2000
    9.1320   -2.5900  -51.9360 C   0  0  0  0  0  0  0  0  0  0  0  0
    9.1750   -1.6890  -53.1690 C   0  0  1  0  0  0  0  0  0  0  0  0
   10.1700   -2.1780  -54.2430 C   0  0  0  0  0  0  0  0  0  0  0  0
    9.7820   -3.4800  -54.9590 C   0  0  0  0  0  0  0  0  0  0  0  0
   10.8260   -4.0330  -55.9660 C   0  0  2  0  0  0  0  0  0  0  0  0
   10.2020   -5.0600  -56.9430 C   0  0  0  0  0  0  0  0  0  0  0  0
   11.2790   -5.6300  -57.8840 C   0  0  2  0  0  0  0  0  0  0  0  0
   12.3630   -6.3270  -57.0490 C   0  0  0  0  0  0  0  0  0  0  0  0
   13.0330   -5.3180  -56.1010 C   0  0  2  0  0  0  0  0  0  0  0  0
   11.9450   -4.7570  -55.1610 C   0  0  0  0  0  0  0  0  0  0  0  0
   13.6630   -4.1230  -56.8600 C   0  0  1  0  0  0  0  0  0  0  0  0
   14.9720   -4.4540  -57.5980 C   0  0  0  0  0  0  0  0  0  0  0  0
   15.6560   -3.3200  -58.0900 O   0  0  0  0  0  0  0  0  0  0  0  0
   12.5710   -3.4670  -57.7400 C   0  0  1  0  0  0  0  0  0  0  0  0
   11.9010   -4.4780  -58.6880 C   0  0  0  0  0  0  0  0  0  0  0  0
   11.4800   -2.9000  -56.8020 C   0  0  0  0  0  0  0  0  0  0  0  0
    7.8590   -1.4520  -53.7650 N   0  0  0  0  0  0  0  0  0  0  0  0
    6.6640   -1.2080  -53.0000 C   0  0  0  0  0  0  0  0  0  0  0  0
    6.0490   -0.7760  -54.3190 C   0  0  1  0  0  0  0  0  0  0  0  0
    5.8850    0.7090  -54.5850 C   0  0  0  0  0  0  0  0  0  0  0  0
    7.1730    0.5390  -55.3650 C   0  0  0  0  0  0  0  0  0  0  0  0
    7.8830    1.4160  -56.4260 C   0  0  0  0  0  0  0  0  0  0  0  0
    9.2310    1.7260  -56.2600 C   0  0  0  0  0  0  0  0  0  0  0  0
    9.8660    2.5040  -57.2270 C   0  0  0  0  0  0  0  0  0  0  0  0
    9.1240    2.9270  -58.3310 C   0  0  0  0  0  0  0  0  0  0  0  0
    7.8180    2.6430  -58.5090 N   0  0  0  0  0  0  0  0  0  0  0  0
    7.2340    1.8920  -57.5530 C   0  0  0  0  0  0  0  0  0  0  0  0
    5.9260    1.6420  -57.7990 O   0  0  0  0  0  0  0  0  0  0  0  0
    9.8270    3.7520  -59.3720 C   0  0  0  0  0  0  0  0  0  0  0  0
   10.6440    4.8370  -58.6790 C   0  0  0  0  0  0  0  0  0  0  0  0
   11.5810    4.2890  -57.6030 N   0  0  2  0  0  0  0  0  0  0  0  0
   13.0310    4.5130  -57.9200 C   0  0  0  0  0  0  0  0  0  0  0  0
   11.3160    2.8560  -57.1770 C   0  0  0  0  0  0  0  0  0  0  0  0
    7.6120   -0.4820  -54.5930 C   0  0  0  0  0  0  0  0  0  0  0  0
    9.1616   -1.9702  -51.0277 H   0  0  0  0  0  0  0  0  0  0  0  0
    8.2046   -3.1815  -51.9462 H   0  0  0  0  0  0  0  0  0  0  0  0
    9.9989   -3.2671  -51.9462 H   0  0  0  0  0  0  0  0  0  0  0  0
    9.5407   -0.7249  -52.7860 H   0  0  0  0  0  0  0  0  0  0  0  0
   10.2638   -1.3882  -55.0029 H   0  0  0  0  0  0  0  0  0  0  0  0
   11.1078   -2.3939  -53.7102 H   0  0  0  0  0  0  0  0  0  0  0  0
    9.6123   -4.2497  -54.1917 H   0  0  0  0  0  0  0  0  0  0  0  0
    8.8896   -3.2391  -55.5553 H   0  0  0  0  0  0  0  0  0  0  0  0
    9.7529   -5.8821  -56.3663 H   0  0  0  0  0  0  0  0  0  0  0  0
    9.4323   -4.5561  -57.5460 H   0  0  0  0  0  0  0  0  0  0  0  0
   10.8293   -6.3585  -58.5747 H   0  0  0  0  0  0  0  0  0  0  0  0
   11.9040   -7.1325  -56.4570 H   0  0  0  0  0  0  0  0  0  0  0  0
   13.1238   -6.7448  -57.7248 H   0  0  0  0  0  0  0  0  0  0  0  0
   13.8344   -5.8406  -55.5582 H   0  0  0  0  0  0  0  0  0  0  0  0
   11.4990   -5.5865  -54.5926 H   0  0  0  0  0  0  0  0  0  0  0  0
   12.4125   -4.0292  -54.4814 H   0  0  0  0  0  0  0  0  0  0  0  0
   14.0073   -3.3813  -56.1242 H   0  0  0  0  0  0  0  0  0  0  0  0
   15.6377   -4.9842  -56.9010 H   0  0  0  0  0  0  0  0  0  0  0  0
   14.6997   -5.0654  -58.4710 H   0  0  0  0  0  0  0  0  0  0  0  0
   15.2220   -3.0590  -58.9200 H   0  0  0  0  0  0  0  0  0  0  0  0
   13.0472   -2.6864  -58.3514 H   0  0  0  0  0  0  0  0  0  0  0  0
   11.1130   -3.9695  -59.2629 H   0  0  0  0  0  0  0  0  0  0  0  0
   12.6606   -4.8868  -59.3706 H   0  0  0  0  0  0  0  0  0  0  0  0
   11.9362   -2.1668  -56.1206 H   0  0  0  0  0  0  0  0  0  0  0  0
   10.7023   -2.4217  -57.4155 H   0  0  0  0  0  0  0  0  0  0  0  0
    6.2113   -2.1014  -52.5451 H   0  0  0  0  0  0  0  0  0  0  0  0
    6.6518   -0.5733  -52.1017 H   0  0  0  0  0  0  0  0  0  0  0  0
    5.1928   -1.3688  -54.6734 H   0  0  0  0  0  0  0  0  0  0  0  0
    5.0039    0.9887  -55.1812 H   0  0  0  0  0  0  0  0  0  0  0  0
    5.7440    1.4600  -53.7937 H   0  0  0  0  0  0  0  0  0  0  0  0
    9.7846    1.3633  -55.3814 H   0  0  0  0  0  0  0  0  0  0  0  0
    5.9210    0.6690  -57.8160 H   0  0  0  0  0  0  0  0  0  0  0  0
   10.4952    3.1083  -59.9629 H   0  0  0  0  0  0  0  0  0  0  0  0
    9.0865    4.2152  -60.0407 H   0  0  0  0  0  0  0  0  0  0  0  0
   11.2480    5.3577  -59.4367 H   0  0  0  0  0  0  0  0  0  0  0  0
    9.9339    5.5136  -58.1810 H   0  0  0  0  0  0  0  0  0  0  0  0
   11.3830    4.8500  -56.7640 H   0  0  0  0  0  0  0  0  0  0  0  0
   13.6016    4.6012  -56.9837 H   0  0  0  0  0  0  0  0  0  0  0  0
   13.4141    3.6634  -58.5043 H   0  0  0  0  0  0  0  0  0  0  0  0
   13.1399    5.4386  -58.5043 H   0  0  0  0  0  0  0  0  0  0  0  0
   11.8664    2.1807  -57.8486 H   0  0  0  0  0  0  0  0  0  0  0  0
   11.6502    2.7498  -56.1344 H   0  0  0  0  0  0  0  0  0  0  0  0
  1  2  1  0
  2  3  1  0
  3  4  1  0
  5  4  1  1
  5  6  1  0
  6  7  1  0
  7  8  1  0
  8  9  1  0
  9 10  1  0
  9 11  1  0
 11 12  1  0
 12 13  1  0
 11 14  1  0
 14 15  1  0
 14 16  1  0
  2 17  1  0
 17 18  1  0
 18 19  1  0
 19 20  1  0
 20 21  1  0
 21 22  1  0
 22 23  2  0
 23 24  1  0
 24 25  2  0
 25 26  1  0
 26 27  2  0
 27 28  1  0
 25 29  1  0
 29 30  1  0
 30 31  1  0
 31 32  1  0
 31 33  1  0
 21 34  2  0
 10  5  1  0
 34 17  1  0
 16  5  1  0
 34 19  1  0
 15  7  1  0
 27 22  1  0
 33 24  1  0
  1 35  1  0
  1 36  1  0
  1 37  1  0
  2 38  1  1
  3 39  1  0
  3 40  1  0
  4 41  1  0
  4 42  1  0
  6 43  1  0
  6 44  1  0
  7 45  1  6
  8 46  1  0
  8 47  1  0
  9 48  1  1
 10 49  1  0
 10 50  1  0
 11 51  1  1
 12 52  1  0
 12 53  1  0
 13 54  1  0
 14 55  1  6
 15 56  1  0
 15 57  1  0
 16 58  1  0
 16 59  1  0
 18 60  1  0
 18 61  1  0
 19 62  1  6
 20 63  1  0
 20 64  1  0
 23 65  1  0
 28 66  1  0
 29 67  1  0
 29 68  1  0
 30 69  1  0
 30 70  1  0
 31 71  1  1
 32 72  1  0
 32 73  1  0
 32 74  1  0
 33 75  1  0
 33 76  1  0
M  CHG  1  31   1
M  END
>  <meeko>  (171) 
{"is_sidechain": false}

$$$$

     RDKit          3D

 76 82  0  0  0  0  0  0  0  0999 V2000
   11.0840   -2.5260  -52.6000 C   0  0  0  0  0  0  0  0  0  0  0  0
    9.6480   -2.7560  -53.0710 C   0  0  2  0  0  0  0  0  0  0  0  0
    9.5300   -2.9440  -54.5980 C   0  0  0  0  0  0  0  0  0  0  0  0
   10.7650   -2.5370  -55.4140 C   0  0  0  0  0  0  0  0  0  0  0  0
   11.4180   -3.6630  -56.2590 C   0  0  2  0  0  0  0  0  0  0  0  0
   10.3580   -4.5970  -56.8960 C   0  0  0  0  0  0  0  0  0  0  0  0
   11.0330   -5.6630  -57.7770 C   0  0  2  0  0  0  0  0  0  0  0  0
   11.9890   -6.4990  -56.9110 C   0  0  0  0  0  0  0  0  0  0  0  0
   13.0770   -5.5950  -56.2960 C   0  0  2  0  0  0  0  0  0  0  0  0
   12.3870   -4.5310  -55.4180 C   0  0  0  0  0  0  0  0  0  0  0  0
   13.8770   -4.9350  -57.4460 C   0  0  2  0  0  0  0  0  0  0  0  0
   15.1070   -4.1510  -56.9660 C   0  0  0  0  0  0  0  0  0  0  0  0
   15.5780   -3.3180  -58.0170 O   0  0  0  0  0  0  0  0  0  0  0  0
   12.9140   -4.0640  -58.2880 C   0  0  1  0  0  0  0  0  0  0  0  0
   11.8280   -4.9720  -58.8950 C   0  0  0  0  0  0  0  0  0  0  0  0
   12.2260   -3.0030  -57.4110 C   0  0  0  0  0  0  0  0  0  0  0  0
    8.7110   -1.7250  -52.6100 N   0  0  0  0  0  0  0  0  0  0  0  0
    7.4380   -2.0100  -52.0020 C   0  0  0  0  0  0  0  0  0  0  0  0
    7.1360   -0.5370  -52.2240 C   0  0  2  0  0  0  0  0  0  0  0  0
    6.2330   -0.1460  -53.3800 C   0  0  0  0  0  0  0  0  0  0  0  0
    7.5440    0.1170  -54.0970 C   0  0  0  0  0  0  0  0  0  0  0  0
    7.8940    0.8920  -55.4010 C   0  0  0  0  0  0  0  0  0  0  0  0
    9.2160    1.2970  -55.5940 C   0  0  0  0  0  0  0  0  0  0  0  0
    9.5650    2.0020  -56.7530 C   0  0  0  0  0  0  0  0  0  0  0  0
    8.5530    2.2920  -57.6690 C   0  0  0  0  0  0  0  0  0  0  0  0
    7.2770    1.8920  -57.4980 N   0  0  0  0  0  0  0  0  0  0  0  0
    6.9610    1.2040  -56.3820 C   0  0  0  0  0  0  0  0  0  0  0  0
    5.6530    0.8410  -56.3370 O   0  0  0  0  0  0  0  0  0  0  0  0
    8.8380    3.0130  -58.9560 C   0  0  0  0  0  0  0  0  0  0  0  0
   10.1300    3.8130  -58.8930 C   0  0  0  0  0  0  0  0  0  0  0  0
   11.2440    2.9260  -58.3810 N   0  0  1  0  0  0  0  0  0  0  0  0
   12.5950    3.5620  -58.5230 C   0  0  0  0  0  0  0  0  0  0  0  0
   10.9660    2.4880  -56.9640 C   0  0  0  0  0  0  0  0  0  0  0  0
    8.2120   -0.8150  -53.3860 C   0  0  0  0  0  0  0  0  0  0  0  0
   11.1129   -2.5214  -51.5004 H   0  0  0  0  0  0  0  0  0  0  0  0
   11.7282   -3.3324  -52.9803 H   0  0  0  0  0  0  0  0  0  0  0  0
   11.4442   -1.5587  -52.9803 H   0  0  0  0  0  0  0  0  0  0  0  0
    9.3571   -3.7039  -52.5948 H   0  0  0  0  0  0  0  0  0  0  0  0
    9.3308   -4.0080  -54.7936 H   0  0  0  0  0  0  0  0  0  0  0  0
    8.7208   -2.2730  -54.9221 H   0  0  0  0  0  0  0  0  0  0  0  0
   10.4655   -1.7309  -56.1000 H   0  0  0  0  0  0  0  0  0  0  0  0
   11.5247   -2.2383  -54.6767 H   0  0  0  0  0  0  0  0  0  0  0  0
    9.7892   -5.0957  -56.0973 H   0  0  0  0  0  0  0  0  0  0  0  0
    9.6854   -3.9935  -57.5231 H   0  0  0  0  0  0  0  0  0  0  0  0
   10.2682   -6.3163  -58.2223 H   0  0  0  0  0  0  0  0  0  0  0  0
   11.4194   -6.9828  -56.1039 H   0  0  0  0  0  0  0  0  0  0  0  0
   12.4696   -7.2624  -57.5405 H   0  0  0  0  0  0  0  0  0  0  0  0
   13.7723   -6.1743  -55.6707 H   0  0  0  0  0  0  0  0  0  0  0  0
   11.8200   -5.0344  -54.6211 H   0  0  0  0  0  0  0  0  0  0  0  0
   13.1593   -3.8773  -54.9864 H   0  0  0  0  0  0  0  0  0  0  0  0
   14.2940   -5.7338  -58.0769 H   0  0  0  0  0  0  0  0  0  0  0  0
   14.8312   -3.5296  -56.1013 H   0  0  0  0  0  0  0  0  0  0  0  0
   15.8995   -4.8555  -56.6735 H   0  0  0  0  0  0  0  0  0  0  0  0
   16.5480   -3.3950  -58.0330 H   0  0  0  0  0  0  0  0  0  0  0  0
   13.4931   -3.5582  -59.0747 H   0  0  0  0  0  0  0  0  0  0  0  0
   11.1442   -4.3636  -59.5052 H   0  0  0  0  0  0  0  0  0  0  0  0
   12.3079   -5.7378  -59.5221 H   0  0  0  0  0  0  0  0  0  0  0  0
   12.9925   -2.3428  -56.9790 H   0  0  0  0  0  0  0  0  0  0  0  0
   11.5296   -2.4295  -58.0404 H   0  0  0  0  0  0  0  0  0  0  0  0
    6.7986   -2.7068  -52.5638 H   0  0  0  0  0  0  0  0  0  0  0  0
    7.3429   -2.4958  -51.0197 H   0  0  0  0  0  0  0  0  0  0  0  0
    6.9514    0.0609  -51.3194 H   0  0  0  0  0  0  0  0  0  0  0  0
    5.6203   -0.9586  -53.7974 H   0  0  0  0  0  0  0  0  0  0  0  0
    5.4227    0.5934  -53.2986 H   0  0  0  0  0  0  0  0  0  0  0  0
    9.9808    1.0633  -54.8387 H   0  0  0  0  0  0  0  0  0  0  0  0
    5.3340    0.7010  -57.2430 H   0  0  0  0  0  0  0  0  0  0  0  0
    8.9187    2.2732  -59.7660 H   0  0  0  0  0  0  0  0  0  0  0  0
    8.0132    3.7177  -59.1378 H   0  0  0  0  0  0  0  0  0  0  0  0
   10.3847    4.1791  -59.8985 H   0  0  0  0  0  0  0  0  0  0  0  0
   10.0001    4.6693  -58.2149 H   0  0  0  0  0  0  0  0  0  0  0  0
   11.2520    2.0740  -58.9590 H   0  0  0  0  0  0  0  0  0  0  0  0
   13.0141    3.7593  -57.5253 H   0  0  0  0  0  0  0  0  0  0  0  0
   13.2634    2.8840  -59.0739 H   0  0  0  0  0  0  0  0  0  0  0  0
   12.4983    4.5092  -59.0739 H   0  0  0  0  0  0  0  0  0  0  0  0
   11.6594    1.6730  -56.7091 H   0  0  0  0  0  0  0  0  0  0  0  0
   11.1033    3.3692  -56.3201 H   0  0  0  0  0  0  0  0  0  0  0  0
  1  2  1  0
  2  3  1  0
  3  4  1  0
  5  4  1  1
  5  6  1  0
  6  7  1  0
  7  8  1  0
  8  9  1  0
  9 10  1  0
  9 11  1  0
 11 12  1  0
 12 13  1  0
 11 14  1  0
 14 15  1  0
 14 16  1  0
  2 17  1  0
 17 18  1  0
 18 19  1  0
 19 20  1  0
 20 21  1  0
 21 22  1  0
 22 23  2  0
 23 24  1  0
 24 25  2  0
 25 26  1  0
 26 27  2  0
 27 28  1  0
 25 29  1  0
 29 30  1  0
 30 31  1  0
 31 32  1  0
 31 33  1  0
 21 34  2  0
 10  5  1  0
 34 17  1  0
 16  5  1  0
 34 19  1  0
 15  7  1  0
 27 22  1  0
 33 24  1  0
  1 35  1  0
  1 36  1  0
  1 37  1  0
  2 38  1  1
  3 39  1  0
  3 40  1  0
  4 41  1  0
  4 42  1  0
  6 43  1  0
  6 44  1  0
  7 45  1  6
  8 46  1  0
  8 47  1  0
  9 48  1  1
 10 49  1  0
 10 50  1  0
 11 51  1  6
 12 52  1  0
 12 53  1  0
 13 54  1  0
 14 55  1  6
 15 56  1  0
 15 57  1  0
 16 58  1  0
 16 59  1  0
 18 60  1  0
 18 61  1  0
 19 62  1  1
 20 63  1  0
 20 64  1  0
 23 65  1  0
 28 66  1  0
 29 67  1  0
 29 68  1  0
 30 69  1  0
 30 70  1  0
 31 71  1  6
 32 72  1  0
 32 73  1  0
 32 74  1  0
 33 75  1  0
 33 76  1  0
M  CHG  1  31   1
M  END
>  <meeko>  (172) 
{"is_sidechain": false}

$$$$

     RDKit          3D

 76 82  0  0  0  0  0  0  0  0999 V2000
    9.7530   -2.3060  -52.2350 C   0  0  0  0  0  0  0  0  0  0  0  0
    9.7120   -1.3870  -53.4600 C   0  0  1  0  0  0  0  0  0  0  0  0
   10.1510   -2.1130  -54.7500 C   0  0  0  0  0  0  0  0  0  0  0  0
   11.0260   -3.3540  -54.5070 C   0  0  0  0  0  0  0  0  0  0  0  0
   11.5570   -4.0890  -55.7670 C   0  0  2  0  0  0  0  0  0  0  0  0
   10.4350   -4.8230  -56.5410 C   0  0  0  0  0  0  0  0  0  0  0  0
   10.9970   -5.4920  -57.8080 C   0  0  2  0  0  0  0  0  0  0  0  0
   12.0810   -6.5050  -57.4050 C   0  0  0  0  0  0  0  0  0  0  0  0
   13.2300   -5.7880  -56.6670 C   0  0  2  0  0  0  0  0  0  0  0  0
   12.6560   -5.1210  -55.4010 C   0  0  0  0  0  0  0  0  0  0  0  0
   13.8470   -4.7320  -57.6180 C   0  0  2  0  0  0  0  0  0  0  0  0
   15.1170   -4.0750  -57.0610 C   0  0  0  0  0  0  0  0  0  0  0  0
   15.5120   -2.9790  -57.8770 O   0  0  0  0  0  0  0  0  0  0  0  0
   12.7590   -3.6960  -57.9860 C   0  0  1  0  0  0  0  0  0  0  0  0
   11.6130   -4.4190  -58.7200 C   0  0  0  0  0  0  0  0  0  0  0  0
   12.1830   -3.0330  -56.7210 C   0  0  0  0  0  0  0  0  0  0  0  0
    8.3820   -0.8070  -53.6670 N   0  0  0  0  0  0  0  0  0  0  0  0
    7.2320   -1.6330  -53.8840 C   0  0  0  0  0  0  0  0  0  0  0  0
    6.5240   -0.3370  -54.2410 C   0  0  2  0  0  0  0  0  0  0  0  0
    6.2770   -0.0360  -55.7040 C   0  0  0  0  0  0  0  0  0  0  0  0
    7.5220    0.8190  -55.5680 C   0  0  0  0  0  0  0  0  0  0  0  0
    8.0980    1.9530  -56.4660 C   0  0  0  0  0  0  0  0  0  0  0  0
    9.4820    2.0820  -56.5730 C   0  0  0  0  0  0  0  0  0  0  0  0
   10.0070    3.0810  -57.3950 C   0  0  0  0  0  0  0  0  0  0  0  0
    9.1210    3.9280  -58.0600 C   0  0  0  0  0  0  0  0  0  0  0  0
    7.7810    3.8220  -57.9730 N   0  0  0  0  0  0  0  0  0  0  0  0
    7.3050    2.8380  -57.1810 C   0  0  0  0  0  0  0  0  0  0  0  0
    5.9550    2.8060  -57.1520 O   0  0  0  0  0  0  0  0  0  0  0  0
    9.7000    5.0110  -58.9250 C   0  0  0  0  0  0  0  0  0  0  0  0
   10.7990    4.4240  -59.8050 C   0  0  0  0  0  0  0  0  0  0  0  0
   11.8210    3.5940  -59.0260 N   0  0  1  0  0  0  0  0  0  0  0  0
   13.2240    4.1080  -59.1740 C   0  0  0  0  0  0  0  0  0  0  0  0
   11.4680    3.3250  -57.5760 C   0  0  0  0  0  0  0  0  0  0  0  0
    8.0530    0.0420  -54.5950 C   0  0  0  0  0  0  0  0  0  0  0  0
    9.7259   -1.6975  -51.3190 H   0  0  0  0  0  0  0  0  0  0  0  0
    8.8840   -2.9802  -52.2532 H   0  0  0  0  0  0  0  0  0  0  0  0
   10.6785   -2.9002  -52.2532 H   0  0  0  0  0  0  0  0  0  0  0  0
   10.4270   -0.5785  -53.2477 H   0  0  0  0  0  0  0  0  0  0  0  0
    9.2478   -2.4284  -55.2930 H   0  0  0  0  0  0  0  0  0  0  0  0
   10.7640   -1.4004  -55.3213 H   0  0  0  0  0  0  0  0  0  0  0  0
   11.8966   -3.0373  -53.9140 H   0  0  0  0  0  0  0  0  0  0  0  0
   10.3679   -4.0785  -54.0050 H   0  0  0  0  0  0  0  0  0  0  0  0
    9.9926   -5.5930  -55.8919 H   0  0  0  0  0  0  0  0  0  0  0  0
    9.6710   -4.0892  -56.8374 H   0  0  0  0  0  0  0  0  0  0  0  0
   10.1884   -6.0093  -58.3451 H   0  0  0  0  0  0  0  0  0  0  0  0
   11.6407   -7.2642  -56.7418 H   0  0  0  0  0  0  0  0  0  0  0  0
   12.4796   -6.9846  -58.3111 H   0  0  0  0  0  0  0  0  0  0  0  0
   14.0161   -6.4980  -56.3705 H   0  0  0  0  0  0  0  0  0  0  0  0
   12.2208   -5.8953  -54.7521 H   0  0  0  0  0  0  0  0  0  0  0  0
   13.4708   -4.5962  -54.8808 H   0  0  0  0  0  0  0  0  0  0  0  0
   14.1852   -5.2458  -58.5299 H   0  0  0  0  0  0  0  0  0  0  0  0
   14.9197   -3.7137  -56.0409 H   0  0  0  0  0  0  0  0  0  0  0  0
   15.9265   -4.8197  -57.0506 H   0  0  0  0  0  0  0  0  0  0  0  0
   15.0800   -2.1810  -57.5240 H   0  0  0  0  0  0  0  0  0  0  0  0
   13.2117   -2.9219  -58.6231 H   0  0  0  0  0  0  0  0  0  0  0  0
   10.8390   -3.6878  -58.9960 H   0  0  0  0  0  0  0  0  0  0  0  0
   12.0118   -4.9007  -59.6249 H   0  0  0  0  0  0  0  0  0  0  0  0
   12.9913   -2.5065  -56.1923 H   0  0  0  0  0  0  0  0  0  0  0  0
   11.3949   -2.3286  -57.0255 H   0  0  0  0  0  0  0  0  0  0  0  0
    7.3252   -2.3566  -54.7073 H   0  0  0  0  0  0  0  0  0  0  0  0
    6.8490   -2.3344  -53.1281 H   0  0  0  0  0  0  0  0  0  0  0  0
    5.6781   -0.0531  -53.5976 H   0  0  0  0  0  0  0  0  0  0  0  0
    6.3656   -0.8953  -56.3850 H   0  0  0  0  0  0  0  0  0  0  0  0
    5.3200    0.3381  -56.0967 H   0  0  0  0  0  0  0  0  0  0  0  0
   10.1502    1.4070  -56.0182 H   0  0  0  0  0  0  0  0  0  0  0  0
    5.7600    3.4140  -56.4210 H   0  0  0  0  0  0  0  0  0  0  0  0
    8.9087    5.4355  -59.5604 H   0  0  0  0  0  0  0  0  0  0  0  0
   10.1226    5.8026  -58.2887 H   0  0  0  0  0  0  0  0  0  0  0  0
   10.3314    3.7792  -60.5637 H   0  0  0  0  0  0  0  0  0  0  0  0
   11.3412    5.2687  -60.2551 H   0  0  0  0  0  0  0  0  0  0  0  0
   11.8080    2.6680  -59.4730 H   0  0  0  0  0  0  0  0  0  0  0  0
   13.6626    4.2687  -58.1781 H   0  0  0  0  0  0  0  0  0  0  0  0
   13.8276    3.3726  -59.7262 H   0  0  0  0  0  0  0  0  0  0  0  0
   13.2097    5.0593  -59.7262 H   0  0  0  0  0  0  0  0  0  0  0  0
   12.0217    2.4383  -57.2338 H   0  0  0  0  0  0  0  0  0  0  0  0
   11.7405    4.2140  -56.9882 H   0  0  0  0  0  0  0  0  0  0  0  0
  1  2  1  0
  2  3  1  0
  3  4  1  0
  5  4  1  1
  5  6  1  0
  6  7  1  0
  7  8  1  0
  8  9  1  0
  9 10  1  0
  9 11  1  0
 11 12  1  0
 12 13  1  0
 11 14  1  0
 14 15  1  0
 14 16  1  0
  2 17  1  0
 17 18  1  0
 18 19  1  0
 19 20  1  0
 20 21  1  0
 21 22  1  0
 22 23  2  0
 23 24  1  0
 24 25  2  0
 25 26  1  0
 26 27  2  0
 27 28  1  0
 25 29  1  0
 29 30  1  0
 30 31  1  0
 31 32  1  0
 31 33  1  0
 21 34  2  0
 10  5  1  0
 34 17  1  0
 16  5  1  0
 34 19  1  0
 15  7  1  0
 27 22  1  0
 33 24  1  0
  1 35  1  0
  1 36  1  0
  1 37  1  0
  2 38  1  1
  3 39  1  0
  3 40  1  0
  4 41  1  0
  4 42  1  0
  6 43  1  0
  6 44  1  0
  7 45  1  6
  8 46  1  0
  8 47  1  0
  9 48  1  1
 10 49  1  0
 10 50  1  0
 11 51  1  6
 12 52  1  0
 12 53  1  0
 13 54  1  0
 14 55  1  6
 15 56  1  0
 15 57  1  0
 16 58  1  0
 16 59  1  0
 18 60  1  0
 18 61  1  0
 19 62  1  1
 20 63  1  0
 20 64  1  0
 23 65  1  0
 28 66  1  0
 29 67  1  0
 29 68  1  0
 30 69  1  0
 30 70  1  0
 31 71  1  6
 32 72  1  0
 32 73  1  0
 32 74  1  0
 33 75  1  0
 33 76  1  0
M  CHG  1  31   1
M  END
>  <meeko>  (173) 
{"is_sidechain": false}

$$$$

     RDKit          3D

 76 82  0  0  0  0  0  0  0  0999 V2000
   10.4650   -1.1320  -53.4780 C   0  0  0  0  0  0  0  0  0  0  0  0
    9.5050   -2.2800  -53.1410 C   0  0  2  0  0  0  0  0  0  0  0  0
   10.0000   -3.6160  -53.7460 C   0  0  0  0  0  0  0  0  0  0  0  0
    9.6880   -3.7570  -55.2440 C   0  0  0  0  0  0  0  0  0  0  0  0
   10.8660   -4.2180  -56.1400 C   0  0  2  0  0  0  0  0  0  0  0  0
   10.4040   -5.1890  -57.2540 C   0  0  0  0  0  0  0  0  0  0  0  0
   11.5860   -5.5760  -58.1610 C   0  0  2  0  0  0  0  0  0  0  0  0
   12.6680   -6.2600  -57.3110 C   0  0  0  0  0  0  0  0  0  0  0  0
   13.1730   -5.2980  -56.2200 C   0  0  2  0  0  0  0  0  0  0  0  0
   11.9820   -4.9140  -55.3170 C   0  0  0  0  0  0  0  0  0  0  0  0
   13.7580   -4.0110  -56.8450 C   0  0  1  0  0  0  0  0  0  0  0  0
   15.0740   -4.2660  -57.5930 C   0  0  0  0  0  0  0  0  0  0  0  0
   15.6560   -3.0220  -57.9610 O   0  0  0  0  0  0  0  0  0  0  0  0
   12.6700   -3.3430  -57.7240 C   0  0  1  0  0  0  0  0  0  0  0  0
   12.1640   -4.3100  -58.8090 C   0  0  0  0  0  0  0  0  0  0  0  0
   11.4810   -2.9620  -56.8210 C   0  0  0  0  0  0  0  0  0  0  0  0
    8.1570   -1.9990  -53.6830 N   0  0  0  0  0  0  0  0  0  0  0  0
    7.0090   -2.0550  -52.7480 C   0  0  0  0  0  0  0  0  0  0  0  0
    7.0500   -0.5200  -52.6670 C   0  0  2  0  0  0  0  0  0  0  0  0
    6.2540    0.4410  -53.5800 C   0  0  0  0  0  0  0  0  0  0  0  0
    7.4900    0.3800  -54.5080 C   0  0  0  0  0  0  0  0  0  0  0  0
    7.9160    1.1490  -55.7720 C   0  0  0  0  0  0  0  0  0  0  0  0
    9.2630    1.4190  -55.9910 C   0  0  0  0  0  0  0  0  0  0  0  0
    9.6490    2.1070  -57.1470 C   0  0  0  0  0  0  0  0  0  0  0  0
    8.6530    2.4810  -58.0530 C   0  0  0  0  0  0  0  0  0  0  0  0
    7.3380    2.2300  -57.8500 N   0  0  0  0  0  0  0  0  0  0  0  0
    7.0070    1.5690  -56.7240 C   0  0  0  0  0  0  0  0  0  0  0  0
    5.6750    1.3520  -56.6020 O   0  0  0  0  0  0  0  0  0  0  0  0
    8.9820    3.2580  -59.2990 C   0  0  0  0  0  0  0  0  0  0  0  0
   10.4520    3.1560  -59.6840 C   0  0  0  0  0  0  0  0  0  0  0  0
   11.3510    3.3940  -58.4910 N   0  0  1  0  0  0  0  0  0  0  0  0
   11.3180    4.8030  -57.9670 C   0  0  0  0  0  0  0  0  0  0  0  0
   11.0990    2.3570  -57.4230 C   0  0  0  0  0  0  0  0  0  0  0  0
    7.7420   -0.8210  -53.9920 C   0  0  0  0  0  0  0  0  0  0  0  0
   10.8406   -0.6828  -52.5468 H   0  0  0  0  0  0  0  0  0  0  0  0
   11.3104   -1.5211  -54.0644 H   0  0  0  0  0  0  0  0  0  0  0  0
    9.9324   -0.3688  -54.0644 H   0  0  0  0  0  0  0  0  0  0  0  0
    9.4661   -2.3643  -52.0449 H   0  0  0  0  0  0  0  0  0  0  0  0
   11.0896   -3.6790  -53.6088 H   0  0  0  0  0  0  0  0  0  0  0  0
    9.4692   -4.4263  -53.2248 H   0  0  0  0  0  0  0  0  0  0  0  0
    8.8755   -4.4907  -55.3515 H   0  0  0  0  0  0  0  0  0  0  0  0
    9.4281   -2.7459  -55.5906 H   0  0  0  0  0  0  0  0  0  0  0  0
    9.9900   -6.0977  -56.7925 H   0  0  0  0  0  0  0  0  0  0  0  0
    9.6378   -4.6889  -57.8646 H   0  0  0  0  0  0  0  0  0  0  0  0
   11.2444   -6.2650  -58.9475 H   0  0  0  0  0  0  0  0  0  0  0  0
   12.2442   -7.1574  -56.8366 H   0  0  0  0  0  0  0  0  0  0  0  0
   13.5104   -6.5411  -57.9601 H   0  0  0  0  0  0  0  0  0  0  0  0
   13.9635   -5.7985  -55.6416 H   0  0  0  0  0  0  0  0  0  0  0  0
   11.5734   -5.8239  -54.8533 H   0  0  0  0  0  0  0  0  0  0  0  0
   12.3369   -4.2158  -54.5447 H   0  0  0  0  0  0  0  0  0  0  0  0
   14.0333   -3.3104  -56.0429 H   0  0  0  0  0  0  0  0  0  0  0  0
   15.7669   -4.8165  -56.9397 H   0  0  0  0  0  0  0  0  0  0  0  0
   14.8740   -4.8601  -58.4969 H   0  0  0  0  0  0  0  0  0  0  0  0
   14.9250   -2.3960  -58.1040 H   0  0  0  0  0  0  0  0  0  0  0  0
   13.1043   -2.4581  -58.2123 H   0  0  0  0  0  0  0  0  0  0  0  0
   11.3805   -3.8144  -59.4011 H   0  0  0  0  0  0  0  0  0  0  0  0
   13.0046   -4.5912  -59.4604 H   0  0  0  0  0  0  0  0  0  0  0  0
   11.8297   -2.2668  -56.0431 H   0  0  0  0  0  0  0  0  0  0  0  0
   10.7074   -2.4903  -57.4447 H   0  0  0  0  0  0  0  0  0  0  0  0
    6.0858   -2.4627  -53.1855 H   0  0  0  0  0  0  0  0  0  0  0  0
    7.0442   -2.6743  -51.8396 H   0  0  0  0  0  0  0  0  0  0  0  0
    7.1095   -0.1301  -51.6401 H   0  0  0  0  0  0  0  0  0  0  0  0
    5.3297    0.0229  -54.0052 H   0  0  0  0  0  0  0  0  0  0  0  0
    5.8236    1.3872  -53.2201 H   0  0  0  0  0  0  0  0  0  0  0  0
   10.0191    1.0942  -55.2610 H   0  0  0  0  0  0  0  0  0  0  0  0
    5.6670    0.5220  -56.0950 H   0  0  0  0  0  0  0  0  0  0  0  0
    8.3732    2.8680  -60.1280 H   0  0  0  0  0  0  0  0  0  0  0  0
    8.7639    4.3172  -59.0975 H   0  0  0  0  0  0  0  0  0  0  0  0
   10.6482    2.1509  -60.0855 H   0  0  0  0  0  0  0  0  0  0  0  0
   10.6670    3.9260  -60.4395 H   0  0  0  0  0  0  0  0  0  0  0  0
   12.3150    3.2400  -58.8150 H   0  0  0  0  0  0  0  0  0  0  0  0
   11.3184    4.7853  -56.8671 H   0  0  0  0  0  0  0  0  0  0  0  0
   12.2036    5.3483  -58.3253 H   0  0  0  0  0  0  0  0  0  0  0  0
   10.4078    5.3062  -58.3253 H   0  0  0  0  0  0  0  0  0  0  0  0
   11.5581    1.4105  -57.7447 H   0  0  0  0  0  0  0  0  0  0  0  0
   11.5377    2.7457  -56.4922 H   0  0  0  0  0  0  0  0  0  0  0  0
  1  2  1  0
  2  3  1  0
  3  4  1  0
  5  4  1  1
  5  6  1  0
  6  7  1  0
  7  8  1  0
  8  9  1  0
  9 10  1  0
  9 11  1  0
 11 12  1  0
 12 13  1  0
 11 14  1  0
 14 15  1  0
 14 16  1  0
  2 17  1  0
 17 18  1  0
 18 19  1  0
 19 20  1  0
 20 21  1  0
 21 22  1  0
 22 23  2  0
 23 24  1  0
 24 25  2  0
 25 26  1  0
 26 27  2  0
 27 28  1  0
 25 29  1  0
 29 30  1  0
 30 31  1  0
 31 32  1  0
 31 33  1  0
 21 34  2  0
 10  5  1  0
 34 17  1  0
 16  5  1  0
 34 19  1  0
 15  7  1  0
 27 22  1  0
 33 24  1  0
  1 35  1  0
  1 36  1  0
  1 37  1  0
  2 38  1  1
  3 39  1  0
  3 40  1  0
  4 41  1  0
  4 42  1  0
  6 43  1  0
  6 44  1  0
  7 45  1  6
  8 46  1  0
  8 47  1  0
  9 48  1  1
 10 49  1  0
 10 50  1  0
 11 51  1  1
 12 52  1  0
 12 53  1  0
 13 54  1  0
 14 55  1  6
 15 56  1  0
 15 57  1  0
 16 58  1  0
 16 59  1  0
 18 60  1  0
 18 61  1  0
 19 62  1  1
 20 63  1  0
 20 64  1  0
 23 65  1  0
 28 66  1  0
 29 67  1  0
 29 68  1  0
 30 69  1  0
 30 70  1  0
 31 71  1  6
 32 72  1  0
 32 73  1  0
 32 74  1  0
 33 75  1  0
 33 76  1  0
M  CHG  1  31   1
M  END
>  <meeko>  (174) 
{"is_sidechain": false}

$$$$

     RDKit          3D

 76 82  0  0  0  0  0  0  0  0999 V2000
    9.3780   -2.6370  -52.3460 C   0  0  0  0  0  0  0  0  0  0  0  0
    9.4730   -1.3850  -53.2200 C   0  0  1  0  0  0  0  0  0  0  0  0
    9.9700   -1.7300  -54.6420 C   0  0  0  0  0  0  0  0  0  0  0  0
    9.7540   -3.2180  -54.9880 C   0  0  0  0  0  0  0  0  0  0  0  0
   10.8130   -3.8570  -55.9300 C   0  0  2  0  0  0  0  0  0  0  0  0
   10.1590   -4.9180  -56.8520 C   0  0  0  0  0  0  0  0  0  0  0  0
   11.2180   -5.5900  -57.7430 C   0  0  2  0  0  0  0  0  0  0  0  0
   12.2720   -6.2730  -56.8570 C   0  0  0  0  0  0  0  0  0  0  0  0
   12.9650   -5.2340  -55.9590 C   0  0  2  0  0  0  0  0  0  0  0  0
   11.8910   -4.5730  -55.0690 C   0  0  0  0  0  0  0  0  0  0  0  0
   13.6570   -4.1370  -56.8060 C   0  0  1  0  0  0  0  0  0  0  0  0
   14.8690   -4.6640  -57.5840 C   0  0  0  0  0  0  0  0  0  0  0  0
   15.6560   -3.5720  -58.0930 O   0  0  0  0  0  0  0  0  0  0  0  0
   12.5930   -3.4790  -57.7140 C   0  0  1  0  0  0  0  0  0  0  0  0
   11.8960   -4.5180  -58.6090 C   0  0  0  0  0  0  0  0  0  0  0  0
   11.5310   -2.8100  -56.8160 C   0  0  0  0  0  0  0  0  0  0  0  0
    8.1830   -0.6950  -53.2090 N   0  0  0  0  0  0  0  0  0  0  0  0
    6.9190   -1.3670  -53.0670 C   0  0  0  0  0  0  0  0  0  0  0  0
    6.3010   -0.0540  -53.5270 C   0  0  2  0  0  0  0  0  0  0  0  0
    5.8220    0.0730  -54.9650 C   0  0  0  0  0  0  0  0  0  0  0  0
    7.1650    0.7380  -55.1790 C   0  0  0  0  0  0  0  0  0  0  0  0
    7.7860    1.5470  -56.3470 C   0  0  0  0  0  0  0  0  0  0  0  0
    9.0540    2.0940  -56.1820 C   0  0  0  0  0  0  0  0  0  0  0  0
    9.6940    2.6920  -57.2710 C   0  0  0  0  0  0  0  0  0  0  0  0
    8.9990    2.7660  -58.4810 C   0  0  0  0  0  0  0  0  0  0  0  0
    7.7440    2.2790  -58.6430 N   0  0  0  0  0  0  0  0  0  0  0  0
    7.1750    1.6810  -57.5770 C   0  0  0  0  0  0  0  0  0  0  0  0
    5.9450    1.1810  -57.8370 O   0  0  0  0  0  0  0  0  0  0  0  0
    9.6650    3.2930  -59.7220 C   0  0  0  0  0  0  0  0  0  0  0  0
   10.8890    4.1450  -59.4190 C   0  0  0  0  0  0  0  0  0  0  0  0
   11.7850    3.4310  -58.4410 N   0  0  1  0  0  0  0  0  0  0  0  0
   13.1160    4.0930  -58.2750 C   0  0  0  0  0  0  0  0  0  0  0  0
   11.0860    3.2250  -57.1260 C   0  0  0  0  0  0  0  0  0  0  0  0
    7.7630    0.0360  -54.1940 C   0  0  0  0  0  0  0  0  0  0  0  0
    9.4001   -2.3463  -51.2853 H   0  0  0  0  0  0  0  0  0  0  0  0
    8.4372   -3.1645  -52.5621 H   0  0  0  0  0  0  0  0  0  0  0  0
   10.2284   -3.3004  -52.5621 H   0  0  0  0  0  0  0  0  0  0  0  0
   10.2249   -0.6962  -52.8075 H   0  0  0  0  0  0  0  0  0  0  0  0
    9.4207   -1.1136  -55.3689 H   0  0  0  0  0  0  0  0  0  0  0  0
   11.0503   -1.5267  -54.6815 H   0  0  0  0  0  0  0  0  0  0  0  0
    9.7540   -3.7864  -54.0462 H   0  0  0  0  0  0  0  0  0  0  0  0
    8.8023   -3.2605  -55.5379 H   0  0  0  0  0  0  0  0  0  0  0  0
    9.6703   -5.6837  -56.2316 H   0  0  0  0  0  0  0  0  0  0  0  0
    9.4192   -4.4198  -57.4958 H   0  0  0  0  0  0  0  0  0  0  0  0
   10.7399   -6.3422  -58.3877 H   0  0  0  0  0  0  0  0  0  0  0  0
   11.7817   -7.0291  -56.2262 H   0  0  0  0  0  0  0  0  0  0  0  0
   13.0256   -6.7516  -57.4997 H   0  0  0  0  0  0  0  0  0  0  0  0
   13.7312   -5.7388  -55.3523 H   0  0  0  0  0  0  0  0  0  0  0  0
   11.4056   -5.3473  -54.4568 H   0  0  0  0  0  0  0  0  0  0  0  0
   12.3805   -3.8242  -54.4290 H   0  0  0  0  0  0  0  0  0  0  0  0
   14.0781   -3.3723  -56.1368 H   0  0  0  0  0  0  0  0  0  0  0  0
   15.4905   -5.2765  -56.9142 H   0  0  0  0  0  0  0  0  0  0  0  0
   14.5122   -5.2695  -58.4302 H   0  0  0  0  0  0  0  0  0  0  0  0
   16.5690   -3.9250  -58.0610 H   0  0  0  0  0  0  0  0  0  0  0  0
   13.0922   -2.7431  -58.3615 H   0  0  0  0  0  0  0  0  0  0  0  0
   11.1370   -4.0156  -59.2266 H   0  0  0  0  0  0  0  0  0  0  0  0
   12.6460   -4.9980  -59.2549 H   0  0  0  0  0  0  0  0  0  0  0  0
   12.0226   -2.0682  -56.1693 H   0  0  0  0  0  0  0  0  0  0  0  0
   10.7831   -2.3248  -57.4604 H   0  0  0  0  0  0  0  0  0  0  0  0
    6.7648   -2.2179  -53.7469 H   0  0  0  0  0  0  0  0  0  0  0  0
    6.6161   -1.8736  -52.1388 H   0  0  0  0  0  0  0  0  0  0  0  0
    5.6244    0.4355  -52.8110 H   0  0  0  0  0  0  0  0  0  0  0  0
    5.6740   -0.8768  -55.4998 H   0  0  0  0  0  0  0  0  0  0  0  0
    4.8627    0.5292  -55.2507 H   0  0  0  0  0  0  0  0  0  0  0  0
    9.5499    2.0562  -55.2008 H   0  0  0  0  0  0  0  0  0  0  0  0
    5.7410    0.7430  -56.9920 H   0  0  0  0  0  0  0  0  0  0  0  0
    9.9758    2.4400  -60.3431 H   0  0  0  0  0  0  0  0  0  0  0  0
    8.9369    3.9330  -60.2418 H   0  0  0  0  0  0  0  0  0  0  0  0
   11.4427    4.3315  -60.3510 H   0  0  0  0  0  0  0  0  0  0  0  0
   10.5643    5.1000  -58.9802 H   0  0  0  0  0  0  0  0  0  0  0  0
   11.9930    2.4810  -58.8260 H   0  0  0  0  0  0  0  0  0  0  0  0
   13.3392    4.2040  -57.2036 H   0  0  0  0  0  0  0  0  0  0  0  0
   13.8938    3.4767  -58.7497 H   0  0  0  0  0  0  0  0  0  0  0  0
   13.0938    5.0851  -58.7497 H   0  0  0  0  0  0  0  0  0  0  0  0
   11.6720    2.5122  -56.5272 H   0  0  0  0  0  0  0  0  0  0  0  0
   11.0086    4.2093  -56.6410 H   0  0  0  0  0  0  0  0  0  0  0  0
  1  2  1  0
  2  3  1  0
  3  4  1  0
  5  4  1  1
  5  6  1  0
  6  7  1  0
  7  8  1  0
  8  9  1  0
  9 10  1  0
  9 11  1  0
 11 12  1  0
 12 13  1  0
 11 14  1  0
 14 15  1  0
 14 16  1  0
  2 17  1  0
 17 18  1  0
 18 19  1  0
 19 20  1  0
 20 21  1  0
 21 22  1  0
 22 23  2  0
 23 24  1  0
 24 25  2  0
 25 26  1  0
 26 27  2  0
 27 28  1  0
 25 29  1  0
 29 30  1  0
 30 31  1  0
 31 32  1  0
 31 33  1  0
 21 34  2  0
 10  5  1  0
 34 17  1  0
 16  5  1  0
 34 19  1  0
 15  7  1  0
 27 22  1  0
 33 24  1  0
  1 35  1  0
  1 36  1  0
  1 37  1  0
  2 38  1  1
  3 39  1  0
  3 40  1  0
  4 41  1  0
  4 42  1  0
  6 43  1  0
  6 44  1  0
  7 45  1  6
  8 46  1  0
  8 47  1  0
  9 48  1  1
 10 49  1  0
 10 50  1  0
 11 51  1  1
 12 52  1  0
 12 53  1  0
 13 54  1  0
 14 55  1  6
 15 56  1  0
 15 57  1  0
 16 58  1  0
 16 59  1  0
 18 60  1  0
 18 61  1  0
 19 62  1  1
 20 63  1  0
 20 64  1  0
 23 65  1  0
 28 66  1  0
 29 67  1  0
 29 68  1  0
 30 69  1  0
 30 70  1  0
 31 71  1  6
 32 72  1  0
 32 73  1  0
 32 74  1  0
 33 75  1  0
 33 76  1  0
M  CHG  1  31   1
M  END
>  <meeko>  (175) 
{"is_sidechain": false}

$$$$

     RDKit          3D

 76 82  0  0  0  0  0  0  0  0999 V2000
    9.2910   -2.9610  -52.1160 C   0  0  0  0  0  0  0  0  0  0  0  0
    8.6850   -3.1280  -53.5150 C   0  0  2  0  0  0  0  0  0  0  0  0
    9.6520   -2.6210  -54.6120 C   0  0  0  0  0  0  0  0  0  0  0  0
   11.0720   -3.1950  -54.4930 C   0  0  0  0  0  0  0  0  0  0  0  0
   11.5840   -3.9900  -55.7230 C   0  0  2  0  0  0  0  0  0  0  0  0
   10.4350   -4.7240  -56.4580 C   0  0  0  0  0  0  0  0  0  0  0  0
   10.9670   -5.4530  -57.7060 C   0  0  2  0  0  0  0  0  0  0  0  0
   12.0290   -6.4780  -57.2750 C   0  0  0  0  0  0  0  0  0  0  0  0
   13.2020   -5.7640  -56.5720 C   0  0  2  0  0  0  0  0  0  0  0  0
   12.6560   -5.0380  -55.3270 C   0  0  0  0  0  0  0  0  0  0  0  0
   13.8380   -4.7600  -57.5670 C   0  0  2  0  0  0  0  0  0  0  0  0
   15.1300   -4.1160  -57.0420 C   0  0  0  0  0  0  0  0  0  0  0  0
   15.5220   -3.0320  -57.8740 O   0  0  0  0  0  0  0  0  0  0  0  0
   12.7740   -3.7110  -57.9640 C   0  0  1  0  0  0  0  0  0  0  0  0
   11.6030   -4.4300  -58.6620 C   0  0  0  0  0  0  0  0  0  0  0  0
   12.2270   -2.9870  -56.7210 C   0  0  0  0  0  0  0  0  0  0  0  0
    7.4170   -2.3840  -53.6050 N   0  0  0  0  0  0  0  0  0  0  0  0
    6.7400   -1.9570  -52.4080 C   0  0  0  0  0  0  0  0  0  0  0  0
    5.9620   -1.0260  -53.3150 C   0  0  1  0  0  0  0  0  0  0  0  0
    6.3400    0.4430  -53.3210 C   0  0  0  0  0  0  0  0  0  0  0  0
    7.1010    0.0620  -54.5740 C   0  0  0  0  0  0  0  0  0  0  0  0
    7.7100    0.9140  -55.7200 C   0  0  0  0  0  0  0  0  0  0  0  0
    9.0930    1.0320  -55.8130 C   0  0  0  0  0  0  0  0  0  0  0  0
    9.6550    1.8030  -56.8400 C   0  0  0  0  0  0  0  0  0  0  0  0
    8.7890    2.4150  -57.7520 C   0  0  0  0  0  0  0  0  0  0  0  0
    7.4420    2.3240  -57.6610 N   0  0  0  0  0  0  0  0  0  0  0  0
    6.9400    1.5810  -56.6560 C   0  0  0  0  0  0  0  0  0  0  0  0
    5.5880    1.5820  -56.6270 O   0  0  0  0  0  0  0  0  0  0  0  0
    9.3060    3.2890  -58.8610 C   0  0  0  0  0  0  0  0  0  0  0  0
   10.7800    3.0510  -59.1590 C   0  0  0  0  0  0  0  0  0  0  0  0
   11.6010    3.0230  -57.8900 N   0  0  1  0  0  0  0  0  0  0  0  0
   11.6900    4.3490  -57.1850 C   0  0  0  0  0  0  0  0  0  0  0  0
   11.1420    1.9010  -56.9900 C   0  0  0  0  0  0  0  0  0  0  0  0
    7.3220   -1.2070  -54.1570 C   0  0  0  0  0  0  0  0  0  0  0  0
    8.5239   -3.1724  -51.3565 H   0  0  0  0  0  0  0  0  0  0  0  0
   10.1305   -3.6613  -51.9941 H   0  0  0  0  0  0  0  0  0  0  0  0
    9.6533   -1.9295  -51.9941 H   0  0  0  0  0  0  0  0  0  0  0  0
    8.5038   -4.2008  -53.6771 H   0  0  0  0  0  0  0  0  0  0  0  0
    9.2436   -2.9039  -55.5934 H   0  0  0  0  0  0  0  0  0  0  0  0
    9.7336   -1.5307  -54.4914 H   0  0  0  0  0  0  0  0  0  0  0  0
   11.7622   -2.3556  -54.3225 H   0  0  0  0  0  0  0  0  0  0  0  0
   11.0337   -3.9179  -53.6648 H   0  0  0  0  0  0  0  0  0  0  0  0
    9.9812   -5.4585  -55.7765 H   0  0  0  0  0  0  0  0  0  0  0  0
    9.6857   -3.9829  -56.7732 H   0  0  0  0  0  0  0  0  0  0  0  0
   10.1399   -5.9674  -58.2172 H   0  0  0  0  0  0  0  0  0  0  0  0
   11.5756   -7.2016  -56.5816 H   0  0  0  0  0  0  0  0  0  0  0  0
   12.4078   -6.9997  -58.1663 H   0  0  0  0  0  0  0  0  0  0  0  0
   13.9728   -6.4819  -56.2549 H   0  0  0  0  0  0  0  0  0  0  0  0
   12.2041   -5.7767  -54.6487 H   0  0  0  0  0  0  0  0  0  0  0  0
   13.4885   -4.5185  -54.8299 H   0  0  0  0  0  0  0  0  0  0  0  0
   14.1552   -5.3144  -58.4625 H   0  0  0  0  0  0  0  0  0  0  0  0
   14.9599   -3.7448  -56.0206 H   0  0  0  0  0  0  0  0  0  0  0  0
   15.9293   -4.8717  -57.0437 H   0  0  0  0  0  0  0  0  0  0  0  0
   15.5080   -3.3480  -58.7930 H   0  0  0  0  0  0  0  0  0  0  0  0
   13.2410   -2.9732  -58.6329 H   0  0  0  0  0  0  0  0  0  0  0  0
   10.8458   -3.6892  -58.9585 H   0  0  0  0  0  0  0  0  0  0  0  0
   11.9812   -4.9547  -59.5517 H   0  0  0  0  0  0  0  0  0  0  0  0
   13.0531   -2.4617  -56.2194 H   0  0  0  0  0  0  0  0  0  0  0  0
   11.4540   -2.2747  -57.0452 H   0  0  0  0  0  0  0  0  0  0  0  0
    6.1388   -2.7329  -51.9114 H   0  0  0  0  0  0  0  0  0  0  0  0
    7.2779   -1.6039  -51.5158 H   0  0  0  0  0  0  0  0  0  0  0  0
    4.8753   -1.1892  -53.3635 H   0  0  0  0  0  0  0  0  0  0  0  0
    5.5071    1.1464  -53.4675 H   0  0  0  0  0  0  0  0  0  0  0  0
    6.7918    0.9634  -52.4636 H   0  0  0  0  0  0  0  0  0  0  0  0
    9.7418    0.5232  -55.0848 H   0  0  0  0  0  0  0  0  0  0  0  0
    5.4080    2.1790  -55.8820 H   0  0  0  0  0  0  0  0  0  0  0  0
    8.7251    3.0821  -59.7719 H   0  0  0  0  0  0  0  0  0  0  0  0
    9.1973    4.3348  -58.5376 H   0  0  0  0  0  0  0  0  0  0  0  0
   10.8893    2.0871  -59.6775 H   0  0  0  0  0  0  0  0  0  0  0  0
   11.1438    3.8761  -59.7889 H   0  0  0  0  0  0  0  0  0  0  0  0
   12.5630    2.7920  -58.1680 H   0  0  0  0  0  0  0  0  0  0  0  0
   11.6791    4.1873  -56.0970 H   0  0  0  0  0  0  0  0  0  0  0  0
   12.6241    4.8545  -57.4713 H   0  0  0  0  0  0  0  0  0  0  0  0
   10.8318    4.9748  -57.4713 H   0  0  0  0  0  0  0  0  0  0  0  0
   11.5099    0.9519  -57.4070 H   0  0  0  0  0  0  0  0  0  0  0  0
   11.5472    2.1127  -55.9895 H   0  0  0  0  0  0  0  0  0  0  0  0
  1  2  1  0
  2  3  1  0
  3  4  1  0
  5  4  1  1
  5  6  1  0
  6  7  1  0
  7  8  1  0
  8  9  1  0
  9 10  1  0
  9 11  1  0
 11 12  1  0
 12 13  1  0
 11 14  1  0
 14 15  1  0
 14 16  1  0
  2 17  1  0
 17 18  1  0
 18 19  1  0
 19 20  1  0
 20 21  1  0
 21 22  1  0
 22 23  2  0
 23 24  1  0
 24 25  2  0
 25 26  1  0
 26 27  2  0
 27 28  1  0
 25 29  1  0
 29 30  1  0
 30 31  1  0
 31 32  1  0
 31 33  1  0
 21 34  2  0
 10  5  1  0
 34 17  1  0
 16  5  1  0
 34 19  1  0
 15  7  1  0
 27 22  1  0
 33 24  1  0
  1 35  1  0
  1 36  1  0
  1 37  1  0
  2 38  1  6
  3 39  1  0
  3 40  1  0
  4 41  1  0
  4 42  1  0
  6 43  1  0
  6 44  1  0
  7 45  1  6
  8 46  1  0
  8 47  1  0
  9 48  1  1
 10 49  1  0
 10 50  1  0
 11 51  1  6
 12 52  1  0
 12 53  1  0
 13 54  1  0
 14 55  1  6
 15 56  1  0
 15 57  1  0
 16 58  1  0
 16 59  1  0
 18 60  1  0
 18 61  1  0
 19 62  1  6
 20 63  1  0
 20 64  1  0
 23 65  1  0
 28 66  1  0
 29 67  1  0
 29 68  1  0
 30 69  1  0
 30 70  1  0
 31 71  1  6
 32 72  1  0
 32 73  1  0
 32 74  1  0
 33 75  1  0
 33 76  1  0
M  CHG  1  31   1
M  END
>  <meeko>  (176) 
{"is_sidechain": false}

$$$$

     RDKit          3D

 76 82  0  0  0  0  0  0  0  0999 V2000
    9.4600   -2.5700  -52.4860 C   0  0  0  0  0  0  0  0  0  0  0  0
    9.4670   -1.5280  -53.6080 C   0  0  1  0  0  0  0  0  0  0  0  0
   10.4750   -1.9280  -54.7060 C   0  0  0  0  0  0  0  0  0  0  0  0
   11.0510   -3.3360  -54.4880 C   0  0  0  0  0  0  0  0  0  0  0  0
   11.5840   -4.0510  -55.7550 C   0  0  2  0  0  0  0  0  0  0  0  0
   10.4560   -4.7650  -56.5400 C   0  0  0  0  0  0  0  0  0  0  0  0
   11.0120   -5.4130  -57.8210 C   0  0  2  0  0  0  0  0  0  0  0  0
   12.0910   -6.4400  -57.4370 C   0  0  0  0  0  0  0  0  0  0  0  0
   13.2440   -5.7450  -56.6850 C   0  0  2  0  0  0  0  0  0  0  0  0
   12.6720   -5.0990  -55.4070 C   0  0  0  0  0  0  0  0  0  0  0  0
   13.8670   -4.6750  -57.6170 C   0  0  2  0  0  0  0  0  0  0  0  0
   15.1400   -4.0320  -57.0450 C   0  0  0  0  0  0  0  0  0  0  0  0
   15.5830   -2.9670  -57.8770 O   0  0  0  0  0  0  0  0  0  0  0  0
   12.7850   -3.6260  -57.9680 C   0  0  1  0  0  0  0  0  0  0  0  0
   11.6350   -4.3290  -58.7130 C   0  0  0  0  0  0  0  0  0  0  0  0
   12.2130   -2.9820  -56.6910 C   0  0  0  0  0  0  0  0  0  0  0  0
    8.1380   -1.3210  -54.1820 N   0  0  0  0  0  0  0  0  0  0  0  0
    6.9480   -1.2070  -53.3840 C   0  0  0  0  0  0  0  0  0  0  0  0
    6.2810   -0.7190  -54.6600 C   0  0  1  0  0  0  0  0  0  0  0  0
    6.0290    0.7680  -54.8240 C   0  0  0  0  0  0  0  0  0  0  0  0
    7.3060    0.7220  -55.6370 C   0  0  0  0  0  0  0  0  0  0  0  0
    7.9510    1.7110  -56.6430 C   0  0  0  0  0  0  0  0  0  0  0  0
    9.2080    2.2400  -56.3650 C   0  0  0  0  0  0  0  0  0  0  0  0
    9.7870    3.1140  -57.2840 C   0  0  0  0  0  0  0  0  0  0  0  0
    9.0710    3.4370  -58.4370 C   0  0  0  0  0  0  0  0  0  0  0  0
    7.8520    2.9360  -58.7270 N   0  0  0  0  0  0  0  0  0  0  0  0
    7.3260    2.0860  -57.8210 C   0  0  0  0  0  0  0  0  0  0  0  0
    6.1030    1.6250  -58.1750 O   0  0  0  0  0  0  0  0  0  0  0  0
    9.7020    4.3960  -59.4060 C   0  0  0  0  0  0  0  0  0  0  0  0
   11.1550    3.9970  -59.6460 C   0  0  0  0  0  0  0  0  0  0  0  0
   11.9420    3.7510  -58.3580 N   0  0  1  0  0  0  0  0  0  0  0  0
   13.1600    4.6190  -58.2410 C   0  0  0  0  0  0  0  0  0  0  0  0
   11.1190    3.7580  -57.0860 C   0  0  0  0  0  0  0  0  0  0  0  0
    7.8190   -0.3170  -54.9400 C   0  0  0  0  0  0  0  0  0  0  0  0
    9.4634   -2.0596  -51.5116 H   0  0  0  0  0  0  0  0  0  0  0  0
    8.5576   -3.1934  -52.5702 H   0  0  0  0  0  0  0  0  0  0  0  0
   10.3539   -3.2055  -52.5702 H   0  0  0  0  0  0  0  0  0  0  0  0
    9.7788   -0.5715  -53.1631 H   0  0  0  0  0  0  0  0  0  0  0  0
    9.9649   -1.9020  -55.6802 H   0  0  0  0  0  0  0  0  0  0  0  0
   11.3112   -1.2143  -54.6696 H   0  0  0  0  0  0  0  0  0  0  0  0
   11.8823   -3.2533  -53.7724 H   0  0  0  0  0  0  0  0  0  0  0  0
   10.2113   -3.9498  -54.1300 H   0  0  0  0  0  0  0  0  0  0  0  0
   10.0113   -5.5449  -55.9044 H   0  0  0  0  0  0  0  0  0  0  0  0
    9.6949   -4.0221  -56.8206 H   0  0  0  0  0  0  0  0  0  0  0  0
   10.1988   -5.9135  -58.3671 H   0  0  0  0  0  0  0  0  0  0  0  0
   11.6461   -7.2094  -56.7889 H   0  0  0  0  0  0  0  0  0  0  0  0
   12.4874   -6.9035  -58.3524 H   0  0  0  0  0  0  0  0  0  0  0  0
   14.0264   -6.4641  -56.4009 H   0  0  0  0  0  0  0  0  0  0  0  0
   12.2281   -5.8825  -54.7753 H   0  0  0  0  0  0  0  0  0  0  0  0
   13.4897   -4.5922  -54.8737 H   0  0  0  0  0  0  0  0  0  0  0  0
   14.2032   -5.1752  -58.5372 H   0  0  0  0  0  0  0  0  0  0  0  0
   14.9261   -3.6399  -56.0398 H   0  0  0  0  0  0  0  0  0  0  0  0
   15.9306   -4.7953  -56.9967 H   0  0  0  0  0  0  0  0  0  0  0  0
   14.8810   -2.2920  -57.8870 H   0  0  0  0  0  0  0  0  0  0  0  0
   13.2421   -2.8442  -58.5924 H   0  0  0  0  0  0  0  0  0  0  0  0
   10.8657   -3.5882  -58.9763 H   0  0  0  0  0  0  0  0  0  0  0  0
   12.0313   -4.7981  -59.6256 H   0  0  0  0  0  0  0  0  0  0  0  0
   13.0240   -2.4679  -56.1543 H   0  0  0  0  0  0  0  0  0  0  0  0
   11.4275   -2.2692  -56.9825 H   0  0  0  0  0  0  0  0  0  0  0  0
    6.5591   -2.1570  -52.9887 H   0  0  0  0  0  0  0  0  0  0  0  0
    6.9155   -0.6407  -52.4415 H   0  0  0  0  0  0  0  0  0  0  0  0
    5.4510   -1.3341  -55.0378 H   0  0  0  0  0  0  0  0  0  0  0  0
    5.1206    1.0354  -55.3838 H   0  0  0  0  0  0  0  0  0  0  0  0
    5.8643    1.4569  -53.9824 H   0  0  0  0  0  0  0  0  0  0  0  0
    9.7350    1.9733  -55.4370 H   0  0  0  0  0  0  0  0  0  0  0  0
    5.7480    1.3520  -57.3110 H   0  0  0  0  0  0  0  0  0  0  0  0
    9.1525    4.3689  -60.3585 H   0  0  0  0  0  0  0  0  0  0  0  0
    9.6660    5.4135  -58.9897 H   0  0  0  0  0  0  0  0  0  0  0  0
   11.1681    3.0735  -60.2435 H   0  0  0  0  0  0  0  0  0  0  0  0
   11.6393    4.8373  -60.1650 H   0  0  0  0  0  0  0  0  0  0  0  0
   12.2870    2.7840  -58.4360 H   0  0  0  0  0  0  0  0  0  0  0  0
   13.3918    4.7842  -57.1785 H   0  0  0  0  0  0  0  0  0  0  0  0
   14.0119    4.1232  -58.7294 H   0  0  0  0  0  0  0  0  0  0  0  0
   12.9694    5.5860  -58.7294 H   0  0  0  0  0  0  0  0  0  0  0  0
   11.6665    3.2106  -56.3046 H   0  0  0  0  0  0  0  0  0  0  0  0
   10.9523    4.8049  -56.7924 H   0  0  0  0  0  0  0  0  0  0  0  0
  1  2  1  0
  2  3  1  0
  3  4  1  0
  5  4  1  1
  5  6  1  0
  6  7  1  0
  7  8  1  0
  8  9  1  0
  9 10  1  0
  9 11  1  0
 11 12  1  0
 12 13  1  0
 11 14  1  0
 14 15  1  0
 14 16  1  0
  2 17  1  0
 17 18  1  0
 18 19  1  0
 19 20  1  0
 20 21  1  0
 21 22  1  0
 22 23  2  0
 23 24  1  0
 24 25  2  0
 25 26  1  0
 26 27  2  0
 27 28  1  0
 25 29  1  0
 29 30  1  0
 30 31  1  0
 31 32  1  0
 31 33  1  0
 21 34  2  0
 10  5  1  0
 34 17  1  0
 16  5  1  0
 34 19  1  0
 15  7  1  0
 27 22  1  0
 33 24  1  0
  1 35  1  0
  1 36  1  0
  1 37  1  0
  2 38  1  1
  3 39  1  0
  3 40  1  0
  4 41  1  0
  4 42  1  0
  6 43  1  0
  6 44  1  0
  7 45  1  6
  8 46  1  0
  8 47  1  0
  9 48  1  1
 10 49  1  0
 10 50  1  0
 11 51  1  6
 12 52  1  0
 12 53  1  0
 13 54  1  0
 14 55  1  6
 15 56  1  0
 15 57  1  0
 16 58  1  0
 16 59  1  0
 18 60  1  0
 18 61  1  0
 19 62  1  6
 20 63  1  0
 20 64  1  0
 23 65  1  0
 28 66  1  0
 29 67  1  0
 29 68  1  0
 30 69  1  0
 30 70  1  0
 31 71  1  6
 32 72  1  0
 32 73  1  0
 32 74  1  0
 33 75  1  0
 33 76  1  0
M  CHG  1  31   1
M  END
>  <meeko>  (177) 
{"is_sidechain": false}

$$$$

     RDKit          3D

 76 82  0  0  0  0  0  0  0  0999 V2000
   11.1540   -2.3740  -52.4120 C   0  0  0  0  0  0  0  0  0  0  0  0
    9.7690   -2.4950  -53.0450 C   0  0  2  0  0  0  0  0  0  0  0  0
    9.7940   -2.4270  -54.5880 C   0  0  0  0  0  0  0  0  0  0  0  0
    9.6270   -3.7660  -55.3190 C   0  0  0  0  0  0  0  0  0  0  0  0
   10.8300   -4.2180  -56.1900 C   0  0  2  0  0  0  0  0  0  0  0  0
   10.4040   -5.2140  -57.2970 C   0  0  0  0  0  0  0  0  0  0  0  0
   11.6070   -5.5910  -58.1790 C   0  0  2  0  0  0  0  0  0  0  0  0
   12.6890   -6.2410  -57.3030 C   0  0  0  0  0  0  0  0  0  0  0  0
   13.1570   -5.2530  -56.2190 C   0  0  2  0  0  0  0  0  0  0  0  0
   11.9450   -4.8790  -55.3400 C   0  0  0  0  0  0  0  0  0  0  0  0
   13.7290   -3.9640  -56.8570 C   0  0  1  0  0  0  0  0  0  0  0  0
   15.0620   -4.2180  -57.5750 C   0  0  0  0  0  0  0  0  0  0  0  0
   15.6550   -2.9880  -57.9740 O   0  0  0  0  0  0  0  0  0  0  0  0
   12.6400   -3.3320  -57.7600 C   0  0  1  0  0  0  0  0  0  0  0  0
   12.1710   -4.3240  -58.8390 C   0  0  0  0  0  0  0  0  0  0  0  0
   11.4300   -2.9610  -56.8820 C   0  0  0  0  0  0  0  0  0  0  0  0
    8.7850   -1.5550  -52.5020 N   0  0  0  0  0  0  0  0  0  0  0  0
    7.6880   -1.9050  -51.6080 C   0  0  0  0  0  0  0  0  0  0  0  0
    6.6990   -1.6460  -52.7540 C   0  0  1  0  0  0  0  0  0  0  0  0
    6.0700   -0.2800  -53.1180 C   0  0  0  0  0  0  0  0  0  0  0  0
    7.2710   -0.1550  -54.0930 C   0  0  0  0  0  0  0  0  0  0  0  0
    7.6340    0.7950  -55.2490 C   0  0  0  0  0  0  0  0  0  0  0  0
    8.9330    1.2900  -55.3310 C   0  0  0  0  0  0  0  0  0  0  0  0
    9.2660    2.1290  -56.3950 C   0  0  0  0  0  0  0  0  0  0  0  0
    8.2710    2.4630  -57.3160 C   0  0  0  0  0  0  0  0  0  0  0  0
    7.0050    2.0050  -57.2480 N   0  0  0  0  0  0  0  0  0  0  0  0
    6.7210    1.1840  -56.2170 C   0  0  0  0  0  0  0  0  0  0  0  0
    5.4230    0.7970  -56.1970 O   0  0  0  0  0  0  0  0  0  0  0  0
    8.6410    3.3830  -58.4440 C   0  0  0  0  0  0  0  0  0  0  0  0
    9.9550    2.9270  -59.0700 C   0  0  0  0  0  0  0  0  0  0  0  0
   11.0560    2.6480  -58.0450 N   0  0  1  0  0  0  0  0  0  0  0  0
   12.3040    3.4390  -58.2970 C   0  0  0  0  0  0  0  0  0  0  0  0
   10.6220    2.7210  -56.5950 C   0  0  0  0  0  0  0  0  0  0  0  0
    7.9500   -0.8960  -53.2170 C   0  0  0  0  0  0  0  0  0  0  0  0
   11.0583   -2.3824  -51.3162 H   0  0  0  0  0  0  0  0  0  0  0  0
   11.7787   -3.2210  -52.7320 H   0  0  0  0  0  0  0  0  0  0  0  0
   11.6223   -1.4315  -52.7320 H   0  0  0  0  0  0  0  0  0  0  0  0
    9.4372   -3.5050  -52.7625 H   0  0  0  0  0  0  0  0  0  0  0  0
    8.9782   -1.7630  -54.9097 H   0  0  0  0  0  0  0  0  0  0  0  0
   10.7978   -2.0646  -54.8545 H   0  0  0  0  0  0  0  0  0  0  0  0
    9.4484   -4.5434  -54.5616 H   0  0  0  0  0  0  0  0  0  0  0  0
    8.7909   -3.6207  -56.0189 H   0  0  0  0  0  0  0  0  0  0  0  0
   10.0000   -6.1237  -56.8288 H   0  0  0  0  0  0  0  0  0  0  0  0
    9.6382   -4.7377  -57.9268 H   0  0  0  0  0  0  0  0  0  0  0  0
   11.2903   -6.2985  -58.9595 H   0  0  0  0  0  0  0  0  0  0  0  0
   12.2760   -7.1399  -56.8220 H   0  0  0  0  0  0  0  0  0  0  0  0
   13.5468   -6.5148  -57.9348 H   0  0  0  0  0  0  0  0  0  0  0  0
   13.9469   -5.7286  -55.6191 H   0  0  0  0  0  0  0  0  0  0  0  0
   11.5469   -5.7897  -54.8687 H   0  0  0  0  0  0  0  0  0  0  0  0
   12.2742   -4.1627  -54.5728 H   0  0  0  0  0  0  0  0  0  0  0  0
   13.9804   -3.2369  -56.0708 H   0  0  0  0  0  0  0  0  0  0  0  0
   15.7457   -4.7452  -56.8933 H   0  0  0  0  0  0  0  0  0  0  0  0
   14.8733   -4.8290  -58.4701 H   0  0  0  0  0  0  0  0  0  0  0  0
   16.6200   -3.0900  -57.9090 H   0  0  0  0  0  0  0  0  0  0  0  0
   13.0635   -2.4449  -58.2536 H   0  0  0  0  0  0  0  0  0  0  0  0
   11.3879   -3.8528  -59.4512 H   0  0  0  0  0  0  0  0  0  0  0  0
   13.0267   -4.5980  -59.4736 H   0  0  0  0  0  0  0  0  0  0  0  0
   11.7524   -2.2463  -56.1104 H   0  0  0  0  0  0  0  0  0  0  0  0
   10.6569   -2.5154  -57.5252 H   0  0  0  0  0  0  0  0  0  0  0  0
    7.7076   -2.9464  -51.2545 H   0  0  0  0  0  0  0  0  0  0  0  0
    7.5698   -1.4017  -50.6370 H   0  0  0  0  0  0  0  0  0  0  0  0
    5.9802   -2.4665  -52.8960 H   0  0  0  0  0  0  0  0  0  0  0  0
    5.0803   -0.3305  -53.5954 H   0  0  0  0  0  0  0  0  0  0  0  0
    5.8164    0.4864  -52.3708 H   0  0  0  0  0  0  0  0  0  0  0  0
    9.6827    1.0245  -54.5711 H   0  0  0  0  0  0  0  0  0  0  0  0
    5.4180    0.1210  -56.8970 H   0  0  0  0  0  0  0  0  0  0  0  0
    7.8476    3.3650  -59.2057 H   0  0  0  0  0  0  0  0  0  0  0  0
    8.7580    4.4057  -58.0563 H   0  0  0  0  0  0  0  0  0  0  0  0
    9.7676    2.0046  -59.6392 H   0  0  0  0  0  0  0  0  0  0  0  0
   10.3100    3.7481  -59.7102 H   0  0  0  0  0  0  0  0  0  0  0  0
   11.3100    1.6600  -58.1890 H   0  0  0  0  0  0  0  0  0  0  0  0
   12.7566    3.7258  -57.3363 H   0  0  0  0  0  0  0  0  0  0  0  0
   13.0165    2.8272  -58.8698 H   0  0  0  0  0  0  0  0  0  0  0  0
   12.0548    4.3444  -58.8698 H   0  0  0  0  0  0  0  0  0  0  0  0
   11.3465    2.1696  -55.9777 H   0  0  0  0  0  0  0  0  0  0  0  0
   10.5808    3.7804  -56.3019 H   0  0  0  0  0  0  0  0  0  0  0  0
  1  2  1  0
  2  3  1  0
  3  4  1  0
  5  4  1  1
  5  6  1  0
  6  7  1  0
  7  8  1  0
  8  9  1  0
  9 10  1  0
  9 11  1  0
 11 12  1  0
 12 13  1  0
 11 14  1  0
 14 15  1  0
 14 16  1  0
  2 17  1  0
 17 18  1  0
 18 19  1  0
 19 20  1  0
 20 21  1  0
 21 22  1  0
 22 23  2  0
 23 24  1  0
 24 25  2  0
 25 26  1  0
 26 27  2  0
 27 28  1  0
 25 29  1  0
 29 30  1  0
 30 31  1  0
 31 32  1  0
 31 33  1  0
 21 34  2  0
 10  5  1  0
 34 17  1  0
 16  5  1  0
 34 19  1  0
 15  7  1  0
 27 22  1  0
 33 24  1  0
  1 35  1  0
  1 36  1  0
  1 37  1  0
  2 38  1  6
  3 39  1  0
  3 40  1  0
  4 41  1  0
  4 42  1  0
  6 43  1  0
  6 44  1  0
  7 45  1  6
  8 46  1  0
  8 47  1  0
  9 48  1  1
 10 49  1  0
 10 50  1  0
 11 51  1  1
 12 52  1  0
 12 53  1  0
 13 54  1  0
 14 55  1  6
 15 56  1  0
 15 57  1  0
 16 58  1  0
 16 59  1  0
 18 60  1  0
 18 61  1  0
 19 62  1  6
 20 63  1  0
 20 64  1  0
 23 65  1  0
 28 66  1  0
 29 67  1  0
 29 68  1  0
 30 69  1  0
 30 70  1  0
 31 71  1  6
 32 72  1  0
 32 73  1  0
 32 74  1  0
 33 75  1  0
 33 76  1  0
M  CHG  1  31   1
M  END
>  <meeko>  (178) 
{"is_sidechain": false}

$$$$

     RDKit          3D

 76 82  0  0  0  0  0  0  0  0999 V2000
    8.4070   -2.5400  -52.5120 C   0  0  0  0  0  0  0  0  0  0  0  0
    9.1220   -1.3980  -53.2330 C   0  0  1  0  0  0  0  0  0  0  0  0
    9.9820   -1.8640  -54.4310 C   0  0  0  0  0  0  0  0  0  0  0  0
    9.7280   -3.2860  -54.9510 C   0  0  0  0  0  0  0  0  0  0  0  0
   10.8380   -3.8830  -55.8570 C   0  0  2  0  0  0  0  0  0  0  0  0
   10.1750   -4.8970  -56.8310 C   0  0  0  0  0  0  0  0  0  0  0  0
   11.2200   -5.5280  -57.7630 C   0  0  2  0  0  0  0  0  0  0  0  0
   12.2690   -6.2610  -56.9150 C   0  0  0  0  0  0  0  0  0  0  0  0
   12.9720   -5.2710  -55.9710 C   0  0  2  0  0  0  0  0  0  0  0  0
   11.9150   -4.6410  -55.0380 C   0  0  0  0  0  0  0  0  0  0  0  0
   13.6600   -4.1350  -56.7730 C   0  0  1  0  0  0  0  0  0  0  0  0
   14.8640   -4.6140  -57.5970 C   0  0  0  0  0  0  0  0  0  0  0  0
   15.6560   -3.5060  -58.0100 O   0  0  0  0  0  0  0  0  0  0  0  0
   12.5960   -3.4200  -57.6420 C   0  0  1  0  0  0  0  0  0  0  0  0
   11.8940   -4.4170  -58.5820 C   0  0  0  0  0  0  0  0  0  0  0  0
   11.5400   -2.7930  -56.7080 C   0  0  0  0  0  0  0  0  0  0  0  0
    8.1850   -0.2970  -53.5060 N   0  0  0  0  0  0  0  0  0  0  0  0
    6.9900   -0.0490  -52.7080 C   0  0  0  0  0  0  0  0  0  0  0  0
    6.1180   -0.3140  -53.9530 C   0  0  1  0  0  0  0  0  0  0  0  0
    5.7760    0.8450  -54.9150 C   0  0  0  0  0  0  0  0  0  0  0  0
    7.1080    0.5390  -55.6280 C   0  0  0  0  0  0  0  0  0  0  0  0
    7.9540    1.3660  -56.6350 C   0  0  0  0  0  0  0  0  0  0  0  0
    9.3270    1.4740  -56.4530 C   0  0  0  0  0  0  0  0  0  0  0  0
   10.0880    2.2080  -57.3740 C   0  0  0  0  0  0  0  0  0  0  0  0
    9.4250    2.7970  -58.4550 C   0  0  0  0  0  0  0  0  0  0  0  0
    8.0850    2.7180  -58.6300 N   0  0  0  0  0  0  0  0  0  0  0  0
    7.3890    2.0050  -57.7240 C   0  0  0  0  0  0  0  0  0  0  0  0
    6.0560    2.0020  -57.9670 O   0  0  0  0  0  0  0  0  0  0  0  0
   10.1630    3.6280  -59.4680 C   0  0  0  0  0  0  0  0  0  0  0  0
   11.6610    3.3600  -59.4690 C   0  0  0  0  0  0  0  0  0  0  0  0
   12.2220    3.3680  -58.0650 N   0  0  1  0  0  0  0  0  0  0  0  0
   12.1990    4.7170  -57.4020 C   0  0  0  0  0  0  0  0  0  0  0  0
   11.5770    2.2850  -57.2340 C   0  0  0  0  0  0  0  0  0  0  0  0
    7.4660   -0.2270  -54.5830 C   0  0  0  0  0  0  0  0  0  0  0  0
    8.4951   -2.3993  -51.4246 H   0  0  0  0  0  0  0  0  0  0  0  0
    7.3444   -2.5448  -52.7962 H   0  0  0  0  0  0  0  0  0  0  0  0
    8.8669   -3.4980  -52.7962 H   0  0  0  0  0  0  0  0  0  0  0  0
    9.8826   -0.9817  -52.5561 H   0  0  0  0  0  0  0  0  0  0  0  0
    9.7999   -1.1676  -55.2628 H   0  0  0  0  0  0  0  0  0  0  0  0
   11.0166   -1.8736  -54.0575 H   0  0  0  0  0  0  0  0  0  0  0  0
    9.6111   -3.9478  -54.0802 H   0  0  0  0  0  0  0  0  0  0  0  0
    8.8312   -3.2165  -55.5842 H   0  0  0  0  0  0  0  0  0  0  0  0
    9.6877   -5.6914  -56.2466 H   0  0  0  0  0  0  0  0  0  0  0  0
    9.4356   -4.3616  -57.4447 H   0  0  0  0  0  0  0  0  0  0  0  0
   10.7385   -6.2439  -58.4454 H   0  0  0  0  0  0  0  0  0  0  0  0
   11.7740   -7.0423  -56.3196 H   0  0  0  0  0  0  0  0  0  0  0  0
   13.0168   -6.7154  -57.5815 H   0  0  0  0  0  0  0  0  0  0  0  0
   13.7357   -5.8141  -55.3950 H   0  0  0  0  0  0  0  0  0  0  0  0
   11.4298   -5.4368  -54.4538 H   0  0  0  0  0  0  0  0  0  0  0  0
   12.4168   -3.9261  -54.3693 H   0  0  0  0  0  0  0  0  0  0  0  0
   14.0869   -3.4171  -56.0572 H   0  0  0  0  0  0  0  0  0  0  0  0
   15.4779   -5.2892  -56.9827 H   0  0  0  0  0  0  0  0  0  0  0  0
   14.4976   -5.1425  -58.4894 H   0  0  0  0  0  0  0  0  0  0  0  0
   16.4160   -3.4460  -57.4070 H   0  0  0  0  0  0  0  0  0  0  0  0
   13.0926   -2.6501  -58.2509 H   0  0  0  0  0  0  0  0  0  0  0  0
   11.1321   -3.8864  -59.1720 H   0  0  0  0  0  0  0  0  0  0  0  0
   12.6406   -4.8664  -59.2533 H   0  0  0  0  0  0  0  0  0  0  0  0
   12.0336   -2.0745  -56.0371 H   0  0  0  0  0  0  0  0  0  0  0  0
   10.7828   -2.2855  -57.3237 H   0  0  0  0  0  0  0  0  0  0  0  0
    6.8374   -0.7678  -51.8894 H   0  0  0  0  0  0  0  0  0  0  0  0
    6.8816    0.8843  -52.1360 H   0  0  0  0  0  0  0  0  0  0  0  0
    5.2626   -0.9860  -53.7895 H   0  0  0  0  0  0  0  0  0  0  0  0
    4.8774    0.6843  -55.5288 H   0  0  0  0  0  0  0  0  0  0  0  0
    5.5288    1.8525  -54.5491 H   0  0  0  0  0  0  0  0  0  0  0  0
    9.8128    0.9880  -55.5940 H   0  0  0  0  0  0  0  0  0  0  0  0
    5.9840    1.2780  -58.6100 H   0  0  0  0  0  0  0  0  0  0  0  0
    9.7642    3.4004  -60.4676 H   0  0  0  0  0  0  0  0  0  0  0  0
   10.0150    4.6850  -59.2017 H   0  0  0  0  0  0  0  0  0  0  0  0
   11.8486    2.3763  -59.9241 H   0  0  0  0  0  0  0  0  0  0  0  0
   12.1555    4.1562  -60.0448 H   0  0  0  0  0  0  0  0  0  0  0  0
   13.2150    3.1130  -58.1460 H   0  0  0  0  0  0  0  0  0  0  0  0
   12.2012    4.5887  -56.3095 H   0  0  0  0  0  0  0  0  0  0  0  0
   13.0875    5.2900  -57.7057 H   0  0  0  0  0  0  0  0  0  0  0  0
   11.2915    5.2594  -57.7057 H   0  0  0  0  0  0  0  0  0  0  0  0
   12.0025    1.3173  -57.5382 H   0  0  0  0  0  0  0  0  0  0  0  0
   11.7831    2.5295  -56.1815 H   0  0  0  0  0  0  0  0  0  0  0  0
  1  2  1  0
  2  3  1  0
  3  4  1  0
  5  4  1  1
  5  6  1  0
  6  7  1  0
  7  8  1  0
  8  9  1  0
  9 10  1  0
  9 11  1  0
 11 12  1  0
 12 13  1  0
 11 14  1  0
 14 15  1  0
 14 16  1  0
  2 17  1  0
 17 18  1  0
 18 19  1  0
 19 20  1  0
 20 21  1  0
 21 22  1  0
 22 23  2  0
 23 24  1  0
 24 25  2  0
 25 26  1  0
 26 27  2  0
 27 28  1  0
 25 29  1  0
 29 30  1  0
 30 31  1  0
 31 32  1  0
 31 33  1  0
 21 34  2  0
 10  5  1  0
 34 17  1  0
 16  5  1  0
 34 19  1  0
 15  7  1  0
 27 22  1  0
 33 24  1  0
  1 35  1  0
  1 36  1  0
  1 37  1  0
  2 38  1  1
  3 39  1  0
  3 40  1  0
  4 41  1  0
  4 42  1  0
  6 43  1  0
  6 44  1  0
  7 45  1  6
  8 46  1  0
  8 47  1  0
  9 48  1  1
 10 49  1  0
 10 50  1  0
 11 51  1  1
 12 52  1  0
 12 53  1  0
 13 54  1  0
 14 55  1  6
 15 56  1  0
 15 57  1  0
 16 58  1  0
 16 59  1  0
 18 60  1  0
 18 61  1  0
 19 62  1  1
 20 63  1  0
 20 64  1  0
 23 65  1  0
 28 66  1  0
 29 67  1  0
 29 68  1  0
 30 69  1  0
 30 70  1  0
 31 71  1  6
 32 72  1  0
 32 73  1  0
 32 74  1  0
 33 75  1  0
 33 76  1  0
M  CHG  1  31   1
M  END
>  <meeko>  (179) 
{"is_sidechain": false}

$$$$

     RDKit          3D

 53 58  0  0  0  0  0  0  0  0999 V2000
   11.8770    2.8310  -57.2290 C   0  0  0  0  0  0  0  0  0  0  0  0
   10.4490    2.6440  -56.9430 N   0  0  0  0  0  0  0  0  0  0  0  0
   10.2270    1.4450  -56.2380 C   0  0  0  0  0  0  0  0  0  0  0  0
   11.0570    0.3480  -56.5270 C   0  0  0  0  0  0  0  0  0  0  0  0
   10.9080   -0.8850  -55.8760 C   0  0  0  0  0  0  0  0  0  0  0  0
    9.9010   -1.0140  -54.9150 C   0  0  0  0  0  0  0  0  0  0  0  0
    9.5500   -2.0950  -54.1460 N   0  0  0  0  0  0  0  0  0  0  0  0
    8.5380   -1.7020  -53.3900 C   0  0  0  0  0  0  0  0  0  0  0  0
    7.8300   -2.5310  -52.4050 C   0  0  0  0  0  0  0  0  0  0  0  0
    6.8950   -3.5120  -52.7700 C   0  0  0  0  0  0  0  0  0  0  0  0
    6.2460   -4.2790  -51.7950 C   0  0  0  0  0  0  0  0  0  0  0  0
    6.5230   -4.0750  -50.4440 C   0  0  0  0  0  0  0  0  0  0  0  0
    7.4440   -3.1040  -50.0660 C   0  0  0  0  0  0  0  0  0  0  0  0
    8.0900   -2.3380  -51.0390 C   0  0  0  0  0  0  0  0  0  0  0  0
    8.2280   -0.3900  -53.6730 N   0  0  0  0  0  0  0  0  0  0  0  0
    9.0830    0.0720  -54.6400 C   0  0  0  0  0  0  0  0  0  0  0  0
    9.2060    1.3090  -55.2800 C   0  0  0  0  0  0  0  0  0  0  0  0
    9.4490    3.0390  -57.9790 C   0  0  2  0  0  0  0  0  0  0  0  0
   10.0800    4.1430  -58.8810 C   0  0  0  0  0  0  0  0  0  0  0  0
    9.1010    4.6080  -59.9710 C   0  0  2  0  0  0  0  0  0  0  0  0
    7.8380    5.1900  -59.3150 C   0  0  0  0  0  0  0  0  0  0  0  0
    7.1800    4.1350  -58.4250 C   0  0  2  0  0  0  0  0  0  0  0  0
    8.1600    3.6560  -57.3470 C   0  0  0  0  0  0  0  0  0  0  0  0
    6.8530    2.9340  -59.2980 C   0  0  0  0  0  0  0  0  0  0  0  0
    5.7150    2.4990  -59.4370 O   0  0  0  0  0  0  0  0  0  0  0  0
    8.0590    2.3150  -59.9820 C   0  0  1  0  0  0  0  0  0  0  0  0
    8.7060    3.4040  -60.8460 C   0  0  0  0  0  0  0  0  0  0  0  0
    9.0230    1.8490  -58.8820 C   0  0  0  0  0  0  0  0  0  0  0  0
   12.4339    2.9039  -56.2832 H   0  0  0  0  0  0  0  0  0  0  0  0
   12.2501    1.9740  -57.8090 H   0  0  0  0  0  0  0  0  0  0  0  0
   12.0168    3.7551  -57.8090 H   0  0  0  0  0  0  0  0  0  0  0  0
   11.8458    0.4599  -57.2854 H   0  0  0  0  0  0  0  0  0  0  0  0
   11.5684   -1.7313  -56.1160 H   0  0  0  0  0  0  0  0  0  0  0  0
    6.6697   -3.6800  -53.8335 H   0  0  0  0  0  0  0  0  0  0  0  0
    5.5156   -5.0446  -52.0957 H   0  0  0  0  0  0  0  0  0  0  0  0
    6.0145   -4.6804  -49.6792 H   0  0  0  0  0  0  0  0  0  0  0  0
    7.6637   -2.9392  -49.0008 H   0  0  0  0  0  0  0  0  0  0  0  0
    8.8148   -1.5705  -50.7297 H   0  0  0  0  0  0  0  0  0  0  0  0
    7.4880    0.1440  -53.2470 H   0  0  0  0  0  0  0  0  0  0  0  0
    8.5301    2.1440  -55.0434 H   0  0  0  0  0  0  0  0  0  0  0  0
   10.3520    5.0047  -58.2537 H   0  0  0  0  0  0  0  0  0  0  0  0
   10.9686    3.7205  -59.3728 H   0  0  0  0  0  0  0  0  0  0  0  0
    9.5826    5.3788  -60.5907 H   0  0  0  0  0  0  0  0  0  0  0  0
    8.1134    6.0622  -58.7040 H   0  0  0  0  0  0  0  0  0  0  0  0
    7.1299    5.4942  -60.0999 H   0  0  0  0  0  0  0  0  0  0  0  0
    6.2862    4.5664  -57.9507 H   0  0  0  0  0  0  0  0  0  0  0  0
    8.4450    4.5117  -56.7172 H   0  0  0  0  0  0  0  0  0  0  0  0
    7.6624    2.8784  -56.7489 H   0  0  0  0  0  0  0  0  0  0  0  0
    7.7900    1.4581  -60.6171 H   0  0  0  0  0  0  0  0  0  0  0  0
    9.6049    2.9968  -61.3319 H   0  0  0  0  0  0  0  0  0  0  0  0
    7.9855    3.7341  -61.6088 H   0  0  0  0  0  0  0  0  0  0  0  0
    8.5237    1.0883  -58.2639 H   0  0  0  0  0  0  0  0  0  0  0  0
    9.9217    1.4283  -59.3568 H   0  0  0  0  0  0  0  0  0  0  0  0
  1  2  1  0
  2  3  1  0
  3  4  2  0
  4  5  1  0
  5  6  2  0
  6  7  1  0
  7  8  2  0
  8  9  1  0
  9 10  2  0
 10 11  1  0
 11 12  2  0
 12 13  1  0
 13 14  2  0
  8 15  1  0
 15 16  1  0
 16 17  2  0
 18  2  1  1
 18 19  1  0
 19 20  1  0
 20 21  1  0
 21 22  1  0
 22 23  1  0
 22 24  1  0
 24 25  2  0
 24 26  1  0
 26 27  1  0
 26 28  1  0
 17  3  1  0
 23 18  1  0
 16  6  1  0
 28 18  1  0
 14  9  1  0
 27 20  1  0
  1 29  1  0
  1 30  1  0
  1 31  1  0
  4 32  1  0
  5 33  1  0
 10 34  1  0
 11 35  1  0
 12 36  1  0
 13 37  1  0
 14 38  1  0
 15 39  1  0
 17 40  1  0
 19 41  1  0
 19 42  1  0
 20 43  1  6
 21 44  1  0
 21 45  1  0
 22 46  1  1
 23 47  1  0
 23 48  1  0
 26 49  1  6
 27 50  1  0
 27 51  1  0
 28 52  1  0
 28 53  1  0
M  END
>  <meeko>  (180) 
{"is_sidechain": false}

$$$$

     RDKit          3D

 53 58  0  0  0  0  0  0  0  0999 V2000
   11.8980    2.9200  -57.2430 C   0  0  0  0  0  0  0  0  0  0  0  0
   10.4730    2.7020  -56.9510 N   0  0  0  0  0  0  0  0  0  0  0  0
   10.2740    1.4870  -56.2570 C   0  0  0  0  0  0  0  0  0  0  0  0
   11.0970    0.3930  -56.5780 C   0  0  0  0  0  0  0  0  0  0  0  0
   10.9720   -0.8540  -55.9510 C   0  0  0  0  0  0  0  0  0  0  0  0
    9.9710   -0.9640  -54.9890 C   0  0  0  0  0  0  0  0  0  0  0  0
    9.5640   -2.0000  -54.1890 N   0  0  0  0  0  0  0  0  0  0  0  0
    8.5100   -1.5770  -53.4080 C   0  0  0  0  0  0  0  0  0  0  0  0
    7.8140   -2.4150  -52.4220 C   0  0  0  0  0  0  0  0  0  0  0  0
    8.1120   -2.2530  -51.0600 C   0  0  0  0  0  0  0  0  0  0  0  0
    7.4770   -3.0280  -50.0850 C   0  0  0  0  0  0  0  0  0  0  0  0
    6.5310   -3.9770  -50.4610 C   0  0  0  0  0  0  0  0  0  0  0  0
    6.2190   -4.1500  -51.8060 C   0  0  0  0  0  0  0  0  0  0  0  0
    6.8550   -3.3740  -52.7820 C   0  0  0  0  0  0  0  0  0  0  0  0
    8.2370   -0.3100  -53.6770 N   0  0  0  0  0  0  0  0  0  0  0  0
    9.1260    0.0800  -54.6480 C   0  0  0  0  0  0  0  0  0  0  0  0
    9.2700    1.3200  -55.2870 C   0  0  0  0  0  0  0  0  0  0  0  0
    9.4730    3.0470  -58.0130 C   0  0  2  0  0  0  0  0  0  0  0  0
   10.0710    4.1390  -58.9500 C   0  0  0  0  0  0  0  0  0  0  0  0
    9.0730    4.5590  -60.0400 C   0  0  2  0  0  0  0  0  0  0  0  0
    7.8050    5.1310  -59.3840 C   0  0  0  0  0  0  0  0  0  0  0  0
    7.1790    4.0810  -58.4650 C   0  0  2  0  0  0  0  0  0  0  0  0
    8.1750    3.6470  -57.3850 C   0  0  0  0  0  0  0  0  0  0  0  0
    6.8680    2.8590  -59.3140 C   0  0  0  0  0  0  0  0  0  0  0  0
    5.7330    2.4180  -59.4570 O   0  0  0  0  0  0  0  0  0  0  0  0
    8.0840    2.2460  -59.9870 C   0  0  1  0  0  0  0  0  0  0  0  0
    8.6980    3.3260  -60.8830 C   0  0  0  0  0  0  0  0  0  0  0  0
    9.0660    1.8270  -58.8830 C   0  0  0  0  0  0  0  0  0  0  0  0
   12.4568    3.0055  -56.2993 H   0  0  0  0  0  0  0  0  0  0  0  0
   12.2873    2.0710  -57.8240 H   0  0  0  0  0  0  0  0  0  0  0  0
   12.0157    3.8466  -57.8240 H   0  0  0  0  0  0  0  0  0  0  0  0
   11.8688    0.5210  -57.3512 H   0  0  0  0  0  0  0  0  0  0  0  0
   11.6284   -1.6994  -56.2047 H   0  0  0  0  0  0  0  0  0  0  0  0
    9.9780   -2.9170  -54.1700 H   0  0  0  0  0  0  0  0  0  0  0  0
    8.8574   -1.5039  -50.7547 H   0  0  0  0  0  0  0  0  0  0  0  0
    7.7247   -2.8879  -49.0224 H   0  0  0  0  0  0  0  0  0  0  0  0
    6.0308   -4.5893  -49.6962 H   0  0  0  0  0  0  0  0  0  0  0  0
    5.4702   -4.8990  -52.1032 H   0  0  0  0  0  0  0  0  0  0  0  0
    6.6003   -3.5175  -53.8425 H   0  0  0  0  0  0  0  0  0  0  0  0
    8.6023    2.1559  -55.0312 H   0  0  0  0  0  0  0  0  0  0  0  0
   10.3336    5.0212  -58.3476 H   0  0  0  0  0  0  0  0  0  0  0  0
   10.9609    3.7196  -59.4422 H   0  0  0  0  0  0  0  0  0  0  0  0
    9.5300    5.3258  -60.6828 H   0  0  0  0  0  0  0  0  0  0  0  0
    8.0686    6.0216  -58.7947 H   0  0  0  0  0  0  0  0  0  0  0  0
    7.0829    5.4054  -60.1671 H   0  0  0  0  0  0  0  0  0  0  0  0
    6.2815    4.5016  -57.9879 H   0  0  0  0  0  0  0  0  0  0  0  0
    8.4443    4.5216  -56.7746 H   0  0  0  0  0  0  0  0  0  0  0  0
    7.6990    2.8709  -56.7677 H   0  0  0  0  0  0  0  0  0  0  0  0
    7.8313    1.3649  -60.5952 H   0  0  0  0  0  0  0  0  0  0  0  0
    9.6016    2.9272  -61.3672 H   0  0  0  0  0  0  0  0  0  0  0  0
    7.9643    3.6209  -61.6477 H   0  0  0  0  0  0  0  0  0  0  0  0
    8.5874    1.0714  -58.2427 H   0  0  0  0  0  0  0  0  0  0  0  0
    9.9699    1.4135  -59.3542 H   0  0  0  0  0  0  0  0  0  0  0  0
  1  2  1  0
  2  3  1  0
  3  4  2  0
  4  5  1  0
  5  6  2  0
  6  7  1  0
  7  8  1  0
  8  9  1  0
  9 10  2  0
 10 11  1  0
 11 12  2  0
 12 13  1  0
 13 14  2  0
  8 15  2  0
 15 16  1  0
 16 17  2  0
 18  2  1  1
 18 19  1  0
 19 20  1  0
 20 21  1  0
 21 22  1  0
 22 23  1  0
 22 24  1  0
 24 25  2  0
 24 26  1  0
 26 27  1  0
 26 28  1  0
 17  3  1  0
 23 18  1  0
 16  6  1  0
 28 18  1  0
 14  9  1  0
 27 20  1  0
  1 29  1  0
  1 30  1  0
  1 31  1  0
  4 32  1  0
  5 33  1  0
  7 34  1  0
 10 35  1  0
 11 36  1  0
 12 37  1  0
 13 38  1  0
 14 39  1  0
 17 40  1  0
 19 41  1  0
 19 42  1  0
 20 43  1  6
 21 44  1  0
 21 45  1  0
 22 46  1  1
 23 47  1  0
 23 48  1  0
 26 49  1  6
 27 50  1  0
 27 51  1  0
 28 52  1  0
 28 53  1  0
M  END
>  <meeko>  (181) 
{"is_sidechain": false}

$$$$

     RDKit          3D

 54 59  0  0  0  0  0  0  0  0999 V2000
    6.5180    0.7590  -52.8250 C   0  0  0  0  0  0  0  0  0  0  0  0
    6.9870   -0.0880  -53.9350 N   0  0  0  0  0  0  0  0  0  0  0  0
    7.3520    0.6690  -55.0580 C   0  0  0  0  0  0  0  0  0  0  0  0
    6.4720    0.8650  -56.1550 C   0  0  0  0  0  0  0  0  0  0  0  0
    6.8300    1.6190  -57.2870 C   0  0  0  0  0  0  0  0  0  0  0  0
    8.1080    2.1570  -57.2640 C   0  0  0  0  0  0  0  0  0  0  0  0
    8.7910    2.9320  -58.1750 N   0  0  0  0  0  0  0  0  0  0  0  0
   10.0210    3.2310  -57.7310 C   0  0  0  0  0  0  0  0  0  0  0  0
   11.1040    4.0890  -58.4670 C   0  0  0  0  0  0  0  0  0  0  0  0
   12.4500    3.7200  -58.3910 C   0  0  0  0  0  0  0  0  0  0  0  0
   13.4110    4.4880  -59.0490 C   0  0  0  0  0  0  0  0  0  0  0  0
   13.0270    5.6130  -59.7780 C   0  0  0  0  0  0  0  0  0  0  0  0
   11.6830    5.9770  -59.8530 C   0  0  0  0  0  0  0  0  0  0  0  0
   10.7160    5.2160  -59.1970 C   0  0  0  0  0  0  0  0  0  0  0  0
   10.1340    2.6460  -56.5310 N   0  0  0  0  0  0  0  0  0  0  0  0
    8.9820    1.9700  -56.1960 C   0  0  0  0  0  0  0  0  0  0  0  0
    8.6460    1.2280  -55.0730 C   0  0  0  0  0  0  0  0  0  0  0  0
    7.7870   -1.3090  -53.5970 C   0  0  2  0  0  0  0  0  0  0  0  0
    9.2620   -1.2020  -54.0620 C   0  0  0  0  0  0  0  0  0  0  0  0
   10.0630   -2.4500  -53.6460 C   0  0  2  0  0  0  0  0  0  0  0  0
    9.4360   -3.7040  -54.2800 C   0  0  0  0  0  0  0  0  0  0  0  0
    7.9810   -3.8490  -53.8270 C   0  0  2  0  0  0  0  0  0  0  0  0
    7.1710   -2.6070  -54.2160 C   0  0  0  0  0  0  0  0  0  0  0  0
    7.9620   -3.9270  -52.3130 C   0  0  0  0  0  0  0  0  0  0  0  0
    7.4460   -4.8560  -51.7030 O   0  0  0  0  0  0  0  0  0  0  0  0
    8.5830   -2.7260  -51.6250 C   0  0  1  0  0  0  0  0  0  0  0  0
   10.0300   -2.5980  -52.1140 C   0  0  0  0  0  0  0  0  0  0  0  0
    7.7670   -1.4970  -52.0470 C   0  0  0  0  0  0  0  0  0  0  0  0
    6.7798    0.2861  -51.8670 H   0  0  0  0  0  0  0  0  0  0  0  0
    6.9977    1.7468  -52.8895 H   0  0  0  0  0  0  0  0  0  0  0  0
    5.4262    0.8766  -52.8895 H   0  0  0  0  0  0  0  0  0  0  0  0
    5.4714    0.4094  -56.1180 H   0  0  0  0  0  0  0  0  0  0  0  0
    6.1433    1.7715  -58.1327 H   0  0  0  0  0  0  0  0  0  0  0  0
    8.4140    3.2610  -59.0570 H   0  0  0  0  0  0  0  0  0  0  0  0
   12.7493    2.8308  -57.8167 H   0  0  0  0  0  0  0  0  0  0  0  0
   14.4727    4.2058  -58.9927 H   0  0  0  0  0  0  0  0  0  0  0  0
   13.7874    6.2158  -60.2960 H   0  0  0  0  0  0  0  0  0  0  0  0
   11.3854    6.8650  -60.4300 H   0  0  0  0  0  0  0  0  0  0  0  0
    9.6550    5.5007  -59.2537 H   0  0  0  0  0  0  0  0  0  0  0  0
   10.9720    2.6790  -55.9600 H   0  0  0  0  0  0  0  0  0  0  0  0
    9.3503    1.0839  -54.2404 H   0  0  0  0  0  0  0  0  0  0  0  0
    9.2879   -1.1064  -55.1575 H   0  0  0  0  0  0  0  0  0  0  0  0
    9.7162   -0.3195  -53.5877 H   0  0  0  0  0  0  0  0  0  0  0  0
   11.1024   -2.3396  -53.9888 H   0  0  0  0  0  0  0  0  0  0  0  0
    9.4689   -3.6132  -55.3758 H   0  0  0  0  0  0  0  0  0  0  0  0
   10.0031   -4.5911  -53.9615 H   0  0  0  0  0  0  0  0  0  0  0  0
    7.5510   -4.7451  -54.2983 H   0  0  0  0  0  0  0  0  0  0  0  0
    7.1639   -2.5127  -55.3119 H   0  0  0  0  0  0  0  0  0  0  0  0
    6.1482   -2.7245  -53.8286 H   0  0  0  0  0  0  0  0  0  0  0  0
    8.5800   -2.8231  -50.5293 H   0  0  0  0  0  0  0  0  0  0  0  0
   10.4920   -1.7123  -51.6535 H   0  0  0  0  0  0  0  0  0  0  0  0
   10.5863   -3.5032  -51.8290 H   0  0  0  0  0  0  0  0  0  0  0  0
    6.7263   -1.6263  -51.7149 H   0  0  0  0  0  0  0  0  0  0  0  0
    8.2151   -0.6060  -51.5829 H   0  0  0  0  0  0  0  0  0  0  0  0
  1  2  1  0
  2  3  1  0
  3  4  2  0
  4  5  1  0
  5  6  2  0
  6  7  1  0
  7  8  2  0
  8  9  1  0
  9 10  2  0
 10 11  1  0
 11 12  2  0
 12 13  1  0
 13 14  2  0
  8 15  1  0
 15 16  1  0
 16 17  2  0
 18  2  1  1
 18 19  1  0
 19 20  1  0
 20 21  1  0
 21 22  1  0
 22 23  1  0
 22 24  1  0
 24 25  2  0
 24 26  1  0
 26 27  1  0
 26 28  1  0
 17  3  1  0
 23 18  1  0
 16  6  1  0
 28 18  1  0
 14  9  1  0
 27 20  1  0
  1 29  1  0
  1 30  1  0
  1 31  1  0
  4 32  1  0
  5 33  1  0
  7 34  1  0
 10 35  1  0
 11 36  1  0
 12 37  1  0
 13 38  1  0
 14 39  1  0
 15 40  1  0
 17 41  1  0
 19 42  1  0
 19 43  1  0
 20 44  1  6
 21 45  1  0
 21 46  1  0
 22 47  1  6
 23 48  1  0
 23 49  1  0
 26 50  1  1
 27 51  1  0
 27 52  1  0
 28 53  1  0
 28 54  1  0
M  CHG  1   7   1
M  END
>  <meeko>  (182) 
{"is_sidechain": false}

$$$$

     RDKit          3D

 52 57  0  0  0  0  0  0  0  0999 V2000
    5.8700    0.3440  -53.1250 C   0  0  0  0  0  0  0  0  0  0  0  0
    7.0480   -0.1040  -53.8830 N   0  0  0  0  0  0  0  0  0  0  0  0
    7.4320    0.6330  -55.0060 C   0  0  0  0  0  0  0  0  0  0  0  0
    6.5600    0.8620  -56.0240 C   0  0  0  0  0  0  0  0  0  0  0  0
    6.9460    1.6490  -57.1920 C   0  0  0  0  0  0  0  0  0  0  0  0
    8.1760    2.1750  -57.2340 C   0  0  0  0  0  0  0  0  0  0  0  0
    8.7560    2.9530  -58.1980 N   0  0  0  0  0  0  0  0  0  0  0  0
    9.9370    3.2260  -57.7070 C   0  0  0  0  0  0  0  0  0  0  0  0
   10.9330    4.0300  -58.4310 C   0  0  0  0  0  0  0  0  0  0  0  0
   12.2410    3.5280  -58.4450 C   0  0  0  0  0  0  0  0  0  0  0  0
   13.2200    4.2510  -59.1010 C   0  0  0  0  0  0  0  0  0  0  0  0
   12.9830    5.4160  -59.7350 N   0  0  0  0  0  0  0  0  0  0  0  0
   11.7030    5.8640  -59.7330 C   0  0  0  0  0  0  0  0  0  0  0  0
   10.6470    5.2170  -59.1060 C   0  0  0  0  0  0  0  0  0  0  0  0
    9.0690    5.8880  -59.2670 Cl  0  0  0  0  0  0  0  0  0  0  0  0
   10.2430    2.6160  -56.3990 C   0  0  0  0  0  0  0  0  0  0  0  0
    9.1100    1.9630  -56.1450 C   0  0  0  0  0  0  0  0  0  0  0  0
    8.7060    1.1770  -55.0990 N   0  0  0  0  0  0  0  0  0  0  0  0
    7.7530   -1.3290  -53.4100 C   0  0  2  0  0  0  0  0  0  0  0  0
    7.3650   -1.7060  -51.9470 C   0  0  0  0  0  0  0  0  0  0  0  0
    8.0950   -2.9760  -51.4810 C   0  0  2  0  0  0  0  0  0  0  0  0
    9.6130   -2.7410  -51.5210 C   0  0  0  0  0  0  0  0  0  0  0  0
   10.0400   -2.3700  -52.9410 C   0  0  2  0  0  0  0  0  0  0  0  0
    9.3010   -1.1160  -53.4190 C   0  0  0  0  0  0  0  0  0  0  0  0
    9.6280   -3.5060  -53.8620 C   0  0  0  0  0  0  0  0  0  0  0  0
   10.4270   -4.1220  -54.5600 O   0  0  0  0  0  0  0  0  0  0  0  0
    8.1370   -3.7990  -53.8620 C   0  0  1  0  0  0  0  0  0  0  0  0
    7.7380   -4.1420  -52.4220 C   0  0  0  0  0  0  0  0  0  0  0  0
    7.4190   -2.5280  -54.3360 C   0  0  0  0  0  0  0  0  0  0  0  0
    6.0759    0.2657  -52.0473 H   0  0  0  0  0  0  0  0  0  0  0  0
    5.6458    1.3902  -53.3804 H   0  0  0  0  0  0  0  0  0  0  0  0
    5.0072   -0.2888  -53.3804 H   0  0  0  0  0  0  0  0  0  0  0  0
    5.5433    0.4460  -55.9665 H   0  0  0  0  0  0  0  0  0  0  0  0
    6.2400    1.8064  -58.0207 H   0  0  0  0  0  0  0  0  0  0  0  0
   12.4838    2.5789  -57.9447 H   0  0  0  0  0  0  0  0  0  0  0  0
   14.2460    3.8544  -59.1056 H   0  0  0  0  0  0  0  0  0  0  0  0
   11.4871    6.8030  -60.2638 H   0  0  0  0  0  0  0  0  0  0  0  0
   11.1603    2.6825  -55.7956 H   0  0  0  0  0  0  0  0  0  0  0  0
    9.2720    1.1410  -54.2660 H   0  0  0  0  0  0  0  0  0  0  0  0
    7.6340   -0.8738  -51.2799 H   0  0  0  0  0  0  0  0  0  0  0  0
    6.2824   -1.8984  -51.9153 H   0  0  0  0  0  0  0  0  0  0  0  0
    7.7875   -3.2188  -50.4531 H   0  0  0  0  0  0  0  0  0  0  0  0
    9.8743   -1.9219  -50.8349 H   0  0  0  0  0  0  0  0  0  0  0  0
   10.1321   -3.6607  -51.2132 H   0  0  0  0  0  0  0  0  0  0  0  0
   11.1250   -2.1894  -52.9524 H   0  0  0  0  0  0  0  0  0  0  0  0
    9.5509   -0.2773  -52.7525 H   0  0  0  0  0  0  0  0  0  0  0  0
    9.6151   -0.9010  -54.4510 H   0  0  0  0  0  0  0  0  0  0  0  0
    7.8711   -4.6362  -54.5241 H   0  0  0  0  0  0  0  0  0  0  0  0
    6.6543   -4.3255  -52.3788 H   0  0  0  0  0  0  0  0  0  0  0  0
    8.2834   -5.0422  -52.1023 H   0  0  0  0  0  0  0  0  0  0  0  0
    7.7412   -2.2927  -55.3611 H   0  0  0  0  0  0  0  0  0  0  0  0
    6.3336   -2.7044  -54.3069 H   0  0  0  0  0  0  0  0  0  0  0  0
  1  2  1  0
  2  3  1  0
  3  4  2  0
  4  5  1  0
  5  6  2  0
  6  7  1  0
  7  8  2  0
  8  9  1  0
  9 10  2  0
 10 11  1  0
 11 12  2  0
 12 13  1  0
 13 14  2  0
 14 15  1  0
  8 16  1  0
 16 17  2  0
 17 18  1  0
 19  2  1  6
 19 20  1  0
 20 21  1  0
 21 22  1  0
 22 23  1  0
 23 24  1  0
 23 25  1  0
 25 26  2  0
 25 27  1  0
 27 28  1  0
 27 29  1  0
 18  3  1  0
 24 19  1  0
 17  6  1  0
 29 19  1  0
 14  9  1  0
 28 21  1  0
  1 30  1  0
  1 31  1  0
  1 32  1  0
  4 33  1  0
  5 34  1  0
 10 35  1  0
 11 36  1  0
 13 37  1  0
 16 38  1  0
 18 39  1  0
 20 40  1  0
 20 41  1  0
 21 42  1  1
 22 43  1  0
 22 44  1  0
 23 45  1  1
 24 46  1  0
 24 47  1  0
 27 48  1  6
 28 49  1  0
 28 50  1  0
 29 51  1  0
 29 52  1  0
M  END
>  <meeko>  (183) 
{"is_sidechain": false}

$$$$

     RDKit          3D

 52 57  0  0  0  0  0  0  0  0999 V2000
    5.5260   -0.3500  -54.0310 C   0  0  0  0  0  0  0  0  0  0  0  0
    6.9610   -0.0980  -53.8420 N   0  0  0  0  0  0  0  0  0  0  0  0
    7.3940    0.6640  -54.9590 C   0  0  0  0  0  0  0  0  0  0  0  0
    6.5100    0.7570  -56.0420 C   0  0  0  0  0  0  0  0  0  0  0  0
    6.8530    1.4670  -57.1920 C   0  0  0  0  0  0  0  0  0  0  0  0
    8.1140    2.0520  -57.1720 C   0  0  0  0  0  0  0  0  0  0  0  0
    8.7850    2.8120  -58.0970 N   0  0  0  0  0  0  0  0  0  0  0  0
   10.0300    3.1830  -57.6250 C   0  0  0  0  0  0  0  0  0  0  0  0
   10.9930    3.9820  -58.4010 C   0  0  0  0  0  0  0  0  0  0  0  0
   12.3320    3.5570  -58.4300 C   0  0  0  0  0  0  0  0  0  0  0  0
   13.2640    4.2830  -59.1560 C   0  0  0  0  0  0  0  0  0  0  0  0
   12.9670    5.3970  -59.8510 N   0  0  0  0  0  0  0  0  0  0  0  0
   11.6760    5.8020  -59.8100 C   0  0  0  0  0  0  0  0  0  0  0  0
   10.6650    5.1440  -59.1160 C   0  0  0  0  0  0  0  0  0  0  0  0
    9.0800    5.8250  -59.1680 Cl  0  0  0  0  0  0  0  0  0  0  0  0
   10.1420    2.6230  -56.3590 C   0  0  0  0  0  0  0  0  0  0  0  0
    8.9490    1.9210  -56.0730 C   0  0  0  0  0  0  0  0  0  0  0  0
    8.6160    1.2300  -54.9600 N   0  0  0  0  0  0  0  0  0  0  0  0
    7.8200   -1.2550  -53.4540 C   0  0  2  0  0  0  0  0  0  0  0  0
    7.6890   -1.5760  -51.9310 C   0  0  0  0  0  0  0  0  0  0  0  0
    8.5000   -2.8240  -51.5480 C   0  0  2  0  0  0  0  0  0  0  0  0
    9.9800   -2.6000  -51.9080 C   0  0  0  0  0  0  0  0  0  0  0  0
   10.1240   -2.3260  -53.4080 C   0  0  2  0  0  0  0  0  0  0  0  0
    9.3210   -1.0840  -53.8180 C   0  0  0  0  0  0  0  0  0  0  0  0
    9.5310   -3.5120  -54.1480 C   0  0  0  0  0  0  0  0  0  0  0  0
   10.1710   -4.1880  -54.9470 O   0  0  0  0  0  0  0  0  0  0  0  0
    8.0710   -3.7780  -53.8260 C   0  0  1  0  0  0  0  0  0  0  0  0
    7.9680   -4.0390  -52.3230 C   0  0  0  0  0  0  0  0  0  0  0  0
    7.2880   -2.5190  -54.2130 C   0  0  0  0  0  0  0  0  0  0  0  0
    5.0365   -0.4360  -53.0497 H   0  0  0  0  0  0  0  0  0  0  0  0
    5.0782    0.4833  -54.5924 H   0  0  0  0  0  0  0  0  0  0  0  0
    5.3889   -1.2860  -54.5924 H   0  0  0  0  0  0  0  0  0  0  0  0
    5.5294    0.2619  -55.9841 H   0  0  0  0  0  0  0  0  0  0  0  0
    6.1746    1.5577  -58.0531 H   0  0  0  0  0  0  0  0  0  0  0  0
    8.4100    3.0830  -58.9960 H   0  0  0  0  0  0  0  0  0  0  0  0
   12.6387    2.6547  -57.8806 H   0  0  0  0  0  0  0  0  0  0  0  0
   14.3053    3.9285  -59.1645 H   0  0  0  0  0  0  0  0  0  0  0  0
   11.4075    6.7140  -60.3633 H   0  0  0  0  0  0  0  0  0  0  0  0
   11.0120    2.7109  -55.6917 H   0  0  0  0  0  0  0  0  0  0  0  0
    8.0588   -0.7173  -51.3514 H   0  0  0  0  0  0  0  0  0  0  0  0
    6.6294   -1.7706  -51.7086 H   0  0  0  0  0  0  0  0  0  0  0  0
    8.4045   -3.0063  -50.4674 H   0  0  0  0  0  0  0  0  0  0  0  0
   10.3651   -1.7385  -51.3427 H   0  0  0  0  0  0  0  0  0  0  0  0
   10.5524   -3.5037  -51.6517 H   0  0  0  0  0  0  0  0  0  0  0  0
   11.1863   -2.1672  -53.6451 H   0  0  0  0  0  0  0  0  0  0  0  0
    9.7221   -0.2050  -53.2922 H   0  0  0  0  0  0  0  0  0  0  0  0
    9.4078   -0.9504  -54.9064 H   0  0  0  0  0  0  0  0  0  0  0  0
    7.6689   -4.6452  -54.3702 H   0  0  0  0  0  0  0  0  0  0  0  0
    6.9157   -4.2123  -52.0534 H   0  0  0  0  0  0  0  0  0  0  0  0
    8.5665   -4.9253  -52.0657 H   0  0  0  0  0  0  0  0  0  0  0  0
    7.3888   -2.3543  -55.2959 H   0  0  0  0  0  0  0  0  0  0  0  0
    6.2342   -2.6695  -53.9359 H   0  0  0  0  0  0  0  0  0  0  0  0
  1  2  1  0
  2  3  1  0
  3  4  1  0
  4  5  2  0
  5  6  1  0
  6  7  1  0
  7  8  1  0
  8  9  1  0
  9 10  2  0
 10 11  1  0
 11 12  2  0
 12 13  1  0
 13 14  2  0
 14 15  1  0
  8 16  2  0
 16 17  1  0
 17 18  1  0
 19  2  1  1
 19 20  1  0
 20 21  1  0
 21 22  1  0
 22 23  1  0
 23 24  1  0
 23 25  1  0
 25 26  2  0
 25 27  1  0
 27 28  1  0
 27 29  1  0
 18  3  2  0
 24 19  1  0
 17  6  2  0
 29 19  1  0
 14  9  1  0
 28 21  1  0
  1 30  1  0
  1 31  1  0
  1 32  1  0
  4 33  1  0
  5 34  1  0
  7 35  1  0
 10 36  1  0
 11 37  1  0
 13 38  1  0
 16 39  1  0
 20 40  1  0
 20 41  1  0
 21 42  1  1
 22 43  1  0
 22 44  1  0
 23 45  1  1
 24 46  1  0
 24 47  1  0
 27 48  1  6
 28 49  1  0
 28 50  1  0
 29 51  1  0
 29 52  1  0
M  END
>  <meeko>  (184) 
{"is_sidechain": false}

$$$$

     RDKit          3D

 58 63  0  0  0  0  0  0  0  0999 V2000
    5.7240   -4.0140  -50.4330 C   0  0  0  0  0  0  0  0  0  0  0  0
    6.8150   -3.2750  -49.9000 O   0  0  0  0  0  0  0  0  0  0  0  0
    7.8280   -2.9530  -50.7620 C   0  0  0  0  0  0  0  0  0  0  0  0
    9.1420   -3.4130  -50.6870 C   0  0  0  0  0  0  0  0  0  0  0  0
   10.0810   -3.0060  -51.6380 C   0  0  0  0  0  0  0  0  0  0  0  0
    9.7150   -2.1340  -52.6650 C   0  0  0  0  0  0  0  0  0  0  0  0
    8.4020   -1.6610  -52.7470 C   0  0  0  0  0  0  0  0  0  0  0  0
    7.9540   -0.7360  -53.8130 C   0  0  0  0  0  0  0  0  0  0  0  0
    8.9180   -0.0280  -54.6810 C   0  0  0  0  0  0  0  0  0  0  0  0
    8.1040    0.6680  -55.4710 C   0  0  0  0  0  0  0  0  0  0  0  0
    8.3310    1.5370  -56.5020 N   0  0  0  0  0  0  0  0  0  0  0  0
    7.3210    2.1900  -57.1930 C   0  0  0  0  0  0  0  0  0  0  0  0
    7.6160    3.0910  -58.2220 N   0  0  0  0  0  0  0  0  0  0  0  0
    6.4960    3.8210  -58.8360 C   0  0  0  0  0  0  0  0  0  0  0  0
    9.0050    3.5600  -58.5410 C   0  0  2  0  0  0  0  0  0  0  0  0
    9.1000    3.9400  -60.0550 C   0  0  0  0  0  0  0  0  0  0  0  0
   10.5090    4.4140  -60.4380 C   0  0  2  0  0  0  0  0  0  0  0  0
   11.5170    3.2850  -60.1690 C   0  0  0  0  0  0  0  0  0  0  0  0
   11.4640    2.8900  -58.6920 C   0  0  2  0  0  0  0  0  0  0  0  0
   10.0550    2.4280  -58.3040 C   0  0  0  0  0  0  0  0  0  0  0  0
   11.7850    4.1370  -57.8850 C   0  0  0  0  0  0  0  0  0  0  0  0
   12.7680    4.2260  -57.1560 O   0  0  0  0  0  0  0  0  0  0  0  0
   10.8210    5.2940  -58.0990 C   0  0  1  0  0  0  0  0  0  0  0  0
   10.8760    5.6460  -59.5890 C   0  0  0  0  0  0  0  0  0  0  0  0
    9.4150    4.8210  -57.6970 C   0  0  2  0  0  0  0  0  0  0  0  0
    9.4050    4.5690  -56.2840 O   0  0  0  0  0  0  0  0  0  0  0  0
    6.0350    1.9390  -56.8240 C   0  0  0  0  0  0  0  0  0  0  0  0
    5.7230    1.0100  -55.7400 C   0  0  0  0  0  0  0  0  0  0  0  0
    6.7300    0.4070  -55.0970 C   0  0  0  0  0  0  0  0  0  0  0  0
    6.6920   -0.4760  -54.0570 N   0  0  0  0  0  0  0  0  0  0  0  0
    7.4650   -2.0810  -51.7920 C   0  0  0  0  0  0  0  0  0  0  0  0
    5.1206   -4.4227  -49.6091 H   0  0  0  0  0  0  0  0  0  0  0  0
    5.0999   -3.3520  -51.0512 H   0  0  0  0  0  0  0  0  0  0  0  0
    6.1072   -4.8392  -51.0512 H   0  0  0  0  0  0  0  0  0  0  0  0
    9.4396   -4.0969  -49.8785 H   0  0  0  0  0  0  0  0  0  0  0  0
   11.1155   -3.3750  -51.5772 H   0  0  0  0  0  0  0  0  0  0  0  0
   10.4603   -1.8189  -53.4102 H   0  0  0  0  0  0  0  0  0  0  0  0
   10.0173   -0.0662  -54.6755 H   0  0  0  0  0  0  0  0  0  0  0  0
    9.2810    1.8220  -56.7290 H   0  0  0  0  0  0  0  0  0  0  0  0
    5.8542    4.2393  -58.0466 H   0  0  0  0  0  0  0  0  0  0  0  0
    6.8886    4.6372  -59.4603 H   0  0  0  0  0  0  0  0  0  0  0  0
    5.9077    3.1323  -59.4603 H   0  0  0  0  0  0  0  0  0  0  0  0
    8.8448    3.0575  -60.6600 H   0  0  0  0  0  0  0  0  0  0  0  0
    8.3988    4.7662  -60.2442 H   0  0  0  0  0  0  0  0  0  0  0  0
   10.5351    4.6803  -61.5050 H   0  0  0  0  0  0  0  0  0  0  0  0
   11.2644    2.4131  -60.7903 H   0  0  0  0  0  0  0  0  0  0  0  0
   12.5303    3.6335  -60.4175 H   0  0  0  0  0  0  0  0  0  0  0  0
   12.1733    2.0712  -58.5011 H   0  0  0  0  0  0  0  0  0  0  0  0
    9.7835    1.5533  -58.9133 H   0  0  0  0  0  0  0  0  0  0  0  0
   10.0547    2.1704  -57.2346 H   0  0  0  0  0  0  0  0  0  0  0  0
   11.0795    6.1781  -57.4977 H   0  0  0  0  0  0  0  0  0  0  0  0
   10.1630    6.4572  -59.7977 H   0  0  0  0  0  0  0  0  0  0  0  0
   11.8958    5.9689  -59.8452 H   0  0  0  0  0  0  0  0  0  0  0  0
    8.6657    5.5970  -57.9123 H   0  0  0  0  0  0  0  0  0  0  0  0
    9.3970    5.4320  -55.8320 H   0  0  0  0  0  0  0  0  0  0  0  0
    5.2141    2.4457  -57.3525 H   0  0  0  0  0  0  0  0  0  0  0  0
    4.6789    0.8099  -55.4575 H   0  0  0  0  0  0  0  0  0  0  0  0
    6.4283   -1.7185  -51.8545 H   0  0  0  0  0  0  0  0  0  0  0  0
  1  2  1  0
  2  3  1  0
  3  4  1  0
  4  5  2  0
  5  6  1  0
  6  7  2  0
  7  8  1  0
  8  9  1  0
  9 10  2  0
 10 11  1  0
 11 12  1  0
 12 13  1  0
 13 14  1  0
 15 13  1  1
 15 16  1  0
 16 17  1  0
 17 18  1  0
 18 19  1  0
 19 20  1  0
 19 21  1  0
 21 22  2  0
 21 23  1  0
 23 24  1  0
 23 25  1  0
 25 26  1  0
 12 27  2  0
 27 28  1  0
 28 29  2  0
 29 30  1  0
  7 31  1  0
 31  3  2  0
 30  8  2  0
 29 10  1  0
 20 15  1  0
 25 15  1  0
 24 17  1  0
  1 32  1  0
  1 33  1  0
  1 34  1  0
  4 35  1  0
  5 36  1  0
  6 37  1  0
  9 38  1  0
 11 39  1  0
 14 40  1  0
 14 41  1  0
 14 42  1  0
 16 43  1  0
 16 44  1  0
 17 45  1  6
 18 46  1  0
 18 47  1  0
 19 48  1  6
 20 49  1  0
 20 50  1  0
 23 51  1  1
 24 52  1  0
 24 53  1  0
 25 54  1  1
 26 55  1  0
 27 56  1  0
 28 57  1  0
 31 58  1  0
M  END
>  <meeko>  (185) 
{"is_sidechain": false}

$$$$

     RDKit          3D

 58 63  0  0  0  0  0  0  0  0999 V2000
    5.3080   -4.3710  -50.3870 C   0  0  0  0  0  0  0  0  0  0  0  0
    6.4850   -3.7970  -49.8300 O   0  0  0  0  0  0  0  0  0  0  0  0
    7.3660   -3.2240  -50.7070 C   0  0  0  0  0  0  0  0  0  0  0  0
    8.6950   -3.6120  -50.5330 C   0  0  0  0  0  0  0  0  0  0  0  0
    9.6980   -3.1030  -51.3560 C   0  0  0  0  0  0  0  0  0  0  0  0
    9.3770   -2.1990  -52.3700 C   0  0  0  0  0  0  0  0  0  0  0  0
    8.0470   -1.8030  -52.5610 C   0  0  0  0  0  0  0  0  0  0  0  0
    7.6440   -0.8490  -53.6200 C   0  0  0  0  0  0  0  0  0  0  0  0
    8.6360   -0.0520  -54.3730 C   0  0  0  0  0  0  0  0  0  0  0  0
    7.8530    0.6540  -55.1870 C   0  0  0  0  0  0  0  0  0  0  0  0
    8.1210    1.5930  -56.1500 N   0  0  0  0  0  0  0  0  0  0  0  0
    7.1390    2.1700  -56.9440 C   0  0  0  0  0  0  0  0  0  0  0  0
    7.4470    3.1060  -57.9410 N   0  0  0  0  0  0  0  0  0  0  0  0
    6.3420    3.6350  -58.7620 C   0  0  0  0  0  0  0  0  0  0  0  0
    8.8390    3.5150  -58.3340 C   0  0  2  0  0  0  0  0  0  0  0  0
    8.8140    4.4560  -59.5830 C   0  0  0  0  0  0  0  0  0  0  0  0
   10.2350    4.8580  -60.0150 C   0  0  2  0  0  0  0  0  0  0  0  0
   11.0430    3.5920  -60.3490 C   0  0  0  0  0  0  0  0  0  0  0  0
   11.0970    2.6670  -59.1300 C   0  0  2  0  0  0  0  0  0  0  0  0
    9.6830    2.2610  -58.6920 C   0  0  0  0  0  0  0  0  0  0  0  0
   11.7140    3.4430  -57.9770 C   0  0  0  0  0  0  0  0  0  0  0  0
   12.6910    3.0360  -57.3580 O   0  0  0  0  0  0  0  0  0  0  0  0
   10.9830    4.7240  -57.6230 C   0  0  1  0  0  0  0  0  0  0  0  0
   10.9380    5.6080  -58.8740 C   0  0  0  0  0  0  0  0  0  0  0  0
    9.5730    4.3090  -57.1840 C   0  0  1  0  0  0  0  0  0  0  0  0
    8.8420    5.4880  -56.8270 O   0  0  0  0  0  0  0  0  0  0  0  0
    5.8470    1.8040  -56.7190 C   0  0  0  0  0  0  0  0  0  0  0  0
    5.4920    0.8370  -55.6840 C   0  0  0  0  0  0  0  0  0  0  0  0
    6.4710    0.2910  -54.9550 C   0  0  0  0  0  0  0  0  0  0  0  0
    6.3970   -0.6450  -53.9650 N   0  0  0  0  0  0  0  0  0  0  0  0
    7.0460   -2.3210  -51.7210 C   0  0  0  0  0  0  0  0  0  0  0  0
    4.6399   -4.6968  -49.5762 H   0  0  0  0  0  0  0  0  0  0  0  0
    4.7935   -3.6227  -51.0077 H   0  0  0  0  0  0  0  0  0  0  0  0
    5.5808   -5.2372  -51.0077 H   0  0  0  0  0  0  0  0  0  0  0  0
    8.9537   -4.3270  -49.7381 H   0  0  0  0  0  0  0  0  0  0  0  0
   10.7426   -3.4136  -51.2065 H   0  0  0  0  0  0  0  0  0  0  0  0
   10.1688   -1.7974  -53.0194 H   0  0  0  0  0  0  0  0  0  0  0  0
    9.7324   -0.0442  -54.2843 H   0  0  0  0  0  0  0  0  0  0  0  0
    9.0760    1.6970  -56.4480 H   0  0  0  0  0  0  0  0  0  0  0  0
    5.5465    4.0158  -58.1046 H   0  0  0  0  0  0  0  0  0  0  0  0
    6.7155    4.4520  -59.3969 H   0  0  0  0  0  0  0  0  0  0  0  0
    5.9398    2.8318  -59.3969 H   0  0  0  0  0  0  0  0  0  0  0  0
    8.3222    3.9318  -60.4156 H   0  0  0  0  0  0  0  0  0  0  0  0
    8.2632    5.3698  -59.3155 H   0  0  0  0  0  0  0  0  0  0  0  0
   10.1700    5.5104  -60.8983 H   0  0  0  0  0  0  0  0  0  0  0  0
   10.5627    3.0638  -61.1858 H   0  0  0  0  0  0  0  0  0  0  0  0
   12.0670    3.8810  -60.6280 H   0  0  0  0  0  0  0  0  0  0  0  0
   11.6781    1.7702  -59.3911 H   0  0  0  0  0  0  0  0  0  0  0  0
    9.1925    1.7177  -59.5131 H   0  0  0  0  0  0  0  0  0  0  0  0
    9.7586    1.6191  -57.8019 H   0  0  0  0  0  0  0  0  0  0  0  0
   11.4745    5.2910  -56.8187 H   0  0  0  0  0  0  0  0  0  0  0  0
   10.3850    6.5318  -58.6488 H   0  0  0  0  0  0  0  0  0  0  0  0
   11.9647    5.8565  -59.1807 H   0  0  0  0  0  0  0  0  0  0  0  0
    9.6368    3.6382  -56.3145 H   0  0  0  0  0  0  0  0  0  0  0  0
    8.0060    5.1640  -56.4370 H   0  0  0  0  0  0  0  0  0  0  0  0
    5.0498    2.2484  -57.3330 H   0  0  0  0  0  0  0  0  0  0  0  0
    4.4412    0.5635  -55.5077 H   0  0  0  0  0  0  0  0  0  0  0  0
    6.0003   -2.0113  -51.8646 H   0  0  0  0  0  0  0  0  0  0  0  0
  1  2  1  0
  2  3  1  0
  3  4  1  0
  4  5  2  0
  5  6  1  0
  6  7  2  0
  7  8  1  0
  8  9  1  0
  9 10  2  0
 10 11  1  0
 11 12  1  0
 12 13  1  0
 13 14  1  0
 15 13  1  1
 15 16  1  0
 16 17  1  0
 17 18  1  0
 18 19  1  0
 19 20  1  0
 19 21  1  0
 21 22  2  0
 21 23  1  0
 23 24  1  0
 23 25  1  0
 25 26  1  0
 12 27  2  0
 27 28  1  0
 28 29  2  0
 29 30  1  0
  7 31  1  0
 31  3  2  0
 30  8  2  0
 29 10  1  0
 20 15  1  0
 25 15  1  0
 24 17  1  0
  1 32  1  0
  1 33  1  0
  1 34  1  0
  4 35  1  0
  5 36  1  0
  6 37  1  0
  9 38  1  0
 11 39  1  0
 14 40  1  0
 14 41  1  0
 14 42  1  0
 16 43  1  0
 16 44  1  0
 17 45  1  6
 18 46  1  0
 18 47  1  0
 19 48  1  6
 20 49  1  0
 20 50  1  0
 23 51  1  1
 24 52  1  0
 24 53  1  0
 25 54  1  1
 26 55  1  0
 27 56  1  0
 28 57  1  0
 31 58  1  0
M  END
>  <meeko>  (186) 
{"is_sidechain": false}

$$$$

     RDKit          3D

 58 63  0  0  0  0  0  0  0  0999 V2000
    6.1330   -4.0380  -50.3390 C   0  0  0  0  0  0  0  0  0  0  0  0
    7.0840   -3.0410  -49.9880 O   0  0  0  0  0  0  0  0  0  0  0  0
    8.0570   -2.7610  -50.9100 C   0  0  0  0  0  0  0  0  0  0  0  0
    9.3470   -3.2880  -50.9260 C   0  0  0  0  0  0  0  0  0  0  0  0
   10.2410   -2.9130  -51.9300 C   0  0  0  0  0  0  0  0  0  0  0  0
    9.8520   -2.0090  -52.9200 C   0  0  0  0  0  0  0  0  0  0  0  0
    8.5610   -1.4650  -52.9170 C   0  0  0  0  0  0  0  0  0  0  0  0
    8.1370   -0.5160  -53.9480 C   0  0  0  0  0  0  0  0  0  0  0  0
    8.8070    0.5570  -54.5170 C   0  0  0  0  0  0  0  0  0  0  0  0
    7.9600    1.1470  -55.4820 C   0  0  0  0  0  0  0  0  0  0  0  0
    8.1900    2.2190  -56.2760 N   0  0  0  0  0  0  0  0  0  0  0  0
    7.1820    2.5580  -57.1090 C   0  0  0  0  0  0  0  0  0  0  0  0
    7.3540    3.6730  -57.9690 N   0  0  0  0  0  0  0  0  0  0  0  0
    6.2870    3.6460  -58.9800 C   0  0  0  0  0  0  0  0  0  0  0  0
    8.7700    3.8770  -58.4420 C   0  0  2  0  0  0  0  0  0  0  0  0
    8.7400    4.2370  -59.9590 C   0  0  0  0  0  0  0  0  0  0  0  0
   10.1620    4.3930  -60.5290 C   0  0  2  0  0  0  0  0  0  0  0  0
   10.9210    3.0660  -60.3700 C   0  0  0  0  0  0  0  0  0  0  0  0
   10.9890    2.6850  -58.8890 C   0  0  2  0  0  0  0  0  0  0  0  0
    9.5840    2.5520  -58.2990 C   0  0  0  0  0  0  0  0  0  0  0  0
   11.6910    3.8210  -58.1680 C   0  0  0  0  0  0  0  0  0  0  0  0
   12.7880    3.6820  -57.6360 O   0  0  0  0  0  0  0  0  0  0  0  0
   10.9790    5.1590  -58.2670 C   0  0  1  0  0  0  0  0  0  0  0  0
   10.9130    5.5020  -59.7620 C   0  0  0  0  0  0  0  0  0  0  0  0
    9.5570    5.0190  -57.7050 C   0  0  2  0  0  0  0  0  0  0  0  0
    9.6160    4.8040  -56.2980 O   0  0  0  0  0  0  0  0  0  0  0  0
    5.9730    1.8610  -57.1820 C   0  0  0  0  0  0  0  0  0  0  0  0
    5.7380    0.7570  -56.3630 C   0  0  0  0  0  0  0  0  0  0  0  0
    6.7770    0.4210  -55.5020 C   0  0  0  0  0  0  0  0  0  0  0  0
    6.9080   -0.5820  -54.5750 N   0  0  0  0  0  0  0  0  0  0  0  0
    7.6720   -1.8560  -51.9070 C   0  0  0  0  0  0  0  0  0  0  0  0
    5.7110   -4.4804  -49.4245 H   0  0  0  0  0  0  0  0  0  0  0  0
    5.3262   -3.5826  -50.9320 H   0  0  0  0  0  0  0  0  0  0  0  0
    6.6260   -4.8224  -50.9320 H   0  0  0  0  0  0  0  0  0  0  0  0
    9.6605   -3.9992  -50.1476 H   0  0  0  0  0  0  0  0  0  0  0  0
   11.2579   -3.3322  -51.9413 H   0  0  0  0  0  0  0  0  0  0  0  0
   10.5640   -1.7218  -53.7078 H   0  0  0  0  0  0  0  0  0  0  0  0
    9.8232    0.8913  -54.2610 H   0  0  0  0  0  0  0  0  0  0  0  0
    5.3079    3.6212  -58.4792 H   0  0  0  0  0  0  0  0  0  0  0  0
    6.3546    4.5461  -59.6086 H   0  0  0  0  0  0  0  0  0  0  0  0
    6.4001    2.7504  -59.6086 H   0  0  0  0  0  0  0  0  0  0  0  0
    8.2211    3.4363  -60.5064 H   0  0  0  0  0  0  0  0  0  0  0  0
    8.2135    5.1956  -60.0764 H   0  0  0  0  0  0  0  0  0  0  0  0
   10.0995    4.6630  -61.5935 H   0  0  0  0  0  0  0  0  0  0  0  0
   10.3966    2.2757  -60.9272 H   0  0  0  0  0  0  0  0  0  0  0  0
   11.9416    3.1805  -60.7640 H   0  0  0  0  0  0  0  0  0  0  0  0
   11.5160    1.7260  -58.7766 H   0  0  0  0  0  0  0  0  0  0  0  0
    9.0506    1.7472  -58.8262 H   0  0  0  0  0  0  0  0  0  0  0  0
    9.6821    2.3237  -57.2274 H   0  0  0  0  0  0  0  0  0  0  0  0
   11.5025    5.9424  -57.6993 H   0  0  0  0  0  0  0  0  0  0  0  0
   10.3835    6.4572  -59.8929 H   0  0  0  0  0  0  0  0  0  0  0  0
   11.9361    5.5834  -60.1578 H   0  0  0  0  0  0  0  0  0  0  0  0
    9.0037    5.9524  -57.8858 H   0  0  0  0  0  0  0  0  0  0  0  0
    8.8480    5.3040  -55.9400 H   0  0  0  0  0  0  0  0  0  0  0  0
    5.1989    2.1864  -57.8926 H   0  0  0  0  0  0  0  0  0  0  0  0
    4.7955    0.1908  -56.3958 H   0  0  0  0  0  0  0  0  0  0  0  0
    6.2100   -1.2890  -54.3920 H   0  0  0  0  0  0  0  0  0  0  0  0
    6.6520   -1.4442  -51.8970 H   0  0  0  0  0  0  0  0  0  0  0  0
  1  2  1  0
  2  3  1  0
  3  4  1  0
  4  5  2  0
  5  6  1  0
  6  7  2  0
  7  8  1  0
  8  9  2  0
  9 10  1  0
 10 11  1  0
 11 12  2  0
 12 13  1  0
 13 14  1  0
 15 13  1  1
 15 16  1  0
 16 17  1  0
 17 18  1  0
 18 19  1  0
 19 20  1  0
 19 21  1  0
 21 22  2  0
 21 23  1  0
 23 24  1  0
 23 25  1  0
 25 26  1  0
 12 27  1  0
 27 28  2  0
 28 29  1  0
 29 30  1  0
  7 31  1  0
 31  3  2  0
 30  8  1  0
 29 10  2  0
 20 15  1  0
 25 15  1  0
 24 17  1  0
  1 32  1  0
  1 33  1  0
  1 34  1  0
  4 35  1  0
  5 36  1  0
  6 37  1  0
  9 38  1  0
 14 39  1  0
 14 40  1  0
 14 41  1  0
 16 42  1  0
 16 43  1  0
 17 44  1  6
 18 45  1  0
 18 46  1  0
 19 47  1  6
 20 48  1  0
 20 49  1  0
 23 50  1  1
 24 51  1  0
 24 52  1  0
 25 53  1  1
 26 54  1  0
 27 55  1  0
 28 56  1  0
 30 57  1  0
 31 58  1  0
M  END
>  <meeko>  (187) 
{"is_sidechain": false}

$$$$

     RDKit          3D

 58 63  0  0  0  0  0  0  0  0999 V2000
    5.6900   -4.0560  -50.3900 C   0  0  0  0  0  0  0  0  0  0  0  0
    6.7570   -3.2830  -49.8550 O   0  0  0  0  0  0  0  0  0  0  0  0
    7.7770   -2.9620  -50.7100 C   0  0  0  0  0  0  0  0  0  0  0  0
    9.0950   -3.4050  -50.6170 C   0  0  0  0  0  0  0  0  0  0  0  0
   10.0370   -2.9930  -51.5610 C   0  0  0  0  0  0  0  0  0  0  0  0
    9.6640   -2.1410  -52.6030 C   0  0  0  0  0  0  0  0  0  0  0  0
    8.3440   -1.6910  -52.7170 C   0  0  0  0  0  0  0  0  0  0  0  0
    7.9590   -0.8030  -53.8160 C   0  0  0  0  0  0  0  0  0  0  0  0
    8.7050   -0.2880  -54.8650 C   0  0  0  0  0  0  0  0  0  0  0  0
    7.8540    0.5080  -55.6660 C   0  0  0  0  0  0  0  0  0  0  0  0
    8.1480    1.2020  -56.7910 N   0  0  0  0  0  0  0  0  0  0  0  0
    7.1170    1.8680  -57.3550 C   0  0  0  0  0  0  0  0  0  0  0  0
    7.3510    2.6100  -58.5400 N   0  0  0  0  0  0  0  0  0  0  0  0
    6.1480    3.4020  -58.8360 C   0  0  0  0  0  0  0  0  0  0  0  0
    8.6830    3.3130  -58.5770 C   0  0  2  0  0  0  0  0  0  0  0  0
    8.6030    4.5860  -59.4780 C   0  0  0  0  0  0  0  0  0  0  0  0
    9.9690    5.2730  -59.6200 C   0  0  2  0  0  0  0  0  0  0  0  0
   10.9700    4.2970  -60.2570 C   0  0  0  0  0  0  0  0  0  0  0  0
   11.0910    3.0410  -59.3930 C   0  0  2  0  0  0  0  0  0  0  0  0
    9.7270    2.3570  -59.2380 C   0  0  0  0  0  0  0  0  0  0  0  0
   11.5400    3.4770  -58.0070 C   0  0  0  0  0  0  0  0  0  0  0  0
   12.5680    3.0600  -57.4840 O   0  0  0  0  0  0  0  0  0  0  0  0
   10.5990    4.4540  -57.3260 C   0  0  1  0  0  0  0  0  0  0  0  0
   10.4780    5.6870  -58.2280 C   0  0  0  0  0  0  0  0  0  0  0  0
    9.2570    3.7260  -57.1700 C   0  0  1  0  0  0  0  0  0  0  0  0
    8.3490    4.5700  -56.4590 O   0  0  0  0  0  0  0  0  0  0  0  0
    5.8220    1.8710  -56.8280 C   0  0  0  0  0  0  0  0  0  0  0  0
    5.5210    1.1540  -55.6720 C   0  0  0  0  0  0  0  0  0  0  0  0
    6.5880    0.4660  -55.1030 C   0  0  0  0  0  0  0  0  0  0  0  0
    6.6720   -0.3310  -53.9890 N   0  0  0  0  0  0  0  0  0  0  0  0
    7.4100   -2.1080  -51.7570 C   0  0  0  0  0  0  0  0  0  0  0  0
    5.0989   -4.4842  -49.5670 H   0  0  0  0  0  0  0  0  0  0  0  0
    5.0459   -3.4135  -51.0084 H   0  0  0  0  0  0  0  0  0  0  0  0
    6.0998   -4.8682  -51.0084 H   0  0  0  0  0  0  0  0  0  0  0  0
    9.3928   -4.0789  -49.8002 H   0  0  0  0  0  0  0  0  0  0  0  0
   11.0777   -3.3408  -51.4840 H   0  0  0  0  0  0  0  0  0  0  0  0
   10.4146   -1.8209  -53.3406 H   0  0  0  0  0  0  0  0  0  0  0  0
    9.7754   -0.4678  -55.0436 H   0  0  0  0  0  0  0  0  0  0  0  0
    5.6736    3.7143  -57.8939 H   0  0  0  0  0  0  0  0  0  0  0  0
    6.4291    4.2923  -59.4177 H   0  0  0  0  0  0  0  0  0  0  0  0
    5.4413    2.7919  -59.4177 H   0  0  0  0  0  0  0  0  0  0  0  0
    8.2465    4.2932  -60.4766 H   0  0  0  0  0  0  0  0  0  0  0  0
    7.9111    5.2972  -59.0031 H   0  0  0  0  0  0  0  0  0  0  0  0
    9.8675    6.1636  -60.2575 H   0  0  0  0  0  0  0  0  0  0  0  0
   10.6184    4.0170  -61.2610 H   0  0  0  0  0  0  0  0  0  0  0  0
   11.9540    4.7830  -60.3308 H   0  0  0  0  0  0  0  0  0  0  0  0
   11.7997    2.3440  -59.8641 H   0  0  0  0  0  0  0  0  0  0  0  0
    9.3609    2.0590  -60.2315 H   0  0  0  0  0  0  0  0  0  0  0  0
    9.8518    1.4779  -58.5887 H   0  0  0  0  0  0  0  0  0  0  0  0
   10.9511    4.7851  -56.3379 H   0  0  0  0  0  0  0  0  0  0  0  0
    9.7704    6.3992  -57.7784 H   0  0  0  0  0  0  0  0  0  0  0  0
   11.4669    6.1578  -58.3305 H   0  0  0  0  0  0  0  0  0  0  0  0
    9.4018    2.7992  -56.5954 H   0  0  0  0  0  0  0  0  0  0  0  0
    8.1310    4.0610  -55.6460 H   0  0  0  0  0  0  0  0  0  0  0  0
    5.0314    2.4463  -57.3321 H   0  0  0  0  0  0  0  0  0  0  0  0
    4.5099    1.1333  -55.2392 H   0  0  0  0  0  0  0  0  0  0  0  0
    5.8920   -0.5610  -53.3890 H   0  0  0  0  0  0  0  0  0  0  0  0
    6.3698   -1.7575  -51.8282 H   0  0  0  0  0  0  0  0  0  0  0  0
  1  2  1  0
  2  3  1  0
  3  4  1  0
  4  5  2  0
  5  6  1  0
  6  7  2  0
  7  8  1  0
  8  9  2  0
  9 10  1  0
 10 11  1  0
 11 12  2  0
 12 13  1  0
 13 14  1  0
 15 13  1  1
 15 16  1  0
 16 17  1  0
 17 18  1  0
 18 19  1  0
 19 20  1  0
 19 21  1  0
 21 22  2  0
 21 23  1  0
 23 24  1  0
 23 25  1  0
 25 26  1  0
 12 27  1  0
 27 28  2  0
 28 29  1  0
 29 30  1  0
  7 31  1  0
 31  3  2  0
 30  8  1  0
 29 10  2  0
 20 15  1  0
 25 15  1  0
 24 17  1  0
  1 32  1  0
  1 33  1  0
  1 34  1  0
  4 35  1  0
  5 36  1  0
  6 37  1  0
  9 38  1  0
 14 39  1  0
 14 40  1  0
 14 41  1  0
 16 42  1  0
 16 43  1  0
 17 44  1  6
 18 45  1  0
 18 46  1  0
 19 47  1  6
 20 48  1  0
 20 49  1  0
 23 50  1  1
 24 51  1  0
 24 52  1  0
 25 53  1  1
 26 54  1  0
 27 55  1  0
 28 56  1  0
 30 57  1  0
 31 58  1  0
M  END
>  <meeko>  (188) 
{"is_sidechain": false}

$$$$

     RDKit          3D

 52 58  0  0  0  0  0  0  0  0999 V2000
    5.0000   -4.2730  -50.2970 O   0  0  0  0  0  0  0  0  0  0  0  0
    6.1170   -3.9160  -50.6570 C   0  0  0  0  0  0  0  0  0  0  0  0
    7.1430   -4.8780  -51.2300 C   0  0  2  0  0  0  0  0  0  0  0  0
    8.3760   -4.8310  -50.3220 C   0  0  0  0  0  0  0  0  0  0  0  0
    8.9290   -3.3950  -50.2600 C   0  0  2  0  0  0  0  0  0  0  0  0
    7.8470   -2.4620  -49.6810 C   0  0  0  0  0  0  0  0  0  0  0  0
    6.5970   -2.4790  -50.5710 C   0  0  1  0  0  0  0  0  0  0  0  0
    6.9430   -2.0260  -51.9950 C   0  0  0  0  0  0  0  0  0  0  0  0
    8.0570   -2.9230  -52.5910 C   0  0  1  0  0  0  0  0  0  0  0  0
    8.3820   -2.5430  -53.9640 N   0  0  0  0  0  0  0  0  0  0  0  0
    8.3920   -1.3230  -54.6040 C   0  0  0  0  0  0  0  0  0  0  0  0
    7.3240   -0.4960  -54.7480 C   0  0  0  0  0  0  0  0  0  0  0  0
    7.4350    0.7870  -55.4400 C   0  0  0  0  0  0  0  0  0  0  0  0
    8.6140    1.1380  -55.9620 C   0  0  0  0  0  0  0  0  0  0  0  0
    8.9580    2.2630  -56.6560 N   0  0  0  0  0  0  0  0  0  0  0  0
   10.2110    2.0640  -56.9640 C   0  0  0  0  0  0  0  0  0  0  0  0
   11.0210    3.0200  -57.7200 C   0  0  0  0  0  0  0  0  0  0  0  0
   12.2420    3.4680  -57.1930 C   0  0  0  0  0  0  0  0  0  0  0  0
   13.0500    4.3620  -57.9010 C   0  0  0  0  0  0  0  0  0  0  0  0
   12.6550    4.8460  -59.1550 C   0  0  0  0  0  0  0  0  0  0  0  0
   11.4220    4.4320  -59.6760 C   0  0  0  0  0  0  0  0  0  0  0  0
   10.7910    4.7590  -60.8470 N   0  0  0  0  0  0  0  0  0  0  0  0
    9.6200    4.1330  -60.8730 N   0  0  0  0  0  0  0  0  0  0  0  0
    9.5120    3.4360  -59.7310 N   0  0  0  0  0  0  0  0  0  0  0  0
   10.6310    3.5440  -58.9550 C   0  0  0  0  0  0  0  0  0  0  0  0
   10.8030    0.8040  -56.4720 C   0  0  0  0  0  0  0  0  0  0  0  0
    9.7620    0.2590  -55.8430 C   0  0  0  0  0  0  0  0  0  0  0  0
    9.6060   -0.9080  -55.1440 N   0  0  0  0  0  0  0  0  0  0  0  0
    9.3030   -2.9280  -51.6790 C   0  0  0  0  0  0  0  0  0  0  0  0
    7.4960   -4.3800  -52.6360 C   0  0  0  0  0  0  0  0  0  0  0  0
    6.7676   -5.9105  -51.2850 H   0  0  0  0  0  0  0  0  0  0  0  0
    8.0958   -5.1576  -49.3097 H   0  0  0  0  0  0  0  0  0  0  0  0
    9.1497   -5.4990  -50.7283 H   0  0  0  0  0  0  0  0  0  0  0  0
    9.8229   -3.3688  -49.6195 H   0  0  0  0  0  0  0  0  0  0  0  0
    7.5774   -2.8023  -48.6703 H   0  0  0  0  0  0  0  0  0  0  0  0
    8.2432   -1.4367  -49.6403 H   0  0  0  0  0  0  0  0  0  0  0  0
    5.8373   -1.8067  -50.1458 H   0  0  0  0  0  0  0  0  0  0  0  0
    6.0447   -2.0961  -52.6260 H   0  0  0  0  0  0  0  0  0  0  0  0
    7.3012   -0.9865  -51.9618 H   0  0  0  0  0  0  0  0  0  0  0  0
    9.0370   -3.1770  -54.4100 H   0  0  0  0  0  0  0  0  0  0  0  0
    6.3513   -0.7993  -54.3335 H   0  0  0  0  0  0  0  0  0  0  0  0
    6.5632    1.4518  -55.5294 H   0  0  0  0  0  0  0  0  0  0  0  0
   12.5688    3.1094  -56.2058 H   0  0  0  0  0  0  0  0  0  0  0  0
   14.0070    4.6894  -57.4687 H   0  0  0  0  0  0  0  0  0  0  0  0
   13.2994    5.5366  -59.7188 H   0  0  0  0  0  0  0  0  0  0  0  0
    8.6510    2.9330  -59.5530 H   0  0  0  0  0  0  0  0  0  0  0  0
   11.8265    0.4192  -56.5921 H   0  0  0  0  0  0  0  0  0  0  0  0
   10.3570   -1.5800  -55.1580 H   0  0  0  0  0  0  0  0  0  0  0  0
   10.0562   -3.6112  -52.0985 H   0  0  0  0  0  0  0  0  0  0  0  0
    9.7078   -1.9067  -51.6230 H   0  0  0  0  0  0  0  0  0  0  0  0
    6.5912   -4.3976  -53.2613 H   0  0  0  0  0  0  0  0  0  0  0  0
    8.2691   -5.0397  -53.0569 H   0  0  0  0  0  0  0  0  0  0  0  0
  1  2  2  0
  2  3  1  0
  3  4  1  0
  4  5  1  0
  5  6  1  0
  6  7  1  0
  7  8  1  0
  8  9  1  0
  9 10  1  6
 10 11  1  0
 11 12  2  0
 12 13  1  0
 13 14  2  0
 14 15  1  0
 15 16  2  0
 16 17  1  0
 17 18  1  0
 18 19  2  0
 19 20  1  0
 20 21  2  0
 21 22  1  0
 22 23  2  0
 23 24  1  0
 24 25  1  0
 16 26  1  0
 26 27  2  0
 27 28  1  0
  9 29  1  0
  9 30  1  0
  7  2  1  0
 28 11  1  0
 30  3  1  0
 29  5  1  0
 27 14  1  0
 25 17  2  0
 25 21  1  0
  3 31  1  6
  4 32  1  0
  4 33  1  0
  5 34  1  1
  6 35  1  0
  6 36  1  0
  7 37  1  1
  8 38  1  0
  8 39  1  0
 10 40  1  0
 12 41  1  0
 13 42  1  0
 18 43  1  0
 19 44  1  0
 20 45  1  0
 24 46  1  0
 26 47  1  0
 28 48  1  0
 29 49  1  0
 29 50  1  0
 30 51  1  0
 30 52  1  0
M  END
>  <meeko>  (189) 
{"is_sidechain": false}

$$$$

     RDKit          3D

 52 58  0  0  0  0  0  0  0  0999 V2000
    4.9840   -4.1720  -50.1820 O   0  0  0  0  0  0  0  0  0  0  0  0
    6.1040   -3.8700  -50.5780 C   0  0  0  0  0  0  0  0  0  0  0  0
    7.1130   -4.8960  -51.0650 C   0  0  2  0  0  0  0  0  0  0  0  0
    8.3560   -4.7770  -50.1740 C   0  0  0  0  0  0  0  0  0  0  0  0
    8.9210   -3.3420  -50.2320 C   0  0  2  0  0  0  0  0  0  0  0  0
    7.8490   -2.3600  -49.7280 C   0  0  0  0  0  0  0  0  0  0  0  0
    6.6060   -2.4370  -50.6220 C   0  0  1  0  0  0  0  0  0  0  0  0
    6.9740   -2.1280  -52.0780 C   0  0  0  0  0  0  0  0  0  0  0  0
    8.0560   -3.1200  -52.6020 C   0  0  1  0  0  0  0  0  0  0  0  0
    8.3650   -2.7520  -53.9760 N   0  0  0  0  0  0  0  0  0  0  0  0
    8.5000   -1.5260  -54.5960 C   0  0  0  0  0  0  0  0  0  0  0  0
    7.4440   -0.6660  -54.5900 C   0  0  0  0  0  0  0  0  0  0  0  0
    7.5220    0.6470  -55.2230 C   0  0  0  0  0  0  0  0  0  0  0  0
    8.6610    1.0030  -55.8250 C   0  0  0  0  0  0  0  0  0  0  0  0
    8.9740    2.1630  -56.4750 N   0  0  0  0  0  0  0  0  0  0  0  0
   10.2070    1.9810  -56.8650 C   0  0  0  0  0  0  0  0  0  0  0  0
   10.9890    2.9630  -57.6220 C   0  0  0  0  0  0  0  0  0  0  0  0
   12.2520    3.3910  -57.1680 C   0  0  0  0  0  0  0  0  0  0  0  0
   13.0010    4.3200  -57.8990 C   0  0  0  0  0  0  0  0  0  0  0  0
   12.5250    4.8520  -59.1020 C   0  0  0  0  0  0  0  0  0  0  0  0
   11.2700    4.4100  -59.5270 C   0  0  0  0  0  0  0  0  0  0  0  0
   10.5030    4.7020  -60.6200 N   0  0  0  0  0  0  0  0  0  0  0  0
    9.3350    4.0450  -60.6040 N   0  0  0  0  0  0  0  0  0  0  0  0
    9.3180    3.2930  -59.5110 N   0  0  0  0  0  0  0  0  0  0  0  0
   10.4960    3.4870  -58.8300 C   0  0  0  0  0  0  0  0  0  0  0  0
   10.8030    0.6780  -56.5000 C   0  0  0  0  0  0  0  0  0  0  0  0
    9.7960    0.1010  -55.8490 C   0  0  0  0  0  0  0  0  0  0  0  0
    9.6610   -1.1170  -55.2340 N   0  0  0  0  0  0  0  0  0  0  0  0
    9.2930   -2.9980  -51.6840 C   0  0  0  0  0  0  0  0  0  0  0  0
    7.4570   -4.5460  -52.5190 C   0  0  0  0  0  0  0  0  0  0  0  0
    6.7249   -5.9241  -51.0167 H   0  0  0  0  0  0  0  0  0  0  0  0
    8.0829   -5.0178  -49.1360 H   0  0  0  0  0  0  0  0  0  0  0  0
    9.1230   -5.4784  -50.5342 H   0  0  0  0  0  0  0  0  0  0  0  0
    9.8178   -3.2678  -49.5994 H   0  0  0  0  0  0  0  0  0  0  0  0
    7.5722   -2.6210  -48.6959 H   0  0  0  0  0  0  0  0  0  0  0  0
    8.2530   -1.3373  -49.7585 H   0  0  0  0  0  0  0  0  0  0  0  0
    5.8543   -1.7153  -50.2698 H   0  0  0  0  0  0  0  0  0  0  0  0
    6.0731   -2.2149  -52.7032 H   0  0  0  0  0  0  0  0  0  0  0  0
    7.3802   -1.1070  -52.1282 H   0  0  0  0  0  0  0  0  0  0  0  0
    8.4170   -3.5310  -54.6260 H   0  0  0  0  0  0  0  0  0  0  0  0
    6.5089   -0.9684  -54.0958 H   0  0  0  0  0  0  0  0  0  0  0  0
    6.6601    1.3302  -55.2049 H   0  0  0  0  0  0  0  0  0  0  0  0
   12.6548    2.9896  -56.2264 H   0  0  0  0  0  0  0  0  0  0  0  0
   13.9835    4.6382  -57.5201 H   0  0  0  0  0  0  0  0  0  0  0  0
   13.1089    5.5808  -59.6833 H   0  0  0  0  0  0  0  0  0  0  0  0
   10.6980    5.3270  -61.3920 H   0  0  0  0  0  0  0  0  0  0  0  0
   11.8103    0.2892  -56.7105 H   0  0  0  0  0  0  0  0  0  0  0  0
   10.4470   -1.7410  -55.2380 H   0  0  0  0  0  0  0  0  0  0  0  0
   10.0723   -3.6918  -52.0323 H   0  0  0  0  0  0  0  0  0  0  0  0
    9.6634   -1.9629  -51.7211 H   0  0  0  0  0  0  0  0  0  0  0  0
    6.5428   -4.5916  -53.1291 H   0  0  0  0  0  0  0  0  0  0  0  0
    8.1976   -5.2673  -52.8948 H   0  0  0  0  0  0  0  0  0  0  0  0
  1  2  2  0
  2  3  1  0
  3  4  1  0
  4  5  1  0
  5  6  1  0
  6  7  1  0
  7  8  1  0
  8  9  1  0
  9 10  1  6
 10 11  1  0
 11 12  2  0
 12 13  1  0
 13 14  2  0
 14 15  1  0
 15 16  2  0
 16 17  1  0
 17 18  1  0
 18 19  2  0
 19 20  1  0
 20 21  2  0
 21 22  1  0
 22 23  1  0
 23 24  2  0
 24 25  1  0
 16 26  1  0
 26 27  2  0
 27 28  1  0
  9 29  1  0
  9 30  1  0
  7  2  1  0
 28 11  1  0
 30  3  1  0
 29  5  1  0
 27 14  1  0
 25 17  2  0
 25 21  1  0
  3 31  1  6
  4 32  1  0
  4 33  1  0
  5 34  1  1
  6 35  1  0
  6 36  1  0
  7 37  1  1
  8 38  1  0
  8 39  1  0
 10 40  1  0
 12 41  1  0
 13 42  1  0
 18 43  1  0
 19 44  1  0
 20 45  1  0
 22 46  1  0
 26 47  1  0
 28 48  1  0
 29 49  1  0
 29 50  1  0
 30 51  1  0
 30 52  1  0
M  END
>  <meeko>  (190) 
{"is_sidechain": false}

$$$$

     RDKit          3D

 52 58  0  0  0  0  0  0  0  0999 V2000
   11.9320   -7.6040  -57.2570 O   0  0  0  0  0  0  0  0  0  0  0  0
   12.0090   -6.3910  -57.0950 C   0  0  0  0  0  0  0  0  0  0  0  0
   10.9210   -5.4260  -57.5440 C   0  0  2  0  0  0  0  0  0  0  0  0
   11.5580   -4.4380  -58.5240 C   0  0  0  0  0  0  0  0  0  0  0  0
   12.7220   -3.7000  -57.8410 C   0  0  2  0  0  0  0  0  0  0  0  0
   13.7900   -4.7240  -57.4150 C   0  0  0  0  0  0  0  0  0  0  0  0
   13.1940   -5.7210  -56.4160 C   0  0  1  0  0  0  0  0  0  0  0  0
   12.6610   -4.9900  -55.1760 C   0  0  0  0  0  0  0  0  0  0  0  0
   11.5700   -3.9620  -55.5780 C   0  0  1  0  0  0  0  0  0  0  0  0
   11.1090   -3.1460  -54.4340 N   0  0  0  0  0  0  0  0  0  0  0  0
   10.2830   -2.0470  -54.6970 C   0  0  0  0  0  0  0  0  0  0  0  0
    9.0020   -1.9550  -54.1570 C   0  0  0  0  0  0  0  0  0  0  0  0
    8.1970   -0.8490  -54.4260 C   0  0  0  0  0  0  0  0  0  0  0  0
    8.7600    0.1090  -55.2620 C   0  0  0  0  0  0  0  0  0  0  0  0
    8.2820    1.3050  -55.7380 N   0  0  0  0  0  0  0  0  0  0  0  0
    9.2080    1.9040  -56.5690 C   0  0  0  0  0  0  0  0  0  0  0  0
    8.9570    3.1700  -57.2320 C   0  0  0  0  0  0  0  0  0  0  0  0
    9.3440    4.4090  -56.6980 C   0  0  0  0  0  0  0  0  0  0  0  0
    9.0770    5.6050  -57.3730 C   0  0  0  0  0  0  0  0  0  0  0  0
    8.4100    5.6020  -58.6050 C   0  0  0  0  0  0  0  0  0  0  0  0
    8.0130    4.3710  -59.1480 C   0  0  0  0  0  0  0  0  0  0  0  0
    7.3510    4.0770  -60.3090 N   0  0  0  0  0  0  0  0  0  0  0  0
    7.1940    2.7600  -60.3730 N   0  0  0  0  0  0  0  0  0  0  0  0
    7.7510    2.2370  -59.2680 N   0  0  0  0  0  0  0  0  0  0  0  0
    8.2920    3.1980  -58.4600 C   0  0  0  0  0  0  0  0  0  0  0  0
   10.3130    1.0680  -56.5970 C   0  0  0  0  0  0  0  0  0  0  0  0
   10.0350   -0.0560  -55.7870 C   0  0  0  0  0  0  0  0  0  0  0  0
   10.8130   -1.1310  -55.5260 N   0  0  0  0  0  0  0  0  0  0  0  0
   12.1970   -2.9670  -56.5980 C   0  0  0  0  0  0  0  0  0  0  0  0
   10.4120   -4.7040  -56.2900 C   0  0  0  0  0  0  0  0  0  0  0  0
   10.0806   -5.9331  -58.0405 H   0  0  0  0  0  0  0  0  0  0  0  0
   11.9370   -4.9857  -59.3994 H   0  0  0  0  0  0  0  0  0  0  0  0
   10.8018   -3.7054  -58.8425 H   0  0  0  0  0  0  0  0  0  0  0  0
   13.1627   -2.9737  -58.5397 H   0  0  0  0  0  0  0  0  0  0  0  0
   14.1475   -5.2674  -58.3021 H   0  0  0  0  0  0  0  0  0  0  0  0
   14.6277   -4.1937  -56.9384 H   0  0  0  0  0  0  0  0  0  0  0  0
   13.9674   -6.4413  -56.1112 H   0  0  0  0  0  0  0  0  0  0  0  0
   12.2278   -5.7245  -54.4811 H   0  0  0  0  0  0  0  0  0  0  0  0
   13.4925   -4.4557  -54.6932 H   0  0  0  0  0  0  0  0  0  0  0  0
   10.4740   -3.7270  -53.8780 H   0  0  0  0  0  0  0  0  0  0  0  0
    8.6225   -2.7619  -53.5129 H   0  0  0  0  0  0  0  0  0  0  0  0
    7.1861   -0.7416  -54.0059 H   0  0  0  0  0  0  0  0  0  0  0  0
    7.3670    1.6810  -55.5320 H   0  0  0  0  0  0  0  0  0  0  0  0
    9.8670    4.4402  -55.7308 H   0  0  0  0  0  0  0  0  0  0  0  0
    9.3950    6.5605  -56.9305 H   0  0  0  0  0  0  0  0  0  0  0  0
    8.2023    6.5435  -59.1345 H   0  0  0  0  0  0  0  0  0  0  0  0
    7.7210    1.2340  -59.1300 H   0  0  0  0  0  0  0  0  0  0  0  0
   11.2447    1.2482  -57.1532 H   0  0  0  0  0  0  0  0  0  0  0  0
   11.4311   -2.2405  -56.9071 H   0  0  0  0  0  0  0  0  0  0  0  0
   13.0423   -2.4579  -56.1120 H   0  0  0  0  0  0  0  0  0  0  0  0
    9.9775   -5.4420  -55.5997 H   0  0  0  0  0  0  0  0  0  0  0  0
    9.6515   -3.9679  -56.5897 H   0  0  0  0  0  0  0  0  0  0  0  0
  1  2  2  0
  2  3  1  0
  3  4  1  0
  4  5  1  0
  5  6  1  0
  6  7  1  0
  7  8  1  0
  8  9  1  0
  9 10  1  1
 10 11  1  0
 11 12  1  0
 12 13  2  0
 13 14  1  0
 14 15  1  0
 15 16  1  0
 16 17  1  0
 17 18  1  0
 18 19  2  0
 19 20  1  0
 20 21  2  0
 21 22  1  0
 22 23  2  0
 23 24  1  0
 24 25  1  0
 16 26  2  0
 26 27  1  0
 27 28  1  0
  9 29  1  0
  9 30  1  0
  7  2  1  0
 28 11  2  0
 30  3  1  0
 29  5  1  0
 27 14  2  0
 25 17  2  0
 25 21  1  0
  3 31  1  6
  4 32  1  0
  4 33  1  0
  5 34  1  6
  6 35  1  0
  6 36  1  0
  7 37  1  1
  8 38  1  0
  8 39  1  0
 10 40  1  0
 12 41  1  0
 13 42  1  0
 15 43  1  0
 18 44  1  0
 19 45  1  0
 20 46  1  0
 24 47  1  0
 26 48  1  0
 29 49  1  0
 29 50  1  0
 30 51  1  0
 30 52  1  0
M  END
>  <meeko>  (191) 
{"is_sidechain": false}

$$$$

     RDKit          3D

 52 58  0  0  0  0  0  0  0  0999 V2000
    5.5260   -4.4860  -50.1010 O   0  0  0  0  0  0  0  0  0  0  0  0
    6.4310   -3.8960  -50.6820 C   0  0  0  0  0  0  0  0  0  0  0  0
    6.6060   -3.9370  -52.1930 C   0  0  2  0  0  0  0  0  0  0  0  0
    8.0010   -4.5000  -52.4810 C   0  0  0  0  0  0  0  0  0  0  0  0
    9.0720   -3.6220  -51.8070 C   0  0  2  0  0  0  0  0  0  0  0  0
    8.8470   -3.6350  -50.2840 C   0  0  0  0  0  0  0  0  0  0  0  0
    7.4690   -3.0540  -49.9540 C   0  0  1  0  0  0  0  0  0  0  0  0
    7.3480   -1.6190  -50.4830 C   0  0  0  0  0  0  0  0  0  0  0  0
    7.5370   -1.5920  -52.0210 C   0  0  1  0  0  0  0  0  0  0  0  0
    7.5130   -0.2300  -52.5460 N   0  0  0  0  0  0  0  0  0  0  0  0
    7.3160    0.2680  -53.8170 C   0  0  0  0  0  0  0  0  0  0  0  0
    6.1230    0.3490  -54.4600 C   0  0  0  0  0  0  0  0  0  0  0  0
    6.0170    0.8940  -55.8130 C   0  0  0  0  0  0  0  0  0  0  0  0
    7.1240    1.3360  -56.4180 C   0  0  0  0  0  0  0  0  0  0  0  0
    7.2740    1.9020  -57.6510 N   0  0  0  0  0  0  0  0  0  0  0  0
    8.5530    2.1810  -57.7240 C   0  0  0  0  0  0  0  0  0  0  0  0
    9.1550    2.8150  -58.9040 C   0  0  0  0  0  0  0  0  0  0  0  0
    8.8870    2.2970  -60.1970 C   0  0  0  0  0  0  0  0  0  0  0  0
    9.4230    2.8430  -61.3930 C   0  0  0  0  0  0  0  0  0  0  0  0
   10.2760    3.9570  -61.4070 C   0  0  0  0  0  0  0  0  0  0  0  0
   10.5630    4.4960  -60.1410 C   0  0  0  0  0  0  0  0  0  0  0  0
   11.3380    5.5480  -59.8370 N   0  0  0  0  0  0  0  0  0  0  0  0
   11.2410    5.5970  -58.5080 N   0  0  0  0  0  0  0  0  0  0  0  0
   10.4880    4.6930  -57.8750 N   0  0  0  0  0  0  0  0  0  0  0  0
   10.0130    3.9380  -58.8880 C   0  0  0  0  0  0  0  0  0  0  0  0
    9.3390    1.8070  -56.5310 C   0  0  0  0  0  0  0  0  0  0  0  0
    8.4030    1.2720  -55.7480 C   0  0  0  0  0  0  0  0  0  0  0  0
    8.4450    0.7180  -54.4940 N   0  0  0  0  0  0  0  0  0  0  0  0
    8.9460   -2.1810  -52.3260 C   0  0  0  0  0  0  0  0  0  0  0  0
    6.4870   -2.4970  -52.7080 C   0  0  0  0  0  0  0  0  0  0  0  0
    5.8506   -4.5661  -52.6865 H   0  0  0  0  0  0  0  0  0  0  0  0
    8.0689   -5.5247  -52.0868 H   0  0  0  0  0  0  0  0  0  0  0  0
    8.1707   -4.5067  -53.5678 H   0  0  0  0  0  0  0  0  0  0  0  0
   10.0741   -4.0117  -52.0391 H   0  0  0  0  0  0  0  0  0  0  0  0
    8.9037   -4.6701  -49.9161 H   0  0  0  0  0  0  0  0  0  0  0  0
    9.6225   -3.0240  -49.7988 H   0  0  0  0  0  0  0  0  0  0  0  0
    7.3232   -3.0569  -48.8637 H   0  0  0  0  0  0  0  0  0  0  0  0
    6.3524   -1.2235  -50.2332 H   0  0  0  0  0  0  0  0  0  0  0  0
    8.1287   -1.0000  -50.0168 H   0  0  0  0  0  0  0  0  0  0  0  0
    8.0750    0.4210  -52.0040 H   0  0  0  0  0  0  0  0  0  0  0  0
    5.2140   -0.0039  -53.9509 H   0  0  0  0  0  0  0  0  0  0  0  0
    5.0438    0.9394  -56.3236 H   0  0  0  0  0  0  0  0  0  0  0  0
    8.2257    1.4217  -60.2778 H   0  0  0  0  0  0  0  0  0  0  0  0
    9.1578    2.3719  -62.3510 H   0  0  0  0  0  0  0  0  0  0  0  0
   10.6882    4.3761  -62.3368 H   0  0  0  0  0  0  0  0  0  0  0  0
   11.7370    6.3140  -57.9830 H   0  0  0  0  0  0  0  0  0  0  0  0
   10.4144    1.9361  -56.3392 H   0  0  0  0  0  0  0  0  0  0  0  0
    9.2990    0.8100  -53.9660 H   0  0  0  0  0  0  0  0  0  0  0  0
    9.1087   -2.1763  -53.4139 H   0  0  0  0  0  0  0  0  0  0  0  0
    9.6993   -1.5613  -51.8176 H   0  0  0  0  0  0  0  0  0  0  0  0
    5.4792   -2.1151  -52.4878 H   0  0  0  0  0  0  0  0  0  0  0  0
    6.6641   -2.4897  -53.7936 H   0  0  0  0  0  0  0  0  0  0  0  0
  1  2  2  0
  2  3  1  0
  3  4  1  0
  4  5  1  0
  5  6  1  0
  6  7  1  0
  7  8  1  0
  8  9  1  0
  9 10  1  6
 10 11  1  0
 11 12  2  0
 12 13  1  0
 13 14  2  0
 14 15  1  0
 15 16  2  0
 16 17  1  0
 17 18  2  0
 18 19  1  0
 19 20  2  0
 20 21  1  0
 21 22  2  0
 22 23  1  0
 23 24  1  0
 24 25  2  0
 16 26  1  0
 26 27  2  0
 27 28  1  0
  9 29  1  0
  9 30  1  0
  7  2  1  0
 28 11  1  0
 30  3  1  0
 29  5  1  0
 27 14  1  0
 25 17  1  0
 25 21  1  0
  3 31  1  6
  4 32  1  0
  4 33  1  0
  5 34  1  1
  6 35  1  0
  6 36  1  0
  7 37  1  1
  8 38  1  0
  8 39  1  0
 10 40  1  0
 12 41  1  0
 13 42  1  0
 18 43  1  0
 19 44  1  0
 20 45  1  0
 23 46  1  0
 26 47  1  0
 28 48  1  0
 29 49  1  0
 29 50  1  0
 30 51  1  0
 30 52  1  0
M  END
>  <meeko>  (192) 
{"is_sidechain": false}

$$$$

     RDKit          3D

 52 58  0  0  0  0  0  0  0  0999 V2000
   12.8050    3.7350  -57.5810 O   0  0  0  0  0  0  0  0  0  0  0  0
   11.7870    3.8970  -58.2470 C   0  0  0  0  0  0  0  0  0  0  0  0
   11.0970    2.7610  -58.9870 C   0  0  2  0  0  0  0  0  0  0  0  0
   11.0650    3.1310  -60.4720 C   0  0  0  0  0  0  0  0  0  0  0  0
   10.3250    4.4660  -60.6630 C   0  0  2  0  0  0  0  0  0  0  0  0
   11.0700    5.5740  -59.8960 C   0  0  0  0  0  0  0  0  0  0  0  0
   11.1020    5.2470  -58.4000 C   0  0  1  0  0  0  0  0  0  0  0  0
    9.6790    5.1080  -57.8450 C   0  0  0  0  0  0  0  0  0  0  0  0
    8.9110    3.9850  -58.5920 C   0  0  1  0  0  0  0  0  0  0  0  0
    7.4960    3.8880  -58.1770 N   0  0  0  0  0  0  0  0  0  0  0  0
    7.1280    2.8280  -57.3400 C   0  0  0  0  0  0  0  0  0  0  0  0
    5.8510    2.2730  -57.3910 C   0  0  0  0  0  0  0  0  0  0  0  0
    5.5070    1.2140  -56.5520 C   0  0  0  0  0  0  0  0  0  0  0  0
    6.5090    0.7870  -55.6870 C   0  0  0  0  0  0  0  0  0  0  0  0
    6.5370   -0.2030  -54.7360 N   0  0  0  0  0  0  0  0  0  0  0  0
    7.7710   -0.2580  -54.1160 C   0  0  0  0  0  0  0  0  0  0  0  0
    8.0910   -1.2240  -53.0670 C   0  0  0  0  0  0  0  0  0  0  0  0
    7.1470   -1.6390  -52.1070 C   0  0  0  0  0  0  0  0  0  0  0  0
    7.4780   -2.5670  -51.1130 C   0  0  0  0  0  0  0  0  0  0  0  0
    8.7590   -3.1210  -51.0330 C   0  0  0  0  0  0  0  0  0  0  0  0
    9.6780   -2.7010  -51.9960 C   0  0  0  0  0  0  0  0  0  0  0  0
   10.9870   -3.0190  -52.2300 N   0  0  0  0  0  0  0  0  0  0  0  0
   11.4830   -2.3570  -53.2850 N   0  0  0  0  0  0  0  0  0  0  0  0
   10.5120   -1.5920  -53.7650 N   0  0  0  0  0  0  0  0  0  0  0  0
    9.3860   -1.7820  -52.9980 C   0  0  0  0  0  0  0  0  0  0  0  0
    8.5330    0.7530  -54.6840 C   0  0  0  0  0  0  0  0  0  0  0  0
    7.7530    1.4000  -55.6700 C   0  0  0  0  0  0  0  0  0  0  0  0
    8.0840    2.4290  -56.4840 N   0  0  0  0  0  0  0  0  0  0  0  0
    8.8980    4.3360  -60.1090 C   0  0  0  0  0  0  0  0  0  0  0  0
    9.6750    2.6480  -58.4210 C   0  0  0  0  0  0  0  0  0  0  0  0
   11.6164    1.7989  -58.8662 H   0  0  0  0  0  0  0  0  0  0  0  0
   12.0949    3.2281  -60.8460 H   0  0  0  0  0  0  0  0  0  0  0  0
   10.5394    2.3424  -61.0305 H   0  0  0  0  0  0  0  0  0  0  0  0
   10.2858    4.7195  -61.7327 H   0  0  0  0  0  0  0  0  0  0  0  0
   12.1002    5.6491  -60.2743 H   0  0  0  0  0  0  0  0  0  0  0  0
   10.5465    6.5299  -60.0449 H   0  0  0  0  0  0  0  0  0  0  0  0
   11.6255    6.0497  -57.8599 H   0  0  0  0  0  0  0  0  0  0  0  0
    9.7306    4.8607  -56.7744 H   0  0  0  0  0  0  0  0  0  0  0  0
    9.1465    6.0596  -57.9894 H   0  0  0  0  0  0  0  0  0  0  0  0
    7.3040    4.6820  -57.5570 H   0  0  0  0  0  0  0  0  0  0  0  0
    5.1093    2.6731  -58.0980 H   0  0  0  0  0  0  0  0  0  0  0  0
    4.5109    0.7478  -56.5727 H   0  0  0  0  0  0  0  0  0  0  0  0
    5.7520   -0.7940  -54.5080 H   0  0  0  0  0  0  0  0  0  0  0  0
    6.1284   -1.2249  -52.1394 H   0  0  0  0  0  0  0  0  0  0  0  0
    6.7147   -2.8665  -50.3798 H   0  0  0  0  0  0  0  0  0  0  0  0
    9.0282   -3.8486  -50.2532 H   0  0  0  0  0  0  0  0  0  0  0  0
   11.5890   -3.6580  -51.7290 H   0  0  0  0  0  0  0  0  0  0  0  0
    9.5682    1.0079  -54.4132 H   0  0  0  0  0  0  0  0  0  0  0  0
    8.3719    3.5402  -60.6566 H   0  0  0  0  0  0  0  0  0  0  0  0
    8.3857    5.3008  -60.2382 H   0  0  0  0  0  0  0  0  0  0  0  0
    9.7307    2.3980  -57.3512 H   0  0  0  0  0  0  0  0  0  0  0  0
    9.1373    1.8602  -58.9689 H   0  0  0  0  0  0  0  0  0  0  0  0
  1  2  2  0
  2  3  1  0
  3  4  1  0
  4  5  1  0
  5  6  1  0
  6  7  1  0
  7  8  1  0
  8  9  1  0
  9 10  1  1
 10 11  1  0
 11 12  1  0
 12 13  2  0
 13 14  1  0
 14 15  1  0
 15 16  1  0
 16 17  1  0
 17 18  1  0
 18 19  2  0
 19 20  1  0
 20 21  2  0
 21 22  1  0
 22 23  1  0
 23 24  2  0
 24 25  1  0
 16 26  2  0
 26 27  1  0
 27 28  1  0
  9 29  1  0
  9 30  1  0
  7  2  1  0
 28 11  2  0
 30  3  1  0
 29  5  1  0
 27 14  2  0
 25 17  2  0
 25 21  1  0
  3 31  1  6
  4 32  1  0
  4 33  1  0
  5 34  1  6
  6 35  1  0
  6 36  1  0
  7 37  1  1
  8 38  1  0
  8 39  1  0
 10 40  1  0
 12 41  1  0
 13 42  1  0
 15 43  1  0
 18 44  1  0
 19 45  1  0
 20 46  1  0
 22 47  1  0
 26 48  1  0
 29 49  1  0
 29 50  1  0
 30 51  1  0
 30 52  1  0
M  END
>  <meeko>  (193) 
{"is_sidechain": false}

$$$$

     RDKit          3D

 52 58  0  0  0  0  0  0  0  0999 V2000
    8.0670   -5.9440  -50.3660 O   0  0  0  0  0  0  0  0  0  0  0  0
    7.9290   -4.7840  -50.7450 C   0  0  0  0  0  0  0  0  0  0  0  0
    8.6860   -3.6180  -50.1260 C   0  0  2  0  0  0  0  0  0  0  0  0
    7.6560   -2.5900  -49.6500 C   0  0  0  0  0  0  0  0  0  0  0  0
    6.7830   -2.1360  -50.8330 C   0  0  2  0  0  0  0  0  0  0  0  0
    6.0240   -3.3540  -51.3890 C   0  0  0  0  0  0  0  0  0  0  0  0
    7.0180   -4.3990  -51.9020 C   0  0  1  0  0  0  0  0  0  0  0  0
    7.9110   -3.8010  -52.9990 C   0  0  0  0  0  0  0  0  0  0  0  0
    8.7130   -2.6050  -52.4390 C   0  0  1  0  0  0  0  0  0  0  0  0
    9.4860   -1.9230  -53.4640 N   0  0  0  0  0  0  0  0  0  0  0  0
    9.1590   -0.9570  -54.2520 C   0  0  0  0  0  0  0  0  0  0  0  0
    7.8030   -0.2620  -54.2970 C   0  0  0  0  0  0  0  0  0  0  0  0
    7.6030    0.7430  -55.1710 C   0  0  0  0  0  0  0  0  0  0  0  0
    8.7040    1.0620  -55.9840 C   0  0  0  0  0  0  0  0  0  0  0  0
    8.7250    2.0470  -56.9240 N   0  0  0  0  0  0  0  0  0  0  0  0
    9.9710    2.0620  -57.5350 C   0  0  0  0  0  0  0  0  0  0  0  0
   10.2980    2.9950  -58.5990 C   0  0  0  0  0  0  0  0  0  0  0  0
    9.5200    3.1490  -59.7560 C   0  0  0  0  0  0  0  0  0  0  0  0
    9.8790    4.0610  -60.7530 C   0  0  0  0  0  0  0  0  0  0  0  0
   11.0320    4.8490  -60.6270 C   0  0  0  0  0  0  0  0  0  0  0  0
   11.8210    4.7000  -59.4780 C   0  0  0  0  0  0  0  0  0  0  0  0
   12.9820    5.3210  -59.1010 N   0  0  0  0  0  0  0  0  0  0  0  0
   13.3520    4.8260  -57.9270 N   0  0  0  0  0  0  0  0  0  0  0  0
   12.4390    3.9070  -57.5730 N   0  0  0  0  0  0  0  0  0  0  0  0
   11.4430    3.7900  -58.5010 C   0  0  0  0  0  0  0  0  0  0  0  0
   10.7390    1.0690  -56.9330 C   0  0  0  0  0  0  0  0  0  0  0  0
    9.9280    0.4530  -55.9690 C   0  0  0  0  0  0  0  0  0  0  0  0
   10.1710   -0.5540  -55.1160 N   0  0  0  0  0  0  0  0  0  0  0  0
    7.6820   -1.5520  -51.9340 C   0  0  0  0  0  0  0  0  0  0  0  0
    9.5750   -3.0220  -51.2260 C   0  0  0  0  0  0  0  0  0  0  0  0
    9.3070   -3.9265  -49.2721 H   0  0  0  0  0  0  0  0  0  0  0  0
    7.0170   -3.0444  -48.8785 H   0  0  0  0  0  0  0  0  0  0  0  0
    8.1811   -1.7183  -49.2322 H   0  0  0  0  0  0  0  0  0  0  0  0
    6.0682   -1.3700  -50.4980 H   0  0  0  0  0  0  0  0  0  0  0  0
    5.4097   -3.7962  -50.5908 H   0  0  0  0  0  0  0  0  0  0  0  0
    5.3790   -3.0302  -52.2192 H   0  0  0  0  0  0  0  0  0  0  0  0
    6.4609   -5.2590  -52.3020 H   0  0  0  0  0  0  0  0  0  0  0  0
    8.6096   -4.5707  -53.3589 H   0  0  0  0  0  0  0  0  0  0  0  0
    7.2776   -3.4526  -53.8281 H   0  0  0  0  0  0  0  0  0  0  0  0
    6.9947   -0.5786  -53.6214 H   0  0  0  0  0  0  0  0  0  0  0  0
    6.6442    1.2772  -55.2435 H   0  0  0  0  0  0  0  0  0  0  0  0
    7.9570    2.6610  -57.1640 H   0  0  0  0  0  0  0  0  0  0  0  0
    8.6115    2.5416  -59.8811 H   0  0  0  0  0  0  0  0  0  0  0  0
    9.2483    4.1618  -61.6486 H   0  0  0  0  0  0  0  0  0  0  0  0
   11.3109    5.5676  -61.4118 H   0  0  0  0  0  0  0  0  0  0  0  0
   12.5560    3.4040  -56.7020 H   0  0  0  0  0  0  0  0  0  0  0  0
   11.7832    0.8158  -57.1687 H   0  0  0  0  0  0  0  0  0  0  0  0
   11.0510   -1.0440  -55.0260 H   0  0  0  0  0  0  0  0  0  0  0  0
    8.2242   -0.6838  -51.5312 H   0  0  0  0  0  0  0  0  0  0  0  0
    7.0460   -1.2542  -52.7807 H   0  0  0  0  0  0  0  0  0  0  0  0
   10.3121   -3.7736  -51.5449 H   0  0  0  0  0  0  0  0  0  0  0  0
   10.0914   -2.1352  -50.8299 H   0  0  0  0  0  0  0  0  0  0  0  0
  1  2  2  0
  2  3  1  0
  3  4  1  0
  4  5  1  0
  5  6  1  0
  6  7  1  0
  7  8  1  0
  8  9  1  0
  9 10  1  6
 10 11  2  0
 11 12  1  0
 12 13  2  0
 13 14  1  0
 14 15  1  0
 15 16  1  0
 16 17  1  0
 17 18  1  0
 18 19  2  0
 19 20  1  0
 20 21  2  0
 21 22  1  0
 22 23  2  0
 23 24  1  0
 24 25  1  0
 16 26  2  0
 26 27  1  0
 27 28  1  0
  9 29  1  0
  9 30  1  0
  7  2  1  0
 28 11  1  0
 30  3  1  0
 29  5  1  0
 27 14  2  0
 25 17  2  0
 25 21  1  0
  3 31  1  1
  4 32  1  0
  4 33  1  0
  5 34  1  1
  6 35  1  0
  6 36  1  0
  7 37  1  6
  8 38  1  0
  8 39  1  0
 12 40  1  0
 13 41  1  0
 15 42  1  0
 18 43  1  0
 19 44  1  0
 20 45  1  0
 24 46  1  0
 26 47  1  0
 28 48  1  0
 29 49  1  0
 29 50  1  0
 30 51  1  0
 30 52  1  0
M  END
>  <meeko>  (194) 
{"is_sidechain": false}

$$$$

     RDKit          3D

 52 58  0  0  0  0  0  0  0  0999 V2000
    7.5740   -5.8520  -50.1310 O   0  0  0  0  0  0  0  0  0  0  0  0
    7.7410   -4.7640  -50.6690 C   0  0  0  0  0  0  0  0  0  0  0  0
    8.6130   -3.6720  -50.0700 C   0  0  2  0  0  0  0  0  0  0  0  0
    7.7170   -2.4490  -49.8330 C   0  0  0  0  0  0  0  0  0  0  0  0
    7.0590   -2.0010  -51.1540 C   0  0  2  0  0  0  0  0  0  0  0  0
    6.2000   -3.1540  -51.7060 C   0  0  0  0  0  0  0  0  0  0  0  0
    7.0820   -4.3760  -51.9820 C   0  0  1  0  0  0  0  0  0  0  0  0
    8.2000   -4.0170  -52.9650 C   0  0  0  0  0  0  0  0  0  0  0  0
    9.0790   -2.8550  -52.4130 C   0  0  1  0  0  0  0  0  0  0  0  0
   10.0770   -2.6010  -53.4420 N   0  0  0  0  0  0  0  0  0  0  0  0
   10.0920   -1.6450  -54.3070 C   0  0  0  0  0  0  0  0  0  0  0  0
   11.3040   -1.6990  -55.2310 C   0  0  0  0  0  0  0  0  0  0  0  0
   11.4640   -0.7620  -56.1820 C   0  0  0  0  0  0  0  0  0  0  0  0
   10.4520    0.2120  -56.2290 C   0  0  0  0  0  0  0  0  0  0  0  0
   10.4170    1.2600  -57.0990 N   0  0  0  0  0  0  0  0  0  0  0  0
    9.2710    2.0040  -56.8630 C   0  0  0  0  0  0  0  0  0  0  0  0
    8.9400    3.1830  -57.6430 C   0  0  0  0  0  0  0  0  0  0  0  0
    9.2710    4.4860  -57.2470 C   0  0  0  0  0  0  0  0  0  0  0  0
    8.9290    5.5920  -58.0340 C   0  0  0  0  0  0  0  0  0  0  0  0
    8.2480    5.4260  -59.2480 C   0  0  0  0  0  0  0  0  0  0  0  0
    7.9160    4.1260  -59.6580 C   0  0  0  0  0  0  0  0  0  0  0  0
    7.2710    3.6760  -60.7800 N   0  0  0  0  0  0  0  0  0  0  0  0
    7.2110    2.3510  -60.7170 N   0  0  0  0  0  0  0  0  0  0  0  0
    7.8120    1.9760  -59.5760 N   0  0  0  0  0  0  0  0  0  0  0  0
    8.2660    3.0470  -58.8580 C   0  0  0  0  0  0  0  0  0  0  0  0
    8.5980    1.4040  -55.8020 C   0  0  0  0  0  0  0  0  0  0  0  0
    9.3520    0.2830  -55.4200 C   0  0  0  0  0  0  0  0  0  0  0  0
    9.1490   -0.6330  -54.4540 N   0  0  0  0  0  0  0  0  0  0  0  0
    8.1540   -1.6440  -52.1750 C   0  0  0  0  0  0  0  0  0  0  0  0
    9.7110   -3.3460  -51.0910 C   0  0  0  0  0  0  0  0  0  0  0  0
    9.0766   -3.9776  -49.1204 H   0  0  0  0  0  0  0  0  0  0  0  0
    6.9325   -2.7095  -49.1073 H   0  0  0  0  0  0  0  0  0  0  0  0
    8.3332   -1.6251  -49.4437 H   0  0  0  0  0  0  0  0  0  0  0  0
    6.4256   -1.1200  -50.9736 H   0  0  0  0  0  0  0  0  0  0  0  0
    5.4289   -3.4200  -50.9680 H   0  0  0  0  0  0  0  0  0  0  0  0
    5.7226   -2.8330  -52.6436 H   0  0  0  0  0  0  0  0  0  0  0  0
    6.4682   -5.1866  -52.4019 H   0  0  0  0  0  0  0  0  0  0  0  0
    8.8337   -4.9013  -53.1272 H   0  0  0  0  0  0  0  0  0  0  0  0
    7.7428   -3.6909  -53.9109 H   0  0  0  0  0  0  0  0  0  0  0  0
   12.0462   -2.5032  -55.1197 H   0  0  0  0  0  0  0  0  0  0  0  0
   12.3217   -0.7581  -56.8707 H   0  0  0  0  0  0  0  0  0  0  0  0
   11.0980    1.4600  -57.8200 H   0  0  0  0  0  0  0  0  0  0  0  0
    9.8093    4.6424  -56.3006 H   0  0  0  0  0  0  0  0  0  0  0  0
    9.1979    6.6036  -57.6957 H   0  0  0  0  0  0  0  0  0  0  0  0
    7.9798    6.2959  -59.8656 H   0  0  0  0  0  0  0  0  0  0  0  0
    7.8810    0.9900  -59.3560 H   0  0  0  0  0  0  0  0  0  0  0  0
    7.6548    1.7437  -55.3492 H   0  0  0  0  0  0  0  0  0  0  0  0
    8.3620   -0.5940  -53.8280 H   0  0  0  0  0  0  0  0  0  0  0  0
    8.7491   -0.8029  -51.7897 H   0  0  0  0  0  0  0  0  0  0  0  0
    7.6785   -1.3643  -53.1267 H   0  0  0  0  0  0  0  0  0  0  0  0
   10.3062   -4.2502  -51.2862 H   0  0  0  0  0  0  0  0  0  0  0  0
   10.3563   -2.5533  -50.6846 H   0  0  0  0  0  0  0  0  0  0  0  0
  1  2  2  0
  2  3  1  0
  3  4  1  0
  4  5  1  0
  5  6  1  0
  6  7  1  0
  7  8  1  0
  8  9  1  0
  9 10  1  6
 10 11  2  0
 11 12  1  0
 12 13  2  0
 13 14  1  0
 14 15  1  0
 15 16  1  0
 16 17  1  0
 17 18  1  0
 18 19  2  0
 19 20  1  0
 20 21  2  0
 21 22  1  0
 22 23  2  0
 23 24  1  0
 24 25  1  0
 16 26  2  0
 26 27  1  0
 27 28  1  0
  9 29  1  0
  9 30  1  0
  7  2  1  0
 28 11  1  0
 30  3  1  0
 29  5  1  0
 27 14  2  0
 25 17  2  0
 25 21  1  0
  3 31  1  1
  4 32  1  0
  4 33  1  0
  5 34  1  1
  6 35  1  0
  6 36  1  0
  7 37  1  6
  8 38  1  0
  8 39  1  0
 12 40  1  0
 13 41  1  0
 15 42  1  0
 18 43  1  0
 19 44  1  0
 20 45  1  0
 24 46  1  0
 26 47  1  0
 28 48  1  0
 29 49  1  0
 29 50  1  0
 30 51  1  0
 30 52  1  0
M  END
>  <meeko>  (195) 
{"is_sidechain": false}

$$$$

     RDKit          3D

 52 58  0  0  0  0  0  0  0  0999 V2000
    4.9680   -4.1000  -50.3300 O   0  0  0  0  0  0  0  0  0  0  0  0
    6.1070   -3.8090  -50.6770 C   0  0  0  0  0  0  0  0  0  0  0  0
    7.1470   -4.8510  -51.0510 C   0  0  2  0  0  0  0  0  0  0  0  0
    8.3370   -4.6800  -50.1030 C   0  0  0  0  0  0  0  0  0  0  0  0
    8.9010   -3.2530  -50.2220 C   0  0  2  0  0  0  0  0  0  0  0  0
    7.8040   -2.2440  -49.8290 C   0  0  0  0  0  0  0  0  0  0  0  0
    6.6010   -2.3750  -50.7720 C   0  0  1  0  0  0  0  0  0  0  0  0
    7.0250   -2.1290  -52.2270 C   0  0  0  0  0  0  0  0  0  0  0  0
    8.1430   -3.1240  -52.6420 C   0  0  1  0  0  0  0  0  0  0  0  0
    8.5280   -2.9780  -54.0630 N   0  0  0  0  0  0  0  0  0  0  0  0
    8.5740   -1.6870  -54.6010 C   0  0  0  0  0  0  0  0  0  0  0  0
    7.5110   -0.8000  -54.4430 C   0  0  0  0  0  0  0  0  0  0  0  0
    7.5730    0.4840  -54.9860 C   0  0  0  0  0  0  0  0  0  0  0  0
    8.7510    0.7890  -55.6600 C   0  0  0  0  0  0  0  0  0  0  0  0
    9.1690    1.9240  -56.3060 N   0  0  0  0  0  0  0  0  0  0  0  0
   10.4390    1.7600  -56.8280 C   0  0  0  0  0  0  0  0  0  0  0  0
   11.1240    2.8160  -57.5680 C   0  0  0  0  0  0  0  0  0  0  0  0
   12.3940    3.3270  -57.2200 C   0  0  0  0  0  0  0  0  0  0  0  0
   13.0530    4.3560  -57.9470 C   0  0  0  0  0  0  0  0  0  0  0  0
   12.5030    4.9680  -59.0880 C   0  0  0  0  0  0  0  0  0  0  0  0
   11.2390    4.4830  -59.4610 C   0  0  0  0  0  0  0  0  0  0  0  0
   10.4610    4.8570  -60.4890 N   0  0  0  0  0  0  0  0  0  0  0  0
    9.3960    4.0640  -60.3450 N   0  0  0  0  0  0  0  0  0  0  0  0
    9.3640    3.1870  -59.3310 N   0  0  0  0  0  0  0  0  0  0  0  0
   10.5460    3.4170  -58.7170 C   0  0  0  0  0  0  0  0  0  0  0  0
   10.8310    0.4740  -56.4900 C   0  0  0  0  0  0  0  0  0  0  0  0
    9.7820   -0.1340  -55.7620 C   0  0  0  0  0  0  0  0  0  0  0  0
    9.7200   -1.3790  -55.2330 N   0  0  0  0  0  0  0  0  0  0  0  0
    9.3400   -2.9880  -51.6740 C   0  0  0  0  0  0  0  0  0  0  0  0
    7.5710   -4.5670  -52.4950 C   0  0  0  0  0  0  0  0  0  0  0  0
    6.7611   -5.8779  -50.9701 H   0  0  0  0  0  0  0  0  0  0  0  0
    8.0075   -4.8568  -49.0685 H   0  0  0  0  0  0  0  0  0  0  0  0
    9.1212   -5.4029  -50.3723 H   0  0  0  0  0  0  0  0  0  0  0  0
    9.7682   -3.1431  -49.5543 H   0  0  0  0  0  0  0  0  0  0  0  0
    7.4800   -2.4433  -48.7969 H   0  0  0  0  0  0  0  0  0  0  0  0
    8.2102   -1.2246  -49.9050 H   0  0  0  0  0  0  0  0  0  0  0  0
    5.8302   -1.6432  -50.4884 H   0  0  0  0  0  0  0  0  0  0  0  0
    6.1550   -2.2663  -52.8860 H   0  0  0  0  0  0  0  0  0  0  0  0
    7.4100   -1.1025  -52.3173 H   0  0  0  0  0  0  0  0  0  0  0  0
    7.7740   -3.3840  -54.6250 H   0  0  0  0  0  0  0  0  0  0  0  0
    6.6161   -1.1144  -53.8859 H   0  0  0  0  0  0  0  0  0  0  0  0
    6.7478    1.2047  -54.8879 H   0  0  0  0  0  0  0  0  0  0  0  0
    8.6350    2.7810  -56.4000 H   0  0  0  0  0  0  0  0  0  0  0  0
   12.9006    2.9061  -56.3389 H   0  0  0  0  0  0  0  0  0  0  0  0
   14.0419    4.6901  -57.6000 H   0  0  0  0  0  0  0  0  0  0  0  0
   13.0217    5.7631  -59.6437 H   0  0  0  0  0  0  0  0  0  0  0  0
    8.6200    4.1250  -60.9990 H   0  0  0  0  0  0  0  0  0  0  0  0
   11.7935    0.0063  -56.7446 H   0  0  0  0  0  0  0  0  0  0  0  0
   10.1156   -3.7157  -51.9549 H   0  0  0  0  0  0  0  0  0  0  0  0
    9.7342   -1.9633  -51.7420 H   0  0  0  0  0  0  0  0  0  0  0  0
    6.6965   -4.6750  -53.1534 H   0  0  0  0  0  0  0  0  0  0  0  0
    8.3578   -5.2833  -52.7740 H   0  0  0  0  0  0  0  0  0  0  0  0
  1  2  2  0
  2  3  1  0
  3  4  1  0
  4  5  1  0
  5  6  1  0
  6  7  1  0
  7  8  1  0
  8  9  1  0
  9 10  1  6
 10 11  1  0
 11 12  1  0
 12 13  2  0
 13 14  1  0
 14 15  1  0
 15 16  1  0
 16 17  1  0
 17 18  2  0
 18 19  1  0
 19 20  2  0
 20 21  1  0
 21 22  2  0
 22 23  1  0
 23 24  1  0
 24 25  2  0
 16 26  2  0
 26 27  1  0
 27 28  1  0
  9 29  1  0
  9 30  1  0
  7  2  1  0
 28 11  2  0
 30  3  1  0
 29  5  1  0
 27 14  2  0
 25 17  1  0
 25 21  1  0
  3 31  1  6
  4 32  1  0
  4 33  1  0
  5 34  1  1
  6 35  1  0
  6 36  1  0
  7 37  1  1
  8 38  1  0
  8 39  1  0
 10 40  1  0
 12 41  1  0
 13 42  1  0
 15 43  1  0
 18 44  1  0
 19 45  1  0
 20 46  1  0
 23 47  1  0
 26 48  1  0
 29 49  1  0
 29 50  1  0
 30 51  1  0
 30 52  1  0
M  END
>  <meeko>  (196) 
{"is_sidechain": false}

$$$$

     RDKit          3D

 62 66  0  0  0  0  0  0  0  0999 V2000
    5.8870    1.3080  -59.8090 C   0  0  0  0  0  0  0  0  0  0  0  0
    6.1660    2.2080  -58.6120 C   0  0  0  0  0  0  0  0  0  0  0  0
    7.4730    1.8780  -58.0020 N   0  0  0  0  0  0  0  0  0  0  0  0
    7.2850    1.2530  -56.7550 C   0  0  0  0  0  0  0  0  0  0  0  0
    6.0240    1.2800  -56.1650 C   0  0  0  0  0  0  0  0  0  0  0  0
    5.8260    0.6750  -54.9230 C   0  0  0  0  0  0  0  0  0  0  0  0
    6.8680    0.0470  -54.2720 C   0  0  0  0  0  0  0  0  0  0  0  0
    6.6630   -0.5370  -53.0720 N   0  0  0  0  0  0  0  0  0  0  0  0
    7.7090   -1.1530  -52.4750 C   0  0  0  0  0  0  0  0  0  0  0  0
    7.4500   -1.8040  -51.1370 C   0  0  0  0  0  0  0  0  0  0  0  0
    7.5170   -3.3560  -51.1070 C   0  0  0  0  0  0  0  0  0  0  0  0
    6.2810   -3.9620  -50.4190 C   0  0  0  0  0  0  0  0  0  0  0  0
    7.6470   -3.9430  -52.5230 C   0  0  0  0  0  0  0  0  0  0  0  0
    8.7670   -3.7610  -50.3000 C   0  0  0  0  0  0  0  0  0  0  0  0
    8.9700   -1.1880  -53.0530 C   0  0  0  0  0  0  0  0  0  0  0  0
    9.1540   -0.5740  -54.2910 C   0  0  0  0  0  0  0  0  0  0  0  0
    8.1070    0.0600  -54.9350 C   0  0  0  0  0  0  0  0  0  0  0  0
    8.3130    0.6460  -56.1330 N   0  0  0  0  0  0  0  0  0  0  0  0
    8.5860    2.8680  -58.1300 C   0  0  2  0  0  0  0  0  0  0  0  0
    8.0360    4.1550  -58.8270 C   0  0  0  0  0  0  0  0  0  0  0  0
    9.1370    5.2090  -59.0330 C   0  0  2  0  0  0  0  0  0  0  0  0
   10.2420    4.6260  -59.9280 C   0  0  0  0  0  0  0  0  0  0  0  0
   10.8170    3.3630  -59.2830 C   0  0  2  0  0  0  0  0  0  0  0  0
    9.7140    2.3200  -59.0660 C   0  0  0  0  0  0  0  0  0  0  0  0
   11.3520    3.7520  -57.9140 C   0  0  0  0  0  0  0  0  0  0  0  0
   12.5290    3.6160  -57.5950 O   0  0  0  0  0  0  0  0  0  0  0  0
   10.3090    4.3440  -56.9810 C   0  0  1  0  0  0  0  0  0  0  0  0
    9.7370    5.5880  -57.6670 C   0  0  0  0  0  0  0  0  0  0  0  0
    9.2150    3.2880  -56.7720 C   0  0  0  0  0  0  0  0  0  0  0  0
    5.5786    0.3130  -59.4556 H   0  0  0  0  0  0  0  0  0  0  0  0
    5.0826    1.7465  -60.4178 H   0  0  0  0  0  0  0  0  0  0  0  0
    6.7984    1.2146  -60.4178 H   0  0  0  0  0  0  0  0  0  0  0  0
    6.1770    3.2567  -58.9437 H   0  0  0  0  0  0  0  0  0  0  0  0
    5.3767    2.0529  -57.8617 H   0  0  0  0  0  0  0  0  0  0  0  0
    5.1863    1.7768  -56.6764 H   0  0  0  0  0  0  0  0  0  0  0  0
    4.8292    0.6990  -54.4584 H   0  0  0  0  0  0  0  0  0  0  0  0
    8.1980   -1.4216  -50.4269 H   0  0  0  0  0  0  0  0  0  0  0  0
    6.4114   -1.5483  -50.8804 H   0  0  0  0  0  0  0  0  0  0  0  0
    6.4028   -3.9023  -49.3274 H   0  0  0  0  0  0  0  0  0  0  0  0
    5.3830   -3.4020  -50.7189 H   0  0  0  0  0  0  0  0  0  0  0  0
    6.1737   -5.0149  -50.7189 H   0  0  0  0  0  0  0  0  0  0  0  0
    7.8844   -5.0149  -52.4552 H   0  0  0  0  0  0  0  0  0  0  0  0
    6.6979   -3.8111  -53.0632 H   0  0  0  0  0  0  0  0  0  0  0  0
    8.4517   -3.4227  -53.0632 H   0  0  0  0  0  0  0  0  0  0  0  0
    8.5479   -3.6900  -49.2244 H   0  0  0  0  0  0  0  0  0  0  0  0
    9.0456   -4.7954  -50.5500 H   0  0  0  0  0  0  0  0  0  0  0  0
    9.5992   -3.0865  -50.5500 H   0  0  0  0  0  0  0  0  0  0  0  0
    9.8069   -1.6897  -52.5451 H   0  0  0  0  0  0  0  0  0  0  0  0
   10.1474   -0.5941  -54.7630 H   0  0  0  0  0  0  0  0  0  0  0  0
    7.6199    3.8788  -59.8071 H   0  0  0  0  0  0  0  0  0  0  0  0
    7.2628    4.5913  -58.1775 H   0  0  0  0  0  0  0  0  0  0  0  0
    8.7084    6.1018  -59.5118 H   0  0  0  0  0  0  0  0  0  0  0  0
    9.8202    4.3741  -60.9122 H   0  0  0  0  0  0  0  0  0  0  0  0
   11.0431    5.3701  -60.0483 H   0  0  0  0  0  0  0  0  0  0  0  0
   11.5971    2.9420  -59.9343 H   0  0  0  0  0  0  0  0  0  0  0  0
    9.2746    2.0560  -60.0393 H   0  0  0  0  0  0  0  0  0  0  0  0
   10.1621    1.4367  -58.5875 H   0  0  0  0  0  0  0  0  0  0  0  0
   10.7308    4.6239  -56.0044 H   0  0  0  0  0  0  0  0  0  0  0  0
    8.9513    6.0245  -57.0328 H   0  0  0  0  0  0  0  0  0  0  0  0
   10.5445    6.3194  -57.8185 H   0  0  0  0  0  0  0  0  0  0  0  0
    9.6556    2.4030  -56.2896 H   0  0  0  0  0  0  0  0  0  0  0  0
    8.4268    3.7181  -56.1366 H   0  0  0  0  0  0  0  0  0  0  0  0
  1  2  1  0
  2  3  1  0
  3  4  1  0
  4  5  2  0
  5  6  1  0
  6  7  2  0
  7  8  1  0
  8  9  2  0
  9 10  1  0
 10 11  1  0
 11 12  1  0
 11 13  1  0
 11 14  1  0
  9 15  1  0
 15 16  2  0
 16 17  1  0
 17 18  2  0
 19  3  1  1
 19 20  1  0
 20 21  1  0
 21 22  1  0
 22 23  1  0
 23 24  1  0
 23 25  1  0
 25 26  2  0
 25 27  1  0
 27 28  1  0
 27 29  1  0
 18  4  1  0
 24 19  1  0
 17  7  1  0
 29 19  1  0
 28 21  1  0
  1 30  1  0
  1 31  1  0
  1 32  1  0
  2 33  1  0
  2 34  1  0
  5 35  1  0
  6 36  1  0
 10 37  1  0
 10 38  1  0
 12 39  1  0
 12 40  1  0
 12 41  1  0
 13 42  1  0
 13 43  1  0
 13 44  1  0
 14 45  1  0
 14 46  1  0
 14 47  1  0
 15 48  1  0
 16 49  1  0
 20 50  1  0
 20 51  1  0
 21 52  1  6
 22 53  1  0
 22 54  1  0
 23 55  1  6
 24 56  1  0
 24 57  1  0
 27 58  1  1
 28 59  1  0
 28 60  1  0
 29 61  1  0
 29 62  1  0
M  END
>  <meeko>  (197) 
{"is_sidechain": false}

$$$$

     RDKit          3D

 44 46  0  0  0  0  0  0  0  0999 V2000
   10.0300    3.8780  -60.9560 C   0  0  0  0  0  0  0  0  0  0  0  0
    8.8850    2.9220  -60.8010 C   0  0  0  0  0  0  0  0  0  0  0  0
    8.1590    2.5970  -61.7300 O   0  0  0  0  0  0  0  0  0  0  0  0
    8.8730    2.4530  -59.5270 O   0  0  0  0  0  0  0  0  0  0  0  0
    8.1950    3.1920  -58.6030 C   0  0  0  0  0  0  0  0  0  0  0  0
    7.3560    4.0300  -58.9080 O   0  0  0  0  0  0  0  0  0  0  0  0
    8.6340    2.9300  -57.2910 N   0  0  0  0  0  0  0  0  0  0  0  0
    7.9690    1.9440  -56.4790 C   0  0  0  0  0  0  0  0  0  0  0  0
    6.5930    1.7110  -56.6020 C   0  0  0  0  0  0  0  0  0  0  0  0
    5.9430    0.7540  -55.8160 C   0  0  0  0  0  0  0  0  0  0  0  0
    6.7540    0.0580  -54.9330 C   0  0  0  0  0  0  0  0  0  0  0  0
    6.4820   -0.9310  -54.0210 N   0  0  0  0  0  0  0  0  0  0  0  0
    7.6330   -1.3290  -53.3700 C   0  0  0  0  0  0  0  0  0  0  0  0
    7.6480   -2.3620  -52.3320 C   0  0  0  0  0  0  0  0  0  0  0  0
    8.1510   -2.0960  -51.0510 C   0  0  0  0  0  0  0  0  0  0  0  0
    8.1600   -3.0900  -50.0690 C   0  0  0  0  0  0  0  0  0  0  0  0
    7.6660   -4.3610  -50.3570 C   0  0  0  0  0  0  0  0  0  0  0  0
    7.1580   -4.6370  -51.6250 C   0  0  0  0  0  0  0  0  0  0  0  0
    7.1480   -3.6420  -52.6050 C   0  0  0  0  0  0  0  0  0  0  0  0
    8.6590   -0.5500  -53.8840 C   0  0  0  0  0  0  0  0  0  0  0  0
    8.1140    0.3120  -54.8620 C   0  0  0  0  0  0  0  0  0  0  0  0
    8.7360    1.2360  -55.6270 N   0  0  0  0  0  0  0  0  0  0  0  0
    9.6310    3.8210  -56.6410 C   0  0  0  0  0  0  0  0  0  0  0  0
   11.0190    3.7050  -57.2780 C   0  0  0  0  0  0  0  0  0  0  0  0
    9.1850    5.2800  -56.4720 C   0  0  0  0  0  0  0  0  0  0  0  0
   10.3922    4.1804  -59.9624 H   0  0  0  0  0  0  0  0  0  0  0  0
   10.8444    3.3880  -61.5097 H   0  0  0  0  0  0  0  0  0  0  0  0
    9.6932    4.7668  -61.5097 H   0  0  0  0  0  0  0  0  0  0  0  0
    6.0116    2.2930  -57.3322 H   0  0  0  0  0  0  0  0  0  0  0  0
    4.8619    0.5664  -55.8932 H   0  0  0  0  0  0  0  0  0  0  0  0
    5.5600   -1.3000  -53.8330 H   0  0  0  0  0  0  0  0  0  0  0  0
    8.5424   -1.0951  -50.8165 H   0  0  0  0  0  0  0  0  0  0  0  0
    8.5575   -2.8691  -49.0674 H   0  0  0  0  0  0  0  0  0  0  0  0
    7.6771   -5.1446  -49.5851 H   0  0  0  0  0  0  0  0  0  0  0  0
    6.7649   -5.6385  -51.8540 H   0  0  0  0  0  0  0  0  0  0  0  0
    6.7428   -3.8659  -53.6029 H   0  0  0  0  0  0  0  0  0  0  0  0
    9.7158   -0.5954  -53.5821 H   0  0  0  0  0  0  0  0  0  0  0  0
    9.7070    3.4395  -55.6121 H   0  0  0  0  0  0  0  0  0  0  0  0
   11.7811    3.6413  -56.4874 H   0  0  0  0  0  0  0  0  0  0  0  0
   11.0616    2.8002  -57.9021 H   0  0  0  0  0  0  0  0  0  0  0  0
   11.2112    4.5902  -57.9021 H   0  0  0  0  0  0  0  0  0  0  0  0
    9.1118    5.5193  -55.4008 H   0  0  0  0  0  0  0  0  0  0  0  0
    9.9207    5.9457  -56.9470 H   0  0  0  0  0  0  0  0  0  0  0  0
    8.2029    5.4206  -56.9470 H   0  0  0  0  0  0  0  0  0  0  0  0
  1  2  1  0
  2  3  2  0
  2  4  1  0
  4  5  1  0
  5  6  2  0
  5  7  1  0
  7  8  1  0
  8  9  1  0
  9 10  2  0
 10 11  1  0
 11 12  1  0
 12 13  1  0
 13 14  1  0
 14 15  2  0
 15 16  1  0
 16 17  2  0
 17 18  1  0
 18 19  2  0
 13 20  2  0
 20 21  1  0
 21 22  1  0
  7 23  1  0
 23 24  1  0
 23 25  1  0
 22  8  2  0
 21 11  2  0
 19 14  1  0
  1 26  1  0
  1 27  1  0
  1 28  1  0
  9 29  1  0
 10 30  1  0
 12 31  1  0
 15 32  1  0
 16 33  1  0
 17 34  1  0
 18 35  1  0
 19 36  1  0
 20 37  1  0
 23 38  1  0
 24 39  1  0
 24 40  1  0
 24 41  1  0
 25 42  1  0
 25 43  1  0
 25 44  1  0
M  END
>  <meeko>  (198) 
{"is_sidechain": false}

$$$$

     RDKit          3D

 44 46  0  0  0  0  0  0  0  0999 V2000
   11.9880    3.7370  -59.4520 C   0  0  0  0  0  0  0  0  0  0  0  0
   12.1570    3.6170  -57.9650 C   0  0  0  0  0  0  0  0  0  0  0  0
   13.0470    4.1860  -57.3490 O   0  0  0  0  0  0  0  0  0  0  0  0
   11.1370    2.8740  -57.4680 O   0  0  0  0  0  0  0  0  0  0  0  0
   10.0380    3.5480  -57.0360 C   0  0  0  0  0  0  0  0  0  0  0  0
   10.1040    4.5220  -56.2940 O   0  0  0  0  0  0  0  0  0  0  0  0
    8.8300    2.9380  -57.4560 N   0  0  0  0  0  0  0  0  0  0  0  0
    8.1700    1.9910  -56.6440 C   0  0  0  0  0  0  0  0  0  0  0  0
    6.8290    1.7770  -56.7580 C   0  0  0  0  0  0  0  0  0  0  0  0
    6.1370    0.7850  -55.9380 C   0  0  0  0  0  0  0  0  0  0  0  0
    6.8380    0.0790  -55.0460 C   0  0  0  0  0  0  0  0  0  0  0  0
    6.4120   -0.8640  -54.1570 N   0  0  0  0  0  0  0  0  0  0  0  0
    7.4920   -1.1900  -53.4910 C   0  0  0  0  0  0  0  0  0  0  0  0
    7.5010   -2.1960  -52.4010 C   0  0  0  0  0  0  0  0  0  0  0  0
    7.1130   -3.5080  -52.7080 C   0  0  0  0  0  0  0  0  0  0  0  0
    7.1020   -4.4950  -51.7200 C   0  0  0  0  0  0  0  0  0  0  0  0
    7.4790   -4.1810  -50.4180 C   0  0  0  0  0  0  0  0  0  0  0  0
    7.8680   -2.8790  -50.1020 C   0  0  0  0  0  0  0  0  0  0  0  0
    7.8800   -1.8880  -51.0890 C   0  0  0  0  0  0  0  0  0  0  0  0
    8.7190   -0.4780  -53.9080 C   0  0  0  0  0  0  0  0  0  0  0  0
    8.2600    0.2920  -54.8940 C   0  0  0  0  0  0  0  0  0  0  0  0
    8.8720    1.2020  -55.7190 N   0  0  0  0  0  0  0  0  0  0  0  0
    8.2220    3.2430  -58.7820 C   0  0  0  0  0  0  0  0  0  0  0  0
    8.3640    4.7140  -59.1950 C   0  0  0  0  0  0  0  0  0  0  0  0
    8.6950    2.2880  -59.8800 C   0  0  0  0  0  0  0  0  0  0  0  0
   11.1092    4.3610  -59.6720 H   0  0  0  0  0  0  0  0  0  0  0  0
   12.8855    4.2013  -59.8867 H   0  0  0  0  0  0  0  0  0  0  0  0
   11.8455    2.7367  -59.8867 H   0  0  0  0  0  0  0  0  0  0  0  0
    6.2525    2.3663  -57.4862 H   0  0  0  0  0  0  0  0  0  0  0  0
    5.0553    0.6219  -56.0533 H   0  0  0  0  0  0  0  0  0  0  0  0
    6.8147   -3.7620  -53.7359 H   0  0  0  0  0  0  0  0  0  0  0  0
    6.7952   -5.5210  -51.9712 H   0  0  0  0  0  0  0  0  0  0  0  0
    7.4704   -4.9579  -49.6393 H   0  0  0  0  0  0  0  0  0  0  0  0
    8.1664   -2.6308  -49.0727 H   0  0  0  0  0  0  0  0  0  0  0  0
    8.1882   -0.8634  -50.8335 H   0  0  0  0  0  0  0  0  0  0  0  0
    9.7409   -0.5618  -53.5095 H   0  0  0  0  0  0  0  0  0  0  0  0
    9.7920    1.5170  -55.4520 H   0  0  0  0  0  0  0  0  0  0  0  0
    7.1434    3.0700  -58.6528 H   0  0  0  0  0  0  0  0  0  0  0  0
    8.4248    5.3433  -58.2949 H   0  0  0  0  0  0  0  0  0  0  0  0
    9.2785    4.8403  -59.7931 H   0  0  0  0  0  0  0  0  0  0  0  0
    7.4905    5.0129  -59.7931 H   0  0  0  0  0  0  0  0  0  0  0  0
    9.1386    1.3923  -59.4208 H   0  0  0  0  0  0  0  0  0  0  0  0
    7.8384    1.9940  -60.5043 H   0  0  0  0  0  0  0  0  0  0  0  0
    9.4480    2.7912  -60.5043 H   0  0  0  0  0  0  0  0  0  0  0  0
  1  2  1  0
  2  3  2  0
  2  4  1  0
  4  5  1  0
  5  6  2  0
  5  7  1  0
  7  8  1  0
  8  9  2  0
  9 10  1  0
 10 11  2  0
 11 12  1  0
 12 13  2  0
 13 14  1  0
 14 15  2  0
 15 16  1  0
 16 17  2  0
 17 18  1  0
 18 19  2  0
 13 20  1  0
 20 21  2  0
 21 22  1  0
  7 23  1  0
 23 24  1  0
 23 25  1  0
 22  8  1  0
 21 11  1  0
 19 14  1  0
  1 26  1  0
  1 27  1  0
  1 28  1  0
  9 29  1  0
 10 30  1  0
 15 31  1  0
 16 32  1  0
 17 33  1  0
 18 34  1  0
 19 35  1  0
 20 36  1  0
 22 37  1  0
 23 38  1  0
 24 39  1  0
 24 40  1  0
 24 41  1  0
 25 42  1  0
 25 43  1  0
 25 44  1  0
M  END
>  <meeko>  (199) 
{"is_sidechain": false}

$$$$

     RDKit          3D

 50 53  0  0  0  0  0  0  0  0999 V2000
    7.1930    2.6100  -62.8540 C   0  0  0  0  0  0  0  0  0  0  0  0
    6.9330    2.6310  -61.6820 C   0  0  0  0  0  0  0  0  0  0  0  0
    6.6340    2.6520  -60.2760 C   0  0  0  0  0  0  0  0  0  0  0  0
    7.6500    3.0740  -59.4050 C   0  0  0  0  0  0  0  0  0  0  0  0
    7.4310    3.0810  -58.0300 C   0  0  0  0  0  0  0  0  0  0  0  0
    8.4880    3.4620  -57.1510 N   0  0  0  0  0  0  0  0  0  0  0  0
    9.9850    2.6630  -57.3380 S   0  0  0  0  0  0  0  0  0  0  0  0
    9.9650    2.1890  -58.7130 O   0  0  0  0  0  0  0  0  0  0  0  0
   11.0430    3.5470  -56.8910 O   0  0  0  0  0  0  0  0  0  0  0  0
    9.8970    1.2220  -56.3050 C   0  0  0  0  0  0  0  0  0  0  0  0
   10.8430    0.2650  -56.4610 C   0  0  0  0  0  0  0  0  0  0  0  0
   10.8010   -0.9260  -55.6160 C   0  0  0  0  0  0  0  0  0  0  0  0
    9.8100   -1.0580  -54.7220 C   0  0  0  0  0  0  0  0  0  0  0  0
    9.5600   -2.0890  -53.8620 N   0  0  0  0  0  0  0  0  0  0  0  0
    8.4540   -1.7410  -53.2510 C   0  0  0  0  0  0  0  0  0  0  0  0
    7.8000   -2.5790  -52.2180 C   0  0  0  0  0  0  0  0  0  0  0  0
    8.1060   -2.4740  -50.8550 C   0  0  0  0  0  0  0  0  0  0  0  0
    7.4570   -3.2930  -49.9240 C   0  0  0  0  0  0  0  0  0  0  0  0
    6.5020   -4.2160  -50.3460 C   0  0  0  0  0  0  0  0  0  0  0  0
    6.1900   -4.3230  -51.6990 C   0  0  0  0  0  0  0  0  0  0  0  0
    6.8360   -3.5090  -52.6310 C   0  0  0  0  0  0  0  0  0  0  0  0
    7.8960   -0.4340  -53.6630 C   0  0  0  0  0  0  0  0  0  0  0  0
    8.7840   -0.0380  -54.5730 C   0  0  0  0  0  0  0  0  0  0  0  0
    8.8850    1.0890  -55.3450 N   0  0  0  0  0  0  0  0  0  0  0  0
    6.2060    2.6690  -57.5190 C   0  0  0  0  0  0  0  0  0  0  0  0
    5.1900    2.2510  -58.3840 C   0  0  0  0  0  0  0  0  0  0  0  0
    5.3790    2.2280  -59.7770 C   0  0  0  0  0  0  0  0  0  0  0  0
    4.3540    1.8170  -60.6600 N   0  0  0  0  0  0  0  0  0  0  0  0
    3.0470    2.3290  -60.2400 C   0  0  0  0  0  0  0  0  0  0  0  0
    4.3550    0.4070  -61.0420 C   0  0  0  0  0  0  0  0  0  0  0  0
    7.4312    2.5908  -63.9277 H   0  0  0  0  0  0  0  0  0  0  0  0
    8.6201    3.3995  -59.8087 H   0  0  0  0  0  0  0  0  0  0  0  0
    8.6440    4.4640  -57.0610 H   0  0  0  0  0  0  0  0  0  0  0  0
   11.6343    0.3834  -57.2158 H   0  0  0  0  0  0  0  0  0  0  0  0
   11.5722   -1.7045  -55.7118 H   0  0  0  0  0  0  0  0  0  0  0  0
    8.8579   -1.7463  -50.5158 H   0  0  0  0  0  0  0  0  0  0  0  0
    7.7017   -3.2078  -48.8549 H   0  0  0  0  0  0  0  0  0  0  0  0
    5.9953   -4.8592  -49.6114 H   0  0  0  0  0  0  0  0  0  0  0  0
    5.4344   -5.0491  -52.0333 H   0  0  0  0  0  0  0  0  0  0  0  0
    6.5864   -3.5981  -53.6986 H   0  0  0  0  0  0  0  0  0  0  0  0
    6.9873    0.0760  -53.3106 H   0  0  0  0  0  0  0  0  0  0  0  0
    8.1120    1.7460  -55.3950 H   0  0  0  0  0  0  0  0  0  0  0  0
    6.0354    2.6717  -56.4323 H   0  0  0  0  0  0  0  0  0  0  0  0
    4.2232    1.9337  -57.9661 H   0  0  0  0  0  0  0  0  0  0  0  0
    2.9967    2.3487  -59.1413 H   0  0  0  0  0  0  0  0  0  0  0  0
    2.9091    3.3476  -60.6317 H   0  0  0  0  0  0  0  0  0  0  0  0
    2.2539    1.6751  -60.6317 H   0  0  0  0  0  0  0  0  0  0  0  0
    4.3554   -0.2181  -60.1369 H   0  0  0  0  0  0  0  0  0  0  0  0
    3.4570    0.1880  -61.6384 H   0  0  0  0  0  0  0  0  0  0  0  0
    5.2533    0.1893  -61.6384 H   0  0  0  0  0  0  0  0  0  0  0  0
  1  2  3  0
  2  3  1  0
  3  4  1  0
  4  5  2  0
  5  6  1  0
  6  7  1  0
  7  8  2  0
  7  9  2  0
  7 10  1  0
 10 11  2  0
 11 12  1  0
 12 13  2  0
 13 14  1  0
 14 15  2  0
 15 16  1  0
 16 17  2  0
 17 18  1  0
 18 19  2  0
 19 20  1  0
 20 21  2  0
 15 22  1  0
 22 23  2  0
 23 24  1  0
  5 25  1  0
 25 26  2  0
 26 27  1  0
 27 28  1  0
 28 29  1  0
 28 30  1  0
 27  3  2  0
 24 10  1  0
 23 13  1  0
 21 16  1  0
  1 31  1  0
  4 32  1  0
  6 33  1  0
 11 34  1  0
 12 35  1  0
 17 36  1  0
 18 37  1  0
 19 38  1  0
 20 39  1  0
 21 40  1  0
 22 41  1  0
 24 42  1  0
 25 43  1  0
 26 44  1  0
 29 45  1  0
 29 46  1  0
 29 47  1  0
 30 48  1  0
 30 49  1  0
 30 50  1  0
M  END
>  <meeko>  (200) 
{"is_sidechain": false}

$$$$

     RDKit          3D

 50 53  0  0  0  0  0  0  0  0999 V2000
    4.3820    2.4130  -57.7350 C   0  0  0  0  0  0  0  0  0  0  0  0
    5.3260    2.3640  -58.4780 C   0  0  0  0  0  0  0  0  0  0  0  0
    6.4780    2.3100  -59.3340 C   0  0  0  0  0  0  0  0  0  0  0  0
    7.7320    2.3240  -58.7040 C   0  0  0  0  0  0  0  0  0  0  0  0
    8.9070    2.2920  -59.4550 C   0  0  0  0  0  0  0  0  0  0  0  0
   10.1710    2.3540  -58.7900 N   0  0  0  0  0  0  0  0  0  0  0  0
   10.1620    2.7970  -57.1400 S   0  0  0  0  0  0  0  0  0  0  0  0
   11.4640    3.3630  -56.8500 O   0  0  0  0  0  0  0  0  0  0  0  0
    8.9510    3.5450  -56.8610 O   0  0  0  0  0  0  0  0  0  0  0  0
   10.0530    1.2230  -56.2870 C   0  0  0  0  0  0  0  0  0  0  0  0
   11.0380    0.2620  -56.4770 C   0  0  0  0  0  0  0  0  0  0  0  0
   10.9560   -0.9180  -55.7440 C   0  0  0  0  0  0  0  0  0  0  0  0
    9.8770   -1.0200  -54.8650 C   0  0  0  0  0  0  0  0  0  0  0  0
    9.5010   -2.0170  -53.9960 N   0  0  0  0  0  0  0  0  0  0  0  0
    8.3530   -1.6710  -53.3130 C   0  0  0  0  0  0  0  0  0  0  0  0
    7.7340   -2.5310  -52.3050 C   0  0  0  0  0  0  0  0  0  0  0  0
    6.7130   -3.4300  -52.6460 C   0  0  0  0  0  0  0  0  0  0  0  0
    6.1310   -4.2490  -51.6750 C   0  0  0  0  0  0  0  0  0  0  0  0
    6.5610   -4.1790  -50.3520 C   0  0  0  0  0  0  0  0  0  0  0  0
    7.5700   -3.2870  -49.9980 C   0  0  0  0  0  0  0  0  0  0  0  0
    8.1510   -2.4670  -50.9690 C   0  0  0  0  0  0  0  0  0  0  0  0
    7.9940   -0.4100  -53.7650 C   0  0  0  0  0  0  0  0  0  0  0  0
    8.9360   -0.0020  -54.7350 C   0  0  0  0  0  0  0  0  0  0  0  0
    8.9890    1.1550  -55.4380 N   0  0  0  0  0  0  0  0  0  0  0  0
    8.8390    2.2310  -60.8420 C   0  0  0  0  0  0  0  0  0  0  0  0
    7.5940    2.2120  -61.4740 C   0  0  0  0  0  0  0  0  0  0  0  0
    6.3930    2.2530  -60.7420 C   0  0  0  0  0  0  0  0  0  0  0  0
    5.2090    2.2340  -61.5080 N   0  0  0  0  0  0  0  0  0  0  0  0
    4.3660    1.0650  -61.2560 C   0  0  0  0  0  0  0  0  0  0  0  0
    5.4230    2.5500  -62.9200 C   0  0  0  0  0  0  0  0  0  0  0  0
    3.5183    2.4578  -57.0552 H   0  0  0  0  0  0  0  0  0  0  0  0
    7.7889    2.3606  -57.6061 H   0  0  0  0  0  0  0  0  0  0  0  0
   10.7560    1.5210  -58.8860 H   0  0  0  0  0  0  0  0  0  0  0  0
   11.8607    0.4293  -57.1878 H   0  0  0  0  0  0  0  0  0  0  0  0
   11.6980   -1.7229  -55.8512 H   0  0  0  0  0  0  0  0  0  0  0  0
   10.0140   -2.8760  -53.8560 H   0  0  0  0  0  0  0  0  0  0  0  0
    6.3669   -3.4910  -53.6884 H   0  0  0  0  0  0  0  0  0  0  0  0
    5.3316   -4.9505  -51.9560 H   0  0  0  0  0  0  0  0  0  0  0  0
    6.1047   -4.8266  -49.5889 H   0  0  0  0  0  0  0  0  0  0  0  0
    7.9099   -3.2278  -48.9535 H   0  0  0  0  0  0  0  0  0  0  0  0
    8.9454   -1.7627  -50.6809 H   0  0  0  0  0  0  0  0  0  0  0  0
    7.1246    0.1725  -53.4261 H   0  0  0  0  0  0  0  0  0  0  0  0
    9.7621    2.1978  -61.4393 H   0  0  0  0  0  0  0  0  0  0  0  0
    7.5510    2.1638  -62.5721 H   0  0  0  0  0  0  0  0  0  0  0  0
    4.2592    0.9169  -60.1713 H   0  0  0  0  0  0  0  0  0  0  0  0
    3.3740    1.2249  -61.7036 H   0  0  0  0  0  0  0  0  0  0  0  0
    4.8310    0.1743  -61.7036 H   0  0  0  0  0  0  0  0  0  0  0  0
    6.0380    3.4582  -63.0034 H   0  0  0  0  0  0  0  0  0  0  0  0
    5.9396    1.7111  -63.4093 H   0  0  0  0  0  0  0  0  0  0  0  0
    4.4523    2.7184  -63.4093 H   0  0  0  0  0  0  0  0  0  0  0  0
  1  2  3  0
  2  3  1  0
  3  4  1  0
  4  5  2  0
  5  6  1  0
  6  7  1  0
  7  8  2  0
  7  9  2  0
  7 10  1  0
 10 11  1  0
 11 12  2  0
 12 13  1  0
 13 14  1  0
 14 15  1  0
 15 16  1  0
 16 17  2  0
 17 18  1  0
 18 19  2  0
 19 20  1  0
 20 21  2  0
 15 22  2  0
 22 23  1  0
 23 24  1  0
  5 25  1  0
 25 26  2  0
 26 27  1  0
 27 28  1  0
 28 29  1  0
 28 30  1  0
 27  3  2  0
 24 10  2  0
 23 13  2  0
 21 16  1  0
  1 31  1  0
  4 32  1  0
  6 33  1  0
 11 34  1  0
 12 35  1  0
 14 36  1  0
 17 37  1  0
 18 38  1  0
 19 39  1  0
 20 40  1  0
 21 41  1  0
 22 42  1  0
 25 43  1  0
 26 44  1  0
 29 45  1  0
 29 46  1  0
 29 47  1  0
 30 48  1  0
 30 49  1  0
 30 50  1  0
M  END
>  <meeko>  (201) 
{"is_sidechain": false}

$$$$

     RDKit          3D

 39 42  0  0  0  0  0  0  0  0999 V2000
    9.8760    3.8540  -56.4610 C   0  0  0  0  0  0  0  0  0  0  0  0
    8.9710    2.9170  -57.1340 N   0  0  0  0  0  0  0  0  0  0  0  0
    9.0040    2.9190  -58.5520 C   0  0  0  0  0  0  0  0  0  0  0  0
   10.0110    2.2920  -59.3000 C   0  0  0  0  0  0  0  0  0  0  0  0
    9.9970    2.3310  -60.6970 C   0  0  0  0  0  0  0  0  0  0  0  0
    8.9710    3.0070  -61.3290 C   0  0  0  0  0  0  0  0  0  0  0  0
    7.9800    3.6330  -60.6700 N   0  0  0  0  0  0  0  0  0  0  0  0
    8.0240    3.5750  -59.3120 C   0  0  0  0  0  0  0  0  0  0  0  0
    8.2850    1.9530  -56.3850 C   0  0  0  0  0  0  0  0  0  0  0  0
    6.9460    1.7400  -56.5260 C   0  0  0  0  0  0  0  0  0  0  0  0
    6.2460    0.7270  -55.7420 C   0  0  0  0  0  0  0  0  0  0  0  0
    6.9420    0.0010  -54.8600 C   0  0  0  0  0  0  0  0  0  0  0  0
    6.5100   -0.9730  -54.0060 N   0  0  0  0  0  0  0  0  0  0  0  0
    7.5850   -1.3200  -53.3430 C   0  0  0  0  0  0  0  0  0  0  0  0
    7.5880   -2.3620  -52.2900 C   0  0  0  0  0  0  0  0  0  0  0  0
    8.0690   -2.1300  -50.9950 C   0  0  0  0  0  0  0  0  0  0  0  0
    8.0460   -3.1530  -50.0420 C   0  0  0  0  0  0  0  0  0  0  0  0
    7.5430   -4.4100  -50.3710 C   0  0  0  0  0  0  0  0  0  0  0  0
    7.0600   -4.6490  -51.6560 C   0  0  0  0  0  0  0  0  0  0  0  0
    7.0820   -3.6300  -52.6110 C   0  0  0  0  0  0  0  0  0  0  0  0
    8.8160   -0.5940  -53.7280 C   0  0  0  0  0  0  0  0  0  0  0  0
    8.3640    0.2120  -54.6860 C   0  0  0  0  0  0  0  0  0  0  0  0
    8.9760    1.1480  -55.4770 N   0  0  0  0  0  0  0  0  0  0  0  0
    9.7716    3.7459  -55.3713 H   0  0  0  0  0  0  0  0  0  0  0  0
   10.9137    3.6356  -56.7534 H   0  0  0  0  0  0  0  0  0  0  0  0
    9.6216    4.8835  -56.7534 H   0  0  0  0  0  0  0  0  0  0  0  0
   10.8229    1.7623  -58.7801 H   0  0  0  0  0  0  0  0  0  0  0  0
   10.7859    1.8342  -61.2808 H   0  0  0  0  0  0  0  0  0  0  0  0
    8.9645    3.0345  -62.4286 H   0  0  0  0  0  0  0  0  0  0  0  0
    7.2211    4.0871  -58.7614 H   0  0  0  0  0  0  0  0  0  0  0  0
    6.3793    2.3462  -57.2481 H   0  0  0  0  0  0  0  0  0  0  0  0
    5.1662    0.5637  -55.8740 H   0  0  0  0  0  0  0  0  0  0  0  0
    8.4661   -1.1398  -50.7269 H   0  0  0  0  0  0  0  0  0  0  0  0
    8.4269   -2.9644  -49.0274 H   0  0  0  0  0  0  0  0  0  0  0  0
    7.5272   -5.2118  -49.6181 H   0  0  0  0  0  0  0  0  0  0  0  0
    6.6614   -5.6401  -51.9183 H   0  0  0  0  0  0  0  0  0  0  0  0
    6.6991   -3.8237  -53.6238 H   0  0  0  0  0  0  0  0  0  0  0  0
    9.8357   -0.6941  -53.3279 H   0  0  0  0  0  0  0  0  0  0  0  0
    9.9240    1.4210  -55.2650 H   0  0  0  0  0  0  0  0  0  0  0  0
  1  2  1  0
  2  3  1  0
  3  4  1  0
  4  5  2  0
  5  6  1  0
  6  7  2  0
  7  8  1  0
  2  9  1  0
  9 10  2  0
 10 11  1  0
 11 12  2  0
 12 13  1  0
 13 14  2  0
 14 15  1  0
 15 16  2  0
 16 17  1  0
 17 18  2  0
 18 19  1  0
 19 20  2  0
 14 21  1  0
 21 22  2  0
 22 23  1  0
  8  3  2  0
 23  9  1  0
 22 12  1  0
 20 15  1  0
  1 24  1  0
  1 25  1  0
  1 26  1  0
  4 27  1  0
  5 28  1  0
  6 29  1  0
  8 30  1  0
 10 31  1  0
 11 32  1  0
 16 33  1  0
 17 34  1  0
 18 35  1  0
 19 36  1  0
 20 37  1  0
 21 38  1  0
 23 39  1  0
M  END
>  <meeko>  (202) 
{"is_sidechain": false}

$$$$

     RDKit          3D

 39 42  0  0  0  0  0  0  0  0999 V2000
   10.0010    4.1340  -56.4440 C   0  0  0  0  0  0  0  0  0  0  0  0
    9.3450    3.0620  -57.1910 N   0  0  0  0  0  0  0  0  0  0  0  0
    9.4570    3.1330  -58.6000 C   0  0  0  0  0  0  0  0  0  0  0  0
    9.0980    2.0680  -59.4390 C   0  0  0  0  0  0  0  0  0  0  0  0
    9.2110    2.1770  -60.8260 C   0  0  0  0  0  0  0  0  0  0  0  0
    9.6870    3.3630  -61.3560 C   0  0  0  0  0  0  0  0  0  0  0  0
   10.0530    4.4180  -60.6050 N   0  0  0  0  0  0  0  0  0  0  0  0
    9.9420    4.2710  -59.2560 C   0  0  0  0  0  0  0  0  0  0  0  0
    8.5550    2.1200  -56.4820 C   0  0  0  0  0  0  0  0  0  0  0  0
    7.1900    1.9340  -56.7700 C   0  0  0  0  0  0  0  0  0  0  0  0
    6.4070    0.9990  -56.0830 C   0  0  0  0  0  0  0  0  0  0  0  0
    7.0690    0.2720  -55.1070 C   0  0  0  0  0  0  0  0  0  0  0  0
    6.6480   -0.7110  -54.2470 N   0  0  0  0  0  0  0  0  0  0  0  0
    7.6880   -1.1400  -53.4450 C   0  0  0  0  0  0  0  0  0  0  0  0
    7.5390   -2.1940  -52.4390 C   0  0  0  0  0  0  0  0  0  0  0  0
    7.1290   -3.4870  -52.7960 C   0  0  0  0  0  0  0  0  0  0  0  0
    6.9940   -4.4840  -51.8270 C   0  0  0  0  0  0  0  0  0  0  0  0
    7.2660   -4.2010  -50.4900 C   0  0  0  0  0  0  0  0  0  0  0  0
    7.6680   -2.9200  -50.1210 C   0  0  0  0  0  0  0  0  0  0  0  0
    7.8010   -1.9220  -51.0900 C   0  0  0  0  0  0  0  0  0  0  0  0
    8.8000   -0.4050  -53.8270 C   0  0  0  0  0  0  0  0  0  0  0  0
    8.4140    0.4790  -54.8590 C   0  0  0  0  0  0  0  0  0  0  0  0
    9.1610    1.3830  -55.5280 N   0  0  0  0  0  0  0  0  0  0  0  0
    9.8889    3.9509  -55.3652 H   0  0  0  0  0  0  0  0  0  0  0  0
   11.0699    4.1600  -56.7024 H   0  0  0  0  0  0  0  0  0  0  0  0
    9.5377    5.0976  -56.7024 H   0  0  0  0  0  0  0  0  0  0  0  0
    8.7219    1.1333  -58.9976 H   0  0  0  0  0  0  0  0  0  0  0  0
    8.9284    1.3402  -61.4817 H   0  0  0  0  0  0  0  0  0  0  0  0
    9.7708    3.4481  -62.4495 H   0  0  0  0  0  0  0  0  0  0  0  0
   10.2599    5.1170  -58.6290 H   0  0  0  0  0  0  0  0  0  0  0  0
    6.7241    2.5422  -57.5593 H   0  0  0  0  0  0  0  0  0  0  0  0
    5.3393    0.8516  -56.3030 H   0  0  0  0  0  0  0  0  0  0  0  0
    5.7120   -1.0890  -54.2220 H   0  0  0  0  0  0  0  0  0  0  0  0
    6.9117   -3.7181  -53.8493 H   0  0  0  0  0  0  0  0  0  0  0  0
    6.6724   -5.4943  -52.1199 H   0  0  0  0  0  0  0  0  0  0  0  0
    7.1634   -4.9876  -49.7280 H   0  0  0  0  0  0  0  0  0  0  0  0
    7.8811   -2.6934  -49.0659 H   0  0  0  0  0  0  0  0  0  0  0  0
    8.1150   -0.9113  -50.7901 H   0  0  0  0  0  0  0  0  0  0  0  0
    9.8096   -0.4949  -53.3997 H   0  0  0  0  0  0  0  0  0  0  0  0
  1  2  1  0
  2  3  1  0
  3  4  1  0
  4  5  2  0
  5  6  1  0
  6  7  2  0
  7  8  1  0
  2  9  1  0
  9 10  1  0
 10 11  2  0
 11 12  1  0
 12 13  1  0
 13 14  1  0
 14 15  1  0
 15 16  2  0
 16 17  1  0
 17 18  2  0
 18 19  1  0
 19 20  2  0
 14 21  2  0
 21 22  1  0
 22 23  1  0
  8  3  2  0
 23  9  2  0
 22 12  2  0
 20 15  1  0
  1 24  1  0
  1 25  1  0
  1 26  1  0
  4 27  1  0
  5 28  1  0
  6 29  1  0
  8 30  1  0
 10 31  1  0
 11 32  1  0
 13 33  1  0
 16 34  1  0
 17 35  1  0
 18 36  1  0
 19 37  1  0
 20 38  1  0
 21 39  1  0
M  END
>  <meeko>  (203) 
{"is_sidechain": false}

$$$$

     RDKit          3D

 40 43  0  0  0  0  0  0  0  0999 V2000
   10.8700    5.7230  -59.7310 O   0  0  0  0  0  0  0  0  0  0  0  0
   10.6460    4.9610  -58.5480 C   0  0  0  0  0  0  0  0  0  0  0  0
    9.2420    5.2230  -58.0180 C   0  0  0  0  0  0  0  0  0  0  0  0
    8.9550    4.3420  -56.8090 C   0  0  0  0  0  0  0  0  0  0  0  0
    9.1550    2.9190  -57.1430 N   0  0  0  0  0  0  0  0  0  0  0  0
    8.4070    1.9540  -56.4570 C   0  0  0  0  0  0  0  0  0  0  0  0
    7.0700    1.7740  -56.6390 C   0  0  0  0  0  0  0  0  0  0  0  0
    6.3250    0.7670  -55.8900 C   0  0  0  0  0  0  0  0  0  0  0  0
    6.9740    0.0250  -54.9870 C   0  0  0  0  0  0  0  0  0  0  0  0
    6.4910   -0.9360  -54.1450 N   0  0  0  0  0  0  0  0  0  0  0  0
    7.5350   -1.3020  -53.4420 C   0  0  0  0  0  0  0  0  0  0  0  0
    7.5090   -2.3350  -52.3760 C   0  0  0  0  0  0  0  0  0  0  0  0
    7.8360   -2.0370  -51.0560 C   0  0  0  0  0  0  0  0  0  0  0  0
    7.7890   -3.0620  -50.1110 C   0  0  0  0  0  0  0  0  0  0  0  0
    7.4210   -4.3420  -50.5080 C   0  0  0  0  0  0  0  0  0  0  0  0
    7.1180   -4.5510  -51.8430 C   0  0  0  0  0  0  0  0  0  0  0  0
    7.1530   -3.5810  -52.7790 N   0  0  0  0  0  0  0  0  0  0  0  0
    8.7920   -0.5950  -53.7790 C   0  0  0  0  0  0  0  0  0  0  0  0
    8.3920    0.2110  -54.7620 C   0  0  0  0  0  0  0  0  0  0  0  0
    9.0480    1.1360  -55.5300 N   0  0  0  0  0  0  0  0  0  0  0  0
   10.5060    2.6210  -57.6570 C   0  0  0  0  0  0  0  0  0  0  0  0
   10.8200    3.4850  -58.8720 C   0  0  0  0  0  0  0  0  0  0  0  0
   10.0330    5.7660  -60.2230 H   0  0  0  0  0  0  0  0  0  0  0  0
   11.3700    5.2545  -57.7736 H   0  0  0  0  0  0  0  0  0  0  0  0
    9.1573    6.2796  -57.7242 H   0  0  0  0  0  0  0  0  0  0  0  0
    8.5140    4.9898  -58.8089 H   0  0  0  0  0  0  0  0  0  0  0  0
    9.6347    4.6199  -55.9899 H   0  0  0  0  0  0  0  0  0  0  0  0
    7.9089    4.4903  -56.5030 H   0  0  0  0  0  0  0  0  0  0  0  0
    6.5382    2.4028  -57.3683 H   0  0  0  0  0  0  0  0  0  0  0  0
    5.2489    0.6212  -56.0653 H   0  0  0  0  0  0  0  0  0  0  0  0
    8.1249   -1.0163  -50.7648 H   0  0  0  0  0  0  0  0  0  0  0  0
    8.0412   -2.8587  -49.0598 H   0  0  0  0  0  0  0  0  0  0  0  0
    7.3718   -5.1666  -49.7816 H   0  0  0  0  0  0  0  0  0  0  0  0
    6.8326   -5.5657  -52.1577 H   0  0  0  0  0  0  0  0  0  0  0  0
    9.7922   -0.7060  -53.3349 H   0  0  0  0  0  0  0  0  0  0  0  0
    9.9700    1.4330  -55.2510 H   0  0  0  0  0  0  0  0  0  0  0  0
   11.2457    2.8236  -56.8684 H   0  0  0  0  0  0  0  0  0  0  0  0
   10.5469    1.5627  -57.9542 H   0  0  0  0  0  0  0  0  0  0  0  0
   11.8595    3.3047  -59.1832 H   0  0  0  0  0  0  0  0  0  0  0  0
   10.1248    3.2186  -59.6818 H   0  0  0  0  0  0  0  0  0  0  0  0
  1  2  1  0
  2  3  1  0
  3  4  1  0
  4  5  1  0
  5  6  1  0
  6  7  2  0
  7  8  1  0
  8  9  2  0
  9 10  1  0
 10 11  2  0
 11 12  1  0
 12 13  2  0
 13 14  1  0
 14 15  2  0
 15 16  1  0
 16 17  2  0
 11 18  1  0
 18 19  2  0
 19 20  1  0
  5 21  1  0
 21 22  1  0
 22  2  1  0
 20  6  1  0
 19  9  1  0
 17 12  1  0
  1 23  1  0
  2 24  1  0
  3 25  1  0
  3 26  1  0
  4 27  1  0
  4 28  1  0
  7 29  1  0
  8 30  1  0
 13 31  1  0
 14 32  1  0
 15 33  1  0
 16 34  1  0
 18 35  1  0
 20 36  1  0
 21 37  1  0
 21 38  1  0
 22 39  1  0
 22 40  1  0
M  END
>  <meeko>  (204) 
{"is_sidechain": false}

$$$$

     RDKit          3D

 40 43  0  0  0  0  0  0  0  0999 V2000
   11.5690    5.6880  -58.9100 O   0  0  0  0  0  0  0  0  0  0  0  0
   10.6200    4.6810  -58.5610 C   0  0  0  0  0  0  0  0  0  0  0  0
    9.6710    5.2060  -57.4940 C   0  0  0  0  0  0  0  0  0  0  0  0
    8.6260    4.1520  -57.1290 C   0  0  0  0  0  0  0  0  0  0  0  0
    9.1750    2.7870  -57.2100 N   0  0  0  0  0  0  0  0  0  0  0  0
    8.4230    1.8690  -56.4320 C   0  0  0  0  0  0  0  0  0  0  0  0
    7.0470    1.7570  -56.6830 C   0  0  0  0  0  0  0  0  0  0  0  0
    6.2460    0.8750  -55.9560 C   0  0  0  0  0  0  0  0  0  0  0  0
    6.9110    0.1300  -54.9910 C   0  0  0  0  0  0  0  0  0  0  0  0
    6.4690   -0.8170  -54.0990 N   0  0  0  0  0  0  0  0  0  0  0  0
    7.5120   -1.2970  -53.3310 C   0  0  0  0  0  0  0  0  0  0  0  0
    7.3670   -2.3110  -52.2870 C   0  0  0  0  0  0  0  0  0  0  0  0
    7.9120   -2.1840  -51.0140 C   0  0  0  0  0  0  0  0  0  0  0  0
    7.7140   -3.2150  -50.0950 C   0  0  0  0  0  0  0  0  0  0  0  0
    6.9820   -4.3340  -50.4710 C   0  0  0  0  0  0  0  0  0  0  0  0
    6.4730   -4.3750  -51.7570 C   0  0  0  0  0  0  0  0  0  0  0  0
    6.6490   -3.3930  -52.6670 N   0  0  0  0  0  0  0  0  0  0  0  0
    8.6430   -0.6090  -53.7490 C   0  0  0  0  0  0  0  0  0  0  0  0
    8.2760    0.2740  -54.7880 C   0  0  0  0  0  0  0  0  0  0  0  0
    9.0470    1.1280  -55.4960 N   0  0  0  0  0  0  0  0  0  0  0  0
   10.6220    2.6840  -56.9810 C   0  0  0  0  0  0  0  0  0  0  0  0
   11.3680    3.4360  -58.0840 C   0  0  0  0  0  0  0  0  0  0  0  0
   11.5790    5.7570  -59.8800 H   0  0  0  0  0  0  0  0  0  0  0  0
   10.0143    4.4112  -59.4387 H   0  0  0  0  0  0  0  0  0  0  0  0
   10.2485    5.4673  -56.5950 H   0  0  0  0  0  0  0  0  0  0  0  0
    9.1535    6.0928  -57.8887 H   0  0  0  0  0  0  0  0  0  0  0  0
    8.2785    4.3358  -56.1016 H   0  0  0  0  0  0  0  0  0  0  0  0
    7.7960    4.2302  -57.8467 H   0  0  0  0  0  0  0  0  0  0  0  0
    6.5903    2.3769  -57.4686 H   0  0  0  0  0  0  0  0  0  0  0  0
    5.1650    0.7770  -56.1347 H   0  0  0  0  0  0  0  0  0  0  0  0
    5.5070   -1.1050  -54.0140 H   0  0  0  0  0  0  0  0  0  0  0  0
    8.4877   -1.2886  -50.7371 H   0  0  0  0  0  0  0  0  0  0  0  0
    8.1342   -3.1423  -49.0810 H   0  0  0  0  0  0  0  0  0  0  0  0
    6.8121   -5.1625  -49.7677 H   0  0  0  0  0  0  0  0  0  0  0  0
    5.8909   -5.2593  -52.0555 H   0  0  0  0  0  0  0  0  0  0  0  0
    9.6564   -0.7314  -53.3391 H   0  0  0  0  0  0  0  0  0  0  0  0
   10.8708    3.1244  -56.0042 H   0  0  0  0  0  0  0  0  0  0  0  0
   10.9204    1.6253  -56.9929 H   0  0  0  0  0  0  0  0  0  0  0  0
   12.3510    3.7429  -57.6974 H   0  0  0  0  0  0  0  0  0  0  0  0
   11.4623    2.7561  -58.9436 H   0  0  0  0  0  0  0  0  0  0  0  0
  1  2  1  0
  2  3  1  0
  3  4  1  0
  4  5  1  0
  5  6  1  0
  6  7  1  0
  7  8  2  0
  8  9  1  0
  9 10  1  0
 10 11  1  0
 11 12  1  0
 12 13  2  0
 13 14  1  0
 14 15  2  0
 15 16  1  0
 16 17  2  0
 11 18  2  0
 18 19  1  0
 19 20  1  0
  5 21  1  0
 21 22  1  0
 22  2  1  0
 20  6  2  0
 19  9  2  0
 17 12  1  0
  1 23  1  0
  2 24  1  0
  3 25  1  0
  3 26  1  0
  4 27  1  0
  4 28  1  0
  7 29  1  0
  8 30  1  0
 10 31  1  0
 13 32  1  0
 14 33  1  0
 15 34  1  0
 16 35  1  0
 18 36  1  0
 21 37  1  0
 21 38  1  0
 22 39  1  0
 22 40  1  0
M  END
>  <meeko>  (205) 
{"is_sidechain": false}

$$$$

     RDKit          3D

 56 60  0  0  0  0  0  0  0  0999 V2000
    7.8840   -3.4910  -51.7580 C   0  0  0  0  0  0  0  0  0  0  0  0
    8.0590   -3.7350  -53.1180 C   0  0  0  0  0  0  0  0  0  0  0  0
    8.0810   -2.6690  -54.0200 C   0  0  0  0  0  0  0  0  0  0  0  0
    7.9250   -1.3510  -53.5680 C   0  0  0  0  0  0  0  0  0  0  0  0
    7.9530   -0.2600  -54.5690 C   0  0  0  0  0  0  0  0  0  0  0  0
    9.2060    0.1530  -55.2420 C   0  0  0  0  0  0  0  0  0  0  0  0
    8.7800    1.1570  -56.0090 C   0  0  0  0  0  0  0  0  0  0  0  0
    9.4350    2.0090  -56.8740 N   0  0  0  0  0  0  0  0  0  0  0  0
    8.7280    2.8460  -57.7460 C   0  0  0  0  0  0  0  0  0  0  0  0
    9.4500    3.6280  -58.6410 N   0  0  0  0  0  0  0  0  0  0  0  0
    9.2950    3.5430  -60.1180 C   0  0  0  0  0  0  0  0  0  0  0  0
    9.7900    2.2290  -60.7470 C   0  0  0  0  0  0  0  0  0  0  0  0
    8.5440    1.5470  -61.2970 C   0  0  0  0  0  0  0  0  0  0  0  0
    7.6450    2.7060  -61.6870 C   0  0  0  0  0  0  0  0  0  0  0  0
    7.8320    3.7040  -60.5540 C   0  0  0  0  0  0  0  0  0  0  0  0
   10.3710    4.7100  -58.1810 C   0  0  2  0  0  0  0  0  0  0  0  0
   10.8180    5.5620  -59.3880 C   0  0  0  0  0  0  0  0  0  0  0  0
   12.2980    5.9390  -59.3270 C   0  0  0  0  0  0  0  0  0  0  0  0
   13.2220    4.7300  -59.2060 C   0  0  0  0  0  0  0  0  0  0  0  0
   12.6360    3.6800  -58.3320 N   0  0  0  0  0  0  0  0  0  0  0  0
   11.5830    4.1600  -57.3810 C   0  0  0  0  0  0  0  0  0  0  0  0
    7.3790    2.9310  -57.6250 C   0  0  0  0  0  0  0  0  0  0  0  0
    6.6600    2.1500  -56.6280 C   0  0  0  0  0  0  0  0  0  0  0  0
    7.3490    1.2990  -55.8590 C   0  0  0  0  0  0  0  0  0  0  0  0
    6.8940    0.4290  -54.9160 N   0  0  0  0  0  0  0  0  0  0  0  0
    7.7570   -1.1140  -52.1980 C   0  0  0  0  0  0  0  0  0  0  0  0
    7.7360   -2.1850  -51.2980 C   0  0  0  0  0  0  0  0  0  0  0  0
    7.8627   -4.3301  -51.0471 H   0  0  0  0  0  0  0  0  0  0  0  0
    8.1798   -4.7662  -53.4813 H   0  0  0  0  0  0  0  0  0  0  0  0
    8.2218   -2.8649  -55.0932 H   0  0  0  0  0  0  0  0  0  0  0  0
   10.2202   -0.2596  -55.1368 H   0  0  0  0  0  0  0  0  0  0  0  0
   10.2430    1.5880  -57.3300 H   0  0  0  0  0  0  0  0  0  0  0  0
    9.9251    4.3702  -60.4767 H   0  0  0  0  0  0  0  0  0  0  0  0
   10.5045    2.4358  -61.5573 H   0  0  0  0  0  0  0  0  0  0  0  0
   10.3117    1.5964  -60.0137 H   0  0  0  0  0  0  0  0  0  0  0  0
    8.7892    0.9283  -62.1728 H   0  0  0  0  0  0  0  0  0  0  0  0
    8.0738    0.8668  -60.5716 H   0  0  0  0  0  0  0  0  0  0  0  0
    7.9589    3.1399  -62.6478 H   0  0  0  0  0  0  0  0  0  0  0  0
    6.5955    2.4052  -61.8214 H   0  0  0  0  0  0  0  0  0  0  0  0
    7.6446    4.7288  -60.9070 H   0  0  0  0  0  0  0  0  0  0  0  0
    7.1321    3.5228  -59.7249 H   0  0  0  0  0  0  0  0  0  0  0  0
    9.8180    5.3524  -57.4799 H   0  0  0  0  0  0  0  0  0  0  0  0
   10.6384    4.9887  -60.3094 H   0  0  0  0  0  0  0  0  0  0  0  0
   10.2360    6.4953  -59.3702 H   0  0  0  0  0  0  0  0  0  0  0  0
   12.5574    6.4868  -60.2450 H   0  0  0  0  0  0  0  0  0  0  0  0
   12.4422    6.5522  -58.4252 H   0  0  0  0  0  0  0  0  0  0  0  0
   13.3907    4.3078  -60.2076 H   0  0  0  0  0  0  0  0  0  0  0  0
   14.1688    5.0637  -58.7563 H   0  0  0  0  0  0  0  0  0  0  0  0
   13.3640    3.1560  -57.8330 H   0  0  0  0  0  0  0  0  0  0  0  0
   12.1740    2.9730  -58.9350 H   0  0  0  0  0  0  0  0  0  0  0  0
   11.2539    3.3238  -56.7466 H   0  0  0  0  0  0  0  0  0  0  0  0
   11.9977    4.9598  -56.7498 H   0  0  0  0  0  0  0  0  0  0  0  0
    6.8183    3.6021  -58.2922 H   0  0  0  0  0  0  0  0  0  0  0  0
    5.5717    2.2576  -56.5095 H   0  0  0  0  0  0  0  0  0  0  0  0
    7.6414   -0.0842  -51.8290 H   0  0  0  0  0  0  0  0  0  0  0  0
    7.6021   -1.9947  -50.2229 H   0  0  0  0  0  0  0  0  0  0  0  0
  1  2  2  0
  2  3  1  0
  3  4  2  0
  4  5  1  0
  5  6  1  0
  6  7  2  0
  7  8  1  0
  8  9  1  0
  9 10  1  0
 10 11  1  0
 11 12  1  0
 12 13  1  0
 13 14  1  0
 14 15  1  0
 10 16  1  0
 16 17  1  0
 17 18  1  0
 18 19  1  0
 19 20  1  0
 20 21  1  0
  9 22  2  0
 22 23  1  0
 23 24  2  0
 24 25  1  0
  4 26  1  0
 26 27  2  0
 27  1  1  0
 25  5  2  0
 24  7  1  0
 15 11  1  0
 21 16  1  0
  1 28  1  0
  2 29  1  0
  3 30  1  0
  6 31  1  0
  8 32  1  0
 11 33  1  0
 12 34  1  0
 12 35  1  0
 13 36  1  0
 13 37  1  0
 14 38  1  0
 14 39  1  0
 15 40  1  0
 15 41  1  0
 16 42  1  1
 17 43  1  0
 17 44  1  0
 18 45  1  0
 18 46  1  0
 19 47  1  0
 19 48  1  0
 20 49  1  0
 20 50  1  0
 21 51  1  0
 21 52  1  0
 22 53  1  0
 23 54  1  0
 26 55  1  0
 27 56  1  0
M  CHG  1  20   1
M  END
>  <meeko>  (206) 
{"is_sidechain": false}

$$$$

     RDKit          3D

 56 60  0  0  0  0  0  0  0  0999 V2000
    7.0990   -4.0160  -50.4960 C   0  0  0  0  0  0  0  0  0  0  0  0
    7.7400   -2.8070  -50.2420 C   0  0  0  0  0  0  0  0  0  0  0  0
    7.9000   -1.8730  -51.2670 C   0  0  0  0  0  0  0  0  0  0  0  0
    7.4190   -2.1410  -52.5580 C   0  0  0  0  0  0  0  0  0  0  0  0
    7.6160   -1.1130  -53.6060 C   0  0  0  0  0  0  0  0  0  0  0  0
    6.4740   -0.4260  -54.2530 C   0  0  0  0  0  0  0  0  0  0  0  0
    7.0980    0.3960  -55.0960 C   0  0  0  0  0  0  0  0  0  0  0  0
    6.6440    1.3270  -55.9960 N   0  0  0  0  0  0  0  0  0  0  0  0
    7.4840    2.0320  -56.8480 C   0  0  0  0  0  0  0  0  0  0  0  0
    6.9800    2.9690  -57.7650 N   0  0  0  0  0  0  0  0  0  0  0  0
    7.4820    4.3630  -57.8330 C   0  0  0  0  0  0  0  0  0  0  0  0
    8.5510    4.7290  -56.7820 C   0  0  0  0  0  0  0  0  0  0  0  0
    9.7700    5.2010  -57.5690 C   0  0  0  0  0  0  0  0  0  0  0  0
    9.1950    5.7050  -58.8810 C   0  0  0  0  0  0  0  0  0  0  0  0
    8.1000    4.6980  -59.1970 C   0  0  0  0  0  0  0  0  0  0  0  0
    6.1010    2.4560  -58.8540 C   0  0  1  0  0  0  0  0  0  0  0  0
    6.4270    1.0540  -59.3960 C   0  0  0  0  0  0  0  0  0  0  0  0
    5.3140    0.4770  -60.2850 C   0  0  0  0  0  0  0  0  0  0  0  0
    4.3280    1.5210  -60.7780 C   0  0  0  0  0  0  0  0  0  0  0  0
    3.7060    2.2200  -59.6120 N   0  0  0  0  0  0  0  0  0  0  0  0
    4.6120    2.5120  -58.4440 C   0  0  0  0  0  0  0  0  0  0  0  0
    8.8240    1.8180  -56.7410 C   0  0  0  0  0  0  0  0  0  0  0  0
    9.3720    0.8790  -55.7690 C   0  0  0  0  0  0  0  0  0  0  0  0
    8.5270    0.2030  -54.9840 C   0  0  0  0  0  0  0  0  0  0  0  0
    8.7960   -0.7320  -54.0290 N   0  0  0  0  0  0  0  0  0  0  0  0
    6.7790   -3.3620  -52.8040 C   0  0  0  0  0  0  0  0  0  0  0  0
    6.6200   -4.2950  -51.7750 C   0  0  0  0  0  0  0  0  0  0  0  0
    6.9704   -4.7511  -49.6878 H   0  0  0  0  0  0  0  0  0  0  0  0
    8.1205   -2.5875  -49.2335 H   0  0  0  0  0  0  0  0  0  0  0  0
    8.4073   -0.9189  -51.0612 H   0  0  0  0  0  0  0  0  0  0  0  0
    5.3955   -0.5593  -54.0825 H   0  0  0  0  0  0  0  0  0  0  0  0
    5.6520    1.3710  -56.1610 H   0  0  0  0  0  0  0  0  0  0  0  0
    6.5701    4.9465  -57.6379 H   0  0  0  0  0  0  0  0  0  0  0  0
    8.1838    5.5331  -56.1274 H   0  0  0  0  0  0  0  0  0  0  0  0
    8.7943    3.8705  -56.1388 H   0  0  0  0  0  0  0  0  0  0  0  0
   10.2899    6.0099  -57.0347 H   0  0  0  0  0  0  0  0  0  0  0  0
   10.5126    4.4026  -57.7139 H   0  0  0  0  0  0  0  0  0  0  0  0
    8.7780    6.7163  -58.7652 H   0  0  0  0  0  0  0  0  0  0  0  0
    9.9491    5.7832  -59.6781 H   0  0  0  0  0  0  0  0  0  0  0  0
    7.3475    5.1391  -59.8672 H   0  0  0  0  0  0  0  0  0  0  0  0
    8.4872    3.8062  -59.7115 H   0  0  0  0  0  0  0  0  0  0  0  0
    6.3104    3.1434  -59.6868 H   0  0  0  0  0  0  0  0  0  0  0  0
    7.3521    1.1140  -59.9881 H   0  0  0  0  0  0  0  0  0  0  0  0
    6.5348    0.3846  -58.5298 H   0  0  0  0  0  0  0  0  0  0  0  0
    5.7799   -0.0016  -61.1590 H   0  0  0  0  0  0  0  0  0  0  0  0
    4.7472   -0.2373  -59.6698 H   0  0  0  0  0  0  0  0  0  0  0  0
    4.8559    2.2549  -61.4046 H   0  0  0  0  0  0  0  0  0  0  0  0
    3.5413    1.0279  -61.3680 H   0  0  0  0  0  0  0  0  0  0  0  0
    2.9000    1.6770  -59.2700 H   0  0  0  0  0  0  0  0  0  0  0  0
    3.3050    3.1110  -59.9410 H   0  0  0  0  0  0  0  0  0  0  0  0
    4.3851    3.5168  -58.0582 H   0  0  0  0  0  0  0  0  0  0  0  0
    4.4376    1.7475  -57.6725 H   0  0  0  0  0  0  0  0  0  0  0  0
    9.5099    2.3664  -57.4035 H   0  0  0  0  0  0  0  0  0  0  0  0
   10.4585    0.7300  -55.6835 H   0  0  0  0  0  0  0  0  0  0  0  0
    6.3996   -3.5881  -53.8115 H   0  0  0  0  0  0  0  0  0  0  0  0
    6.1156   -5.2518  -51.9752 H   0  0  0  0  0  0  0  0  0  0  0  0
  1  2  2  0
  2  3  1  0
  3  4  2  0
  4  5  1  0
  5  6  1  0
  6  7  2  0
  7  8  1  0
  8  9  1  0
  9 10  1  0
 10 11  1  0
 11 12  1  0
 12 13  1  0
 13 14  1  0
 14 15  1  0
 10 16  1  0
 16 17  1  0
 17 18  1  0
 18 19  1  0
 19 20  1  0
 20 21  1  0
  9 22  2  0
 22 23  1  0
 23 24  2  0
 24 25  1  0
  4 26  1  0
 26 27  2  0
 27  1  1  0
 25  5  2  0
 24  7  1  0
 15 11  1  0
 21 16  1  0
  1 28  1  0
  2 29  1  0
  3 30  1  0
  6 31  1  0
  8 32  1  0
 11 33  1  0
 12 34  1  0
 12 35  1  0
 13 36  1  0
 13 37  1  0
 14 38  1  0
 14 39  1  0
 15 40  1  0
 15 41  1  0
 16 42  1  6
 17 43  1  0
 17 44  1  0
 18 45  1  0
 18 46  1  0
 19 47  1  0
 19 48  1  0
 20 49  1  0
 20 50  1  0
 21 51  1  0
 21 52  1  0
 22 53  1  0
 23 54  1  0
 26 55  1  0
 27 56  1  0
M  CHG  1  20   1
M  END
>  <meeko>  (207) 
{"is_sidechain": false}

$$$$

     RDKit          3D

 56 60  0  0  0  0  0  0  0  0999 V2000
    7.2550   -4.2710  -50.2450 C   0  0  0  0  0  0  0  0  0  0  0  0
    8.0440   -3.1370  -50.0650 C   0  0  0  0  0  0  0  0  0  0  0  0
    8.1270   -2.1730  -51.0730 C   0  0  0  0  0  0  0  0  0  0  0  0
    7.4180   -2.3330  -52.2720 C   0  0  0  0  0  0  0  0  0  0  0  0
    7.4960   -1.3280  -53.3330 C   0  0  0  0  0  0  0  0  0  0  0  0
    8.5930   -0.7850  -53.9840 C   0  0  0  0  0  0  0  0  0  0  0  0
    8.1240    0.1450  -54.9400 C   0  0  0  0  0  0  0  0  0  0  0  0
    8.8290    0.9170  -55.7980 N   0  0  0  0  0  0  0  0  0  0  0  0
    8.1340    1.7340  -56.6140 C   0  0  0  0  0  0  0  0  0  0  0  0
    8.8800    2.5300  -57.4870 N   0  0  0  0  0  0  0  0  0  0  0  0
    9.8360    3.5280  -56.9780 C   0  0  0  0  0  0  0  0  0  0  0  0
    9.5810    4.9230  -57.5680 C   0  0  0  0  0  0  0  0  0  0  0  0
   10.8260    5.2600  -58.3800 C   0  0  0  0  0  0  0  0  0  0  0  0
   11.9400    4.5220  -57.6580 C   0  0  0  0  0  0  0  0  0  0  0  0
   11.3030    3.1870  -57.2970 C   0  0  0  0  0  0  0  0  0  0  0  0
    8.5650    2.4600  -58.9280 C   0  0  2  0  0  0  0  0  0  0  0  0
    9.8170    2.2940  -59.8170 C   0  0  0  0  0  0  0  0  0  0  0  0
    9.6600    2.9590  -61.1870 C   0  0  0  0  0  0  0  0  0  0  0  0
    8.2590    2.7760  -61.7460 C   0  0  0  0  0  0  0  0  0  0  0  0
    7.2380    3.3970  -60.8460 N   0  0  0  0  0  0  0  0  0  0  0  0
    7.6600    3.6150  -59.4130 C   0  0  0  0  0  0  0  0  0  0  0  0
    6.7320    1.7570  -56.5950 C   0  0  0  0  0  0  0  0  0  0  0  0
    5.9930    0.9600  -55.7130 C   0  0  0  0  0  0  0  0  0  0  0  0
    6.7410    0.1500  -54.8750 C   0  0  0  0  0  0  0  0  0  0  0  0
    6.3780   -0.7480  -53.9020 N   0  0  0  0  0  0  0  0  0  0  0  0
    6.6330   -3.4800  -52.4430 C   0  0  0  0  0  0  0  0  0  0  0  0
    6.5490   -4.4430  -51.4330 C   0  0  0  0  0  0  0  0  0  0  0  0
    7.1898   -5.0289  -49.4504 H   0  0  0  0  0  0  0  0  0  0  0  0
    8.6028   -3.0003  -49.1274 H   0  0  0  0  0  0  0  0  0  0  0  0
    8.7537   -1.2812  -50.9247 H   0  0  0  0  0  0  0  0  0  0  0  0
    9.6466   -1.0347  -53.7901 H   0  0  0  0  0  0  0  0  0  0  0  0
    9.6760    3.5174  -55.8897 H   0  0  0  0  0  0  0  0  0  0  0  0
    8.6923    4.9089  -58.2161 H   0  0  0  0  0  0  0  0  0  0  0  0
    9.3945    5.6691  -56.7815 H   0  0  0  0  0  0  0  0  0  0  0  0
   10.7267    4.9033  -59.4158 H   0  0  0  0  0  0  0  0  0  0  0  0
   11.0083    6.3425  -58.4498 H   0  0  0  0  0  0  0  0  0  0  0  0
   12.8086    4.3781  -58.3174 H   0  0  0  0  0  0  0  0  0  0  0  0
   12.3189    5.0679  -56.7814 H   0  0  0  0  0  0  0  0  0  0  0  0
   11.3634    2.4868  -58.1432 H   0  0  0  0  0  0  0  0  0  0  0  0
   11.8102    2.6987  -56.4518 H   0  0  0  0  0  0  0  0  0  0  0  0
    7.9768    1.5377  -59.0439 H   0  0  0  0  0  0  0  0  0  0  0  0
   10.6770    2.7471  -59.3021 H   0  0  0  0  0  0  0  0  0  0  0  0
    9.9653    1.2171  -59.9850 H   0  0  0  0  0  0  0  0  0  0  0  0
    9.8653    4.0349  -61.0861 H   0  0  0  0  0  0  0  0  0  0  0  0
   10.3695    2.4843  -61.8807 H   0  0  0  0  0  0  0  0  0  0  0  0
    8.2019    3.2509  -62.7366 H   0  0  0  0  0  0  0  0  0  0  0  0
    8.0500    1.6988  -61.8228 H   0  0  0  0  0  0  0  0  0  0  0  0
    6.9720    4.3170  -61.2230 H   0  0  0  0  0  0  0  0  0  0  0  0
    6.3770    2.8350  -60.8650 H   0  0  0  0  0  0  0  0  0  0  0  0
    8.2137    4.5626  -59.3399 H   0  0  0  0  0  0  0  0  0  0  0  0
    6.7605    3.6487  -58.7808 H   0  0  0  0  0  0  0  0  0  0  0  0
    6.1984    2.4195  -57.2923 H   0  0  0  0  0  0  0  0  0  0  0  0
    4.8934    0.9760  -55.6873 H   0  0  0  0  0  0  0  0  0  0  0  0
    5.4250   -0.9720  -53.6500 H   0  0  0  0  0  0  0  0  0  0  0  0
    6.0771   -3.6247  -53.3811 H   0  0  0  0  0  0  0  0  0  0  0  0
    5.9248   -5.3372  -51.5768 H   0  0  0  0  0  0  0  0  0  0  0  0
  1  2  2  0
  2  3  1  0
  3  4  2  0
  4  5  1  0
  5  6  2  0
  6  7  1  0
  7  8  1  0
  8  9  2  0
  9 10  1  0
 10 11  1  0
 11 12  1  0
 12 13  1  0
 13 14  1  0
 14 15  1  0
 10 16  1  0
 16 17  1  0
 17 18  1  0
 18 19  1  0
 19 20  1  0
 20 21  1  0
  9 22  1  0
 22 23  2  0
 23 24  1  0
 24 25  1  0
  4 26  1  0
 26 27  2  0
 27  1  1  0
 25  5  1  0
 24  7  2  0
 15 11  1  0
 21 16  1  0
  1 28  1  0
  2 29  1  0
  3 30  1  0
  6 31  1  0
 11 32  1  0
 12 33  1  0
 12 34  1  0
 13 35  1  0
 13 36  1  0
 14 37  1  0
 14 38  1  0
 15 39  1  0
 15 40  1  0
 16 41  1  1
 17 42  1  0
 17 43  1  0
 18 44  1  0
 18 45  1  0
 19 46  1  0
 19 47  1  0
 20 48  1  0
 20 49  1  0
 21 50  1  0
 21 51  1  0
 22 52  1  0
 23 53  1  0
 25 54  1  0
 26 55  1  0
 27 56  1  0
M  CHG  1  20   1
M  END
>  <meeko>  (208) 
{"is_sidechain": false}

$$$$

     RDKit          3D

 56 60  0  0  0  0  0  0  0  0999 V2000
    6.6150   -3.9890  -50.3970 C   0  0  0  0  0  0  0  0  0  0  0  0
    7.5740   -3.0470  -50.0340 C   0  0  0  0  0  0  0  0  0  0  0  0
    8.1860   -2.2580  -51.0130 C   0  0  0  0  0  0  0  0  0  0  0  0
    7.8400   -2.3980  -52.3630 C   0  0  0  0  0  0  0  0  0  0  0  0
    8.4830   -1.5660  -53.3800 C   0  0  0  0  0  0  0  0  0  0  0  0
    8.1290   -0.3250  -53.8860 C   0  0  0  0  0  0  0  0  0  0  0  0
    9.0820    0.0420  -54.8630 C   0  0  0  0  0  0  0  0  0  0  0  0
    9.1470    1.1690  -55.6100 N   0  0  0  0  0  0  0  0  0  0  0  0
   10.1680    1.2510  -56.4940 C   0  0  0  0  0  0  0  0  0  0  0  0
   10.2590    2.4240  -57.2780 N   0  0  0  0  0  0  0  0  0  0  0  0
   11.5850    2.7570  -57.8220 C   0  0  0  0  0  0  0  0  0  0  0  0
   11.6380    3.2130  -59.2800 C   0  0  0  0  0  0  0  0  0  0  0  0
   12.9630    3.9590  -59.3490 C   0  0  0  0  0  0  0  0  0  0  0  0
   12.9750    4.7610  -58.0560 C   0  0  0  0  0  0  0  0  0  0  0  0
   12.2760    3.8750  -57.0240 C   0  0  0  0  0  0  0  0  0  0  0  0
    8.9660    2.8790  -57.8070 C   0  0  1  0  0  0  0  0  0  0  0  0
    8.7940    4.4080  -57.8480 C   0  0  0  0  0  0  0  0  0  0  0  0
    7.7070    4.8450  -58.8400 C   0  0  0  0  0  0  0  0  0  0  0  0
    6.5820    3.8280  -58.9630 C   0  0  0  0  0  0  0  0  0  0  0  0
    7.1100    2.5070  -59.4310 N   0  0  0  0  0  0  0  0  0  0  0  0
    8.5690    2.2400  -59.1530 C   0  0  0  0  0  0  0  0  0  0  0  0
   11.1320    0.2400  -56.6140 C   0  0  0  0  0  0  0  0  0  0  0  0
   11.0700   -0.9210  -55.8420 C   0  0  0  0  0  0  0  0  0  0  0  0
   10.0040   -0.9890  -54.9560 C   0  0  0  0  0  0  0  0  0  0  0  0
    9.6240   -1.9520  -54.0540 N   0  0  0  0  0  0  0  0  0  0  0  0
    6.8770   -3.3540  -52.7150 C   0  0  0  0  0  0  0  0  0  0  0  0
    6.2670   -4.1440  -51.7360 C   0  0  0  0  0  0  0  0  0  0  0  0
    6.1332   -4.6096  -49.6271 H   0  0  0  0  0  0  0  0  0  0  0  0
    7.8504   -2.9234  -48.9765 H   0  0  0  0  0  0  0  0  0  0  0  0
    8.9470   -1.5198  -50.7198 H   0  0  0  0  0  0  0  0  0  0  0  0
    7.2568    0.2713  -53.5799 H   0  0  0  0  0  0  0  0  0  0  0  0
   12.0927    1.7844  -57.7427 H   0  0  0  0  0  0  0  0  0  0  0  0
   11.6310    2.3526  -59.9653 H   0  0  0  0  0  0  0  0  0  0  0  0
   10.7751    3.8272  -59.5770 H   0  0  0  0  0  0  0  0  0  0  0  0
   13.8096    3.2577  -59.3866 H   0  0  0  0  0  0  0  0  0  0  0  0
   13.0601    4.5859  -60.2477 H   0  0  0  0  0  0  0  0  0  0  0  0
   14.0082    4.9737  -57.7443 H   0  0  0  0  0  0  0  0  0  0  0  0
   12.4707    5.7318  -58.1713 H   0  0  0  0  0  0  0  0  0  0  0  0
   13.0115    3.4479  -56.3265 H   0  0  0  0  0  0  0  0  0  0  0  0
   11.5527    4.4482  -56.4255 H   0  0  0  0  0  0  0  0  0  0  0  0
    8.2550    2.5042  -57.0560 H   0  0  0  0  0  0  0  0  0  0  0  0
    8.5182    4.7601  -56.8430 H   0  0  0  0  0  0  0  0  0  0  0  0
    9.7475    4.8454  -58.1790 H   0  0  0  0  0  0  0  0  0  0  0  0
    7.2821    5.8004  -58.4983 H   0  0  0  0  0  0  0  0  0  0  0  0
    8.1785    4.9405  -59.8292 H   0  0  0  0  0  0  0  0  0  0  0  0
    6.1039    3.6981  -57.9809 H   0  0  0  0  0  0  0  0  0  0  0  0
    5.8513    4.1967  -59.6979 H   0  0  0  0  0  0  0  0  0  0  0  0
    6.9410    2.3880  -60.4370 H   0  0  0  0  0  0  0  0  0  0  0  0
    6.5730    1.7560  -58.9710 H   0  0  0  0  0  0  0  0  0  0  0  0
    8.7399    1.1543  -59.1071 H   0  0  0  0  0  0  0  0  0  0  0  0
    9.1793    2.6759  -59.9577 H   0  0  0  0  0  0  0  0  0  0  0  0
   11.9555    0.3647  -57.3326 H   0  0  0  0  0  0  0  0  0  0  0  0
   11.8143   -1.7262  -55.9297 H   0  0  0  0  0  0  0  0  0  0  0  0
   10.1020   -2.8330  -53.9150 H   0  0  0  0  0  0  0  0  0  0  0  0
    6.5987   -3.4838  -53.7713 H   0  0  0  0  0  0  0  0  0  0  0  0
    5.5109   -4.8892  -52.0242 H   0  0  0  0  0  0  0  0  0  0  0  0
  1  2  2  0
  2  3  1  0
  3  4  2  0
  4  5  1  0
  5  6  2  0
  6  7  1  0
  7  8  1  0
  8  9  2  0
  9 10  1  0
 10 11  1  0
 11 12  1  0
 12 13  1  0
 13 14  1  0
 14 15  1  0
 10 16  1  0
 16 17  1  0
 17 18  1  0
 18 19  1  0
 19 20  1  0
 20 21  1  0
  9 22  1  0
 22 23  2  0
 23 24  1  0
 24 25  1  0
  4 26  1  0
 26 27  2  0
 27  1  1  0
 25  5  1  0
 24  7  2  0
 15 11  1  0
 21 16  1  0
  1 28  1  0
  2 29  1  0
  3 30  1  0
  6 31  1  0
 11 32  1  0
 12 33  1  0
 12 34  1  0
 13 35  1  0
 13 36  1  0
 14 37  1  0
 14 38  1  0
 15 39  1  0
 15 40  1  0
 16 41  1  1
 17 42  1  0
 17 43  1  0
 18 44  1  0
 18 45  1  0
 19 46  1  0
 19 47  1  0
 20 48  1  0
 20 49  1  0
 21 50  1  0
 21 51  1  0
 22 52  1  0
 23 53  1  0
 25 54  1  0
 26 55  1  0
 27 56  1  0
M  CHG  1  20   1
M  END
>  <meeko>  (209) 
{"is_sidechain": false}

$$$$

     RDKit          3D

 50 55  0  0  0  0  0  0  0  0999 V2000
    7.2970   -4.7580  -51.7160 O   0  0  0  0  0  0  0  0  0  0  0  0
    7.8230   -3.8270  -52.3170 C   0  0  0  0  0  0  0  0  0  0  0  0
    7.9580   -3.7940  -53.8310 C   0  0  2  0  0  0  0  0  0  0  0  0
    9.4520   -3.6700  -54.1550 C   0  0  0  0  0  0  0  0  0  0  0  0
   10.0320   -2.4000  -53.5040 C   0  0  2  0  0  0  0  0  0  0  0  0
    9.8690   -2.5000  -51.9770 C   0  0  0  0  0  0  0  0  0  0  0  0
    8.3860   -2.6020  -51.6150 C   0  0  1  0  0  0  0  0  0  0  0  0
    7.6200   -1.3850  -52.1460 C   0  0  0  0  0  0  0  0  0  0  0  0
    7.7610   -1.2710  -53.6920 C   0  0  1  0  0  0  0  0  0  0  0  0
    7.0180   -0.0730  -54.1350 N   0  0  0  0  0  0  0  0  0  0  0  0
    5.7140   -0.5670  -54.5260 F   0  0  0  0  0  0  0  0  0  0  0  0
    7.4240    0.7500  -55.1870 C   0  0  0  0  0  0  0  0  0  0  0  0
    6.6030    0.9900  -56.2450 C   0  0  0  0  0  0  0  0  0  0  0  0
    7.0250    1.8360  -57.3590 C   0  0  0  0  0  0  0  0  0  0  0  0
    8.2600    2.3530  -57.3440 C   0  0  0  0  0  0  0  0  0  0  0  0
    8.8790    3.1420  -58.2690 N   0  0  0  0  0  0  0  0  0  0  0  0
   10.0790    3.3310  -57.7790 C   0  0  0  0  0  0  0  0  0  0  0  0
   11.1150    4.1400  -58.4630 C   0  0  0  0  0  0  0  0  0  0  0  0
   12.4840    3.8500  -58.3770 C   0  0  0  0  0  0  0  0  0  0  0  0
   13.4150    4.6490  -59.0450 C   0  0  0  0  0  0  0  0  0  0  0  0
   12.9810    5.7350  -59.7970 C   0  0  0  0  0  0  0  0  0  0  0  0
   13.8780    6.4980  -60.4350 F   0  0  0  0  0  0  0  0  0  0  0  0
   11.6300    6.0390  -59.8960 C   0  0  0  0  0  0  0  0  0  0  0  0
   10.6970    5.2410  -59.2300 C   0  0  0  0  0  0  0  0  0  0  0  0
   10.3320    2.6760  -56.4770 C   0  0  0  0  0  0  0  0  0  0  0  0
    9.1620    2.0860  -56.2420 C   0  0  0  0  0  0  0  0  0  0  0  0
    8.6980    1.3150  -55.2110 N   0  0  0  0  0  0  0  0  0  0  0  0
    9.2700   -1.1690  -54.0240 C   0  0  0  0  0  0  0  0  0  0  0  0
    7.1910   -2.5650  -54.3330 C   0  0  0  0  0  0  0  0  0  0  0  0
    7.5538   -4.6975  -54.3109 H   0  0  0  0  0  0  0  0  0  0  0  0
    9.9826   -4.5522  -53.7674 H   0  0  0  0  0  0  0  0  0  0  0  0
    9.5794   -3.6054  -55.2457 H   0  0  0  0  0  0  0  0  0  0  0  0
   11.0982   -2.3028  -53.7566 H   0  0  0  0  0  0  0  0  0  0  0  0
   10.3954   -3.3943  -51.6122 H   0  0  0  0  0  0  0  0  0  0  0  0
   10.2941   -1.6000  -51.5086 H   0  0  0  0  0  0  0  0  0  0  0  0
    8.2822   -2.6592  -50.5214 H   0  0  0  0  0  0  0  0  0  0  0  0
    6.5557   -1.4888  -51.8881 H   0  0  0  0  0  0  0  0  0  0  0  0
    8.0399   -0.4778  -51.6870 H   0  0  0  0  0  0  0  0  0  0  0  0
    5.6005    0.5376  -56.2621 H   0  0  0  0  0  0  0  0  0  0  0  0
    6.3407    2.0443  -58.1946 H   0  0  0  0  0  0  0  0  0  0  0  0
   12.8261    2.9906  -57.7816 H   0  0  0  0  0  0  0  0  0  0  0  0
   14.4886    4.4196  -58.9763 H   0  0  0  0  0  0  0  0  0  0  0  0
   11.2974    6.9006  -60.4936 H   0  0  0  0  0  0  0  0  0  0  0  0
    9.6252    5.4764  -59.3065 H   0  0  0  0  0  0  0  0  0  0  0  0
   11.2458    2.6764  -55.8646 H   0  0  0  0  0  0  0  0  0  0  0  0
    9.3280    1.0190  -54.4790 H   0  0  0  0  0  0  0  0  0  0  0  0
    9.3949   -1.1027  -55.1149 H   0  0  0  0  0  0  0  0  0  0  0  0
    9.6771   -0.2718  -53.5349 H   0  0  0  0  0  0  0  0  0  0  0  0
    6.1293   -2.6655  -54.0634 H   0  0  0  0  0  0  0  0  0  0  0  0
    7.2994   -2.4991  -55.4257 H   0  0  0  0  0  0  0  0  0  0  0  0
  1  2  2  0
  2  3  1  0
  3  4  1  0
  4  5  1  0
  5  6  1  0
  6  7  1  0
  7  8  1  0
  8  9  1  0
  9 10  1  6
 10 11  1  0
 10 12  1  0
 12 13  2  0
 13 14  1  0
 14 15  2  0
 15 16  1  0
 16 17  2  0
 17 18  1  0
 18 19  1  0
 19 20  2  0
 20 21  1  0
 21 22  1  0
 21 23  2  0
 23 24  1  0
 17 25  1  0
 25 26  2  0
 26 27  1  0
  9 28  1  0
  9 29  1  0
  7  2  1  0
 27 12  1  0
 29  3  1  0
 28  5  1  0
 26 15  1  0
 24 18  2  0
  3 30  1  6
  4 31  1  0
  4 32  1  0
  5 33  1  1
  6 34  1  0
  6 35  1  0
  7 36  1  1
  8 37  1  0
  8 38  1  0
 13 39  1  0
 14 40  1  0
 19 41  1  0
 20 42  1  0
 23 43  1  0
 24 44  1  0
 25 45  1  0
 27 46  1  0
 28 47  1  0
 28 48  1  0
 29 49  1  0
 29 50  1  0
M  END
>  <meeko>  (210) 
{"is_sidechain": false}

$$$$

     RDKit          3D

 50 55  0  0  0  0  0  0  0  0999 V2000
    7.2620   -4.8030  -51.6730 O   0  0  0  0  0  0  0  0  0  0  0  0
    7.7800   -3.8740  -52.2840 C   0  0  0  0  0  0  0  0  0  0  0  0
    7.8780   -3.8340  -53.8000 C   0  0  2  0  0  0  0  0  0  0  0  0
    9.3650   -3.7300  -54.1600 C   0  0  0  0  0  0  0  0  0  0  0  0
    9.9890   -2.4800  -53.5090 C   0  0  2  0  0  0  0  0  0  0  0  0
    9.8550   -2.5890  -51.9800 C   0  0  0  0  0  0  0  0  0  0  0  0
    8.3760   -2.6610  -51.5920 C   0  0  1  0  0  0  0  0  0  0  0  0
    7.6260   -1.4300  -52.1090 C   0  0  0  0  0  0  0  0  0  0  0  0
    7.7370   -1.3070  -53.6640 C   0  0  1  0  0  0  0  0  0  0  0  0
    7.0230   -0.0800  -54.0530 N   0  0  0  0  0  0  0  0  0  0  0  0
    5.6870   -0.4690  -54.4390 F   0  0  0  0  0  0  0  0  0  0  0  0
    7.4580    0.7330  -55.1190 C   0  0  0  0  0  0  0  0  0  0  0  0
    6.5130    1.0750  -56.1000 C   0  0  0  0  0  0  0  0  0  0  0  0
    6.8430    1.8970  -57.1800 C   0  0  0  0  0  0  0  0  0  0  0  0
    8.1540    2.3510  -57.1950 C   0  0  0  0  0  0  0  0  0  0  0  0
    8.8340    3.1570  -58.0740 N   0  0  0  0  0  0  0  0  0  0  0  0
   10.1410    3.3390  -57.6640 C   0  0  0  0  0  0  0  0  0  0  0  0
   11.1090    4.1430  -58.4090 C   0  0  0  0  0  0  0  0  0  0  0  0
   12.4720    3.8040  -58.3890 C   0  0  0  0  0  0  0  0  0  0  0  0
   13.4060    4.5630  -59.0990 C   0  0  0  0  0  0  0  0  0  0  0  0
   12.9790    5.6650  -59.8280 C   0  0  0  0  0  0  0  0  0  0  0  0
   13.8730    6.3940  -60.5070 F   0  0  0  0  0  0  0  0  0  0  0  0
   11.6380    6.0250  -59.8590 C   0  0  0  0  0  0  0  0  0  0  0  0
   10.7030    5.2650  -59.1500 C   0  0  0  0  0  0  0  0  0  0  0  0
   10.2860    2.6100  -56.4930 C   0  0  0  0  0  0  0  0  0  0  0  0
    9.0470    1.9970  -56.1960 C   0  0  0  0  0  0  0  0  0  0  0  0
    8.7200    1.2020  -55.1520 N   0  0  0  0  0  0  0  0  0  0  0  0
    9.2480   -1.2240  -54.0010 C   0  0  0  0  0  0  0  0  0  0  0  0
    7.1180   -2.5900  -54.2770 C   0  0  0  0  0  0  0  0  0  0  0  0
    7.4481   -4.7286  -54.2741 H   0  0  0  0  0  0  0  0  0  0  0  0
    9.8891   -4.6270  -53.7984 H   0  0  0  0  0  0  0  0  0  0  0  0
    9.4629   -3.6499  -55.2527 H   0  0  0  0  0  0  0  0  0  0  0  0
   11.0517   -2.4082  -53.7837 H   0  0  0  0  0  0  0  0  0  0  0  0
   10.3682   -3.4978  -51.6325 H   0  0  0  0  0  0  0  0  0  0  0  0
   10.3102   -1.7038  -51.5119 H   0  0  0  0  0  0  0  0  0  0  0  0
    8.2882   -2.7154  -50.4969 H   0  0  0  0  0  0  0  0  0  0  0  0
    6.5650   -1.5143  -51.8313 H   0  0  0  0  0  0  0  0  0  0  0  0
    8.0771   -0.5342  -51.6573 H   0  0  0  0  0  0  0  0  0  0  0  0
    5.4876    0.6859  -56.0158 H   0  0  0  0  0  0  0  0  0  0  0  0
    6.1166    2.1648  -57.9615 H   0  0  0  0  0  0  0  0  0  0  0  0
    8.4380    3.5450  -58.9170 H   0  0  0  0  0  0  0  0  0  0  0  0
   12.8076    2.9320  -57.8084 H   0  0  0  0  0  0  0  0  0  0  0  0
   14.4713    4.2896  -59.0806 H   0  0  0  0  0  0  0  0  0  0  0  0
   11.3136    6.9025  -60.4377 H   0  0  0  0  0  0  0  0  0  0  0  0
    9.6403    5.5481  -59.1727 H   0  0  0  0  0  0  0  0  0  0  0  0
   11.2069    2.5236  -55.8976 H   0  0  0  0  0  0  0  0  0  0  0  0
    9.3699   -1.1374  -55.0908 H   0  0  0  0  0  0  0  0  0  0  0  0
    9.6734   -0.3441  -53.4962 H   0  0  0  0  0  0  0  0  0  0  0  0
    6.0655   -2.6678  -53.9670 H   0  0  0  0  0  0  0  0  0  0  0  0
    7.1870   -2.5295  -55.3732 H   0  0  0  0  0  0  0  0  0  0  0  0
  1  2  2  0
  2  3  1  0
  3  4  1  0
  4  5  1  0
  5  6  1  0
  6  7  1  0
  7  8  1  0
  8  9  1  0
  9 10  1  6
 10 11  1  0
 10 12  1  0
 12 13  1  0
 13 14  2  0
 14 15  1  0
 15 16  1  0
 16 17  1  0
 17 18  1  0
 18 19  1  0
 19 20  2  0
 20 21  1  0
 21 22  1  0
 21 23  2  0
 23 24  1  0
 17 25  2  0
 25 26  1  0
 26 27  1  0
  9 28  1  0
  9 29  1  0
  7  2  1  0
 27 12  2  0
 29  3  1  0
 28  5  1  0
 26 15  2  0
 24 18  2  0
  3 30  1  6
  4 31  1  0
  4 32  1  0
  5 33  1  1
  6 34  1  0
  6 35  1  0
  7 36  1  1
  8 37  1  0
  8 38  1  0
 13 39  1  0
 14 40  1  0
 16 41  1  0
 19 42  1  0
 20 43  1  0
 23 44  1  0
 24 45  1  0
 25 46  1  0
 28 47  1  0
 28 48  1  0
 29 49  1  0
 29 50  1  0
M  END
>  <meeko>  (211) 
{"is_sidechain": false}

$$$$

     RDKit          3D

 46 50  0  0  0  0  0  0  0  0999 V2000
    6.2210    2.3960  -56.5260 O   0  0  0  0  0  0  0  0  0  0  0  0
    7.2020    1.6870  -56.3480 C   0  0  0  0  0  0  0  0  0  0  0  0
    8.4360    1.8900  -56.9330 N   0  0  0  0  0  0  0  0  0  0  0  0
    8.7600    3.0210  -57.8100 C   0  0  2  0  0  0  0  0  0  0  0  0
   10.1770    2.7890  -58.4020 C   0  0  0  0  0  0  0  0  0  0  0  0
   10.5850    3.9440  -59.3300 C   0  0  1  0  0  0  0  0  0  0  0  0
    9.5750    4.0450  -60.4820 C   0  0  0  0  0  0  0  0  0  0  0  0
    8.1670    4.2990  -59.9240 C   0  0  2  0  0  0  0  0  0  0  0  0
    8.1680    5.6110  -59.1190 C   0  0  0  0  0  0  0  0  0  0  0  0
    9.1770    5.5200  -57.9610 C   0  0  2  0  0  0  0  0  0  0  0  0
   10.5800    5.2570  -58.5310 C   0  0  0  0  0  0  0  0  0  0  0  0
    8.7800    4.3590  -57.0320 C   0  0  0  0  0  0  0  0  0  0  0  0
    7.7690    3.1370  -58.9970 C   0  0  0  0  0  0  0  0  0  0  0  0
    7.1150    0.5310  -55.4130 C   0  0  0  0  0  0  0  0  0  0  0  0
    5.9080    0.1720  -54.8030 C   0  0  0  0  0  0  0  0  0  0  0  0
    5.8680   -0.9150  -53.9300 C   0  0  0  0  0  0  0  0  0  0  0  0
    7.0320   -1.6390  -53.6610 C   0  0  0  0  0  0  0  0  0  0  0  0
    8.2550   -1.2850  -54.2520 C   0  0  0  0  0  0  0  0  0  0  0  0
    9.4850   -2.0250  -53.9830 C   0  0  0  0  0  0  0  0  0  0  0  0
   10.1680   -2.8290  -54.7780 N   0  0  0  0  0  0  0  0  0  0  0  0
   11.2270   -3.2390  -54.0090 C   0  0  0  0  0  0  0  0  0  0  0  0
   11.1460   -2.6690  -52.7650 C   0  0  0  0  0  0  0  0  0  0  0  0
   10.0330   -1.8860  -52.7310 O   0  0  0  0  0  0  0  0  0  0  0  0
    8.2840   -0.1890  -55.1270 C   0  0  0  0  0  0  0  0  0  0  0  0
    9.2200    1.3970  -56.5250 H   0  0  0  0  0  0  0  0  0  0  0  0
   10.9028    2.7162  -57.5786 H   0  0  0  0  0  0  0  0  0  0  0  0
   10.1626    1.8583  -58.9882 H   0  0  0  0  0  0  0  0  0  0  0  0
   11.5911    3.7611  -59.7354 H   0  0  0  0  0  0  0  0  0  0  0  0
    9.8598    4.8756  -61.1446 H   0  0  0  0  0  0  0  0  0  0  0  0
    9.5752    3.1010  -61.0467 H   0  0  0  0  0  0  0  0  0  0  0  0
    7.4492    4.3733  -60.7542 H   0  0  0  0  0  0  0  0  0  0  0  0
    8.4480    6.4438  -59.7809 H   0  0  0  0  0  0  0  0  0  0  0  0
    7.1622    5.7818  -58.7076 H   0  0  0  0  0  0  0  0  0  0  0  0
    9.1780    6.4632  -57.3950 H   0  0  0  0  0  0  0  0  0  0  0  0
   10.8657    6.0875  -59.1932 H   0  0  0  0  0  0  0  0  0  0  0  0
   11.2978    5.1776  -57.7013 H   0  0  0  0  0  0  0  0  0  0  0  0
    9.5078    4.2885  -56.2102 H   0  0  0  0  0  0  0  0  0  0  0  0
    7.7732    4.5523  -56.6332 H   0  0  0  0  0  0  0  0  0  0  0  0
    6.7566    3.3169  -58.6063 H   0  0  0  0  0  0  0  0  0  0  0  0
    7.7942    2.1999  -59.5725 H   0  0  0  0  0  0  0  0  0  0  0  0
    4.9929    0.7457  -55.0115 H   0  0  0  0  0  0  0  0  0  0  0  0
    4.9193   -1.2023  -53.4530 H   0  0  0  0  0  0  0  0  0  0  0  0
    6.9896   -2.4988  -52.9762 H   0  0  0  0  0  0  0  0  0  0  0  0
   12.0222   -3.9228  -54.3408 H   0  0  0  0  0  0  0  0  0  0  0  0
   11.8564   -2.8183  -51.9385 H   0  0  0  0  0  0  0  0  0  0  0  0
    9.2343    0.1090  -55.5940 H   0  0  0  0  0  0  0  0  0  0  0  0
  1  2  2  0
  2  3  1  0
  4  3  1  1
  4  5  1  0
  5  6  1  0
  6  7  1  0
  7  8  1  0
  8  9  1  0
  9 10  1  0
 10 11  1  0
 10 12  1  0
  8 13  1  0
  2 14  1  0
 14 15  1  0
 15 16  2  0
 16 17  1  0
 17 18  2  0
 18 19  1  0
 19 20  2  0
 20 21  1  0
 21 22  2  0
 22 23  1  0
 18 24  1  0
 12  4  1  0
 24 14  2  0
 13  4  1  0
 23 19  1  0
 11  6  1  0
  3 25  1  0
  5 26  1  0
  5 27  1  0
  6 28  1  6
  7 29  1  0
  7 30  1  0
  8 31  1  6
  9 32  1  0
  9 33  1  0
 10 34  1  1
 11 35  1  0
 11 36  1  0
 12 37  1  0
 12 38  1  0
 13 39  1  0
 13 40  1  0
 15 41  1  0
 16 42  1  0
 17 43  1  0
 21 44  1  0
 22 45  1  0
 24 46  1  0
M  END
>  <meeko>  (212) 
{"is_sidechain": false}

$$$$

     RDKit          3D

 34 35  0  0  0  0  0  0  0  0999 V2000
    5.2250   -4.4020  -50.3190 C   0  0  0  0  0  0  0  0  0  0  0  0
    6.7210   -4.4260  -50.5930 C   0  0  0  0  0  0  0  0  0  0  0  0
    7.4030   -3.1570  -50.0840 C   0  0  0  0  0  0  0  0  0  0  0  0
    7.7710   -2.2230  -51.2380 C   0  0  0  0  0  0  0  0  0  0  0  0
    7.7310   -2.9540  -52.5810 C   0  0  0  0  0  0  0  0  0  0  0  0
    9.0040   -2.7960  -53.3400 C   0  0  0  0  0  0  0  0  0  0  0  0
    9.9150   -1.8990  -52.9610 N   0  0  0  0  0  0  0  0  0  0  0  0
   11.1830   -2.0340  -54.0340 S   0  0  0  0  0  0  0  0  0  0  0  0
   10.4310   -3.2830  -54.9520 C   0  0  0  0  0  0  0  0  0  0  0  0
   11.0490   -3.9160  -56.1290 C   0  0  0  0  0  0  0  0  0  0  0  0
   11.4840   -3.1990  -57.2540 C   0  0  0  0  0  0  0  0  0  0  0  0
   12.0880   -3.8580  -58.3280 C   0  0  0  0  0  0  0  0  0  0  0  0
   12.2470   -5.2430  -58.3020 C   0  0  0  0  0  0  0  0  0  0  0  0
   11.7670   -5.9900  -57.2270 C   0  0  0  0  0  0  0  0  0  0  0  0
   12.0340   -7.3620  -57.1480 N   0  0  0  0  0  0  0  0  0  0  0  0
   11.2190   -5.3130  -56.1320 C   0  0  0  0  0  0  0  0  0  0  0  0
    9.2480   -3.5950  -54.4500 N   0  0  0  0  0  0  0  0  0  0  0  0
    5.0512   -4.3992  -49.2328 H   0  0  0  0  0  0  0  0  0  0  0  0
    4.7854   -3.4967  -50.7630 H   0  0  0  0  0  0  0  0  0  0  0  0
    4.7566   -5.2927  -50.7630 H   0  0  0  0  0  0  0  0  0  0  0  0
    7.1632   -5.2971  -50.0873 H   0  0  0  0  0  0  0  0  0  0  0  0
    6.8721   -4.4869  -51.6809 H   0  0  0  0  0  0  0  0  0  0  0  0
    6.7187   -2.6314  -49.4018 H   0  0  0  0  0  0  0  0  0  0  0  0
    8.3274   -3.4450  -49.5620 H   0  0  0  0  0  0  0  0  0  0  0  0
    7.0564   -1.3871  -51.2639 H   0  0  0  0  0  0  0  0  0  0  0  0
    8.7948   -1.8558  -51.0737 H   0  0  0  0  0  0  0  0  0  0  0  0
    7.5572   -4.0246  -52.3977 H   0  0  0  0  0  0  0  0  0  0  0  0
    6.9201   -2.5168  -53.1821 H   0  0  0  0  0  0  0  0  0  0  0  0
   11.3483   -2.1080  -57.2908 H   0  0  0  0  0  0  0  0  0  0  0  0
   12.4392   -3.2822  -59.1969 H   0  0  0  0  0  0  0  0  0  0  0  0
   12.7548   -5.7500  -59.1357 H   0  0  0  0  0  0  0  0  0  0  0  0
   11.7740   -7.8810  -57.9800 H   0  0  0  0  0  0  0  0  0  0  0  0
   11.6900   -7.7980  -56.2980 H   0  0  0  0  0  0  0  0  0  0  0  0
   10.9119   -5.8899  -55.2472 H   0  0  0  0  0  0  0  0  0  0  0  0
  1  2  1  0
  2  3  1  0
  3  4  1  0
  4  5  1  0
  5  6  1  0
  6  7  2  0
  7  8  1  0
  8  9  1  0
  9 10  1  0
 10 11  1  0
 11 12  2  0
 12 13  1  0
 13 14  2  0
 14 15  1  0
 14 16  1  0
  9 17  2  0
 17  6  1  0
 16 10  2  0
  1 18  1  0
  1 19  1  0
  1 20  1  0
  2 21  1  0
  2 22  1  0
  3 23  1  0
  3 24  1  0
  4 25  1  0
  4 26  1  0
  5 27  1  0
  5 28  1  0
 11 29  1  0
 12 30  1  0
 13 31  1  0
 15 32  1  0
 15 33  1  0
 16 34  1  0
M  END
>  <meeko>  (213) 
{"is_sidechain": false}

$$$$

     RDKit          3D

 58 62  0  0  0  0  0  0  0  0999 V2000
   11.7810   -4.2750  -57.8270 C   0  0  0  0  0  0  0  0  0  0  0  0
   11.4290   -5.2270  -56.6750 C   0  0  1  0  0  0  0  0  0  0  0  0
   11.9530   -6.6400  -56.9640 C   0  0  0  0  0  0  0  0  0  0  0  0
   12.3380   -6.7740  -58.3250 O   0  0  0  0  0  0  0  0  0  0  0  0
   11.9980   -4.7330  -55.3350 C   0  0  0  0  0  0  0  0  0  0  0  0
   11.1480   -3.6950  -54.7050 C   0  0  0  0  0  0  0  0  0  0  0  0
   10.0580   -3.1190  -55.1530 N   0  0  0  0  0  0  0  0  0  0  0  0
    9.7270   -2.2600  -54.1280 C   0  0  0  0  0  0  0  0  0  0  0  0
    8.5520   -1.3960  -54.1830 C   0  0  0  0  0  0  0  0  0  0  0  0
    7.4540   -1.6110  -53.3350 C   0  0  0  0  0  0  0  0  0  0  0  0
    6.3290   -0.7860  -53.3980 C   0  0  0  0  0  0  0  0  0  0  0  0
    6.2890    0.2720  -54.3050 C   0  0  0  0  0  0  0  0  0  0  0  0
    7.3810    0.5100  -55.1480 C   0  0  0  0  0  0  0  0  0  0  0  0
    7.3790    1.6260  -56.1340 C   0  0  0  0  0  0  0  0  0  0  0  0
    6.3190    2.1580  -56.4400 O   0  0  0  0  0  0  0  0  0  0  0  0
    8.6090    1.9590  -56.6640 N   0  0  0  0  0  0  0  0  0  0  0  0
    8.8130    2.9670  -57.7120 C   0  0  2  0  0  0  0  0  0  0  0  0
    7.8550    2.7470  -58.9090 C   0  0  0  0  0  0  0  0  0  0  0  0
    8.1280    3.7800  -60.0170 C   0  0  1  0  0  0  0  0  0  0  0  0
    7.9300    5.1950  -59.4490 C   0  0  0  0  0  0  0  0  0  0  0  0
    8.9040    5.4400  -58.2840 C   0  0  2  0  0  0  0  0  0  0  0  0
   10.3470    5.2790  -58.7860 C   0  0  0  0  0  0  0  0  0  0  0  0
   10.5520    3.8630  -59.3440 C   0  0  2  0  0  0  0  0  0  0  0  0
    9.5760    3.6270  -60.5080 C   0  0  0  0  0  0  0  0  0  0  0  0
   10.2700    2.8370  -58.2350 C   0  0  0  0  0  0  0  0  0  0  0  0
    8.6320    4.4090  -57.1740 C   0  0  0  0  0  0  0  0  0  0  0  0
    8.5010   -0.3310  -55.0940 C   0  0  0  0  0  0  0  0  0  0  0  0
   10.5850   -2.2960  -53.0930 N   0  0  0  0  0  0  0  0  0  0  0  0
   11.5280   -3.2480  -53.4750 O   0  0  0  0  0  0  0  0  0  0  0  0
   12.1349   -3.3178  -57.4165 H   0  0  0  0  0  0  0  0  0  0  0  0
   12.5725   -4.7241  -58.4449 H   0  0  0  0  0  0  0  0  0  0  0  0
   10.8877   -4.1011  -58.4449 H   0  0  0  0  0  0  0  0  0  0  0  0
   10.3320   -5.2510  -56.5969 H   0  0  0  0  0  0  0  0  0  0  0  0
   12.8246   -6.8381  -56.3229 H   0  0  0  0  0  0  0  0  0  0  0  0
   11.1483   -7.3605  -56.7558 H   0  0  0  0  0  0  0  0  0  0  0  0
   12.5940   -7.7010  -58.4730 H   0  0  0  0  0  0  0  0  0  0  0  0
   12.0768   -5.5888  -54.6484 H   0  0  0  0  0  0  0  0  0  0  0  0
   12.9815   -4.2830  -55.5353 H   0  0  0  0  0  0  0  0  0  0  0  0
    7.4801   -2.4396  -52.6120 H   0  0  0  0  0  0  0  0  0  0  0  0
    5.4737   -0.9711  -52.7315 H   0  0  0  0  0  0  0  0  0  0  0  0
    5.4008    0.9187  -54.3582 H   0  0  0  0  0  0  0  0  0  0  0  0
    9.3610    1.2980  -56.5220 H   0  0  0  0  0  0  0  0  0  0  0  0
    8.0069    1.7350  -59.3126 H   0  0  0  0  0  0  0  0  0  0  0  0
    6.8184    2.8656  -58.5606 H   0  0  0  0  0  0  0  0  0  0  0  0
    7.4349    3.6170  -60.8555 H   0  0  0  0  0  0  0  0  0  0  0  0
    8.1179    5.9344  -60.2415 H   0  0  0  0  0  0  0  0  0  0  0  0
    6.8980    5.2933  -59.0812 H   0  0  0  0  0  0  0  0  0  0  0  0
    8.7632    6.4568  -57.8888 H   0  0  0  0  0  0  0  0  0  0  0  0
   10.5412    6.0154  -59.5798 H   0  0  0  0  0  0  0  0  0  0  0  0
   11.0417    5.4422  -57.9489 H   0  0  0  0  0  0  0  0  0  0  0  0
   11.5869    3.7532  -59.7003 H   0  0  0  0  0  0  0  0  0  0  0  0
    9.7712    4.3625  -61.3023 H   0  0  0  0  0  0  0  0  0  0  0  0
    9.7195    2.6091  -60.8996 H   0  0  0  0  0  0  0  0  0  0  0  0
   10.4188    1.8237  -58.6364 H   0  0  0  0  0  0  0  0  0  0  0  0
   10.9599    3.0263  -57.3994 H   0  0  0  0  0  0  0  0  0  0  0  0
    9.3354    4.5764  -56.3450 H   0  0  0  0  0  0  0  0  0  0  0  0
    7.5960    4.5295  -56.8245 H   0  0  0  0  0  0  0  0  0  0  0  0
    9.3483   -0.1539  -55.7728 H   0  0  0  0  0  0  0  0  0  0  0  0
  1  2  1  0
  2  3  1  0
  3  4  1  0
  2  5  1  0
  5  6  1  0
  6  7  2  0
  7  8  1  0
  8  9  1  0
  9 10  2  0
 10 11  1  0
 11 12  2  0
 12 13  1  0
 13 14  1  0
 14 15  2  0
 14 16  1  0
 17 16  1  1
 17 18  1  0
 18 19  1  0
 19 20  1  0
 20 21  1  0
 21 22  1  0
 22 23  1  0
 23 24  1  0
 23 25  1  0
 21 26  1  0
 13 27  2  0
  8 28  2  0
 28 29  1  0
 29  6  1  0
 27  9  1  0
 25 17  1  0
 26 17  1  0
 24 19  1  0
  1 30  1  0
  1 31  1  0
  1 32  1  0
  2 33  1  1
  3 34  1  0
  3 35  1  0
  4 36  1  0
  5 37  1  0
  5 38  1  0
 10 39  1  0
 11 40  1  0
 12 41  1  0
 16 42  1  0
 18 43  1  0
 18 44  1  0
 19 45  1  6
 20 46  1  0
 20 47  1  0
 21 48  1  1
 22 49  1  0
 22 50  1  0
 23 51  1  6
 24 52  1  0
 24 53  1  0
 25 54  1  0
 25 55  1  0
 26 56  1  0
 26 57  1  0
 27 58  1  0
M  END
>  <meeko>  (214) 
{"is_sidechain": false}

$$$$

     RDKit          3D

 32 33  0  0  0  0  0  0  0  0999 V2000
    5.5990   -4.1810  -50.4370 C   0  0  0  0  0  0  0  0  0  0  0  0
    7.1090   -4.3280  -50.3330 C   0  0  0  0  0  0  0  0  0  0  0  0
    7.7960   -2.9700  -50.1900 C   0  0  0  0  0  0  0  0  0  0  0  0
    8.1090   -2.3620  -51.5140 C   0  0  0  0  0  0  0  0  0  0  0  0
    7.5610   -1.2010  -51.8760 N   0  0  0  0  0  0  0  0  0  0  0  0
    8.1400   -0.8620  -53.4010 S   0  0  0  0  0  0  0  0  0  0  0  0
    9.0960   -2.2930  -53.4880 C   0  0  0  0  0  0  0  0  0  0  0  0
    9.9280   -2.6530  -54.6480 C   0  0  0  0  0  0  0  0  0  0  0  0
    9.9440   -3.9920  -55.0780 C   0  0  0  0  0  0  0  0  0  0  0  0
   10.7150   -4.3970  -56.1740 C   0  0  0  0  0  0  0  0  0  0  0  0
   11.4940   -3.4680  -56.8710 C   0  0  0  0  0  0  0  0  0  0  0  0
   12.2960   -3.9470  -58.0300 C   0  0  0  0  0  0  0  0  0  0  0  0
   11.8370   -4.6320  -58.9290 O   0  0  0  0  0  0  0  0  0  0  0  0
   13.5790   -3.5160  -57.9330 O   0  0  0  0  0  0  0  0  0  0  0  0
   14.4600   -4.4560  -57.3160 C   0  0  0  0  0  0  0  0  0  0  0  0
   11.4890   -2.1310  -56.4550 C   0  0  0  0  0  0  0  0  0  0  0  0
   10.7150   -1.7300  -55.3570 C   0  0  0  0  0  0  0  0  0  0  0  0
    8.9760   -3.0110  -52.3850 N   0  0  0  0  0  0  0  0  0  0  0  0
    5.1643   -4.1387  -49.4274 H   0  0  0  0  0  0  0  0  0  0  0  0
    5.3572   -3.2551  -50.9794 H   0  0  0  0  0  0  0  0  0  0  0  0
    5.1832   -5.0429  -50.9794 H   0  0  0  0  0  0  0  0  0  0  0  0
    7.3484   -4.9439  -49.4536 H   0  0  0  0  0  0  0  0  0  0  0  0
    7.4736   -4.8036  -51.2554 H   0  0  0  0  0  0  0  0  0  0  0  0
    7.1306   -2.2917  -49.6358 H   0  0  0  0  0  0  0  0  0  0  0  0
    8.7438   -3.1229  -49.6531 H   0  0  0  0  0  0  0  0  0  0  0  0
    9.3378   -4.7369  -54.5417 H   0  0  0  0  0  0  0  0  0  0  0  0
   10.7081   -5.4511  -56.4885 H   0  0  0  0  0  0  0  0  0  0  0  0
   14.3798   -4.3704  -56.2223 H   0  0  0  0  0  0  0  0  0  0  0  0
   14.1840   -5.4749  -57.6253 H   0  0  0  0  0  0  0  0  0  0  0  0
   15.4946   -4.2465  -57.6253 H   0  0  0  0  0  0  0  0  0  0  0  0
   12.0971   -1.3895  -56.9939 H   0  0  0  0  0  0  0  0  0  0  0  0
   10.7240   -0.6751  -55.0454 H   0  0  0  0  0  0  0  0  0  0  0  0
  1  2  1  0
  2  3  1  0
  3  4  1  0
  4  5  2  0
  5  6  1  0
  6  7  1  0
  7  8  1  0
  8  9  1  0
  9 10  2  0
 10 11  1  0
 11 12  1  0
 12 13  2  0
 12 14  1  0
 14 15  1  0
 11 16  2  0
 16 17  1  0
  7 18  2  0
 18  4  1  0
 17  8  2  0
  1 19  1  0
  1 20  1  0
  1 21  1  0
  2 22  1  0
  2 23  1  0
  3 24  1  0
  3 25  1  0
  9 26  1  0
 10 27  1  0
 15 28  1  0
 15 29  1  0
 15 30  1  0
 16 31  1  0
 17 32  1  0
M  END
>  <meeko>  (215) 
{"is_sidechain": false}

$$$$

     RDKit          3D

 64 69  0  0  0  0  0  0  0  0999 V2000
    7.7840   -2.6300  -49.7370 C   0  0  0  0  0  0  0  0  0  0  0  0
    7.9830   -2.1910  -51.1580 C   0  0  0  0  0  0  0  0  0  0  0  0
    7.0450   -1.3540  -51.7770 C   0  0  0  0  0  0  0  0  0  0  0  0
    7.2090   -0.9440  -53.1100 C   0  0  0  0  0  0  0  0  0  0  0  0
    6.1920   -0.0360  -53.7630 C   0  0  0  0  0  0  0  0  0  0  0  0
    6.7070    0.6130  -54.9940 C   0  0  0  0  0  0  0  0  0  0  0  0
    7.8540    1.2180  -55.2100 N   0  0  0  0  0  0  0  0  0  0  0  0
    7.7350    1.5960  -56.5240 C   0  0  0  0  0  0  0  0  0  0  0  0
    8.8170    2.3380  -57.2310 C   0  0  0  0  0  0  0  0  0  0  0  0
   10.0850    2.5300  -56.3800 C   0  0  0  0  0  0  0  0  0  0  0  0
   10.1280    4.0160  -56.0540 C   0  0  0  0  0  0  0  0  0  0  0  0
    9.5520    4.6610  -57.3020 C   0  0  0  0  0  0  0  0  0  0  0  0
    8.3860    3.7500  -57.6650 C   0  0  0  0  0  0  0  0  0  0  0  0
    6.5820    1.2430  -57.1090 N   0  0  0  0  0  0  0  0  0  0  0  0
    5.8930    0.5860  -56.0890 O   0  0  0  0  0  0  0  0  0  0  0  0
    8.3170   -1.4080  -53.8320 C   0  0  0  0  0  0  0  0  0  0  0  0
    9.2440   -2.2710  -53.2340 C   0  0  0  0  0  0  0  0  0  0  0  0
   10.4010   -2.7390  -54.0460 C   0  0  0  0  0  0  0  0  0  0  0  0
   11.5250   -2.3280  -53.7870 O   0  0  0  0  0  0  0  0  0  0  0  0
   10.0960   -3.5970  -55.0840 N   0  0  0  0  0  0  0  0  0  0  0  0
   11.0720   -4.0980  -56.0580 C   0  0  2  0  0  0  0  0  0  0  0  0
   10.3480   -5.0920  -57.0060 C   0  0  0  0  0  0  0  0  0  0  0  0
   11.3140   -5.6520  -58.0630 C   0  0  1  0  0  0  0  0  0  0  0  0
   11.8850   -4.4900  -58.8900 C   0  0  0  0  0  0  0  0  0  0  0  0
   12.6320   -3.5080  -57.9720 C   0  0  2  0  0  0  0  0  0  0  0  0
   13.7740   -4.2520  -57.2590 C   0  0  0  0  0  0  0  0  0  0  0  0
   13.2120   -5.4170  -56.4270 C   0  0  2  0  0  0  0  0  0  0  0  0
   12.4630   -6.3860  -57.3550 C   0  0  0  0  0  0  0  0  0  0  0  0
   12.2350   -4.8620  -55.3750 C   0  0  0  0  0  0  0  0  0  0  0  0
   11.6560   -2.9520  -56.9210 C   0  0  0  0  0  0  0  0  0  0  0  0
    9.0800   -2.6540  -51.8960 C   0  0  0  0  0  0  0  0  0  0  0  0
    8.1409   -1.8428  -49.0566 H   0  0  0  0  0  0  0  0  0  0  0  0
    6.7146   -2.8137  -49.5563 H   0  0  0  0  0  0  0  0  0  0  0  0
    8.3507   -3.5553  -49.5563 H   0  0  0  0  0  0  0  0  0  0  0  0
    6.1664   -1.0128  -51.2098 H   0  0  0  0  0  0  0  0  0  0  0  0
    5.3054   -0.6322  -54.0246 H   0  0  0  0  0  0  0  0  0  0  0  0
    5.9503    0.7612  -53.0446 H   0  0  0  0  0  0  0  0  0  0  0  0
    9.0301    1.7014  -58.1024 H   0  0  0  0  0  0  0  0  0  0  0  0
   10.0236    1.9346  -55.4571 H   0  0  0  0  0  0  0  0  0  0  0  0
   10.9898    2.2002  -56.9116 H   0  0  0  0  0  0  0  0  0  0  0  0
    9.5121    4.2444  -55.1717 H   0  0  0  0  0  0  0  0  0  0  0  0
   11.1385    4.3752  -55.8096 H   0  0  0  0  0  0  0  0  0  0  0  0
    9.2025    5.6825  -57.0915 H   0  0  0  0  0  0  0  0  0  0  0  0
   10.2884    4.7595  -58.1132 H   0  0  0  0  0  0  0  0  0  0  0  0
    7.4767    4.0567  -57.1273 H   0  0  0  0  0  0  0  0  0  0  0  0
    8.1531    3.7935  -58.7392 H   0  0  0  0  0  0  0  0  0  0  0  0
    8.4596   -1.0921  -54.8760 H   0  0  0  0  0  0  0  0  0  0  0  0
    9.1220   -3.6590  -55.3490 H   0  0  0  0  0  0  0  0  0  0  0  0
    9.9432   -5.9248  -56.4121 H   0  0  0  0  0  0  0  0  0  0  0  0
    9.5380   -4.5557  -57.5221 H   0  0  0  0  0  0  0  0  0  0  0  0
   10.7806   -6.3498  -58.7252 H   0  0  0  0  0  0  0  0  0  0  0  0
   12.5820   -4.8868  -59.6429 H   0  0  0  0  0  0  0  0  0  0  0  0
   11.0589   -3.9613  -59.3881 H   0  0  0  0  0  0  0  0  0  0  0  0
   13.0427   -2.6809  -58.5697 H   0  0  0  0  0  0  0  0  0  0  0  0
   14.4748   -4.6466  -58.0095 H   0  0  0  0  0  0  0  0  0  0  0  0
   14.2951   -3.5519  -56.5895 H   0  0  0  0  0  0  0  0  0  0  0  0
   14.0349   -5.9471  -55.9252 H   0  0  0  0  0  0  0  0  0  0  0  0
   13.1606   -6.7825  -58.1074 H   0  0  0  0  0  0  0  0  0  0  0  0
   12.0502   -7.2122  -56.7575 H   0  0  0  0  0  0  0  0  0  0  0  0
   11.8237   -5.6965  -54.7881 H   0  0  0  0  0  0  0  0  0  0  0  0
   12.7787   -4.1663  -54.7190 H   0  0  0  0  0  0  0  0  0  0  0  0
   12.1908   -2.2453  -56.2693 H   0  0  0  0  0  0  0  0  0  0  0  0
   10.8302   -2.4423  -57.4389 H   0  0  0  0  0  0  0  0  0  0  0  0
    9.8158   -3.3211  -51.4232 H   0  0  0  0  0  0  0  0  0  0  0  0
  1  2  1  0
  2  3  2  0
  3  4  1  0
  4  5  1  0
  5  6  1  0
  6  7  2  0
  7  8  1  0
  8  9  1  0
  9 10  1  0
 10 11  1  0
 11 12  1  0
 12 13  1  0
  8 14  2  0
 14 15  1  0
  4 16  2  0
 16 17  1  0
 17 18  1  0
 18 19  2  0
 18 20  1  0
 21 20  1  1
 21 22  1  0
 22 23  1  0
 23 24  1  0
 24 25  1  0
 25 26  1  0
 26 27  1  0
 27 28  1  0
 27 29  1  0
 25 30  1  0
 17 31  2  0
 31  2  1  0
 15  6  1  0
 29 21  1  0
 13  9  1  0
 30 21  1  0
 28 23  1  0
  1 32  1  0
  1 33  1  0
  1 34  1  0
  3 35  1  0
  5 36  1  0
  5 37  1  0
  9 38  1  0
 10 39  1  0
 10 40  1  0
 11 41  1  0
 11 42  1  0
 12 43  1  0
 12 44  1  0
 13 45  1  0
 13 46  1  0
 16 47  1  0
 20 48  1  0
 22 49  1  0
 22 50  1  0
 23 51  1  6
 24 52  1  0
 24 53  1  0
 25 54  1  6
 26 55  1  0
 26 56  1  0
 27 57  1  1
 28 58  1  0
 28 59  1  0
 29 60  1  0
 29 61  1  0
 30 62  1  0
 30 63  1  0
 31 64  1  0
M  END
>  <meeko>  (216) 
{"is_sidechain": false}

$$$$

     RDKit          3D

 53 57  0  0  0  0  0  0  0  0999 V2000
    6.2750    3.7510  -58.8990 O   0  0  0  0  0  0  0  0  0  0  0  0
    6.3430    2.7990  -57.8880 N   0  0  0  0  0  0  0  0  0  0  0  0
    7.5560    2.5460  -57.4830 C   0  0  0  0  0  0  0  0  0  0  0  0
    7.6470    1.5320  -56.4060 C   0  0  0  0  0  0  0  0  0  0  0  0
    8.8360    1.3850  -55.6980 C   0  0  0  0  0  0  0  0  0  0  0  0
    8.9160    0.4330  -54.6750 C   0  0  0  0  0  0  0  0  0  0  0  0
    7.8210   -0.3820  -54.3430 C   0  0  0  0  0  0  0  0  0  0  0  0
    7.8540   -1.3440  -53.3210 N   0  0  0  0  0  0  0  0  0  0  0  0
    9.1320   -2.0370  -53.0520 C   0  0  0  0  0  0  0  0  0  0  0  0
    9.0130   -2.8750  -51.7690 C   0  0  0  0  0  0  0  0  0  0  0  0
    7.9390   -3.8240  -51.8620 O   0  0  0  0  0  0  0  0  0  0  0  0
    6.6950   -3.1360  -52.0630 C   0  0  0  0  0  0  0  0  0  0  0  0
    6.7110   -2.2920  -53.3490 C   0  0  0  0  0  0  0  0  0  0  0  0
    6.6250   -0.1790  -55.0590 C   0  0  0  0  0  0  0  0  0  0  0  0
    6.5290    0.7700  -56.0810 C   0  0  0  0  0  0  0  0  0  0  0  0
    8.8770    3.1860  -58.0030 C   0  0  2  0  0  0  0  0  0  0  0  0
   10.1480    2.3730  -57.5940 C   0  0  0  0  0  0  0  0  0  0  0  0
   11.4370    3.0280  -58.1200 C   0  0  1  0  0  0  0  0  0  0  0  0
   11.3740    3.1040  -59.6520 C   0  0  0  0  0  0  0  0  0  0  0  0
   10.1530    3.9280  -60.0810 C   0  0  2  0  0  0  0  0  0  0  0  0
   10.2620    5.3440  -59.4920 C   0  0  0  0  0  0  0  0  0  0  0  0
   10.3340    5.2780  -57.9580 C   0  0  2  0  0  0  0  0  0  0  0  0
   11.5550    4.4450  -57.5420 C   0  0  0  0  0  0  0  0  0  0  0  0
    9.0560    4.6130  -57.4170 C   0  0  0  0  0  0  0  0  0  0  0  0
    8.8740    3.2550  -59.5530 C   0  0  0  0  0  0  0  0  0  0  0  0
    7.2160    3.9100  -59.1000 H   0  0  0  0  0  0  0  0  0  0  0  0
    9.7065    2.0123  -55.9405 H   0  0  0  0  0  0  0  0  0  0  0  0
    9.8580    0.3204  -54.1182 H   0  0  0  0  0  0  0  0  0  0  0  0
    9.3738   -2.6974  -53.8978 H   0  0  0  0  0  0  0  0  0  0  0  0
    9.9290   -1.2898  -52.9238 H   0  0  0  0  0  0  0  0  0  0  0  0
    9.9564   -3.4167  -51.6063 H   0  0  0  0  0  0  0  0  0  0  0  0
    8.8038   -2.1958  -50.9294 H   0  0  0  0  0  0  0  0  0  0  0  0
    5.8854   -3.8773  -52.1335 H   0  0  0  0  0  0  0  0  0  0  0  0
    6.5371   -2.4584  -51.2110 H   0  0  0  0  0  0  0  0  0  0  0  0
    6.8105   -2.9568  -54.2197 H   0  0  0  0  0  0  0  0  0  0  0  0
    5.7721   -1.7232  -53.4190 H   0  0  0  0  0  0  0  0  0  0  0  0
    5.7418   -0.7842  -54.8069 H   0  0  0  0  0  0  0  0  0  0  0  0
    5.5816    0.9125  -56.6214 H   0  0  0  0  0  0  0  0  0  0  0  0
   10.1982    2.3184  -56.4965 H   0  0  0  0  0  0  0  0  0  0  0  0
   10.0691    1.3687  -58.0358 H   0  0  0  0  0  0  0  0  0  0  0  0
   12.3103    2.4324  -57.8157 H   0  0  0  0  0  0  0  0  0  0  0  0
   12.2890    3.5819  -60.0320 H   0  0  0  0  0  0  0  0  0  0  0  0
   11.2891    2.0873  -60.0632 H   0  0  0  0  0  0  0  0  0  0  0  0
   10.1143    3.9864  -61.1788 H   0  0  0  0  0  0  0  0  0  0  0  0
   11.1710    5.8288  -59.8777 H   0  0  0  0  0  0  0  0  0  0  0  0
    9.3738    5.9233  -59.7846 H   0  0  0  0  0  0  0  0  0  0  0  0
   10.4236    6.2949  -57.5482 H   0  0  0  0  0  0  0  0  0  0  0  0
   12.4698    4.9209  -57.9250 H   0  0  0  0  0  0  0  0  0  0  0  0
   11.5996    4.3877  -56.4444 H   0  0  0  0  0  0  0  0  0  0  0  0
    9.1225    4.5456  -56.3211 H   0  0  0  0  0  0  0  0  0  0  0  0
    8.1913    5.2240  -57.7151 H   0  0  0  0  0  0  0  0  0  0  0  0
    8.0000    3.8346  -59.8849 H   0  0  0  0  0  0  0  0  0  0  0  0
    8.8309    2.2292  -59.9479 H   0  0  0  0  0  0  0  0  0  0  0  0
  1  2  1  0
  2  3  2  0
  3  4  1  0
  4  5  1  0
  5  6  2  0
  6  7  1  0
  7  8  1  0
  8  9  1  0
  9 10  1  0
 10 11  1  0
 11 12  1  0
 12 13  1  0
  7 14  2  0
 14 15  1  0
 16  3  1  1
 16 17  1  0
 17 18  1  0
 18 19  1  0
 19 20  1  0
 20 21  1  0
 21 22  1  0
 22 23  1  0
 22 24  1  0
 20 25  1  0
 15  4  2  0
 24 16  1  0
 13  8  1  0
 25 16  1  0
 23 18  1  0
  1 26  1  0
  5 27  1  0
  6 28  1  0
  9 29  1  0
  9 30  1  0
 10 31  1  0
 10 32  1  0
 12 33  1  0
 12 34  1  0
 13 35  1  0
 13 36  1  0
 14 37  1  0
 15 38  1  0
 17 39  1  0
 17 40  1  0
 18 41  1  6
 19 42  1  0
 19 43  1  0
 20 44  1  6
 21 45  1  0
 21 46  1  0
 22 47  1  1
 23 48  1  0
 23 49  1  0
 24 50  1  0
 24 51  1  0
 25 52  1  0
 25 53  1  0
M  END
>  <meeko>  (217) 
{"is_sidechain": false}

$$$$

     RDKit          3D

 53 57  0  0  0  0  0  0  0  0999 V2000
    4.5010    2.2560  -57.9500 O   0  0  0  0  0  0  0  0  0  0  0  0
    5.3820    2.6420  -57.1760 N   0  0  0  0  0  0  0  0  0  0  0  0
    6.7440    2.0240  -57.4170 C   0  0  2  0  0  0  0  0  0  0  0  0
    7.1520    1.1460  -56.2400 C   0  0  0  0  0  0  0  0  0  0  0  0
    6.2050    0.3280  -55.6120 C   0  0  0  0  0  0  0  0  0  0  0  0
    6.5630   -0.4960  -54.5340 C   0  0  0  0  0  0  0  0  0  0  0  0
    7.8710   -0.5410  -54.0300 C   0  0  0  0  0  0  0  0  0  0  0  0
    8.2170   -1.3600  -52.9710 N   0  0  0  0  0  0  0  0  0  0  0  0
    7.2180   -1.8960  -52.0340 C   0  0  0  0  0  0  0  0  0  0  0  0
    7.8880   -2.2350  -50.6910 C   0  0  0  0  0  0  0  0  0  0  0  0
    8.9450   -3.2000  -50.7890 O   0  0  0  0  0  0  0  0  0  0  0  0
    9.5960   -3.1990  -52.0670 C   0  0  0  0  0  0  0  0  0  0  0  0
    9.5980   -1.8290  -52.7680 C   0  0  0  0  0  0  0  0  0  0  0  0
    8.8070    0.2850  -54.6700 C   0  0  0  0  0  0  0  0  0  0  0  0
    8.4610    1.1140  -55.7460 C   0  0  0  0  0  0  0  0  0  0  0  0
    7.8470    2.9900  -57.9900 C   0  0  2  0  0  0  0  0  0  0  0  0
    7.2770    3.7320  -59.2430 C   0  0  0  0  0  0  0  0  0  0  0  0
    8.2840    4.7450  -59.8120 C   0  0  1  0  0  0  0  0  0  0  0  0
    8.6180    5.7890  -58.7380 C   0  0  0  0  0  0  0  0  0  0  0  0
    9.2250    5.0970  -57.5110 C   0  0  2  0  0  0  0  0  0  0  0  0
   10.5020    4.3500  -57.9220 C   0  0  0  0  0  0  0  0  0  0  0  0
   10.1750    3.3040  -58.9990 C   0  0  2  0  0  0  0  0  0  0  0  0
    9.5670    4.0070  -60.2210 C   0  0  0  0  0  0  0  0  0  0  0  0
    9.1620    2.2880  -58.4370 C   0  0  0  0  0  0  0  0  0  0  0  0
    8.2120    4.0890  -56.9430 C   0  0  0  0  0  0  0  0  0  0  0  0
    6.6387    1.3478  -58.2782 H   0  0  0  0  0  0  0  0  0  0  0  0
    5.1646    0.3313  -55.9690 H   0  0  0  0  0  0  0  0  0  0  0  0
    5.7920   -1.1277  -54.0688 H   0  0  0  0  0  0  0  0  0  0  0  0
    6.4318   -1.1444  -51.8698 H   0  0  0  0  0  0  0  0  0  0  0  0
    6.7765   -2.8095  -52.4590 H   0  0  0  0  0  0  0  0  0  0  0  0
    8.3047   -1.3083  -50.2696 H   0  0  0  0  0  0  0  0  0  0  0  0
    7.1106   -2.6809  -50.0532 H   0  0  0  0  0  0  0  0  0  0  0  0
   10.6397   -3.5156  -51.9237 H   0  0  0  0  0  0  0  0  0  0  0  0
    9.0295   -3.8859  -52.7130 H   0  0  0  0  0  0  0  0  0  0  0  0
   10.1405   -1.1028  -52.1449 H   0  0  0  0  0  0  0  0  0  0  0  0
   10.0914   -1.9269  -53.7462 H   0  0  0  0  0  0  0  0  0  0  0  0
    9.8482    0.2820  -54.3152 H   0  0  0  0  0  0  0  0  0  0  0  0
    9.2303    1.7493  -56.2093 H   0  0  0  0  0  0  0  0  0  0  0  0
    7.0407    2.9898  -60.0197 H   0  0  0  0  0  0  0  0  0  0  0  0
    6.3753    4.2815  -58.9349 H   0  0  0  0  0  0  0  0  0  0  0  0
    7.8492    5.2463  -60.6893 H   0  0  0  0  0  0  0  0  0  0  0  0
    9.3406    6.5122  -59.1440 H   0  0  0  0  0  0  0  0  0  0  0  0
    7.6969    6.3119  -58.4412 H   0  0  0  0  0  0  0  0  0  0  0  0
    9.4683    5.8515  -56.7484 H   0  0  0  0  0  0  0  0  0  0  0  0
   11.2319    5.0691  -58.3222 H   0  0  0  0  0  0  0  0  0  0  0  0
   10.9228    3.8424  -57.0415 H   0  0  0  0  0  0  0  0  0  0  0  0
   11.0955    2.7792  -59.2944 H   0  0  0  0  0  0  0  0  0  0  0  0
   10.2914    4.7300  -60.6242 H   0  0  0  0  0  0  0  0  0  0  0  0
    9.3254    3.2569  -60.9885 H   0  0  0  0  0  0  0  0  0  0  0  0
    8.9264    1.5482  -59.2162 H   0  0  0  0  0  0  0  0  0  0  0  0
    9.6105    1.7991  -57.5596 H   0  0  0  0  0  0  0  0  0  0  0  0
    8.6477    3.6063  -56.0558 H   0  0  0  0  0  0  0  0  0  0  0  0
    7.2931    4.6344  -56.6817 H   0  0  0  0  0  0  0  0  0  0  0  0
  1  2  2  0
  2  3  1  0
  3  4  1  0
  4  5  1  0
  5  6  2  0
  6  7  1  0
  7  8  1  0
  8  9  1  0
  9 10  1  0
 10 11  1  0
 11 12  1  0
 12 13  1  0
  7 14  2  0
 14 15  1  0
  3 16  1  0
 16 17  1  6
 17 18  1  0
 18 19  1  0
 19 20  1  0
 20 21  1  0
 21 22  1  0
 22 23  1  0
 22 24  1  0
 20 25  1  0
 15  4  2  0
 24 16  1  0
 13  8  1  0
 25 16  1  0
 23 18  1  0
  3 26  1  6
  5 27  1  0
  6 28  1  0
  9 29  1  0
  9 30  1  0
 10 31  1  0
 10 32  1  0
 12 33  1  0
 12 34  1  0
 13 35  1  0
 13 36  1  0
 14 37  1  0
 15 38  1  0
 17 39  1  0
 17 40  1  0
 18 41  1  6
 19 42  1  0
 19 43  1  0
 20 44  1  1
 21 45  1  0
 21 46  1  0
 22 47  1  6
 23 48  1  0
 23 49  1  0
 24 50  1  0
 24 51  1  0
 25 52  1  0
 25 53  1  0
M  END
>  <meeko>  (218) 
{"is_sidechain": false}

$$$$

     RDKit          3D

 53 57  0  0  0  0  0  0  0  0999 V2000
    5.3770    2.9260  -58.5570 O   0  0  0  0  0  0  0  0  0  0  0  0
    6.4620    2.3350  -58.5860 N   0  0  0  0  0  0  0  0  0  0  0  0
    7.3980    2.7870  -57.4850 C   0  0  1  0  0  0  0  0  0  0  0  0
    7.5630    1.6750  -56.4540 C   0  0  0  0  0  0  0  0  0  0  0  0
    8.7970    1.3640  -55.8690 C   0  0  0  0  0  0  0  0  0  0  0  0
    8.9030    0.3430  -54.9160 C   0  0  0  0  0  0  0  0  0  0  0  0
    7.7940   -0.4170  -54.5130 C   0  0  0  0  0  0  0  0  0  0  0  0
    7.9580   -1.4210  -53.5450 N   0  0  0  0  0  0  0  0  0  0  0  0
    7.6290   -2.7830  -54.0370 C   0  0  0  0  0  0  0  0  0  0  0  0
    8.0670   -3.8350  -53.0040 C   0  0  0  0  0  0  0  0  0  0  0  0
    7.4850   -3.5900  -51.7130 O   0  0  0  0  0  0  0  0  0  0  0  0
    7.8780   -2.2920  -51.2380 C   0  0  0  0  0  0  0  0  0  0  0  0
    7.4100   -1.1830  -52.1930 C   0  0  0  0  0  0  0  0  0  0  0  0
    6.5630   -0.0920  -55.0950 C   0  0  0  0  0  0  0  0  0  0  0  0
    6.4480    0.9280  -56.0520 C   0  0  0  0  0  0  0  0  0  0  0  0
    8.7290    3.3710  -58.0800 C   0  0  2  0  0  0  0  0  0  0  0  0
    9.4470    2.2820  -58.9400 C   0  0  0  0  0  0  0  0  0  0  0  0
   10.7290    2.8290  -59.5870 C   0  0  1  0  0  0  0  0  0  0  0  0
   10.3740    4.0120  -60.4980 C   0  0  0  0  0  0  0  0  0  0  0  0
    9.7040    5.1210  -59.6750 C   0  0  2  0  0  0  0  0  0  0  0  0
   10.6660    5.5890  -58.5720 C   0  0  0  0  0  0  0  0  0  0  0  0
   11.0220    4.4110  -57.6530 C   0  0  2  0  0  0  0  0  0  0  0  0
   11.6860    3.3030  -58.4820 C   0  0  0  0  0  0  0  0  0  0  0  0
    9.7350    3.8670  -57.0030 C   0  0  0  0  0  0  0  0  0  0  0  0
    8.4210    4.5710  -59.0280 C   0  0  0  0  0  0  0  0  0  0  0  0
    6.9632    3.6319  -56.9308 H   0  0  0  0  0  0  0  0  0  0  0  0
    9.6944    1.9288  -56.1617 H   0  0  0  0  0  0  0  0  0  0  0  0
    9.8856    0.1303  -54.4697 H   0  0  0  0  0  0  0  0  0  0  0  0
    6.5435   -2.8600  -54.1977 H   0  0  0  0  0  0  0  0  0  0  0  0
    8.1597   -2.9632  -54.9835 H   0  0  0  0  0  0  0  0  0  0  0  0
    7.7526   -4.8295  -53.3534 H   0  0  0  0  0  0  0  0  0  0  0  0
    9.1608   -3.7793  -52.9020 H   0  0  0  0  0  0  0  0  0  0  0  0
    7.4321   -2.1230  -50.2467 H   0  0  0  0  0  0  0  0  0  0  0  0
    8.9761   -2.2608  -51.1811 H   0  0  0  0  0  0  0  0  0  0  0  0
    6.3110   -1.1813  -52.2397 H   0  0  0  0  0  0  0  0  0  0  0  0
    7.7672   -0.2107  -51.8227 H   0  0  0  0  0  0  0  0  0  0  0  0
    5.6637   -0.6499  -54.7948 H   0  0  0  0  0  0  0  0  0  0  0  0
    5.4646    1.1449  -56.4945 H   0  0  0  0  0  0  0  0  0  0  0  0
    9.7080    1.4311  -58.2936 H   0  0  0  0  0  0  0  0  0  0  0  0
    8.7623    1.9694  -59.7422 H   0  0  0  0  0  0  0  0  0  0  0  0
   11.2118    2.0404  -60.1829 H   0  0  0  0  0  0  0  0  0  0  0  0
   11.2916    4.4045  -60.9606 H   0  0  0  0  0  0  0  0  0  0  0  0
    9.6800    3.6715  -61.2806 H   0  0  0  0  0  0  0  0  0  0  0  0
    9.4545    5.9671  -60.3321 H   0  0  0  0  0  0  0  0  0  0  0  0
   11.5842    5.9828  -59.0321 H   0  0  0  0  0  0  0  0  0  0  0  0
   10.1796    6.3769  -57.9782 H   0  0  0  0  0  0  0  0  0  0  0  0
   11.7160    4.7479  -56.8689 H   0  0  0  0  0  0  0  0  0  0  0  0
   12.6069    3.6929  -58.9401 H   0  0  0  0  0  0  0  0  0  0  0  0
   11.9270    2.4548  -57.8243 H   0  0  0  0  0  0  0  0  0  0  0  0
    9.9943    3.0281  -56.3405 H   0  0  0  0  0  0  0  0  0  0  0  0
    9.2622    4.6796  -56.4319 H   0  0  0  0  0  0  0  0  0  0  0  0
    7.9419    5.3724  -58.4464 H   0  0  0  0  0  0  0  0  0  0  0  0
    7.7548    4.2168  -59.8285 H   0  0  0  0  0  0  0  0  0  0  0  0
  1  2  2  0
  2  3  1  0
  3  4  1  0
  4  5  1  0
  5  6  2  0
  6  7  1  0
  7  8  1  0
  8  9  1  0
  9 10  1  0
 10 11  1  0
 11 12  1  0
 12 13  1  0
  7 14  2  0
 14 15  1  0
  3 16  1  0
 16 17  1  6
 17 18  1  0
 18 19  1  0
 19 20  1  0
 20 21  1  0
 21 22  1  0
 22 23  1  0
 22 24  1  0
 20 25  1  0
 15  4  2  0
 24 16  1  0
 13  8  1  0
 25 16  1  0
 23 18  1  0
  3 26  1  1
  5 27  1  0
  6 28  1  0
  9 29  1  0
  9 30  1  0
 10 31  1  0
 10 32  1  0
 12 33  1  0
 12 34  1  0
 13 35  1  0
 13 36  1  0
 14 37  1  0
 15 38  1  0
 17 39  1  0
 17 40  1  0
 18 41  1  6
 19 42  1  0
 19 43  1  0
 20 44  1  6
 21 45  1  0
 21 46  1  0
 22 47  1  1
 23 48  1  0
 23 49  1  0
 24 50  1  0
 24 51  1  0
 25 52  1  0
 25 53  1  0
M  END
>  <meeko>  (219) 
{"is_sidechain": false}

$$$$

     RDKit          3D

 53 57  0  0  0  0  0  0  0  0999 V2000
   10.9240   -1.9150  -52.7000 O   0  0  0  0  0  0  0  0  0  0  0  0
   11.3000   -2.9630  -53.5490 N   0  0  0  0  0  0  0  0  0  0  0  0
   11.1430   -2.6570  -54.8060 C   0  0  0  0  0  0  0  0  0  0  0  0
   10.6380   -1.3420  -55.2660 C   0  0  0  0  0  0  0  0  0  0  0  0
   11.4390   -0.5400  -56.0700 C   0  0  0  0  0  0  0  0  0  0  0  0
   10.9650    0.7100  -56.4870 C   0  0  0  0  0  0  0  0  0  0  0  0
    9.6900    1.1830  -56.1250 C   0  0  0  0  0  0  0  0  0  0  0  0
    9.2280    2.4200  -56.5350 N   0  0  0  0  0  0  0  0  0  0  0  0
   10.1060    3.5970  -56.6230 C   0  0  0  0  0  0  0  0  0  0  0  0
    9.2720    4.8840  -56.5190 C   0  0  0  0  0  0  0  0  0  0  0  0
    8.2720    5.0200  -57.5390 O   0  0  0  0  0  0  0  0  0  0  0  0
    7.8010    3.7610  -58.0420 C   0  0  0  0  0  0  0  0  0  0  0  0
    7.8490    2.6170  -57.0130 C   0  0  0  0  0  0  0  0  0  0  0  0
    8.9080    0.3340  -55.3200 C   0  0  0  0  0  0  0  0  0  0  0  0
    9.3670   -0.9190  -54.8920 C   0  0  0  0  0  0  0  0  0  0  0  0
   11.5410   -3.7070  -55.8740 C   0  0  2  0  0  0  0  0  0  0  0  0
   12.3230   -2.9940  -57.0050 C   0  0  0  0  0  0  0  0  0  0  0  0
   12.8060   -4.0080  -58.0580 C   0  0  1  0  0  0  0  0  0  0  0  0
   13.7240   -5.0420  -57.3840 C   0  0  0  0  0  0  0  0  0  0  0  0
   12.9580   -5.7860  -56.2780 C   0  0  2  0  0  0  0  0  0  0  0  0
   11.7450   -6.4990  -56.8910 C   0  0  0  0  0  0  0  0  0  0  0  0
   10.8190   -5.4740  -57.5610 C   0  0  2  0  0  0  0  0  0  0  0  0
   11.5910   -4.7310  -58.6620 C   0  0  0  0  0  0  0  0  0  0  0  0
   10.3400   -4.4580  -56.5080 C   0  0  0  0  0  0  0  0  0  0  0  0
   12.4740   -4.7700  -55.2300 C   0  0  0  0  0  0  0  0  0  0  0  0
   11.6760   -1.3000  -52.7840 H   0  0  0  0  0  0  0  0  0  0  0  0
   12.4377   -0.8844  -56.3765 H   0  0  0  0  0  0  0  0  0  0  0  0
   11.6090    1.3414  -57.1168 H   0  0  0  0  0  0  0  0  0  0  0  0
   10.8364    3.5688  -55.8010 H   0  0  0  0  0  0  0  0  0  0  0  0
   10.6312    3.5842  -57.5894 H   0  0  0  0  0  0  0  0  0  0  0  0
    8.7700    4.8918  -55.5403 H   0  0  0  0  0  0  0  0  0  0  0  0
    9.9701    5.7246  -56.6461 H   0  0  0  0  0  0  0  0  0  0  0  0
    6.7586    3.8878  -58.3696 H   0  0  0  0  0  0  0  0  0  0  0  0
    8.4727    3.4763  -58.8653 H   0  0  0  0  0  0  0  0  0  0  0  0
    7.2013    2.8681  -56.1601 H   0  0  0  0  0  0  0  0  0  0  0  0
    7.4989    1.6900  -57.4905 H   0  0  0  0  0  0  0  0  0  0  0  0
    7.9037    0.6647  -55.0168 H   0  0  0  0  0  0  0  0  0  0  0  0
    8.7289   -1.5610  -54.2670 H   0  0  0  0  0  0  0  0  0  0  0  0
   11.6655   -2.2569  -57.4890 H   0  0  0  0  0  0  0  0  0  0  0  0
   13.2001   -2.4950  -56.5672 H   0  0  0  0  0  0  0  0  0  0  0  0
   13.3576   -3.4818  -58.8511 H   0  0  0  0  0  0  0  0  0  0  0  0
   14.0711   -5.7656  -58.1363 H   0  0  0  0  0  0  0  0  0  0  0  0
   14.5857   -4.5229  -56.9389 H   0  0  0  0  0  0  0  0  0  0  0  0
   13.6183   -6.5260  -55.8021 H   0  0  0  0  0  0  0  0  0  0  0  0
   12.0899   -7.2246  -57.6423 H   0  0  0  0  0  0  0  0  0  0  0  0
   11.1921   -7.0208  -56.0960 H   0  0  0  0  0  0  0  0  0  0  0  0
    9.9539   -5.9921  -58.0005 H   0  0  0  0  0  0  0  0  0  0  0  0
   11.9355   -5.4539  -59.4162 H   0  0  0  0  0  0  0  0  0  0  0  0
   10.9268   -3.9899  -59.1305 H   0  0  0  0  0  0  0  0  0  0  0  0
    9.6729   -3.7280  -56.9897 H   0  0  0  0  0  0  0  0  0  0  0  0
    9.8071   -5.0011  -55.7136 H   0  0  0  0  0  0  0  0  0  0  0  0
   11.9223   -5.3022  -54.4411 H   0  0  0  0  0  0  0  0  0  0  0  0
   13.3509   -4.2571  -54.8082 H   0  0  0  0  0  0  0  0  0  0  0  0
  1  2  1  0
  2  3  2  0
  3  4  1  0
  4  5  1  0
  5  6  2  0
  6  7  1  0
  7  8  1  0
  8  9  1  0
  9 10  1  0
 10 11  1  0
 11 12  1  0
 12 13  1  0
  7 14  2  0
 14 15  1  0
 16  3  1  1
 16 17  1  0
 17 18  1  0
 18 19  1  0
 19 20  1  0
 20 21  1  0
 21 22  1  0
 22 23  1  0
 22 24  1  0
 20 25  1  0
 15  4  2  0
 24 16  1  0
 13  8  1  0
 25 16  1  0
 23 18  1  0
  1 26  1  0
  5 27  1  0
  6 28  1  0
  9 29  1  0
  9 30  1  0
 10 31  1  0
 10 32  1  0
 12 33  1  0
 12 34  1  0
 13 35  1  0
 13 36  1  0
 14 37  1  0
 15 38  1  0
 17 39  1  0
 17 40  1  0
 18 41  1  6
 19 42  1  0
 19 43  1  0
 20 44  1  1
 21 45  1  0
 21 46  1  0
 22 47  1  6
 23 48  1  0
 23 49  1  0
 24 50  1  0
 24 51  1  0
 25 52  1  0
 25 53  1  0
M  END
>  <meeko>  (220) 
{"is_sidechain": false}

$$$$

     RDKit          3D

 53 56  0  0  0  0  0  0  0  0999 V2000
   13.0400    4.0590  -59.1540 C   0  0  0  0  0  0  0  0  0  0  0  0
   11.8620    4.9360  -59.5490 C   0  0  0  0  0  0  0  0  0  0  0  0
   10.5740    4.1870  -59.5300 C   0  0  0  0  0  0  0  0  0  0  0  0
    9.8200    4.1020  -60.6280 N   0  0  0  0  0  0  0  0  0  0  0  0
    8.4850    3.1970  -60.2120 S   0  0  0  0  0  0  0  0  0  0  0  0
    8.9880    2.9810  -58.5780 C   0  0  0  0  0  0  0  0  0  0  0  0
    8.2160    2.2270  -57.5760 C   0  0  0  0  0  0  0  0  0  0  0  0
    6.8150    2.1680  -57.7070 C   0  0  0  0  0  0  0  0  0  0  0  0
    6.0230    1.4800  -56.7830 C   0  0  0  0  0  0  0  0  0  0  0  0
    6.6200    0.8230  -55.7120 C   0  0  0  0  0  0  0  0  0  0  0  0
    8.0100    0.8450  -55.5810 C   0  0  0  0  0  0  0  0  0  0  0  0
    8.6250    0.1480  -54.4260 C   0  0  0  0  0  0  0  0  0  0  0  0
    8.8460    0.8000  -53.4100 O   0  0  0  0  0  0  0  0  0  0  0  0
    8.9200   -1.2010  -54.5520 N   0  0  0  0  0  0  0  0  0  0  0  0
    8.0110   -2.2960  -54.2260 C   0  0  0  0  0  0  0  0  0  0  0  0
    8.9090   -3.4060  -53.6720 C   0  0  2  0  0  0  0  0  0  0  0  0
    9.0970   -3.2650  -52.1510 C   0  0  0  0  0  0  0  0  0  0  0  0
    7.8170   -2.9020  -51.4530 C   0  0  2  0  0  0  0  0  0  0  0  0
    7.8200   -2.5480  -49.9860 C   0  0  0  0  0  0  0  0  0  0  0  0
    7.2200   -3.8530  -50.4440 C   0  0  1  0  0  0  0  0  0  0  0  0
    5.7450   -4.0600  -50.3900 C   0  0  0  0  0  0  0  0  0  0  0  0
   10.1980   -3.1880  -54.4710 C   0  0  0  0  0  0  0  0  0  0  0  0
   10.3070   -1.6620  -54.5900 C   0  0  1  0  0  0  0  0  0  0  0  0
   11.0430   -1.2550  -55.8610 C   0  0  0  0  0  0  0  0  0  0  0  0
    8.8030    1.5580  -56.4920 C   0  0  0  0  0  0  0  0  0  0  0  0
   10.1470    3.5760  -58.3570 N   0  0  0  0  0  0  0  0  0  0  0  0
   13.1080    4.0084  -58.0573 H   0  0  0  0  0  0  0  0  0  0  0  0
   12.8957    3.0467  -59.5595 H   0  0  0  0  0  0  0  0  0  0  0  0
   13.9684    4.4875  -59.5595 H   0  0  0  0  0  0  0  0  0  0  0  0
   11.7936    5.7770  -58.8433 H   0  0  0  0  0  0  0  0  0  0  0  0
   12.0328    5.2898  -60.5764 H   0  0  0  0  0  0  0  0  0  0  0  0
    6.3328    2.6749  -58.5559 H   0  0  0  0  0  0  0  0  0  0  0  0
    4.9297    1.4582  -56.9026 H   0  0  0  0  0  0  0  0  0  0  0  0
    6.0020    0.2904  -54.9742 H   0  0  0  0  0  0  0  0  0  0  0  0
    7.2784   -1.9780  -53.4696 H   0  0  0  0  0  0  0  0  0  0  0  0
    7.4352   -2.6293  -55.1020 H   0  0  0  0  0  0  0  0  0  0  0  0
    8.5084   -4.4244  -53.7836 H   0  0  0  0  0  0  0  0  0  0  0  0
    9.4610   -4.2219  -51.7487 H   0  0  0  0  0  0  0  0  0  0  0  0
    9.8202   -2.4555  -51.9734 H   0  0  0  0  0  0  0  0  0  0  0  0
    7.4603   -2.4064  -52.3679 H   0  0  0  0  0  0  0  0  0  0  0  0
    8.7650   -2.5449  -49.4231 H   0  0  0  0  0  0  0  0  0  0  0  0
    7.4628   -1.6942  -49.3915 H   0  0  0  0  0  0  0  0  0  0  0  0
    7.3731   -4.9117  -50.1878 H   0  0  0  0  0  0  0  0  0  0  0  0
    5.4193   -4.1057  -49.3403 H   0  0  0  0  0  0  0  0  0  0  0  0
    5.2387   -3.2241  -50.8949 H   0  0  0  0  0  0  0  0  0  0  0  0
    5.4883   -5.0030  -50.8949 H   0  0  0  0  0  0  0  0  0  0  0  0
   11.0650   -3.6014  -53.9349 H   0  0  0  0  0  0  0  0  0  0  0  0
   10.1791   -3.6889  -55.4502 H   0  0  0  0  0  0  0  0  0  0  0  0
   10.9000   -1.2067  -53.7831 H   0  0  0  0  0  0  0  0  0  0  0  0
   11.9769   -0.7385  -55.5945 H   0  0  0  0  0  0  0  0  0  0  0  0
   11.2763   -2.1523  -56.4529 H   0  0  0  0  0  0  0  0  0  0  0  0
   10.4070   -0.5804  -56.4529 H   0  0  0  0  0  0  0  0  0  0  0  0
    9.8939    1.5928  -56.3553 H   0  0  0  0  0  0  0  0  0  0  0  0
  1  2  1  0
  2  3  1  0
  3  4  2  0
  4  5  1  0
  5  6  1  0
  6  7  1  0
  7  8  2  0
  8  9  1  0
  9 10  2  0
 10 11  1  0
 11 12  1  0
 12 13  2  0
 12 14  1  0
 14 15  1  0
 15 16  1  0
 16 17  1  0
 17 18  1  0
 18 19  1  0
 19 20  1  0
 20 21  1  0
 16 22  1  0
 22 23  1  0
 23 24  1  0
 11 25  2  0
  6 26  2  0
 26  3  1  0
 25  7  1  0
 23 14  1  0
 20 18  1  0
  1 27  1  0
  1 28  1  0
  1 29  1  0
  2 30  1  0
  2 31  1  0
  8 32  1  0
  9 33  1  0
 10 34  1  0
 15 35  1  0
 15 36  1  0
 16 37  1  1
 17 38  1  0
 17 39  1  0
 18 40  1  6
 19 41  1  0
 19 42  1  0
 20 43  1  1
 21 44  1  0
 21 45  1  0
 21 46  1  0
 22 47  1  0
 22 48  1  0
 23 49  1  1
 24 50  1  0
 24 51  1  0
 24 52  1  0
 25 53  1  0
M  END
>  <meeko>  (221) 
{"is_sidechain": false}

$$$$

     RDKit          3D

 33 34  0  0  0  0  0  0  0  0999 V2000
   10.9170    2.5230  -57.0910 O   0  0  0  0  0  0  0  0  0  0  0  0
    9.8350    2.2600  -57.6080 C   0  0  0  0  0  0  0  0  0  0  0  0
    9.5550    2.5140  -58.9390 N   0  0  0  0  0  0  0  0  0  0  0  0
   10.4840    3.2460  -59.7470 C   0  0  1  0  0  0  0  0  0  0  0  0
   10.0450    4.0550  -60.9310 C   0  0  0  0  0  0  0  0  0  0  0  0
   10.5270    4.7710  -59.6770 C   0  0  1  0  0  0  0  0  0  0  0  0
    9.5010    5.5480  -58.8760 C   0  0  0  0  0  0  0  0  0  0  0  0
    9.7660    5.5120  -57.4700 O   0  0  0  0  0  0  0  0  0  0  0  0
   11.8900    5.3910  -59.7030 C   0  0  0  0  0  0  0  0  0  0  0  0
   12.0780    6.4630  -60.2730 O   0  0  0  0  0  0  0  0  0  0  0  0
   12.9900    4.6430  -58.9630 C   0  0  0  0  0  0  0  0  0  0  0  0
   12.7610    4.6640  -57.5600 O   0  0  0  0  0  0  0  0  0  0  0  0
    8.7230    1.6950  -56.7940 C   0  0  0  0  0  0  0  0  0  0  0  0
    8.9560    0.9230  -55.6460 C   0  0  0  0  0  0  0  0  0  0  0  0
    7.8800    0.4140  -54.9150 C   0  0  0  0  0  0  0  0  0  0  0  0
    6.5720    0.6780  -55.3210 C   0  0  0  0  0  0  0  0  0  0  0  0
    6.3340    1.4560  -56.4520 C   0  0  0  0  0  0  0  0  0  0  0  0
    7.4060    1.9670  -57.1850 C   0  0  0  0  0  0  0  0  0  0  0  0
    8.5740    2.6510  -59.1820 H   0  0  0  0  0  0  0  0  0  0  0  0
   11.2088    2.4309  -59.6045 H   0  0  0  0  0  0  0  0  0  0  0  0
   10.6608    4.0713  -61.8423 H   0  0  0  0  0  0  0  0  0  0  0  0
    9.1323    4.0974  -61.5436 H   0  0  0  0  0  0  0  0  0  0  0  0
    9.5111    6.5958  -59.2108 H   0  0  0  0  0  0  0  0  0  0  0  0
    8.5196    5.0807  -59.0446 H   0  0  0  0  0  0  0  0  0  0  0  0
   10.2370    4.6740  -57.3080 H   0  0  0  0  0  0  0  0  0  0  0  0
   13.0116    3.5991  -59.3090 H   0  0  0  0  0  0  0  0  0  0  0  0
   13.9514    5.1357  -59.1701 H   0  0  0  0  0  0  0  0  0  0  0  0
   11.8500    4.9950  -57.4370 H   0  0  0  0  0  0  0  0  0  0  0  0
    9.9869    0.7184  -55.3213 H   0  0  0  0  0  0  0  0  0  0  0  0
    8.0644   -0.1957  -54.0182 H   0  0  0  0  0  0  0  0  0  0  0  0
    5.7265    0.2711  -54.7470 H   0  0  0  0  0  0  0  0  0  0  0  0
    5.3015    1.6674  -56.7671 H   0  0  0  0  0  0  0  0  0  0  0  0
    7.2157    2.5863  -58.0740 H   0  0  0  0  0  0  0  0  0  0  0  0
  1  2  2  0
  2  3  1  0
  3  4  1  0
  4  5  1  0
  5  6  1  0
  6  7  1  1
  7  8  1  0
  6  9  1  0
  9 10  2  0
  9 11  1  0
 11 12  1  0
  2 13  1  0
 13 14  2  0
 14 15  1  0
 15 16  2  0
 16 17  1  0
 17 18  2  0
  6  4  1  0
 18 13  1  0
  3 19  1  0
  4 20  1  6
  5 21  1  0
  5 22  1  0
  7 23  1  0
  7 24  1  0
  8 25  1  0
 11 26  1  0
 11 27  1  0
 12 28  1  0
 14 29  1  0
 15 30  1  0
 16 31  1  0
 17 32  1  0
 18 33  1  0
M  END
>  <meeko>  (222) 
{"is_sidechain": false}

$$$$

     RDKit          3D

 33 34  0  0  0  0  0  0  0  0999 V2000
   10.7080    2.3740  -56.8120 O   0  0  0  0  0  0  0  0  0  0  0  0
    9.6170    2.0960  -57.3020 C   0  0  0  0  0  0  0  0  0  0  0  0
    9.3020    2.3270  -58.6260 N   0  0  0  0  0  0  0  0  0  0  0  0
   10.2250    2.9240  -59.5430 C   0  0  1  0  0  0  0  0  0  0  0  0
    9.7360    3.6750  -60.7430 C   0  0  0  0  0  0  0  0  0  0  0  0
   10.4020    4.4420  -59.6110 C   0  0  2  0  0  0  0  0  0  0  0  0
   11.8080    4.9390  -59.8250 C   0  0  0  0  0  0  0  0  0  0  0  0
   11.7850    6.3610  -59.9350 O   0  0  0  0  0  0  0  0  0  0  0  0
    9.5160    5.2860  -58.7350 C   0  0  0  0  0  0  0  0  0  0  0  0
    9.9260    5.6790  -57.6450 O   0  0  0  0  0  0  0  0  0  0  0  0
    8.1140    5.5710  -59.2650 C   0  0  0  0  0  0  0  0  0  0  0  0
    7.1340    4.6300  -58.8700 O   0  0  0  0  0  0  0  0  0  0  0  0
    8.5410    1.5040  -56.4550 C   0  0  0  0  0  0  0  0  0  0  0  0
    8.8170    0.7440  -55.3100 C   0  0  0  0  0  0  0  0  0  0  0  0
    7.7700    0.2140  -54.5520 C   0  0  0  0  0  0  0  0  0  0  0  0
    6.4460    0.4480  -54.9260 C   0  0  0  0  0  0  0  0  0  0  0  0
    6.1650    1.2170  -56.0540 C   0  0  0  0  0  0  0  0  0  0  0  0
    7.2090    1.7470  -56.8140 C   0  0  0  0  0  0  0  0  0  0  0  0
    8.3410    2.2250  -58.9480 H   0  0  0  0  0  0  0  0  0  0  0  0
   10.9019    2.0722  -59.3807 H   0  0  0  0  0  0  0  0  0  0  0  0
   10.2534    3.5631  -61.7072 H   0  0  0  0  0  0  0  0  0  0  0  0
    8.7712    3.7523  -61.2657 H   0  0  0  0  0  0  0  0  0  0  0  0
   12.4372    4.6450  -58.9719 H   0  0  0  0  0  0  0  0  0  0  0  0
   12.2214    4.5012  -60.7456 H   0  0  0  0  0  0  0  0  0  0  0  0
   12.3190    6.5820  -60.7210 H   0  0  0  0  0  0  0  0  0  0  0  0
    7.8045    6.5621  -58.9018 H   0  0  0  0  0  0  0  0  0  0  0  0
    8.1771    5.5147  -60.3617 H   0  0  0  0  0  0  0  0  0  0  0  0
    6.3020    4.8870  -59.3240 H   0  0  0  0  0  0  0  0  0  0  0  0
    9.8594    0.5647  -55.0079 H   0  0  0  0  0  0  0  0  0  0  0  0
    7.9896   -0.3890  -53.6586 H   0  0  0  0  0  0  0  0  0  0  0  0
    5.6236    0.0253  -54.3302 H   0  0  0  0  0  0  0  0  0  0  0  0
    5.1212    1.4061  -56.3451 H   0  0  0  0  0  0  0  0  0  0  0  0
    6.9844    2.3590  -57.7000 H   0  0  0  0  0  0  0  0  0  0  0  0
  1  2  2  0
  2  3  1  0
  3  4  1  0
  4  5  1  0
  5  6  1  0
  6  7  1  6
  7  8  1  0
  6  9  1  0
  9 10  2  0
  9 11  1  0
 11 12  1  0
  2 13  1  0
 13 14  2  0
 14 15  1  0
 15 16  2  0
 16 17  1  0
 17 18  2  0
  6  4  1  0
 18 13  1  0
  3 19  1  0
  4 20  1  6
  5 21  1  0
  5 22  1  0
  7 23  1  0
  7 24  1  0
  8 25  1  0
 11 26  1  0
 11 27  1  0
 12 28  1  0
 14 29  1  0
 15 30  1  0
 16 31  1  0
 17 32  1  0
 18 33  1  0
M  END
>  <meeko>  (223) 
{"is_sidechain": false}

$$$$

     RDKit          3D

 55 60  0  0  0  0  0  0  0  0999 V2000
    6.2230    2.4070  -56.4510 O   0  0  0  0  0  0  0  0  0  0  0  0
    7.2080    1.7020  -56.2750 C   0  0  0  0  0  0  0  0  0  0  0  0
    8.4370    1.8990  -56.8690 N   0  0  0  0  0  0  0  0  0  0  0  0
    8.7530    3.0190  -57.7640 C   0  0  2  0  0  0  0  0  0  0  0  0
    7.7440    3.1280  -58.9360 C   0  0  0  0  0  0  0  0  0  0  0  0
    8.1340    4.2790  -59.8800 C   0  0  1  0  0  0  0  0  0  0  0  0
    8.1530    5.5990  -59.0890 C   0  0  0  0  0  0  0  0  0  0  0  0
    9.1780    5.5150  -57.9450 C   0  0  2  0  0  0  0  0  0  0  0  0
   10.5720    5.2400  -58.5330 C   0  0  0  0  0  0  0  0  0  0  0  0
   10.5600    3.9190  -59.3180 C   0  0  2  0  0  0  0  0  0  0  0  0
    9.5320    4.0140  -60.4570 C   0  0  0  0  0  0  0  0  0  0  0  0
   10.1600    2.7750  -58.3730 C   0  0  0  0  0  0  0  0  0  0  0  0
    8.7900    4.3650  -56.9980 C   0  0  0  0  0  0  0  0  0  0  0  0
    7.1210    0.5550  -55.3300 C   0  0  0  0  0  0  0  0  0  0  0  0
    5.9810    0.3300  -54.5510 C   0  0  0  0  0  0  0  0  0  0  0  0
    5.9500   -0.7540  -53.6740 C   0  0  0  0  0  0  0  0  0  0  0  0
    7.0540   -1.6020  -53.5690 C   0  0  0  0  0  0  0  0  0  0  0  0
    6.9510   -2.6420  -52.7280 F   0  0  0  0  0  0  0  0  0  0  0  0
    8.2170   -1.3880  -54.3180 C   0  0  0  0  0  0  0  0  0  0  0  0
    9.4020   -2.2480  -54.2440 C   0  0  0  0  0  0  0  0  0  0  0  0
    9.7670   -3.1140  -55.1740 N   0  0  0  0  0  0  0  0  0  0  0  0
   10.9580   -3.7200  -54.7840 C   0  0  0  0  0  0  0  0  0  0  0  0
   11.5960   -4.7430  -55.6700 C   0  0  0  0  0  0  0  0  0  0  0  0
   11.1880   -4.6490  -57.1160 C   0  0  0  0  0  0  0  0  0  0  0  0
   11.9270   -3.7390  -58.0660 C   0  0  0  0  0  0  0  0  0  0  0  0
   12.0650   -5.2320  -58.1950 C   0  0  0  0  0  0  0  0  0  0  0  0
   11.5220   -3.3730  -53.6250 N   0  0  0  0  0  0  0  0  0  0  0  0
   10.5410   -2.2050  -52.9530 S   0  0  0  0  0  0  0  0  0  0  0  0
    8.2310   -0.2950  -55.2050 C   0  0  0  0  0  0  0  0  0  0  0  0
    9.2250    1.4100  -56.4670 H   0  0  0  0  0  0  0  0  0  0  0  0
    7.7408    2.1833  -59.4996 H   0  0  0  0  0  0  0  0  0  0  0  0
    6.7435    3.3291  -58.5255 H   0  0  0  0  0  0  0  0  0  0  0  0
    7.4038    4.3475  -60.6999 H   0  0  0  0  0  0  0  0  0  0  0  0
    8.4274    6.4234  -59.7635 H   0  0  0  0  0  0  0  0  0  0  0  0
    7.1541    5.7790  -58.6649 H   0  0  0  0  0  0  0  0  0  0  0  0
    9.1909    6.4638  -57.3886 H   0  0  0  0  0  0  0  0  0  0  0  0
   10.8513    6.0624  -59.2081 H   0  0  0  0  0  0  0  0  0  0  0  0
   11.3016    5.1662  -57.7131 H   0  0  0  0  0  0  0  0  0  0  0  0
   11.5594    3.7269  -59.7355 H   0  0  0  0  0  0  0  0  0  0  0  0
    9.8101    4.8374  -61.1313 H   0  0  0  0  0  0  0  0  0  0  0  0
    9.5198    3.0651  -61.0132 H   0  0  0  0  0  0  0  0  0  0  0  0
   10.1485    1.8306  -58.9369 H   0  0  0  0  0  0  0  0  0  0  0  0
   10.8919    2.7270  -57.5532 H   0  0  0  0  0  0  0  0  0  0  0  0
    9.5298    4.2993  -56.1866 H   0  0  0  0  0  0  0  0  0  0  0  0
    7.7905    4.5665  -56.5852 H   0  0  0  0  0  0  0  0  0  0  0  0
    5.1149    1.0035  -54.6296 H   0  0  0  0  0  0  0  0  0  0  0  0
    5.0540   -0.9411  -53.0639 H   0  0  0  0  0  0  0  0  0  0  0  0
   12.6873   -4.6179  -55.6108 H   0  0  0  0  0  0  0  0  0  0  0  0
   11.2591   -5.7264  -55.3102 H   0  0  0  0  0  0  0  0  0  0  0  0
   10.1369   -4.7696  -56.8148 H   0  0  0  0  0  0  0  0  0  0  0  0
   11.3718   -3.1703  -58.8265 H   0  0  0  0  0  0  0  0  0  0  0  0
   12.6293   -2.9002  -57.9513 H   0  0  0  0  0  0  0  0  0  0  0  0
   11.6109   -5.7542  -59.0501 H   0  0  0  0  0  0  0  0  0  0  0  0
   12.9103   -5.9356  -58.2137 H   0  0  0  0  0  0  0  0  0  0  0  0
    9.1285   -0.1035  -55.8114 H   0  0  0  0  0  0  0  0  0  0  0  0
  1  2  2  0
  2  3  1  0
  4  3  1  1
  4  5  1  0
  5  6  1  0
  6  7  1  0
  7  8  1  0
  8  9  1  0
  9 10  1  0
 10 11  1  0
 10 12  1  0
  8 13  1  0
  2 14  1  0
 14 15  1  0
 15 16  2  0
 16 17  1  0
 17 18  1  0
 17 19  2  0
 19 20  1  0
 20 21  2  0
 21 22  1  0
 22 23  1  0
 23 24  1  0
 24 25  1  0
 25 26  1  0
 22 27  2  0
 27 28  1  0
 19 29  1  0
 12  4  1  0
 29 14  2  0
 13  4  1  0
 28 20  1  0
 11  6  1  0
 26 24  1  0
  3 30  1  0
  5 31  1  0
  5 32  1  0
  6 33  1  6
  7 34  1  0
  7 35  1  0
  8 36  1  1
  9 37  1  0
  9 38  1  0
 10 39  1  6
 11 40  1  0
 11 41  1  0
 12 42  1  0
 12 43  1  0
 13 44  1  0
 13 45  1  0
 15 46  1  0
 16 47  1  0
 23 48  1  0
 23 49  1  0
 24 50  1  0
 25 51  1  0
 25 52  1  0
 26 53  1  0
 26 54  1  0
 29 55  1  0
M  END
>  <meeko>  (224) 
{"is_sidechain": false}

$$$$

     RDKit          3D

 59 64  0  0  0  0  0  0  0  0999 V2000
   12.9610    7.6040  -60.6700 C   0  0  0  0  0  0  0  0  0  0  0  0
   13.4370    6.4220  -60.0420 O   0  0  0  0  0  0  0  0  0  0  0  0
   12.5260    5.6900  -59.3310 C   0  0  0  0  0  0  0  0  0  0  0  0
   11.2200    5.7490  -59.8200 C   0  0  0  0  0  0  0  0  0  0  0  0
   10.1870    5.0470  -59.1890 C   0  0  0  0  0  0  0  0  0  0  0  0
   10.4450    4.2700  -58.0510 C   0  0  0  0  0  0  0  0  0  0  0  0
    9.3740    3.5280  -57.3770 C   0  0  0  0  0  0  0  0  0  0  0  0
    8.0850    3.8680  -57.5000 N   0  0  0  0  0  0  0  0  0  0  0  0
    7.2010    2.7960  -56.5910 S   0  0  0  0  0  0  0  0  0  0  0  0
    8.5800    1.9100  -56.0740 C   0  0  0  0  0  0  0  0  0  0  0  0
    8.5180    0.7420  -55.1790 C   0  0  0  0  0  0  0  0  0  0  0  0
    7.7400    0.8270  -54.0110 C   0  0  0  0  0  0  0  0  0  0  0  0
    7.6330   -0.2500  -53.1260 C   0  0  0  0  0  0  0  0  0  0  0  0
    8.3150   -1.4360  -53.3880 C   0  0  0  0  0  0  0  0  0  0  0  0
    9.1120   -1.5400  -54.5330 C   0  0  0  0  0  0  0  0  0  0  0  0
    9.8580   -2.7860  -54.8590 C   0  0  0  0  0  0  0  0  0  0  0  0
    9.6140   -3.8100  -54.2320 O   0  0  0  0  0  0  0  0  0  0  0  0
   10.7640   -2.6960  -55.8960 N   0  0  0  0  0  0  0  0  0  0  0  0
   11.5340   -3.8280  -56.4240 C   0  0  2  0  0  0  0  0  0  0  0  0
   12.2500   -4.6170  -55.2990 C   0  0  0  0  0  0  0  0  0  0  0  0
   13.0890   -5.7640  -55.8910 C   0  0  1  0  0  0  0  0  0  0  0  0
   12.1670   -6.7080  -56.6820 C   0  0  0  0  0  0  0  0  0  0  0  0
   11.4800   -5.9430  -57.8270 C   0  0  2  0  0  0  0  0  0  0  0  0
   12.5520   -5.3590  -58.7600 C   0  0  0  0  0  0  0  0  0  0  0  0
   13.4700   -4.4080  -57.9760 C   0  0  2  0  0  0  0  0  0  0  0  0
   14.1500   -5.1820  -56.8360 C   0  0  0  0  0  0  0  0  0  0  0  0
   12.6260   -3.2710  -57.3780 C   0  0  0  0  0  0  0  0  0  0  0  0
   10.6390   -4.7970  -57.2350 C   0  0  0  0  0  0  0  0  0  0  0  0
    9.2000   -0.4590  -55.4270 C   0  0  0  0  0  0  0  0  0  0  0  0
    9.6870    2.4240  -56.5750 N   0  0  0  0  0  0  0  0  0  0  0  0
   11.7610    4.2160  -57.5660 C   0  0  0  0  0  0  0  0  0  0  0  0
   12.7940    4.9200  -58.2010 C   0  0  0  0  0  0  0  0  0  0  0  0
   12.6669    8.3344  -59.9018 H   0  0  0  0  0  0  0  0  0  0  0  0
   13.7569    8.0320  -61.2972 H   0  0  0  0  0  0  0  0  0  0  0  0
   12.0906    7.3609  -61.2972 H   0  0  0  0  0  0  0  0  0  0  0  0
   11.0003    6.3544  -60.7118 H   0  0  0  0  0  0  0  0  0  0  0  0
    9.1640    5.1053  -59.5892 H   0  0  0  0  0  0  0  0  0  0  0  0
    7.2038    1.7613  -53.7886 H   0  0  0  0  0  0  0  0  0  0  0  0
    7.0107   -0.1609  -52.2234 H   0  0  0  0  0  0  0  0  0  0  0  0
    8.2272   -2.2875  -52.6972 H   0  0  0  0  0  0  0  0  0  0  0  0
   10.7020   -1.8790  -56.4890 H   0  0  0  0  0  0  0  0  0  0  0  0
   12.9107   -3.9352  -54.7435 H   0  0  0  0  0  0  0  0  0  0  0  0
   11.4910   -5.0433  -54.6266 H   0  0  0  0  0  0  0  0  0  0  0  0
   13.5824   -6.3197  -55.0800 H   0  0  0  0  0  0  0  0  0  0  0  0
   12.7636   -7.5314  -57.1016 H   0  0  0  0  0  0  0  0  0  0  0  0
   11.3977   -7.1087  -56.0055 H   0  0  0  0  0  0  0  0  0  0  0  0
   10.8296   -6.6253  -58.3940 H   0  0  0  0  0  0  0  0  0  0  0  0
   13.1521   -6.1781  -59.1830 H   0  0  0  0  0  0  0  0  0  0  0  0
   12.0601   -4.8000  -59.5697 H   0  0  0  0  0  0  0  0  0  0  0  0
   14.2339   -3.9925  -58.6497 H   0  0  0  0  0  0  0  0  0  0  0  0
   14.7499   -6.0013  -57.2590 H   0  0  0  0  0  0  0  0  0  0  0  0
   14.7997   -4.4970  -56.2716 H   0  0  0  0  0  0  0  0  0  0  0  0
   13.2840   -2.5933  -56.8143 H   0  0  0  0  0  0  0  0  0  0  0  0
   12.1309   -2.7335  -58.2002 H   0  0  0  0  0  0  0  0  0  0  0  0
   10.1553   -4.2433  -58.0532 H   0  0  0  0  0  0  0  0  0  0  0  0
    9.8793   -5.2242  -56.5639 H   0  0  0  0  0  0  0  0  0  0  0  0
    9.8130   -0.5560  -56.3352 H   0  0  0  0  0  0  0  0  0  0  0  0
   11.9853    3.6123  -56.6743 H   0  0  0  0  0  0  0  0  0  0  0  0
   13.8191    4.8643  -57.8059 H   0  0  0  0  0  0  0  0  0  0  0  0
  1  2  1  0
  2  3  1  0
  3  4  1  0
  4  5  2  0
  5  6  1  0
  6  7  1  0
  7  8  2  0
  8  9  1  0
  9 10  1  0
 10 11  1  0
 11 12  2  0
 12 13  1  0
 13 14  2  0
 14 15  1  0
 15 16  1  0
 16 17  2  0
 16 18  1  0
 19 18  1  1
 19 20  1  0
 20 21  1  0
 21 22  1  0
 22 23  1  0
 23 24  1  0
 24 25  1  0
 25 26  1  0
 25 27  1  0
 23 28  1  0
 15 29  2  0
 10 30  2  0
  6 31  2  0
 31 32  1  0
 32  3  2  0
 30  7  1  0
 29 11  1  0
 27 19  1  0
 28 19  1  0
 26 21  1  0
  1 33  1  0
  1 34  1  0
  1 35  1  0
  4 36  1  0
  5 37  1  0
 12 38  1  0
 13 39  1  0
 14 40  1  0
 18 41  1  0
 20 42  1  0
 20 43  1  0
 21 44  1  1
 22 45  1  0
 22 46  1  0
 23 47  1  6
 24 48  1  0
 24 49  1  0
 25 50  1  6
 26 51  1  0
 26 52  1  0
 27 53  1  0
 27 54  1  0
 28 55  1  0
 28 56  1  0
 29 57  1  0
 31 58  1  0
 32 59  1  0
M  END
>  <meeko>  (225) 
{"is_sidechain": false}

$$$$

     RDKit          3D

 55 60  0  0  0  0  0  0  0  0999 V2000
    8.7380    0.0460  -53.8990 O   0  0  0  0  0  0  0  0  0  0  0  0
    7.5870   -0.1440  -54.2710 C   0  0  0  0  0  0  0  0  0  0  0  0
    6.7410   -1.1020  -53.7500 N   0  0  0  0  0  0  0  0  0  0  0  0
    7.1170   -2.0570  -52.7000 C   0  0  2  0  0  0  0  0  0  0  0  0
    5.9120   -3.0020  -52.4460 C   0  0  0  0  0  0  0  0  0  0  0  0
    6.2400   -4.0370  -51.3590 C   0  0  1  0  0  0  0  0  0  0  0  0
    7.4500   -4.8720  -51.8060 C   0  0  0  0  0  0  0  0  0  0  0  0
    8.6630   -3.9570  -52.0340 C   0  0  2  0  0  0  0  0  0  0  0  0
    8.9950   -3.2180  -50.7270 C   0  0  0  0  0  0  0  0  0  0  0  0
    7.7880   -2.3790  -50.2710 C   0  0  2  0  0  0  0  0  0  0  0  0
    6.5810   -3.3030  -50.0520 C   0  0  0  0  0  0  0  0  0  0  0  0
    7.4490   -1.3470  -51.3620 C   0  0  0  0  0  0  0  0  0  0  0  0
    8.3250   -2.9260  -53.1270 C   0  0  0  0  0  0  0  0  0  0  0  0
    7.0410    0.6680  -55.3940 C   0  0  0  0  0  0  0  0  0  0  0  0
    5.6750    0.9450  -55.5070 C   0  0  0  0  0  0  0  0  0  0  0  0
    5.2120    1.7100  -56.5740 C   0  0  0  0  0  0  0  0  0  0  0  0
    6.1120    2.2070  -57.5200 C   0  0  0  0  0  0  0  0  0  0  0  0
    7.4940    1.9620  -57.4180 C   0  0  0  0  0  0  0  0  0  0  0  0
    8.3880    2.5230  -58.4420 C   0  0  0  0  0  0  0  0  0  0  0  0
    9.4210    3.3100  -58.2000 N   0  0  0  0  0  0  0  0  0  0  0  0
   10.0600    3.6220  -59.4030 C   0  0  0  0  0  0  0  0  0  0  0  0
   11.2220    4.5060  -59.3840 C   0  0  0  0  0  0  0  0  0  0  0  0
   11.2140    5.6270  -60.2340 C   0  0  0  0  0  0  0  0  0  0  0  0
   12.2980    6.5060  -60.2770 C   0  0  0  0  0  0  0  0  0  0  0  0
   13.4040    6.2810  -59.4630 C   0  0  0  0  0  0  0  0  0  0  0  0
   13.4230    5.1820  -58.6040 C   0  0  0  0  0  0  0  0  0  0  0  0
   12.3370    4.2970  -58.5570 C   0  0  0  0  0  0  0  0  0  0  0  0
   12.4350    3.0070  -57.4070 Cl  0  0  0  0  0  0  0  0  0  0  0  0
    9.5320    3.1620  -60.5410 N   0  0  0  0  0  0  0  0  0  0  0  0
    8.2250    2.2210  -60.1270 S   0  0  0  0  0  0  0  0  0  0  0  0
    7.9430    1.1860  -56.3380 C   0  0  0  0  0  0  0  0  0  0  0  0
    5.9180   -1.3300  -54.2900 H   0  0  0  0  0  0  0  0  0  0  0  0
    5.0478   -2.4032  -52.1227 H   0  0  0  0  0  0  0  0  0  0  0  0
    5.6844   -3.5366  -53.3800 H   0  0  0  0  0  0  0  0  0  0  0  0
    5.3752   -4.6974  -51.1979 H   0  0  0  0  0  0  0  0  0  0  0  0
    7.6915   -5.6100  -51.0268 H   0  0  0  0  0  0  0  0  0  0  0  0
    7.2053   -5.3889  -52.7456 H   0  0  0  0  0  0  0  0  0  0  0  0
    9.5269   -4.5610  -52.3484 H   0  0  0  0  0  0  0  0  0  0  0  0
    9.2427   -3.9527  -49.9467 H   0  0  0  0  0  0  0  0  0  0  0  0
    9.8523   -2.5506  -50.8992 H   0  0  0  0  0  0  0  0  0  0  0  0
    8.0297   -1.8600  -49.3317 H   0  0  0  0  0  0  0  0  0  0  0  0
    6.8227   -4.0401  -49.2721 H   0  0  0  0  0  0  0  0  0  0  0  0
    5.7157   -2.7004  -49.7387 H   0  0  0  0  0  0  0  0  0  0  0  0
    6.5794   -0.7545  -51.0416 H   0  0  0  0  0  0  0  0  0  0  0  0
    8.3199   -0.6925  -51.5142 H   0  0  0  0  0  0  0  0  0  0  0  0
    9.1970   -2.2764  -53.2936 H   0  0  0  0  0  0  0  0  0  0  0  0
    8.0676   -3.4614  -54.0528 H   0  0  0  0  0  0  0  0  0  0  0  0
    4.9694    0.5601  -54.7561 H   0  0  0  0  0  0  0  0  0  0  0  0
    4.1373    1.9232  -56.6723 H   0  0  0  0  0  0  0  0  0  0  0  0
    5.7320    2.8028  -58.3630 H   0  0  0  0  0  0  0  0  0  0  0  0
   10.3398    5.8140  -60.8750 H   0  0  0  0  0  0  0  0  0  0  0  0
   12.2778    7.3740  -60.9525 H   0  0  0  0  0  0  0  0  0  0  0  0
   14.2619    6.9686  -59.4968 H   0  0  0  0  0  0  0  0  0  0  0  0
   14.2968    5.0086  -57.9587 H   0  0  0  0  0  0  0  0  0  0  0  0
    9.0181    0.9803  -56.2292 H   0  0  0  0  0  0  0  0  0  0  0  0
  1  2  2  0
  2  3  1  0
  4  3  1  6
  4  5  1  0
  5  6  1  0
  6  7  1  0
  7  8  1  0
  8  9  1  0
  9 10  1  0
 10 11  1  0
 10 12  1  0
  8 13  1  0
  2 14  1  0
 14 15  1  0
 15 16  2  0
 16 17  1  0
 17 18  2  0
 18 19  1  0
 19 20  2  0
 20 21  1  0
 21 22  1  0
 22 23  2  0
 23 24  1  0
 24 25  2  0
 25 26  1  0
 26 27  2  0
 27 28  1  0
 21 29  2  0
 29 30  1  0
 18 31  1  0
 12  4  1  0
 31 14  2  0
 13  4  1  0
 30 19  1  0
 11  6  1  0
 27 22  1  0
  3 32  1  0
  5 33  1  0
  5 34  1  0
  6 35  1  1
  7 36  1  0
  7 37  1  0
  8 38  1  6
  9 39  1  0
  9 40  1  0
 10 41  1  1
 11 42  1  0
 11 43  1  0
 12 44  1  0
 12 45  1  0
 13 46  1  0
 13 47  1  0
 15 48  1  0
 16 49  1  0
 17 50  1  0
 23 51  1  0
 24 52  1  0
 25 53  1  0
 26 54  1  0
 31 55  1  0
M  END
>  <meeko>  (226) 
{"is_sidechain": false}

$$$$

     RDKit          3D

 55 60  0  0  0  0  0  0  0  0999 V2000
    6.5720    2.3890  -56.3690 O   0  0  0  0  0  0  0  0  0  0  0  0
    7.5950    1.7230  -56.2560 C   0  0  0  0  0  0  0  0  0  0  0  0
    8.7680    2.0080  -56.9190 N   0  0  0  0  0  0  0  0  0  0  0  0
    8.9650    3.1310  -57.8420 C   0  0  2  0  0  0  0  0  0  0  0  0
   10.3340    2.9470  -58.5530 C   0  0  0  0  0  0  0  0  0  0  0  0
   10.6040    4.0940  -59.5380 C   0  0  1  0  0  0  0  0  0  0  0  0
    9.4900    4.1230  -60.5950 C   0  0  0  0  0  0  0  0  0  0  0  0
    8.1280    4.3310  -59.9170 C   0  0  2  0  0  0  0  0  0  0  0  0
    8.1440    5.6610  -59.1430 C   0  0  0  0  0  0  0  0  0  0  0  0
    9.2570    5.6420  -58.0810 C   0  0  2  0  0  0  0  0  0  0  0  0
   10.6130    5.4250  -58.7710 C   0  0  0  0  0  0  0  0  0  0  0  0
    8.9970    4.4880  -57.0960 C   0  0  0  0  0  0  0  0  0  0  0  0
    7.8670    3.1760  -58.9330 C   0  0  0  0  0  0  0  0  0  0  0  0
    7.5840    0.5330  -55.3520 C   0  0  0  0  0  0  0  0  0  0  0  0
    6.4450    0.3200  -54.5630 C   0  0  0  0  0  0  0  0  0  0  0  0
    6.3810   -0.7740  -53.7030 C   0  0  0  0  0  0  0  0  0  0  0  0
    7.4540   -1.6590  -53.6280 C   0  0  0  0  0  0  0  0  0  0  0  0
    7.3380   -2.7000  -52.7910 F   0  0  0  0  0  0  0  0  0  0  0  0
    8.6080   -1.4810  -54.3980 C   0  0  0  0  0  0  0  0  0  0  0  0
    9.7360   -2.3980  -54.3330 C   0  0  0  0  0  0  0  0  0  0  0  0
   10.1660   -3.2730  -55.2160 N   0  0  0  0  0  0  0  0  0  0  0  0
   11.2610   -3.8150  -54.5910 C   0  0  0  0  0  0  0  0  0  0  0  0
   12.0990   -4.8700  -55.2220 C   0  0  0  0  0  0  0  0  0  0  0  0
   11.4410   -5.5710  -56.3810 C   0  0  0  0  0  0  0  0  0  0  0  0
   12.1890   -6.6270  -57.1570 C   0  0  0  0  0  0  0  0  0  0  0  0
   11.8840   -5.3000  -57.7970 C   0  0  0  0  0  0  0  0  0  0  0  0
   11.5150   -3.3190  -53.3740 N   0  0  0  0  0  0  0  0  0  0  0  0
   10.5030   -2.3740  -53.1990 O   0  0  0  0  0  0  0  0  0  0  0  0
    8.6510   -0.3710  -55.2590 C   0  0  0  0  0  0  0  0  0  0  0  0
    9.7490   -0.1690  -56.0090 F   0  0  0  0  0  0  0  0  0  0  0  0
    9.5660    1.4000  -56.7620 H   0  0  0  0  0  0  0  0  0  0  0  0
   11.1321    2.9279  -57.7963 H   0  0  0  0  0  0  0  0  0  0  0  0
   10.3115    2.0017  -59.1151 H   0  0  0  0  0  0  0  0  0  0  0  0
   11.5765    3.9436  -60.0295 H   0  0  0  0  0  0  0  0  0  0  0  0
    9.6766    4.9479  -61.2983 H   0  0  0  0  0  0  0  0  0  0  0  0
    9.4812    3.1657  -61.1367 H   0  0  0  0  0  0  0  0  0  0  0  0
    7.3356    4.3543  -60.6796 H   0  0  0  0  0  0  0  0  0  0  0  0
    8.3252    6.4882  -59.8450 H   0  0  0  0  0  0  0  0  0  0  0  0
    7.1732    5.7988  -58.6444 H   0  0  0  0  0  0  0  0  0  0  0  0
    9.2679    6.5983  -57.5375 H   0  0  0  0  0  0  0  0  0  0  0  0
   10.8001    6.2497  -59.4744 H   0  0  0  0  0  0  0  0  0  0  0  0
   11.4060    5.3979  -58.0092 H   0  0  0  0  0  0  0  0  0  0  0  0
    9.7987    4.4678  -56.3431 H   0  0  0  0  0  0  0  0  0  0  0  0
    8.0231    4.6488  -56.6106 H   0  0  0  0  0  0  0  0  0  0  0  0
    6.8876    3.3232  -58.4544 H   0  0  0  0  0  0  0  0  0  0  0  0
    7.8801    2.2268  -59.4887 H   0  0  0  0  0  0  0  0  0  0  0  0
    5.5983    1.0196  -54.6232 H   0  0  0  0  0  0  0  0  0  0  0  0
    5.4859   -0.9385  -53.0851 H   0  0  0  0  0  0  0  0  0  0  0  0
   13.0271   -4.4030  -55.5833 H   0  0  0  0  0  0  0  0  0  0  0  0
   12.2780   -5.6341  -54.4512 H   0  0  0  0  0  0  0  0  0  0  0  0
   10.4809   -5.5282  -55.8459 H   0  0  0  0  0  0  0  0  0  0  0  0
   13.2238   -6.8806  -56.8835 H   0  0  0  0  0  0  0  0  0  0  0  0
   12.0005   -7.6784  -57.4196 H   0  0  0  0  0  0  0  0  0  0  0  0
   12.6960   -4.5839  -57.9914 H   0  0  0  0  0  0  0  0  0  0  0  0
   11.3803   -4.9804  -58.7212 H   0  0  0  0  0  0  0  0  0  0  0  0
  1  2  2  0
  2  3  1  0
  4  3  1  1
  4  5  1  0
  5  6  1  0
  6  7  1  0
  7  8  1  0
  8  9  1  0
  9 10  1  0
 10 11  1  0
 10 12  1  0
  8 13  1  0
  2 14  1  0
 14 15  1  0
 15 16  2  0
 16 17  1  0
 17 18  1  0
 17 19  2  0
 19 20  1  0
 20 21  2  0
 21 22  1  0
 22 23  1  0
 23 24  1  0
 24 25  1  0
 25 26  1  0
 22 27  2  0
 27 28  1  0
 19 29  1  0
 29 30  1  0
 12  4  1  0
 29 14  2  0
 13  4  1  0
 28 20  1  0
 11  6  1  0
 26 24  1  0
  3 31  1  0
  5 32  1  0
  5 33  1  0
  6 34  1  6
  7 35  1  0
  7 36  1  0
  8 37  1  6
  9 38  1  0
  9 39  1  0
 10 40  1  1
 11 41  1  0
 11 42  1  0
 12 43  1  0
 12 44  1  0
 13 45  1  0
 13 46  1  0
 15 47  1  0
 16 48  1  0
 23 49  1  0
 23 50  1  0
 24 51  1  0
 25 52  1  0
 25 53  1  0
 26 54  1  0
 26 55  1  0
M  END
>  <meeko>  (227) 
{"is_sidechain": false}

$$$$

     RDKit          3D

 57 62  0  0  0  0  0  0  0  0999 V2000
    7.2280    2.5450  -57.4640 O   0  0  0  0  0  0  0  0  0  0  0  0
    7.9420    1.8750  -56.7300 C   0  0  0  0  0  0  0  0  0  0  0  0
    9.3220    1.9100  -56.7260 N   0  0  0  0  0  0  0  0  0  0  0  0
   10.1300    2.7940  -57.5760 C   0  0  2  0  0  0  0  0  0  0  0  0
    9.8600    2.5420  -59.0800 C   0  0  0  0  0  0  0  0  0  0  0  0
   10.6750    3.5180  -59.9480 C   0  0  1  0  0  0  0  0  0  0  0  0
   10.2700    4.9610  -59.6060 C   0  0  0  0  0  0  0  0  0  0  0  0
   10.5480    5.2480  -58.1220 C   0  0  2  0  0  0  0  0  0  0  0  0
   12.0460    5.0550  -57.8380 C   0  0  0  0  0  0  0  0  0  0  0  0
   12.4610    3.6140  -58.1680 C   0  0  2  0  0  0  0  0  0  0  0  0
   12.1730    3.3290  -59.6520 C   0  0  0  0  0  0  0  0  0  0  0  0
   11.6470    2.6380  -57.2980 C   0  0  0  0  0  0  0  0  0  0  0  0
    9.7420    4.2640  -57.2590 C   0  0  0  0  0  0  0  0  0  0  0  0
    7.3120    0.9670  -55.7350 C   0  0  0  0  0  0  0  0  0  0  0  0
    5.9170    0.8470  -55.7270 C   0  0  0  0  0  0  0  0  0  0  0  0
    5.2830    0.0170  -54.8010 C   0  0  0  0  0  0  0  0  0  0  0  0
    6.0410   -0.7150  -53.8870 C   0  0  0  0  0  0  0  0  0  0  0  0
    7.4400   -0.6320  -53.9180 C   0  0  0  0  0  0  0  0  0  0  0  0
    8.2840   -1.3900  -52.9580 C   0  0  0  0  0  0  0  0  0  0  0  0
    7.9090   -1.3680  -51.7840 O   0  0  0  0  0  0  0  0  0  0  0  0
    9.4630   -2.0960  -53.4210 C   0  0  0  0  0  0  0  0  0  0  0  0
    9.6080   -2.5720  -54.6410 N   0  0  0  0  0  0  0  0  0  0  0  0
   10.8390   -3.2310  -54.7320 C   0  0  0  0  0  0  0  0  0  0  0  0
   11.2490   -3.8440  -56.0000 C   0  0  0  0  0  0  0  0  0  0  0  0
   11.5980   -3.0580  -57.1090 C   0  0  0  0  0  0  0  0  0  0  0  0
   11.9850   -3.6520  -58.3120 C   0  0  0  0  0  0  0  0  0  0  0  0
   12.0280   -5.0400  -58.4230 C   0  0  0  0  0  0  0  0  0  0  0  0
   11.6860   -5.8350  -57.3320 C   0  0  0  0  0  0  0  0  0  0  0  0
   11.2980   -5.2410  -56.1270 C   0  0  0  0  0  0  0  0  0  0  0  0
   11.6130   -3.2690  -53.6360 N   0  0  0  0  0  0  0  0  0  0  0  0
   10.7880   -2.4940  -52.4180 S   0  0  0  0  0  0  0  0  0  0  0  0
    8.0760    0.2190  -54.8330 C   0  0  0  0  0  0  0  0  0  0  0  0
    9.7940    1.5030  -55.9290 H   0  0  0  0  0  0  0  0  0  0  0  0
   10.1462    1.5099  -59.3307 H   0  0  0  0  0  0  0  0  0  0  0  0
    8.7897    2.6992  -59.2793 H   0  0  0  0  0  0  0  0  0  0  0  0
   10.4784    3.3202  -61.0121 H   0  0  0  0  0  0  0  0  0  0  0  0
   10.8507    5.6591  -60.2269 H   0  0  0  0  0  0  0  0  0  0  0  0
    9.1957    5.0906  -59.8035 H   0  0  0  0  0  0  0  0  0  0  0  0
   10.2557    6.2814  -57.8840 H   0  0  0  0  0  0  0  0  0  0  0  0
   12.6274    5.7528  -58.4585 H   0  0  0  0  0  0  0  0  0  0  0  0
   12.2403    5.2522  -56.7734 H   0  0  0  0  0  0  0  0  0  0  0  0
   13.5346    3.4839  -57.9667 H   0  0  0  0  0  0  0  0  0  0  0  0
   12.7569    4.0223  -60.2752 H   0  0  0  0  0  0  0  0  0  0  0  0
   12.4558    2.2906  -59.8797 H   0  0  0  0  0  0  0  0  0  0  0  0
   11.9526    1.6069  -57.5289 H   0  0  0  0  0  0  0  0  0  0  0  0
   11.8383    2.8635  -56.2385 H   0  0  0  0  0  0  0  0  0  0  0  0
    9.9448    4.4680  -56.1973 H   0  0  0  0  0  0  0  0  0  0  0  0
    8.6732    4.3988  -57.4816 H   0  0  0  0  0  0  0  0  0  0  0  0
    5.3163    1.4109  -56.4558 H   0  0  0  0  0  0  0  0  0  0  0  0
    4.1857   -0.0598  -54.7920 H   0  0  0  0  0  0  0  0  0  0  0  0
    5.5426   -1.3553  -53.1443 H   0  0  0  0  0  0  0  0  0  0  0  0
   11.5663   -1.9613  -57.0297 H   0  0  0  0  0  0  0  0  0  0  0  0
   12.2562   -3.0233  -59.1729 H   0  0  0  0  0  0  0  0  0  0  0  0
   12.3317   -5.5074  -59.3713 H   0  0  0  0  0  0  0  0  0  0  0  0
   11.7211   -6.9311  -57.4182 H   0  0  0  0  0  0  0  0  0  0  0  0
   11.0284   -5.8752  -55.2696 H   0  0  0  0  0  0  0  0  0  0  0  0
    9.1731    0.2983  -54.8415 H   0  0  0  0  0  0  0  0  0  0  0  0
  1  2  2  0
  2  3  1  0
  4  3  1  1
  4  5  1  0
  5  6  1  0
  6  7  1  0
  7  8  1  0
  8  9  1  0
  9 10  1  0
 10 11  1  0
 10 12  1  0
  8 13  1  0
  2 14  1  0
 14 15  2  0
 15 16  1  0
 16 17  2  0
 17 18  1  0
 18 19  1  0
 19 20  2  0
 19 21  1  0
 21 22  2  0
 22 23  1  0
 23 24  1  0
 24 25  2  0
 25 26  1  0
 26 27  2  0
 27 28  1  0
 28 29  2  0
 23 30  2  0
 30 31  1  0
 18 32  2  0
 12  4  1  0
 32 14  1  0
 13  4  1  0
 31 21  1  0
 11  6  1  0
 29 24  1  0
  3 33  1  0
  5 34  1  0
  5 35  1  0
  6 36  1  6
  7 37  1  0
  7 38  1  0
  8 39  1  1
  9 40  1  0
  9 41  1  0
 10 42  1  6
 11 43  1  0
 11 44  1  0
 12 45  1  0
 12 46  1  0
 13 47  1  0
 13 48  1  0
 15 49  1  0
 16 50  1  0
 17 51  1  0
 25 52  1  0
 26 53  1  0
 27 54  1  0
 28 55  1  0
 29 56  1  0
 32 57  1  0
M  END
>  <meeko>  (228) 
{"is_sidechain": false}

$$$$

     RDKit          3D

 47 51  0  0  0  0  0  0  0  0999 V2000
   13.0150    4.2100  -58.2010 N   0  0  0  0  0  0  0  0  0  0  0  0
   11.9010    3.4600  -58.1930 C   0  0  0  0  0  0  0  0  0  0  0  0
   11.5540    2.7090  -57.1780 N   0  0  0  0  0  0  0  0  0  0  0  0
   10.3690    2.0390  -57.4510 C   0  0  0  0  0  0  0  0  0  0  0  0
    9.7680    1.1450  -56.4610 C   0  0  0  0  0  0  0  0  0  0  0  0
    8.4750    1.4160  -55.9890 C   0  0  0  0  0  0  0  0  0  0  0  0
    7.8650    0.5880  -55.0430 C   0  0  0  0  0  0  0  0  0  0  0  0
    8.5430   -0.5260  -54.5520 C   0  0  0  0  0  0  0  0  0  0  0  0
    9.8380   -0.8130  -55.0040 C   0  0  0  0  0  0  0  0  0  0  0  0
   10.6140   -1.9860  -54.5130 C   0  0  0  0  0  0  0  0  0  0  0  0
   11.4790   -1.8970  -53.6580 O   0  0  0  0  0  0  0  0  0  0  0  0
   10.2130   -3.1110  -55.1480 O   0  0  0  0  0  0  0  0  0  0  0  0
   11.1280   -3.8500  -55.9850 C   0  0  2  0  0  0  0  0  0  0  0  0
   11.8800   -2.9420  -56.9830 C   0  0  0  0  0  0  0  0  0  0  0  0
   12.7570   -3.7920  -57.9180 C   0  0  1  0  0  0  0  0  0  0  0  0
   13.7570   -4.6040  -57.0750 C   0  0  0  0  0  0  0  0  0  0  0  0
   13.0070   -5.5370  -56.1070 C   0  0  2  0  0  0  0  0  0  0  0  0
   12.1110   -6.4890  -56.9150 C   0  0  0  0  0  0  0  0  0  0  0  0
   11.1010   -5.6820  -57.7460 C   0  0  2  0  0  0  0  0  0  0  0  0
   11.8620   -4.7580  -58.7110 C   0  0  0  0  0  0  0  0  0  0  0  0
   10.2440   -4.8250  -56.8030 C   0  0  0  0  0  0  0  0  0  0  0  0
   12.1300   -4.6920  -55.1660 C   0  0  0  0  0  0  0  0  0  0  0  0
   10.4440    0.0250  -55.9550 C   0  0  0  0  0  0  0  0  0  0  0  0
    9.8360    2.3080  -58.6980 C   0  0  0  0  0  0  0  0  0  0  0  0
   10.8460    3.4070  -59.5430 S   0  0  0  0  0  0  0  0  0  0  0  0
   13.1690    4.8120  -57.4010 H   0  0  0  0  0  0  0  0  0  0  0  0
   13.2180    4.6550  -59.0890 H   0  0  0  0  0  0  0  0  0  0  0  0
    7.9328    2.2942  -56.3696 H   0  0  0  0  0  0  0  0  0  0  0  0
    6.8497    0.8155  -54.6860 H   0  0  0  0  0  0  0  0  0  0  0  0
    8.0618   -1.1799  -53.8098 H   0  0  0  0  0  0  0  0  0  0  0  0
   11.1500   -2.3783  -57.5825 H   0  0  0  0  0  0  0  0  0  0  0  0
   12.5222   -2.2470  -56.4222 H   0  0  0  0  0  0  0  0  0  0  0  0
   13.3031   -3.1368  -58.6126 H   0  0  0  0  0  0  0  0  0  0  0  0
   14.3892   -5.2071  -57.7433 H   0  0  0  0  0  0  0  0  0  0  0  0
   14.3797   -3.9096  -56.4918 H   0  0  0  0  0  0  0  0  0  0  0  0
   13.7302   -6.1190  -55.5169 H   0  0  0  0  0  0  0  0  0  0  0  0
   12.7361   -7.0938  -57.5884 H   0  0  0  0  0  0  0  0  0  0  0  0
   11.5651   -7.1461  -56.2220 H   0  0  0  0  0  0  0  0  0  0  0  0
   10.4580   -6.3682  -58.3167 H   0  0  0  0  0  0  0  0  0  0  0  0
   12.4869   -5.3665  -59.3812 H   0  0  0  0  0  0  0  0  0  0  0  0
   11.1379   -4.1772  -59.3012 H   0  0  0  0  0  0  0  0  0  0  0  0
    9.5238   -4.2448  -57.3985 H   0  0  0  0  0  0  0  0  0  0  0  0
    9.7166   -5.4913  -56.1045 H   0  0  0  0  0  0  0  0  0  0  0  0
   11.5762   -5.3589  -54.4888 H   0  0  0  0  0  0  0  0  0  0  0  0
   12.7746   -4.0172  -54.5837 H   0  0  0  0  0  0  0  0  0  0  0  0
   11.4615   -0.2001  -56.3072 H   0  0  0  0  0  0  0  0  0  0  0  0
    8.9017    1.8802  -59.0905 H   0  0  0  0  0  0  0  0  0  0  0  0
  1  2  1  0
  2  3  2  0
  3  4  1  0
  4  5  1  0
  5  6  2  0
  6  7  1  0
  7  8  2  0
  8  9  1  0
  9 10  1  0
 10 11  2  0
 10 12  1  0
 13 12  1  1
 13 14  1  0
 14 15  1  0
 15 16  1  0
 16 17  1  0
 17 18  1  0
 18 19  1  0
 19 20  1  0
 19 21  1  0
 17 22  1  0
  9 23  2  0
  4 24  2  0
 24 25  1  0
 25  2  1  0
 23  5  1  0
 21 13  1  0
 22 13  1  0
 20 15  1  0
  1 26  1  0
  1 27  1  0
  6 28  1  0
  7 29  1  0
  8 30  1  0
 14 31  1  0
 14 32  1  0
 15 33  1  6
 16 34  1  0
 16 35  1  0
 17 36  1  1
 18 37  1  0
 18 38  1  0
 19 39  1  6
 20 40  1  0
 20 41  1  0
 21 42  1  0
 21 43  1  0
 22 44  1  0
 22 45  1  0
 23 46  1  0
 24 47  1  0
M  END
>  <meeko>  (229) 
{"is_sidechain": false}

$$$$

     RDKit          3D

 47 51  0  0  0  0  0  0  0  0999 V2000
   13.0850    4.2530  -58.0570 N   0  0  0  0  0  0  0  0  0  0  0  0
   12.0390    3.5160  -58.0570 C   0  0  0  0  0  0  0  0  0  0  0  0
   11.5730    2.6620  -57.1010 N   0  0  0  0  0  0  0  0  0  0  0  0
   10.3570    2.0650  -57.3730 C   0  0  0  0  0  0  0  0  0  0  0  0
    9.7270    1.1610  -56.4060 C   0  0  0  0  0  0  0  0  0  0  0  0
    8.4150    1.3920  -55.9700 C   0  0  0  0  0  0  0  0  0  0  0  0
    7.8040    0.5320  -55.0570 C   0  0  0  0  0  0  0  0  0  0  0  0
    8.4970   -0.5760  -54.5680 C   0  0  0  0  0  0  0  0  0  0  0  0
    9.8080   -0.8260  -54.9920 C   0  0  0  0  0  0  0  0  0  0  0  0
   10.5970   -1.9920  -54.5050 C   0  0  0  0  0  0  0  0  0  0  0  0
   11.4660   -1.8940  -53.6550 O   0  0  0  0  0  0  0  0  0  0  0  0
   10.2030   -3.1200  -55.1360 O   0  0  0  0  0  0  0  0  0  0  0  0
   11.1170   -3.8450  -55.9870 C   0  0  2  0  0  0  0  0  0  0  0  0
   11.8380   -2.9280  -56.9990 C   0  0  0  0  0  0  0  0  0  0  0  0
   12.7150   -3.7660  -57.9460 C   0  0  1  0  0  0  0  0  0  0  0  0
   13.7410   -4.5590  -57.1170 C   0  0  0  0  0  0  0  0  0  0  0  0
   13.0210   -5.5020  -56.1360 C   0  0  2  0  0  0  0  0  0  0  0  0
   12.1280   -6.4710  -56.9270 C   0  0  0  0  0  0  0  0  0  0  0  0
   11.0920   -5.6810  -57.7440 C   0  0  2  0  0  0  0  0  0  0  0  0
   11.8230   -4.7470  -58.7230 C   0  0  0  0  0  0  0  0  0  0  0  0
   10.2370   -4.8370  -56.7890 C   0  0  0  0  0  0  0  0  0  0  0  0
   12.1460   -4.6690  -55.1830 C   0  0  0  0  0  0  0  0  0  0  0  0
   10.4160    0.0440  -55.9090 C   0  0  0  0  0  0  0  0  0  0  0  0
    9.8550    2.3930  -58.5780 C   0  0  0  0  0  0  0  0  0  0  0  0
   10.9130    3.5070  -59.4290 S   0  0  0  0  0  0  0  0  0  0  0  0
   13.5970    4.1170  -57.1840 H   0  0  0  0  0  0  0  0  0  0  0  0
   11.9660    2.6090  -56.1740 H   0  0  0  0  0  0  0  0  0  0  0  0
    7.8605    2.2617  -56.3523 H   0  0  0  0  0  0  0  0  0  0  0  0
    6.7746    0.7277  -54.7222 H   0  0  0  0  0  0  0  0  0  0  0  0
    8.0132   -1.2535  -53.8490 H   0  0  0  0  0  0  0  0  0  0  0  0
   11.0894   -2.3784  -57.5885 H   0  0  0  0  0  0  0  0  0  0  0  0
   12.4773   -2.2210  -56.4500 H   0  0  0  0  0  0  0  0  0  0  0  0
   13.2404   -3.1044  -58.6504 H   0  0  0  0  0  0  0  0  0  0  0  0
   14.3729   -5.1530  -57.7936 H   0  0  0  0  0  0  0  0  0  0  0  0
   14.3611   -3.8531  -56.5449 H   0  0  0  0  0  0  0  0  0  0  0  0
   13.7628   -6.0713  -55.5567 H   0  0  0  0  0  0  0  0  0  0  0  0
   12.7519   -7.0676  -57.6088 H   0  0  0  0  0  0  0  0  0  0  0  0
   11.6040   -7.1355  -56.2243 H   0  0  0  0  0  0  0  0  0  0  0  0
   10.4510   -6.3779  -58.3038 H   0  0  0  0  0  0  0  0  0  0  0  0
   12.4466   -5.3469  -59.4021 H   0  0  0  0  0  0  0  0  0  0  0  0
   11.0807   -4.1788  -59.3027 H   0  0  0  0  0  0  0  0  0  0  0  0
    9.4973   -4.2704  -57.3736 H   0  0  0  0  0  0  0  0  0  0  0  0
    9.7332   -5.5110  -56.0805 H   0  0  0  0  0  0  0  0  0  0  0  0
   11.6142   -5.3431  -54.4954 H   0  0  0  0  0  0  0  0  0  0  0  0
   12.7892   -3.9823  -54.6131 H   0  0  0  0  0  0  0  0  0  0  0  0
   11.4457   -0.1517  -56.2427 H   0  0  0  0  0  0  0  0  0  0  0  0
    8.9039    2.0121  -58.9785 H   0  0  0  0  0  0  0  0  0  0  0  0
  1  2  2  3
  2  3  1  0
  3  4  1  0
  4  5  1  0
  5  6  2  0
  6  7  1  0
  7  8  2  0
  8  9  1  0
  9 10  1  0
 10 11  2  0
 10 12  1  0
 13 12  1  1
 13 14  1  0
 14 15  1  0
 15 16  1  0
 16 17  1  0
 17 18  1  0
 18 19  1  0
 19 20  1  0
 19 21  1  0
 17 22  1  0
  9 23  2  0
  4 24  2  0
 24 25  1  0
 25  2  1  0
 23  5  1  0
 21 13  1  0
 22 13  1  0
 20 15  1  0
  1 26  1  0
  3 27  1  0
  6 28  1  0
  7 29  1  0
  8 30  1  0
 14 31  1  0
 14 32  1  0
 15 33  1  6
 16 34  1  0
 16 35  1  0
 17 36  1  1
 18 37  1  0
 18 38  1  0
 19 39  1  6
 20 40  1  0
 20 41  1  0
 21 42  1  0
 21 43  1  0
 22 44  1  0
 22 45  1  0
 23 46  1  0
 24 47  1  0
M  END
>  <meeko>  (230) 
{"is_sidechain": false}

$$$$

     RDKit          3D

 57 62  0  0  0  0  0  0  0  0999 V2000
    6.3370    2.4250  -56.4330 O   0  0  0  0  0  0  0  0  0  0  0  0
    7.3940    1.8310  -56.2690 C   0  0  0  0  0  0  0  0  0  0  0  0
    8.5730    2.1200  -56.9260 N   0  0  0  0  0  0  0  0  0  0  0  0
    8.7120    3.1580  -57.9550 C   0  0  2  0  0  0  0  0  0  0  0  0
   10.0610    2.9360  -58.6920 C   0  0  0  0  0  0  0  0  0  0  0  0
   10.2700    3.9880  -59.7930 C   0  0  1  0  0  0  0  0  0  0  0  0
    9.1180    3.8920  -60.8060 C   0  0  0  0  0  0  0  0  0  0  0  0
    7.7750    4.1380  -60.1010 C   0  0  2  0  0  0  0  0  0  0  0  0
    7.7900    5.5370  -59.4580 C   0  0  0  0  0  0  0  0  0  0  0  0
    8.9390    5.6410  -58.4420 C   0  0  2  0  0  0  0  0  0  0  0  0
   10.2740    5.3870  -59.1580 C   0  0  0  0  0  0  0  0  0  0  0  0
    8.7410    4.5830  -57.3430 C   0  0  0  0  0  0  0  0  0  0  0  0
    7.5750    3.0780  -59.0030 C   0  0  0  0  0  0  0  0  0  0  0  0
    7.4480    0.6790  -55.3280 C   0  0  0  0  0  0  0  0  0  0  0  0
    6.3990    0.5130  -54.4190 C   0  0  0  0  0  0  0  0  0  0  0  0
    6.4170   -0.5550  -53.5280 C   0  0  0  0  0  0  0  0  0  0  0  0
    7.4900   -1.4500  -53.5360 C   0  0  0  0  0  0  0  0  0  0  0  0
    8.5710   -1.2920  -54.4240 C   0  0  0  0  0  0  0  0  0  0  0  0
    9.6760   -2.2630  -54.3640 C   0  0  0  0  0  0  0  0  0  0  0  0
   10.1220   -2.9720  -55.3840 N   0  0  0  0  0  0  0  0  0  0  0  0
   11.1720   -3.7790  -54.9700 C   0  0  0  0  0  0  0  0  0  0  0  0
   11.7500   -4.5580  -55.9050 N   0  0  0  0  0  0  0  0  0  0  0  0
   11.2500   -5.8770  -56.2500 C   0  0  0  0  0  0  0  0  0  0  0  0
   12.2430   -6.3680  -57.2970 C   0  0  0  0  0  0  0  0  0  0  0  0
   12.6180   -5.0910  -58.0260 C   0  0  2  0  0  0  0  0  0  0  0  0
   13.8190   -5.2310  -58.6310 F   0  0  0  0  0  0  0  0  0  0  0  0
   12.6700   -4.0460  -56.9110 C   0  0  0  0  0  0  0  0  0  0  0  0
   11.5420   -3.7300  -53.6890 N   0  0  0  0  0  0  0  0  0  0  0  0
   10.5550   -2.6290  -52.9330 S   0  0  0  0  0  0  0  0  0  0  0  0
    8.5350   -0.2120  -55.3220 C   0  0  0  0  0  0  0  0  0  0  0  0
    9.2910    1.4080  -56.9100 H   0  0  0  0  0  0  0  0  0  0  0  0
   10.8835    3.0084  -57.9652 H   0  0  0  0  0  0  0  0  0  0  0  0
   10.0441    1.9402  -59.1591 H   0  0  0  0  0  0  0  0  0  0  0  0
   11.2280    3.8104  -60.3036 H   0  0  0  0  0  0  0  0  0  0  0  0
    9.2604    4.6482  -61.5921 H   0  0  0  0  0  0  0  0  0  0  0  0
    9.1125    2.8863  -61.2516 H   0  0  0  0  0  0  0  0  0  0  0  0
    6.9554    4.0730  -60.8318 H   0  0  0  0  0  0  0  0  0  0  0  0
    7.9283    6.2960  -60.2421 H   0  0  0  0  0  0  0  0  0  0  0  0
    6.8348    5.7040  -58.9386 H   0  0  0  0  0  0  0  0  0  0  0  0
    8.9466    6.6448  -57.9922 H   0  0  0  0  0  0  0  0  0  0  0  0
   10.4160    6.1436  -59.9437 H   0  0  0  0  0  0  0  0  0  0  0  0
   11.0940    5.4504  -58.4276 H   0  0  0  0  0  0  0  0  0  0  0  0
    9.5699    4.6503  -56.6230 H   0  0  0  0  0  0  0  0  0  0  0  0
    7.7820    4.7715  -56.8383 H   0  0  0  0  0  0  0  0  0  0  0  0
    6.6103    3.2520  -58.5039 H   0  0  0  0  0  0  0  0  0  0  0  0
    7.5891    2.0804  -59.4662 H   0  0  0  0  0  0  0  0  0  0  0  0
    5.5610    1.2255  -54.4084 H   0  0  0  0  0  0  0  0  0  0  0  0
    5.5881   -0.6947  -52.8185 H   0  0  0  0  0  0  0  0  0  0  0  0
    7.4901   -2.2963  -52.8333 H   0  0  0  0  0  0  0  0  0  0  0  0
   11.2453   -6.5385  -55.3711 H   0  0  0  0  0  0  0  0  0  0  0  0
   10.2127   -5.8611  -56.6158 H   0  0  0  0  0  0  0  0  0  0  0  0
   13.1232   -6.8278  -56.8240 H   0  0  0  0  0  0  0  0  0  0  0  0
   11.8311   -7.1438  -57.9592 H   0  0  0  0  0  0  0  0  0  0  0  0
   11.9115   -4.8172  -58.8235 H   0  0  0  0  0  0  0  0  0  0  0  0
   13.6878   -3.9603  -56.5026 H   0  0  0  0  0  0  0  0  0  0  0  0
   12.3972   -3.0395  -57.2611 H   0  0  0  0  0  0  0  0  0  0  0  0
    9.3657   -0.0623  -56.0273 H   0  0  0  0  0  0  0  0  0  0  0  0
  1  2  2  0
  2  3  1  0
  4  3  1  1
  4  5  1  0
  5  6  1  0
  6  7  1  0
  7  8  1  0
  8  9  1  0
  9 10  1  0
 10 11  1  0
 10 12  1  0
  8 13  1  0
  2 14  1  0
 14 15  1  0
 15 16  2  0
 16 17  1  0
 17 18  2  0
 18 19  1  0
 19 20  2  0
 20 21  1  0
 21 22  1  0
 22 23  1  0
 23 24  1  0
 24 25  1  0
 25 26  1  0
 25 27  1  0
 21 28  2  0
 28 29  1  0
 18 30  1  0
 12  4  1  0
 30 14  2  0
 13  4  1  0
 29 19  1  0
 11  6  1  0
 27 22  1  0
  3 31  1  0
  5 32  1  0
  5 33  1  0
  6 34  1  6
  7 35  1  0
  7 36  1  0
  8 37  1  6
  9 38  1  0
  9 39  1  0
 10 40  1  1
 11 41  1  0
 11 42  1  0
 12 43  1  0
 12 44  1  0
 13 45  1  0
 13 46  1  0
 15 47  1  0
 16 48  1  0
 17 49  1  0
 23 50  1  0
 23 51  1  0
 24 52  1  0
 24 53  1  0
 25 54  1  6
 27 55  1  0
 27 56  1  0
 30 57  1  0
M  END
>  <meeko>  (231) 
{"is_sidechain": false}

$$$$

     RDKit          3D

 60 65  0  0  0  0  0  0  0  0999 V2000
   14.8110   -4.4090  -57.1710 C   0  0  0  0  0  0  0  0  0  0  0  0
   13.6610   -4.3640  -58.1190 C   0  0  2  0  0  0  0  0  0  0  0  0
   12.5600   -3.3550  -57.9180 C   0  0  0  0  0  0  0  0  0  0  0  0
   12.2630   -4.8280  -57.7560 C   0  0  2  0  0  0  0  0  0  0  0  0
   11.8930   -5.3880  -56.3960 C   0  0  2  0  0  0  0  0  0  0  0  0
   10.8990   -6.5440  -56.5580 C   0  0  0  0  0  0  0  0  0  0  0  0
   11.3600   -4.3530  -55.4490 C   0  0  0  0  0  0  0  0  0  0  0  0
   11.8760   -4.1420  -54.2290 N   0  0  0  0  0  0  0  0  0  0  0  0
   11.0780   -3.1160  -53.7190 O   0  0  0  0  0  0  0  0  0  0  0  0
   10.1620   -2.8120  -54.6880 C   0  0  0  0  0  0  0  0  0  0  0  0
    9.2000   -1.7560  -54.3930 C   0  0  0  0  0  0  0  0  0  0  0  0
    8.4460   -1.8220  -53.2090 C   0  0  0  0  0  0  0  0  0  0  0  0
    7.5100   -0.8350  -52.8940 C   0  0  0  0  0  0  0  0  0  0  0  0
    7.3150    0.2420  -53.7600 C   0  0  0  0  0  0  0  0  0  0  0  0
    8.0670    0.3330  -54.9380 C   0  0  0  0  0  0  0  0  0  0  0  0
    7.8870    1.4620  -55.8940 C   0  0  0  0  0  0  0  0  0  0  0  0
    6.7560    1.8240  -56.1850 O   0  0  0  0  0  0  0  0  0  0  0  0
    9.0490    2.0000  -56.4110 N   0  0  0  0  0  0  0  0  0  0  0  0
    9.0710    2.9310  -57.5460 C   0  0  1  0  0  0  0  0  0  0  0  0
    8.6320    4.3330  -57.0440 C   0  0  0  0  0  0  0  0  0  0  0  0
    8.7180    5.3810  -58.1710 C   0  0  2  0  0  0  0  0  0  0  0  0
    7.8120    4.9490  -59.3320 C   0  0  0  0  0  0  0  0  0  0  0  0
    8.2550    3.5790  -59.8620 C   0  0  1  0  0  0  0  0  0  0  0  0
    9.7160    3.6530  -60.3470 C   0  0  0  0  0  0  0  0  0  0  0  0
   10.6340    4.1150  -59.2110 C   0  0  1  0  0  0  0  0  0  0  0  0
   10.1740    5.4760  -58.6710 C   0  0  0  0  0  0  0  0  0  0  0  0
   10.5170    3.1330  -58.0530 C   0  0  0  0  0  0  0  0  0  0  0  0
   11.5080    2.6610  -57.4970 O   0  0  0  0  0  0  0  0  0  0  0  0
    8.1690    2.5320  -58.7350 C   0  0  0  0  0  0  0  0  0  0  0  0
    8.9950   -0.6700  -55.2550 C   0  0  0  0  0  0  0  0  0  0  0  0
   10.2970   -3.5450  -55.7730 N   0  0  0  0  0  0  0  0  0  0  0  0
   14.4349   -4.3943  -56.1374 H   0  0  0  0  0  0  0  0  0  0  0  0
   15.3881   -5.3304  -57.3381 H   0  0  0  0  0  0  0  0  0  0  0  0
   15.4584   -3.5355  -57.3381 H   0  0  0  0  0  0  0  0  0  0  0  0
   14.3632   -4.6299  -58.9229 H   0  0  0  0  0  0  0  0  0  0  0  0
   12.5723   -2.6972  -57.0364 H   0  0  0  0  0  0  0  0  0  0  0  0
   12.1351   -2.5398  -58.5220 H   0  0  0  0  0  0  0  0  0  0  0  0
   11.5649   -5.5557  -58.1955 H   0  0  0  0  0  0  0  0  0  0  0  0
   12.8226   -5.7612  -55.9415 H   0  0  0  0  0  0  0  0  0  0  0  0
   10.5898   -6.9036  -55.5655 H   0  0  0  0  0  0  0  0  0  0  0  0
   10.0160   -6.1933  -57.1124 H   0  0  0  0  0  0  0  0  0  0  0  0
   11.3780   -7.3645  -57.1124 H   0  0  0  0  0  0  0  0  0  0  0  0
    8.5957   -2.6653  -52.5188 H   0  0  0  0  0  0  0  0  0  0  0  0
    6.9268   -0.9062  -51.9641 H   0  0  0  0  0  0  0  0  0  0  0  0
    6.5729    1.0171  -53.5180 H   0  0  0  0  0  0  0  0  0  0  0  0
    9.8330    1.3580  -56.3930 H   0  0  0  0  0  0  0  0  0  0  0  0
    7.5938    4.2766  -56.6850 H   0  0  0  0  0  0  0  0  0  0  0  0
    9.3074    4.6392  -56.2315 H   0  0  0  0  0  0  0  0  0  0  0  0
    8.3937    6.3608  -57.7904 H   0  0  0  0  0  0  0  0  0  0  0  0
    6.7725    4.8839  -58.9781 H   0  0  0  0  0  0  0  0  0  0  0  0
    7.8848    5.6900  -60.1417 H   0  0  0  0  0  0  0  0  0  0  0  0
    7.5956    3.2934  -60.6949 H   0  0  0  0  0  0  0  0  0  0  0  0
   10.0352    2.6573  -60.6885 H   0  0  0  0  0  0  0  0  0  0  0  0
    9.7809    4.3755  -61.1739 H   0  0  0  0  0  0  0  0  0  0  0  0
   11.6606    4.1778  -59.6010 H   0  0  0  0  0  0  0  0  0  0  0  0
   10.8263    5.7766  -57.8378 H   0  0  0  0  0  0  0  0  0  0  0  0
   10.2307    6.2220  -59.4774 H   0  0  0  0  0  0  0  0  0  0  0  0
    7.1274    2.4592  -58.3890 H   0  0  0  0  0  0  0  0  0  0  0  0
    8.5106    1.5627  -59.1272 H   0  0  0  0  0  0  0  0  0  0  0  0
    9.5686   -0.6034  -56.1912 H   0  0  0  0  0  0  0  0  0  0  0  0
  1  2  1  0
  2  3  1  0
  3  4  1  0
  4  5  1  0
  5  6  1  0
  5  7  1  0
  7  8  2  0
  8  9  1  0
  9 10  1  0
 10 11  1  0
 11 12  2  0
 12 13  1  0
 13 14  2  0
 14 15  1  0
 15 16  1  0
 16 17  2  0
 16 18  1  0
 19 18  1  1
 19 20  1  0
 20 21  1  0
 21 22  1  0
 22 23  1  0
 23 24  1  0
 24 25  1  0
 25 26  1  0
 25 27  1  0
 27 28  2  0
 23 29  1  0
 15 30  2  0
 10 31  2  0
  4  2  1  0
 31  7  1  0
 30 11  1  0
 27 19  1  0
 29 19  1  0
 26 21  1  0
  1 32  1  0
  1 33  1  0
  1 34  1  0
  2 35  1  6
  3 36  1  0
  3 37  1  0
  4 38  1  6
  5 39  1  1
  6 40  1  0
  6 41  1  0
  6 42  1  0
 12 43  1  0
 13 44  1  0
 14 45  1  0
 18 46  1  0
 20 47  1  0
 20 48  1  0
 21 49  1  1
 22 50  1  0
 22 51  1  0
 23 52  1  6
 24 53  1  0
 24 54  1  0
 25 55  1  6
 26 56  1  0
 26 57  1  0
 29 58  1  0
 29 59  1  0
 30 60  1  0
M  END
>  <meeko>  (232) 
{"is_sidechain": false}

$$$$

     RDKit          3D

 60 65  0  0  0  0  0  0  0  0999 V2000
   15.4320   -3.9770  -57.4940 C   0  0  0  0  0  0  0  0  0  0  0  0
   14.2380   -4.8220  -57.2100 C   0  0  2  0  0  0  0  0  0  0  0  0
   13.0780   -4.8460  -58.1730 C   0  0  0  0  0  0  0  0  0  0  0  0
   12.9260   -4.1760  -56.8250 C   0  0  1  0  0  0  0  0  0  0  0  0
   12.0360   -4.7330  -55.7260 C   0  0  2  0  0  0  0  0  0  0  0  0
   11.1840   -5.8790  -56.2890 C   0  0  0  0  0  0  0  0  0  0  0  0
   11.2020   -3.7560  -54.9480 C   0  0  0  0  0  0  0  0  0  0  0  0
   11.4460   -3.4240  -53.6720 N   0  0  0  0  0  0  0  0  0  0  0  0
   10.4300   -2.5130  -53.3780 O   0  0  0  0  0  0  0  0  0  0  0  0
    9.6770   -2.3840  -54.5110 C   0  0  0  0  0  0  0  0  0  0  0  0
    8.5390   -1.4730  -54.4600 C   0  0  0  0  0  0  0  0  0  0  0  0
    7.5000   -1.7200  -53.5480 C   0  0  0  0  0  0  0  0  0  0  0  0
    6.3990   -0.8660  -53.4640 C   0  0  0  0  0  0  0  0  0  0  0  0
    6.3140    0.2480  -54.3000 C   0  0  0  0  0  0  0  0  0  0  0  0
    7.3310    0.5030  -55.2270 C   0  0  0  0  0  0  0  0  0  0  0  0
    7.2930    1.6820  -56.1370 C   0  0  0  0  0  0  0  0  0  0  0  0
    6.2510    2.3150  -56.2710 O   0  0  0  0  0  0  0  0  0  0  0  0
    8.4690    2.0100  -56.7650 N   0  0  0  0  0  0  0  0  0  0  0  0
    8.6320    3.1460  -57.6700 C   0  0  1  0  0  0  0  0  0  0  0  0
    8.6400    4.5030  -56.9400 C   0  0  0  0  0  0  0  0  0  0  0  0
    8.9360    5.6440  -57.9340 C   0  0  2  0  0  0  0  0  0  0  0  0
    7.8780    5.6360  -59.0510 C   0  0  0  0  0  0  0  0  0  0  0  0
    7.9060    4.2950  -59.8040 C   0  0  1  0  0  0  0  0  0  0  0  0
    9.3040    4.0790  -60.4150 C   0  0  0  0  0  0  0  0  0  0  0  0
   10.3710    4.0970  -59.3140 C   0  0  1  0  0  0  0  0  0  0  0  0
   10.3320    5.4260  -58.5500 C   0  0  0  0  0  0  0  0  0  0  0  0
   10.0250    2.9970  -58.3240 C   0  0  0  0  0  0  0  0  0  0  0  0
   10.7960    2.0750  -58.0600 O   0  0  0  0  0  0  0  0  0  0  0  0
    7.6060    3.1480  -58.8200 C   0  0  0  0  0  0  0  0  0  0  0  0
    8.4440   -0.3500  -55.2930 C   0  0  0  0  0  0  0  0  0  0  0  0
   10.1150   -3.1250  -55.5060 N   0  0  0  0  0  0  0  0  0  0  0  0
   15.8872   -3.6549  -56.5458 H   0  0  0  0  0  0  0  0  0  0  0  0
   16.1640   -4.5593  -58.0729 H   0  0  0  0  0  0  0  0  0  0  0  0
   15.1263   -3.0930  -58.0729 H   0  0  0  0  0  0  0  0  0  0  0  0
   14.8903   -5.5857  -56.7614 H   0  0  0  0  0  0  0  0  0  0  0  0
   13.1110   -4.2375  -59.0888 H   0  0  0  0  0  0  0  0  0  0  0  0
   12.5342   -5.6334  -58.7154 H   0  0  0  0  0  0  0  0  0  0  0  0
   12.6170   -3.1770  -56.4837 H   0  0  0  0  0  0  0  0  0  0  0  0
   12.7384   -5.0949  -54.9607 H   0  0  0  0  0  0  0  0  0  0  0  0
   10.7535   -6.4580  -55.4587 H   0  0  0  0  0  0  0  0  0  0  0  0
   10.3732   -5.4643  -56.9059 H   0  0  0  0  0  0  0  0  0  0  0  0
   11.8147   -6.5360  -56.9059 H   0  0  0  0  0  0  0  0  0  0  0  0
    7.5546   -2.5997  -52.8899 H   0  0  0  0  0  0  0  0  0  0  0  0
    5.5981   -1.0713  -52.7385 H   0  0  0  0  0  0  0  0  0  0  0  0
    5.4493    0.9244  -54.2306 H   0  0  0  0  0  0  0  0  0  0  0  0
    9.3300    1.5330  -56.5140 H   0  0  0  0  0  0  0  0  0  0  0  0
    7.6567    4.6715  -56.4766 H   0  0  0  0  0  0  0  0  0  0  0  0
    9.4233    4.4891  -56.1678 H   0  0  0  0  0  0  0  0  0  0  0  0
    8.9076    6.6106  -57.4096 H   0  0  0  0  0  0  0  0  0  0  0  0
    6.8818    5.7827  -58.6082 H   0  0  0  0  0  0  0  0  0  0  0  0
    8.0993    6.4483  -59.7589 H   0  0  0  0  0  0  0  0  0  0  0  0
    7.1489    4.3090  -60.6018 H   0  0  0  0  0  0  0  0  0  0  0  0
    9.3294    3.1073  -60.9299 H   0  0  0  0  0  0  0  0  0  0  0  0
    9.5123    4.8883  -61.1303 H   0  0  0  0  0  0  0  0  0  0  0  0
   11.3645    3.9597  -59.7658 H   0  0  0  0  0  0  0  0  0  0  0  0
   11.0843    5.4063  -57.7477 H   0  0  0  0  0  0  0  0  0  0  0  0
   10.5492    6.2481  -59.2478 H   0  0  0  0  0  0  0  0  0  0  0  0
    6.5961    3.2812  -58.4048 H   0  0  0  0  0  0  0  0  0  0  0  0
    7.6698    2.1903  -59.3574 H   0  0  0  0  0  0  0  0  0  0  0  0
    9.2519   -0.1342  -56.0077 H   0  0  0  0  0  0  0  0  0  0  0  0
  1  2  1  0
  2  3  1  0
  3  4  1  0
  4  5  1  0
  5  6  1  0
  5  7  1  0
  7  8  2  0
  8  9  1  0
  9 10  1  0
 10 11  1  0
 11 12  2  0
 12 13  1  0
 13 14  2  0
 14 15  1  0
 15 16  1  0
 16 17  2  0
 16 18  1  0
 19 18  1  1
 19 20  1  0
 20 21  1  0
 21 22  1  0
 22 23  1  0
 23 24  1  0
 24 25  1  0
 25 26  1  0
 25 27  1  0
 27 28  2  0
 23 29  1  0
 15 30  2  0
 10 31  2  0
  4  2  1  0
 31  7  1  0
 30 11  1  0
 27 19  1  0
 29 19  1  0
 26 21  1  0
  1 32  1  0
  1 33  1  0
  1 34  1  0
  2 35  1  1
  3 36  1  0
  3 37  1  0
  4 38  1  6
  5 39  1  1
  6 40  1  0
  6 41  1  0
  6 42  1  0
 12 43  1  0
 13 44  1  0
 14 45  1  0
 18 46  1  0
 20 47  1  0
 20 48  1  0
 21 49  1  1
 22 50  1  0
 22 51  1  0
 23 52  1  6
 24 53  1  0
 24 54  1  0
 25 55  1  6
 26 56  1  0
 26 57  1  0
 29 58  1  0
 29 59  1  0
 30 60  1  0
M  END
>  <meeko>  (233) 
{"is_sidechain": false}

$$$$

     RDKit          3D

 57 62  0  0  0  0  0  0  0  0999 V2000
    6.2650    2.3400  -56.5300 O   0  0  0  0  0  0  0  0  0  0  0  0
    7.3040    1.7220  -56.3320 C   0  0  0  0  0  0  0  0  0  0  0  0
    8.5070    1.9810  -56.9570 N   0  0  0  0  0  0  0  0  0  0  0  0
    8.7000    3.0130  -57.9840 C   0  0  2  0  0  0  0  0  0  0  0  0
    8.7130    4.4400  -57.3790 C   0  0  0  0  0  0  0  0  0  0  0  0
    8.9690    5.4900  -58.4750 C   0  0  1  0  0  0  0  0  0  0  0  0
   10.3320    5.2200  -59.1300 C   0  0  0  0  0  0  0  0  0  0  0  0
   10.3430    3.8170  -59.7570 C   0  0  2  0  0  0  0  0  0  0  0  0
    9.2360    3.7250  -60.8190 C   0  0  0  0  0  0  0  0  0  0  0  0
    7.8660    3.9870  -60.1730 C   0  0  2  0  0  0  0  0  0  0  0  0
    7.8640    5.3890  -59.5400 C   0  0  0  0  0  0  0  0  0  0  0  0
    7.6090    2.9350  -59.0800 C   0  0  0  0  0  0  0  0  0  0  0  0
   10.0780    2.7730  -58.6600 C   0  0  0  0  0  0  0  0  0  0  0  0
    7.3030    0.5730  -55.3850 C   0  0  0  0  0  0  0  0  0  0  0  0
    6.1330    0.3020  -54.6710 C   0  0  0  0  0  0  0  0  0  0  0  0
    6.0970   -0.7660  -53.7790 C   0  0  0  0  0  0  0  0  0  0  0  0
    7.2340   -1.5550  -53.5940 C   0  0  0  0  0  0  0  0  0  0  0  0
    8.4330   -1.2880  -54.2810 C   0  0  0  0  0  0  0  0  0  0  0  0
    9.5980   -2.1510  -54.0240 C   0  0  0  0  0  0  0  0  0  0  0  0
   10.1540   -2.9630  -54.9040 N   0  0  0  0  0  0  0  0  0  0  0  0
   11.2110   -3.6260  -54.3110 C   0  0  0  0  0  0  0  0  0  0  0  0
   11.8490   -4.4910  -55.1200 N   0  0  0  0  0  0  0  0  0  0  0  0
   11.1190   -5.1970  -56.1490 C   0  0  0  0  0  0  0  0  0  0  0  0
   11.0750   -4.4470  -57.4530 C   0  0  0  0  0  0  0  0  0  0  0  0
   11.8540   -4.8810  -58.6720 C   0  0  0  0  0  0  0  0  0  0  0  0
   12.2220   -3.6050  -57.9610 C   0  0  0  0  0  0  0  0  0  0  0  0
   11.5130   -3.3600  -53.0420 N   0  0  0  0  0  0  0  0  0  0  0  0
   10.4050   -2.2410  -52.5080 S   0  0  0  0  0  0  0  0  0  0  0  0
    8.4520   -0.2100  -55.1820 C   0  0  0  0  0  0  0  0  0  0  0  0
    9.2080    1.2530  -56.9180 H   0  0  0  0  0  0  0  0  0  0  0  0
    7.7406    4.6410  -56.9057 H   0  0  0  0  0  0  0  0  0  0  0  0
    9.5190    4.5019  -56.6330 H   0  0  0  0  0  0  0  0  0  0  0  0
    8.9663    6.4967  -58.0316 H   0  0  0  0  0  0  0  0  0  0  0  0
   10.5154    5.9707  -59.9129 H   0  0  0  0  0  0  0  0  0  0  0  0
   11.1197    5.2805  -58.3645 H   0  0  0  0  0  0  0  0  0  0  0  0
   11.3205    3.6280  -60.2247 H   0  0  0  0  0  0  0  0  0  0  0  0
    9.4191    4.4753  -61.6022 H   0  0  0  0  0  0  0  0  0  0  0  0
    9.2409    2.7173  -61.2600 H   0  0  0  0  0  0  0  0  0  0  0  0
    7.0779    3.9246  -60.9379 H   0  0  0  0  0  0  0  0  0  0  0  0
    8.0428    6.1415  -60.3222 H   0  0  0  0  0  0  0  0  0  0  0  0
    6.8884    5.5677  -59.0644 H   0  0  0  0  0  0  0  0  0  0  0  0
    6.6248    3.1193  -58.6246 H   0  0  0  0  0  0  0  0  0  0  0  0
    7.6346    1.9345  -59.5365 H   0  0  0  0  0  0  0  0  0  0  0  0
   10.0883    1.7689  -59.1090 H   0  0  0  0  0  0  0  0  0  0  0  0
   10.8636    2.8613  -57.8951 H   0  0  0  0  0  0  0  0  0  0  0  0
    5.2421    0.9313  -54.8135 H   0  0  0  0  0  0  0  0  0  0  0  0
    5.1752   -0.9878  -53.2213 H   0  0  0  0  0  0  0  0  0  0  0  0
    7.1917   -2.4040  -52.8959 H   0  0  0  0  0  0  0  0  0  0  0  0
   12.5970   -5.0080  -54.6790 H   0  0  0  0  0  0  0  0  0  0  0  0
   11.6039   -6.1695  -56.3193 H   0  0  0  0  0  0  0  0  0  0  0  0
   10.0826   -5.3130  -55.7990 H   0  0  0  0  0  0  0  0  0  0  0  0
   10.0144   -4.2613  -57.2279 H   0  0  0  0  0  0  0  0  0  0  0  0
   12.5213   -5.7536  -58.6159 H   0  0  0  0  0  0  0  0  0  0  0  0
   11.5931   -5.1465  -59.7071 H   0  0  0  0  0  0  0  0  0  0  0  0
   13.1578   -3.5463  -57.3859 H   0  0  0  0  0  0  0  0  0  0  0  0
   12.3408   -2.5537  -58.2622 H   0  0  0  0  0  0  0  0  0  0  0  0
    9.3748    0.0231  -55.7335 H   0  0  0  0  0  0  0  0  0  0  0  0
  1  2  2  0
  2  3  1  0
  4  3  1  1
  4  5  1  0
  5  6  1  0
  6  7  1  0
  7  8  1  0
  8  9  1  0
  9 10  1  0
 10 11  1  0
 10 12  1  0
  8 13  1  0
  2 14  1  0
 14 15  1  0
 15 16  2  0
 16 17  1  0
 17 18  2  0
 18 19  1  0
 19 20  2  0
 20 21  1  0
 21 22  1  0
 22 23  1  0
 23 24  1  0
 24 25  1  0
 25 26  1  0
 21 27  2  0
 27 28  1  0
 18 29  1  0
 12  4  1  0
 29 14  2  0
 13  4  1  0
 28 19  1  0
 11  6  1  0
 26 24  1  0
  3 30  1  0
  5 31  1  0
  5 32  1  0
  6 33  1  1
  7 34  1  0
  7 35  1  0
  8 36  1  6
  9 37  1  0
  9 38  1  0
 10 39  1  6
 11 40  1  0
 11 41  1  0
 12 42  1  0
 12 43  1  0
 13 44  1  0
 13 45  1  0
 15 46  1  0
 16 47  1  0
 17 48  1  0
 22 49  1  0
 23 50  1  0
 23 51  1  0
 24 52  1  0
 25 53  1  0
 25 54  1  0
 26 55  1  0
 26 56  1  0
 29 57  1  0
M  END
>  <meeko>  (234) 
{"is_sidechain": false}

$$$$

     RDKit          3D

 57 62  0  0  0  0  0  0  0  0999 V2000
    6.2780    2.3820  -56.4680 O   0  0  0  0  0  0  0  0  0  0  0  0
    7.2830    1.7080  -56.2830 C   0  0  0  0  0  0  0  0  0  0  0  0
    8.5180    1.9670  -56.8420 N   0  0  0  0  0  0  0  0  0  0  0  0
    8.7890    3.0680  -57.7750 C   0  0  2  0  0  0  0  0  0  0  0  0
    8.8610    4.4380  -57.0520 C   0  0  0  0  0  0  0  0  0  0  0  0
    9.1970    5.5600  -58.0490 C   0  0  1  0  0  0  0  0  0  0  0  0
   10.5610    5.2740  -58.6970 C   0  0  0  0  0  0  0  0  0  0  0  0
   10.5160    3.9300  -59.4390 C   0  0  2  0  0  0  0  0  0  0  0  0
    9.4330    3.9850  -60.5290 C   0  0  0  0  0  0  0  0  0  0  0  0
    8.0620    4.2640  -59.8920 C   0  0  2  0  0  0  0  0  0  0  0  0
    8.1160    5.6070  -59.1420 C   0  0  0  0  0  0  0  0  0  0  0  0
    7.7250    3.1400  -58.8970 C   0  0  0  0  0  0  0  0  0  0  0  0
   10.1700    2.8140  -58.4410 C   0  0  0  0  0  0  0  0  0  0  0  0
    7.1960    0.4900  -55.4300 C   0  0  0  0  0  0  0  0  0  0  0  0
    5.9820    0.0590  -54.8830 C   0  0  0  0  0  0  0  0  0  0  0  0
    5.9450   -1.0910  -54.0940 C   0  0  0  0  0  0  0  0  0  0  0  0
    7.1160   -1.8130  -53.8580 C   0  0  0  0  0  0  0  0  0  0  0  0
    8.3380   -1.4020  -54.4160 C   0  0  0  0  0  0  0  0  0  0  0  0
    9.5390   -2.2200  -54.1330 C   0  0  0  0  0  0  0  0  0  0  0  0
   10.0690   -3.0480  -54.9850 N   0  0  0  0  0  0  0  0  0  0  0  0
   11.1630   -3.6560  -54.4050 C   0  0  0  0  0  0  0  0  0  0  0  0
   11.7610   -4.6570  -54.9480 N   0  0  0  0  0  0  0  0  0  0  0  0
   11.2950   -5.1280  -56.2480 C   0  0  0  0  0  0  0  0  0  0  0  0
   12.2540   -4.6680  -57.3020 C   0  0  0  0  0  0  0  0  0  0  0  0
   11.9440   -3.4580  -58.1470 C   0  0  0  0  0  0  0  0  0  0  0  0
   11.9220   -4.8290  -58.7640 C   0  0  0  0  0  0  0  0  0  0  0  0
   11.5420   -3.1670  -53.1820 N   0  0  0  0  0  0  0  0  0  0  0  0
   10.3770   -2.1430  -52.5790 S   0  0  0  0  0  0  0  0  0  0  0  0
    8.3700   -0.2480  -55.2060 C   0  0  0  0  0  0  0  0  0  0  0  0
    9.2010    1.2220  -56.8180 H   0  0  0  0  0  0  0  0  0  0  0  0
    7.8890    4.6506  -56.5828 H   0  0  0  0  0  0  0  0  0  0  0  0
    9.6512    4.3944  -56.2880 H   0  0  0  0  0  0  0  0  0  0  0  0
    9.2339    6.5245  -57.5214 H   0  0  0  0  0  0  0  0  0  0  0  0
   10.8014    6.0764  -59.4100 H   0  0  0  0  0  0  0  0  0  0  0  0
   11.3318    5.2294  -57.9135 H   0  0  0  0  0  0  0  0  0  0  0  0
   11.4946    3.7294  -59.8995 H   0  0  0  0  0  0  0  0  0  0  0  0
    9.6738    4.7873  -61.2420 H   0  0  0  0  0  0  0  0  0  0  0  0
    9.3983    3.0188  -61.0536 H   0  0  0  0  0  0  0  0  0  0  0  0
    7.2912    4.3070  -60.6756 H   0  0  0  0  0  0  0  0  0  0  0  0
    8.3531    6.4116  -59.8536 H   0  0  0  0  0  0  0  0  0  0  0  0
    7.1390    5.7968  -58.6736 H   0  0  0  0  0  0  0  0  0  0  0  0
    6.7400    3.3373  -58.4489 H   0  0  0  0  0  0  0  0  0  0  0  0
    7.7129    2.1812  -59.4361 H   0  0  0  0  0  0  0  0  0  0  0  0
   10.1406    1.8520  -58.9737 H   0  0  0  0  0  0  0  0  0  0  0  0
   10.9393    2.7971  -57.6550 H   0  0  0  0  0  0  0  0  0  0  0  0
    5.0590    0.6258  -55.0748 H   0  0  0  0  0  0  0  0  0  0  0  0
    4.9932   -1.4286  -53.6580 H   0  0  0  0  0  0  0  0  0  0  0  0
    7.0816   -2.7140  -53.2280 H   0  0  0  0  0  0  0  0  0  0  0  0
   11.2464   -6.2269  -56.2470 H   0  0  0  0  0  0  0  0  0  0  0  0
   10.2927   -4.7241  -56.4537 H   0  0  0  0  0  0  0  0  0  0  0  0
   13.0896   -4.9724  -56.6546 H   0  0  0  0  0  0  0  0  0  0  0  0
   11.0034   -2.9081  -57.9956 H   0  0  0  0  0  0  0  0  0  0  0  0
   12.4608   -2.5131  -58.3708 H   0  0  0  0  0  0  0  0  0  0  0  0
   10.9653   -5.2816  -59.0639 H   0  0  0  0  0  0  0  0  0  0  0  0
   12.4161   -5.3015  -59.6258 H   0  0  0  0  0  0  0  0  0  0  0  0
   12.0450   -3.8320  -52.6070 H   0  0  0  0  0  0  0  0  0  0  0  0
    9.3187    0.0830  -55.6538 H   0  0  0  0  0  0  0  0  0  0  0  0
  1  2  2  0
  2  3  1  0
  4  3  1  1
  4  5  1  0
  5  6  1  0
  6  7  1  0
  7  8  1  0
  8  9  1  0
  9 10  1  0
 10 11  1  0
 10 12  1  0
  8 13  1  0
  2 14  1  0
 14 15  1  0
 15 16  2  0
 16 17  1  0
 17 18  2  0
 18 19  1  0
 19 20  2  0
 20 21  1  0
 21 22  2  0
 22 23  1  0
 23 24  1  0
 24 25  1  0
 25 26  1  0
 21 27  1  0
 27 28  1  0
 18 29  1  0
 12  4  1  0
 29 14  2  0
 13  4  1  0
 28 19  1  0
 11  6  1  0
 26 24  1  0
  3 30  1  0
  5 31  1  0
  5 32  1  0
  6 33  1  1
  7 34  1  0
  7 35  1  0
  8 36  1  6
  9 37  1  0
  9 38  1  0
 10 39  1  6
 11 40  1  0
 11 41  1  0
 12 42  1  0
 12 43  1  0
 13 44  1  0
 13 45  1  0
 15 46  1  0
 16 47  1  0
 17 48  1  0
 23 49  1  0
 23 50  1  0
 24 51  1  0
 25 52  1  0
 25 53  1  0
 26 54  1  0
 26 55  1  0
 27 56  1  0
 29 57  1  0
M  END
>  <meeko>  (235) 
{"is_sidechain": false}

$$$$

     RDKit          3D

 57 62  0  0  0  0  0  0  0  0999 V2000
    9.2750   -0.1540  -53.4550 O   0  0  0  0  0  0  0  0  0  0  0  0
    8.1860   -0.2780  -54.0000 C   0  0  0  0  0  0  0  0  0  0  0  0
    7.2060   -1.1700  -53.6120 N   0  0  0  0  0  0  0  0  0  0  0  0
    7.3540   -2.1340  -52.5140 C   0  0  2  0  0  0  0  0  0  0  0  0
    7.4190   -1.4340  -51.1330 C   0  0  0  0  0  0  0  0  0  0  0  0
    7.5210   -2.4740  -50.0020 C   0  0  1  0  0  0  0  0  0  0  0  0
    6.2830   -3.3830  -50.0360 C   0  0  0  0  0  0  0  0  0  0  0  0
    6.2010   -4.1070  -51.3880 C   0  0  2  0  0  0  0  0  0  0  0  0
    7.4660   -4.9560  -51.5900 C   0  0  0  0  0  0  0  0  0  0  0  0
    8.7120   -4.0560  -51.5660 C   0  0  2  0  0  0  0  0  0  0  0  0
    8.7840   -3.3280  -50.2140 C   0  0  0  0  0  0  0  0  0  0  0  0
    8.6120   -3.0180  -52.6970 C   0  0  0  0  0  0  0  0  0  0  0  0
    6.1100   -3.0630  -52.5130 C   0  0  0  0  0  0  0  0  0  0  0  0
    7.8670    0.5510  -55.1940 C   0  0  0  0  0  0  0  0  0  0  0  0
    6.5220    0.7290  -55.5390 C   0  0  0  0  0  0  0  0  0  0  0  0
    6.1840    1.4980  -56.6500 C   0  0  0  0  0  0  0  0  0  0  0  0
    7.1870    2.0810  -57.4240 C   0  0  0  0  0  0  0  0  0  0  0  0
    8.5420    1.8930  -57.1040 C   0  0  0  0  0  0  0  0  0  0  0  0
    9.5550    2.5250  -57.9800 C   0  0  0  0  0  0  0  0  0  0  0  0
   10.7510    2.8460  -57.5900 N   0  0  0  0  0  0  0  0  0  0  0  0
   11.4440    3.4190  -58.6350 C   0  0  0  0  0  0  0  0  0  0  0  0
   12.5900    3.9070  -58.3300 N   0  0  0  0  0  0  0  0  0  0  0  0
   13.3720    4.5120  -59.3980 C   0  0  0  0  0  0  0  0  0  0  0  0
   13.1600    5.9910  -59.3140 C   0  0  0  0  0  0  0  0  0  0  0  0
   13.7050    6.9050  -60.3820 C   0  0  0  0  0  0  0  0  0  0  0  0
   12.2210    6.6850  -60.2690 C   0  0  0  0  0  0  0  0  0  0  0  0
   10.7990    3.4120  -59.8520 N   0  0  0  0  0  0  0  0  0  0  0  0
    9.2200    2.9040  -59.6690 S   0  0  0  0  0  0  0  0  0  0  0  0
    8.8770    1.1210  -55.9830 C   0  0  0  0  0  0  0  0  0  0  0  0
    6.4740   -1.3650  -54.2820 H   0  0  0  0  0  0  0  0  0  0  0  0
    8.3014   -0.7780  -51.1015 H   0  0  0  0  0  0  0  0  0  0  0  0
    6.5012   -0.8446  -50.9908 H   0  0  0  0  0  0  0  0  0  0  0  0
    7.5771   -1.9620  -49.0300 H   0  0  0  0  0  0  0  0  0  0  0  0
    6.3544   -4.1263  -49.2283 H   0  0  0  0  0  0  0  0  0  0  0  0
    5.3803   -2.7695  -49.8992 H   0  0  0  0  0  0  0  0  0  0  0  0
    5.3134   -4.7564  -51.4066 H   0  0  0  0  0  0  0  0  0  0  0  0
    7.5383   -5.6999  -50.7829 H   0  0  0  0  0  0  0  0  0  0  0  0
    7.4073   -5.4659  -52.5629 H   0  0  0  0  0  0  0  0  0  0  0  0
    9.6145   -4.6690  -51.7062 H   0  0  0  0  0  0  0  0  0  0  0  0
    8.8609   -4.0699  -49.4055 H   0  0  0  0  0  0  0  0  0  0  0  0
    9.6666   -2.6715  -50.2065 H   0  0  0  0  0  0  0  0  0  0  0  0
    9.5078   -2.3798  -52.6825 H   0  0  0  0  0  0  0  0  0  0  0  0
    8.5377   -3.5467  -53.6587 H   0  0  0  0  0  0  0  0  0  0  0  0
    6.0482   -3.5820  -53.4809 H   0  0  0  0  0  0  0  0  0  0  0  0
    5.2137   -2.4472  -52.3471 H   0  0  0  0  0  0  0  0  0  0  0  0
    5.7321    0.2616  -54.9327 H   0  0  0  0  0  0  0  0  0  0  0  0
    5.1270    1.6453  -56.9167 H   0  0  0  0  0  0  0  0  0  0  0  0
    6.9141    2.6950  -58.2949 H   0  0  0  0  0  0  0  0  0  0  0  0
   14.4381    4.2754  -59.2658 H   0  0  0  0  0  0  0  0  0  0  0  0
   13.0590    4.1264  -60.3795 H   0  0  0  0  0  0  0  0  0  0  0  0
   13.2534    5.9299  -58.2197 H   0  0  0  0  0  0  0  0  0  0  0  0
   14.1393    7.8768  -60.1047 H   0  0  0  0  0  0  0  0  0  0  0  0
   14.4467    6.8030  -61.1879 H   0  0  0  0  0  0  0  0  0  0  0  0
   11.5708    7.4959  -59.9089 H   0  0  0  0  0  0  0  0  0  0  0  0
   11.4291    6.3556  -60.9578 H   0  0  0  0  0  0  0  0  0  0  0  0
   11.0270    4.1710  -60.4810 H   0  0  0  0  0  0  0  0  0  0  0  0
    9.9336    0.9619  -55.7216 H   0  0  0  0  0  0  0  0  0  0  0  0
  1  2  2  0
  2  3  1  0
  4  3  1  6
  4  5  1  0
  5  6  1  0
  6  7  1  0
  7  8  1  0
  8  9  1  0
  9 10  1  0
 10 11  1  0
 10 12  1  0
  8 13  1  0
  2 14  1  0
 14 15  1  0
 15 16  2  0
 16 17  1  0
 17 18  2  0
 18 19  1  0
 19 20  2  0
 20 21  1  0
 21 22  2  0
 22 23  1  0
 23 24  1  0
 24 25  1  0
 25 26  1  0
 21 27  1  0
 27 28  1  0
 18 29  1  0
 12  4  1  0
 29 14  2  0
 13  4  1  0
 28 19  1  0
 11  6  1  0
 26 24  1  0
  3 30  1  0
  5 31  1  0
  5 32  1  0
  6 33  1  1
  7 34  1  0
  7 35  1  0
  8 36  1  1
  9 37  1  0
  9 38  1  0
 10 39  1  6
 11 40  1  0
 11 41  1  0
 12 42  1  0
 12 43  1  0
 13 44  1  0
 13 45  1  0
 15 46  1  0
 16 47  1  0
 17 48  1  0
 23 49  1  0
 23 50  1  0
 24 51  1  0
 25 52  1  0
 25 53  1  0
 26 54  1  0
 26 55  1  0
 27 56  1  0
 29 57  1  0
M  END
>  <meeko>  (236) 
{"is_sidechain": false}

$$$$

     RDKit          3D

 43 46  0  0  0  0  0  0  0  0999 V2000
    9.6780   -2.5490  -52.4270 O   0  0  0  0  0  0  0  0  0  0  0  0
    9.3590   -2.3430  -53.5920 C   0  0  0  0  0  0  0  0  0  0  0  0
    9.9700   -2.9200  -54.6820 N   0  0  0  0  0  0  0  0  0  0  0  0
   11.1710   -3.7070  -54.5780 C   0  0  0  0  0  0  0  0  0  0  0  0
   11.5950   -4.2240  -55.9280 C   0  0  0  0  0  0  0  0  0  0  0  0
   11.5800   -3.3760  -57.0450 C   0  0  0  0  0  0  0  0  0  0  0  0
   11.9510   -3.8530  -58.3040 C   0  0  0  0  0  0  0  0  0  0  0  0
   12.3340   -5.1840  -58.4590 C   0  0  0  0  0  0  0  0  0  0  0  0
   12.3420   -6.0400  -57.3580 C   0  0  0  0  0  0  0  0  0  0  0  0
   11.9710   -5.5640  -56.0990 C   0  0  0  0  0  0  0  0  0  0  0  0
    8.2430   -1.4030  -53.9380 C   0  0  0  0  0  0  0  0  0  0  0  0
    8.4420   -0.4280  -54.9100 C   0  0  0  0  0  0  0  0  0  0  0  0
    7.3860    0.4330  -55.2190 C   0  0  0  0  0  0  0  0  0  0  0  0
    7.4740    1.5020  -56.2250 C   0  0  0  0  0  0  0  0  0  0  0  0
    8.5980    2.0310  -56.6700 N   0  0  0  0  0  0  0  0  0  0  0  0
    8.2980    3.0030  -57.6200 C   0  0  0  0  0  0  0  0  0  0  0  0
    9.4020    3.7610  -58.2910 C   0  0  0  0  0  0  0  0  0  0  0  0
    9.2320    4.1630  -59.7350 C   0  0  0  0  0  0  0  0  0  0  0  0
    9.5950    3.2490  -60.8800 C   0  0  0  0  0  0  0  0  0  0  0  0
   10.4020    4.4950  -60.6300 C   0  0  0  0  0  0  0  0  0  0  0  0
    7.0200    3.2610  -57.9090 N   0  0  0  0  0  0  0  0  0  0  0  0
    6.1050    2.2280  -56.9770 S   0  0  0  0  0  0  0  0  0  0  0  0
    6.1770    0.2610  -54.5260 C   0  0  0  0  0  0  0  0  0  0  0  0
    6.0710   -0.7400  -53.5750 C   0  0  0  0  0  0  0  0  0  0  0  0
    7.0760   -1.5790  -53.2610 N   0  0  0  0  0  0  0  0  0  0  0  0
    9.6800   -2.5690  -55.5900 H   0  0  0  0  0  0  0  0  0  0  0  0
   11.9757   -3.0825  -54.1628 H   0  0  0  0  0  0  0  0  0  0  0  0
   10.9719   -4.5658  -53.9201 H   0  0  0  0  0  0  0  0  0  0  0  0
   11.2733   -2.3261  -56.9284 H   0  0  0  0  0  0  0  0  0  0  0  0
   11.9409   -3.1785  -59.1729 H   0  0  0  0  0  0  0  0  0  0  0  0
   12.6300   -5.5594  -59.4497 H   0  0  0  0  0  0  0  0  0  0  0  0
   12.6409   -7.0914  -57.4817 H   0  0  0  0  0  0  0  0  0  0  0  0
   11.9737   -6.2450  -55.2351 H   0  0  0  0  0  0  0  0  0  0  0  0
    9.4101   -0.3368  -55.4243 H   0  0  0  0  0  0  0  0  0  0  0  0
    9.5576    4.6846  -57.7141 H   0  0  0  0  0  0  0  0  0  0  0  0
   10.2412    3.0500  -58.3090 H   0  0  0  0  0  0  0  0  0  0  0  0
    8.3205    4.6900  -59.4166 H   0  0  0  0  0  0  0  0  0  0  0  0
   10.0328    2.2606  -60.6768 H   0  0  0  0  0  0  0  0  0  0  0  0
    9.0552    2.8329  -61.7434 H   0  0  0  0  0  0  0  0  0  0  0  0
   11.4291    4.4166  -60.2440 H   0  0  0  0  0  0  0  0  0  0  0  0
   10.6955    5.3655  -61.2350 H   0  0  0  0  0  0  0  0  0  0  0  0
    5.3197    0.9171  -54.7371 H   0  0  0  0  0  0  0  0  0  0  0  0
    5.1130   -0.8560  -53.0471 H   0  0  0  0  0  0  0  0  0  0  0  0
  1  2  2  0
  2  3  1  0
  3  4  1  0
  4  5  1  0
  5  6  2  0
  6  7  1  0
  7  8  2  0
  8  9  1  0
  9 10  2  0
  2 11  1  0
 11 12  2  0
 12 13  1  0
 13 14  1  0
 14 15  2  0
 15 16  1  0
 16 17  1  0
 17 18  1  0
 18 19  1  0
 19 20  1  0
 16 21  2  0
 21 22  1  0
 13 23  2  0
 23 24  1  0
 24 25  2  0
 10  5  1  0
 25 11  1  0
 22 14  1  0
 20 18  1  0
  3 26  1  0
  4 27  1  0
  4 28  1  0
  6 29  1  0
  7 30  1  0
  8 31  1  0
  9 32  1  0
 10 33  1  0
 12 34  1  0
 17 35  1  0
 17 36  1  0
 18 37  1  0
 19 38  1  0
 19 39  1  0
 20 40  1  0
 20 41  1  0
 23 42  1  0
 24 43  1  0
M  END
>  <meeko>  (237) 
{"is_sidechain": false}

$$$$

     RDKit          3D

 61 66  0  0  0  0  0  0  0  0999 V2000
    6.1210    2.5140  -56.5130 O   0  0  0  0  0  0  0  0  0  0  0  0
    7.0930    1.7840  -56.3630 C   0  0  0  0  0  0  0  0  0  0  0  0
    8.3120    1.9600  -56.9840 N   0  0  0  0  0  0  0  0  0  0  0  0
    8.6330    3.0790  -57.8780 C   0  0  2  0  0  0  0  0  0  0  0  0
    7.6160    3.2030  -59.0400 C   0  0  0  0  0  0  0  0  0  0  0  0
    8.0110    4.3520  -59.9860 C   0  0  1  0  0  0  0  0  0  0  0  0
    8.0530    5.6690  -59.1920 C   0  0  0  0  0  0  0  0  0  0  0  0
    9.0870    5.5700  -58.0570 C   0  0  2  0  0  0  0  0  0  0  0  0
   10.4720    5.2800  -58.6570 C   0  0  0  0  0  0  0  0  0  0  0  0
   10.4370    3.9610  -59.4450 C   0  0  2  0  0  0  0  0  0  0  0  0
    9.4020    4.0700  -60.5750 C   0  0  0  0  0  0  0  0  0  0  0  0
   10.0330    2.8200  -58.5000 C   0  0  0  0  0  0  0  0  0  0  0  0
    8.6940    4.4230  -57.1090 C   0  0  0  0  0  0  0  0  0  0  0  0
    7.0040    0.6360  -55.4190 C   0  0  0  0  0  0  0  0  0  0  0  0
    5.8160    0.3150  -54.7570 C   0  0  0  0  0  0  0  0  0  0  0  0
    5.7840   -0.7710  -53.8860 C   0  0  0  0  0  0  0  0  0  0  0  0
    6.9400   -1.5260  -53.6680 C   0  0  0  0  0  0  0  0  0  0  0  0
    8.1600   -1.2130  -54.2980 C   0  0  0  0  0  0  0  0  0  0  0  0
    9.3730   -2.0170  -54.0370 C   0  0  0  0  0  0  0  0  0  0  0  0
   10.2200   -1.7800  -52.9700 C   0  0  0  0  0  0  0  0  0  0  0  0
   11.3120   -2.6080  -52.8540 C   0  0  0  0  0  0  0  0  0  0  0  0
   11.5800   -3.6070  -53.7100 N   0  0  0  0  0  0  0  0  0  0  0  0
   10.7050   -3.7780  -54.7150 C   0  0  0  0  0  0  0  0  0  0  0  0
   10.9840   -4.8720  -55.7090 C   0  0  0  0  0  0  0  0  0  0  0  0
   10.9970   -4.2890  -57.1130 C   0  0  0  0  0  0  0  0  0  0  0  0
   11.7710   -5.1210  -58.1730 C   0  0  0  0  0  0  0  0  0  0  0  0
   12.2000   -3.7810  -58.8050 C   0  0  0  0  0  0  0  0  0  0  0  0
   12.0060   -3.1450  -57.4140 C   0  0  0  0  0  0  0  0  0  0  0  0
    9.6080   -3.0220  -54.9130 N   0  0  0  0  0  0  0  0  0  0  0  0
    8.1650   -0.1180  -55.1810 C   0  0  0  0  0  0  0  0  0  0  0  0
    9.0980    1.4530  -56.5980 H   0  0  0  0  0  0  0  0  0  0  0  0
    7.5965    2.2597  -59.6055 H   0  0  0  0  0  0  0  0  0  0  0  0
    6.6219    3.4156  -58.6199 H   0  0  0  0  0  0  0  0  0  0  0  0
    7.2750    4.4321  -60.7995 H   0  0  0  0  0  0  0  0  0  0  0  0
    8.3314    6.4919  -59.8669 H   0  0  0  0  0  0  0  0  0  0  0  0
    7.0601    5.8596  -58.7586 H   0  0  0  0  0  0  0  0  0  0  0  0
    9.1156    6.5175  -57.4990 H   0  0  0  0  0  0  0  0  0  0  0  0
   10.7556    6.1006  -59.3324 H   0  0  0  0  0  0  0  0  0  0  0  0
   11.2077    5.1956  -57.8436 H   0  0  0  0  0  0  0  0  0  0  0  0
   11.4305    3.7586  -59.8717 H   0  0  0  0  0  0  0  0  0  0  0  0
    9.6850    4.8906  -61.2507 H   0  0  0  0  0  0  0  0  0  0  0  0
    9.3735    3.1220  -61.1322 H   0  0  0  0  0  0  0  0  0  0  0  0
   10.0060    1.8772  -59.0660 H   0  0  0  0  0  0  0  0  0  0  0  0
   10.7715    2.7614  -57.6869 H   0  0  0  0  0  0  0  0  0  0  0  0
    9.4407    4.3462  -56.3049 H   0  0  0  0  0  0  0  0  0  0  0  0
    7.7011    4.6359  -56.6860 H   0  0  0  0  0  0  0  0  0  0  0  0
    4.9106    0.9172  -54.9231 H   0  0  0  0  0  0  0  0  0  0  0  0
    4.8492   -1.0347  -53.3696 H   0  0  0  0  0  0  0  0  0  0  0  0
    6.8956   -2.3879  -52.9860 H   0  0  0  0  0  0  0  0  0  0  0  0
   10.0300   -0.9701  -52.2503 H   0  0  0  0  0  0  0  0  0  0  0  0
   12.0033   -2.4428  -52.0144 H   0  0  0  0  0  0  0  0  0  0  0  0
   11.9624   -5.3250  -55.4909 H   0  0  0  0  0  0  0  0  0  0  0  0
   10.2004   -5.6407  -55.6382 H   0  0  0  0  0  0  0  0  0  0  0  0
    9.9119   -4.1145  -57.1586 H   0  0  0  0  0  0  0  0  0  0  0  0
   12.5976   -5.7243  -57.7696 H   0  0  0  0  0  0  0  0  0  0  0  0
   11.2809   -5.9100  -58.7623 H   0  0  0  0  0  0  0  0  0  0  0  0
   13.2341   -3.7600  -59.1795 H   0  0  0  0  0  0  0  0  0  0  0  0
   11.7055   -3.3778  -59.7011 H   0  0  0  0  0  0  0  0  0  0  0  0
   12.9043   -3.1456  -56.7791 H   0  0  0  0  0  0  0  0  0  0  0  0
   11.7354   -2.0857  -57.2928 H   0  0  0  0  0  0  0  0  0  0  0  0
    9.0982    0.1537  -55.6962 H   0  0  0  0  0  0  0  0  0  0  0  0
  1  2  2  0
  2  3  1  0
  4  3  1  1
  4  5  1  0
  5  6  1  0
  6  7  1  0
  7  8  1  0
  8  9  1  0
  9 10  1  0
 10 11  1  0
 10 12  1  0
  8 13  1  0
  2 14  1  0
 14 15  1  0
 15 16  2  0
 16 17  1  0
 17 18  2  0
 18 19  1  0
 19 20  1  0
 20 21  2  0
 21 22  1  0
 22 23  2  0
 23 24  1  0
 24 25  1  0
 25 26  1  0
 26 27  1  0
 27 28  1  0
 23 29  1  0
 18 30  1  0
 12  4  1  0
 30 14  2  0
 13  4  1  0
 29 19  2  0
 11  6  1  0
 28 25  1  0
  3 31  1  0
  5 32  1  0
  5 33  1  0
  6 34  1  6
  7 35  1  0
  7 36  1  0
  8 37  1  1
  9 38  1  0
  9 39  1  0
 10 40  1  6
 11 41  1  0
 11 42  1  0
 12 43  1  0
 12 44  1  0
 13 45  1  0
 13 46  1  0
 15 47  1  0
 16 48  1  0
 17 49  1  0
 20 50  1  0
 21 51  1  0
 24 52  1  0
 24 53  1  0
 25 54  1  0
 26 55  1  0
 26 56  1  0
 27 57  1  0
 27 58  1  0
 28 59  1  0
 28 60  1  0
 30 61  1  0
M  END
>  <meeko>  (238) 
{"is_sidechain": false}

$$$$
