
     RDKit          3D

 52 55  0  0  0  0  0  0  0  0999 V2000
    2.3691    0.4422   -1.9539 O   0  0  0  0  0  0  0  0  0  0  0  0
    1.8997    0.1864   -0.8471 C   0  0  0  0  0  0  0  0  0  0  0  0
    2.6821    0.1871    0.2999 N   0  0  0  0  0  0  0  0  0  0  0  0
    4.1245    0.3672    0.2317 C   0  0  0  0  0  0  0  0  0  0  0  0
    4.6581    0.9150    1.5655 C   0  0  0  0  0  0  0  0  0  0  0  0
    6.1284    0.5766    1.8246 C   0  0  0  0  0  0  0  0  0  0  0  0
    6.9091    0.3924    0.5312 C   0  0  0  0  0  0  0  0  0  0  0  0
    6.3376   -0.7427   -0.3198 C   0  0  0  0  0  0  0  0  0  0  0  0
    4.8291   -0.9380   -0.1489 C   0  0  0  0  0  0  0  0  0  0  0  0
    0.4790   -0.1607   -0.6274 C   0  0  0  0  0  0  0  0  0  0  0  0
   -0.2417   -0.2046    0.5987 C   0  0  0  0  0  0  0  0  0  0  0  0
   -1.5302   -0.5827    0.2806 C   0  0  0  0  0  0  0  0  0  0  0  0
   -2.6849   -0.7749    1.1432 C   0  0  0  0  0  0  0  0  0  0  0  0
   -3.4397    0.3256    1.5626 C   0  0  0  0  0  0  0  0  0  0  0  0
   -4.5539    0.1419    2.3830 C   0  0  0  0  0  0  0  0  0  0  0  0
   -4.9143   -1.1411    2.7930 C   0  0  0  0  0  0  0  0  0  0  0  0
   -4.1609   -2.2413    2.3850 C   0  0  0  0  0  0  0  0  0  0  0  0
   -3.0472   -2.0594    1.5630 C   0  0  0  0  0  0  0  0  0  0  0  0
   -1.5384   -0.7041   -1.0884 N   0  0  0  0  0  0  0  0  0  0  0  0
   -2.6648   -1.0564   -1.9480 C   0  0  0  0  0  0  0  0  0  0  0  0
   -3.5793    0.1182   -2.1974 C   0  0  0  0  0  0  0  0  0  0  0  0
   -4.8979    0.1112   -1.7191 C   0  0  0  0  0  0  0  0  0  0  0  0
   -5.7416    1.1987   -1.9516 C   0  0  0  0  0  0  0  0  0  0  0  0
   -5.2791    2.3013   -2.6674 C   0  0  0  0  0  0  0  0  0  0  0  0
   -3.9728    2.3187   -3.1515 C   0  0  0  0  0  0  0  0  0  0  0  0
   -3.1272    1.2332   -2.9198 C   0  0  0  0  0  0  0  0  0  0  0  0
   -0.3294   -0.4925   -1.6500 N   0  0  0  0  0  0  0  0  0  0  0  0
    2.3024   -0.2558    1.1236 H   0  0  0  0  0  0  0  0  0  0  0  0
    4.3280    1.1076   -0.5534 H   0  0  0  0  0  0  0  0  0  0  0  0
    4.5254    2.0047    1.5705 H   0  0  0  0  0  0  0  0  0  0  0  0
    4.0651    0.5425    2.4109 H   0  0  0  0  0  0  0  0  0  0  0  0
    6.5846    1.3640    2.4351 H   0  0  0  0  0  0  0  0  0  0  0  0
    6.1882   -0.3478    2.4131 H   0  0  0  0  0  0  0  0  0  0  0  0
    7.9645    0.1930    0.7487 H   0  0  0  0  0  0  0  0  0  0  0  0
    6.8804    1.3275   -0.0424 H   0  0  0  0  0  0  0  0  0  0  0  0
    6.5683   -0.5413   -1.3730 H   0  0  0  0  0  0  0  0  0  0  0  0
    6.8432   -1.6838   -0.0716 H   0  0  0  0  0  0  0  0  0  0  0  0
    4.6467   -1.6888    0.6319 H   0  0  0  0  0  0  0  0  0  0  0  0
    4.4125   -1.3592   -1.0717 H   0  0  0  0  0  0  0  0  0  0  0  0
    0.1200    0.0211    1.5914 H   0  0  0  0  0  0  0  0  0  0  0  0
   -3.1723    1.3300    1.2404 H   0  0  0  0  0  0  0  0  0  0  0  0
   -5.1404    1.0005    2.6997 H   0  0  0  0  0  0  0  0  0  0  0  0
   -5.7812   -1.2829    3.4335 H   0  0  0  0  0  0  0  0  0  0  0  0
   -4.4391   -3.2407    2.7096 H   0  0  0  0  0  0  0  0  0  0  0  0
   -2.4636   -2.9240    1.2556 H   0  0  0  0  0  0  0  0  0  0  0  0
   -3.1922   -1.8917   -1.4744 H   0  0  0  0  0  0  0  0  0  0  0  0
   -2.2655   -1.4288   -2.8992 H   0  0  0  0  0  0  0  0  0  0  0  0
   -5.2759   -0.7371   -1.1518 H   0  0  0  0  0  0  0  0  0  0  0  0
   -6.7601    1.1859   -1.5726 H   0  0  0  0  0  0  0  0  0  0  0  0
   -5.9364    3.1476   -2.8483 H   0  0  0  0  0  0  0  0  0  0  0  0
   -3.6093    3.1778   -3.7095 H   0  0  0  0  0  0  0  0  0  0  0  0
   -2.1065    1.2624   -3.3009 H   0  0  0  0  0  0  0  0  0  0  0  0
  1  2  2  0
  2  3  1  0
  3  4  1  0
  4  5  1  0
  5  6  1  0
  6  7  1  0
  7  8  1  0
  8  9  1  0
  2 10  1  0
 10 11  1  0
 11 12  2  0
 12 13  1  0
 13 14  2  0
 14 15  1  0
 15 16  2  0
 16 17  1  0
 17 18  2  0
 12 19  1  0
 19 20  1  0
 20 21  1  0
 21 22  2  0
 22 23  1  0
 23 24  2  0
 24 25  1  0
 25 26  2  0
 19 27  1  0
  9  4  1  0
 27 10  2  0
 18 13  1  0
 26 21  1  0
  3 28  1  0
  4 29  1  0
  5 30  1  0
  5 31  1  0
  6 32  1  0
  6 33  1  0
  7 34  1  0
  7 35  1  0
  8 36  1  0
  8 37  1  0
  9 38  1  0
  9 39  1  0
 11 40  1  0
 14 41  1  0
 15 42  1  0
 16 43  1  0
 17 44  1  0
 18 45  1  0
 20 46  1  0
 20 47  1  0
 22 48  1  0
 23 49  1  0
 24 50  1  0
 25 51  1  0
 26 52  1  0
M  END
>  <_SMILES>  (1) 
O=C(NC1CCCCC1)c1cc(-c2ccccc2)n(Cc2ccccc2)n1

$$$$

     RDKit          3D

 50 54  0  0  0  0  0  0  0  0999 V2000
    3.5951   -2.4820   -0.2545 C   0  0  0  0  0  0  0  0  0  0  0  0
    2.9792   -1.1747   -0.2148 N   0  0  0  0  0  0  0  0  0  0  0  0
    1.6320   -1.0934   -0.1825 N   0  0  0  0  0  0  0  0  0  0  0  0
    1.3850    0.2290   -0.0806 C   0  0  0  0  0  0  0  0  0  0  0  0
    0.0152    0.7631    0.0001 C   0  0  0  0  0  0  0  0  0  0  0  0
   -0.2215    1.9620    0.0981 O   0  0  0  0  0  0  0  0  0  0  0  0
   -0.9432   -0.2255   -0.0458 N   0  0  0  0  0  0  0  0  0  0  0  0
   -2.3878   -0.0306    0.0109 C   0  0  2  0  0  0  0  0  0  0  0  0
   -2.8949    0.8260   -1.1756 C   0  0  0  0  0  0  0  0  0  0  0  0
   -4.4254    0.9765   -1.1194 C   0  0  1  0  0  0  0  0  0  0  0  0
   -5.0758   -0.4138   -1.1973 C   0  0  0  0  0  0  0  0  0  0  0  0
   -4.6059   -1.2798   -0.0180 C   0  0  2  0  0  0  0  0  0  0  0  0
   -5.0030   -0.6009    1.3022 C   0  0  0  0  0  0  0  0  0  0  0  0
   -4.3522    0.7882    1.3946 C   0  0  2  0  0  0  0  0  0  0  0  0
   -4.8197    1.6475    0.2074 C   0  0  0  0  0  0  0  0  0  0  0  0
   -2.8216    0.6377    1.3390 C   0  0  0  0  0  0  0  0  0  0  0  0
   -3.0762   -1.4190   -0.0730 C   0  0  0  0  0  0  0  0  0  0  0  0
    2.5916    0.9694   -0.0658 C   0  0  0  0  0  0  0  0  0  0  0  0
    3.6115    0.0455   -0.1792 C   0  0  0  0  0  0  0  0  0  0  0  0
    5.0548    0.2505   -0.2214 C   0  0  0  0  0  0  0  0  0  0  0  0
    5.8082   -0.1763   -1.3220 C   0  0  0  0  0  0  0  0  0  0  0  0
    7.1898    0.0257   -1.3538 C   0  0  0  0  0  0  0  0  0  0  0  0
    7.8269    0.6601   -0.2887 C   0  0  0  0  0  0  0  0  0  0  0  0
    7.0835    1.0981    0.8060 C   0  0  0  0  0  0  0  0  0  0  0  0
    5.7019    0.8975    0.8381 C   0  0  0  0  0  0  0  0  0  0  0  0
    2.8867   -3.2243    0.1235 H   0  0  0  0  0  0  0  0  0  0  0  0
    4.4855   -2.4813    0.3784 H   0  0  0  0  0  0  0  0  0  0  0  0
    3.8537   -2.7051   -1.2922 H   0  0  0  0  0  0  0  0  0  0  0  0
   -0.5582   -1.1642   -0.1286 H   0  0  0  0  0  0  0  0  0  0  0  0
   -2.4369    1.8222   -1.1624 H   0  0  0  0  0  0  0  0  0  0  0  0
   -2.5996    0.3651   -2.1273 H   0  0  0  0  0  0  0  0  0  0  0  0
   -4.7665    1.5911   -1.9600 H   0  0  0  0  0  0  0  0  0  0  0  0
   -6.1684   -0.3180   -1.1800 H   0  0  0  0  0  0  0  0  0  0  0  0
   -4.8137   -0.8977   -2.1461 H   0  0  0  0  0  0  0  0  0  0  0  0
   -5.0702   -2.2704   -0.0786 H   0  0  0  0  0  0  0  0  0  0  0  0
   -6.0944   -0.5083    1.3626 H   0  0  0  0  0  0  0  0  0  0  0  0
   -4.6885   -1.2195    2.1517 H   0  0  0  0  0  0  0  0  0  0  0  0
   -4.6415    1.2695    2.3355 H   0  0  0  0  0  0  0  0  0  0  0  0
   -5.9075    1.7823    0.2492 H   0  0  0  0  0  0  0  0  0  0  0  0
   -4.3725    2.6472    0.2692 H   0  0  0  0  0  0  0  0  0  0  0  0
   -2.3609    1.6268    1.4478 H   0  0  0  0  0  0  0  0  0  0  0  0
   -2.4738    0.0416    2.1929 H   0  0  0  0  0  0  0  0  0  0  0  0
   -2.7333   -2.0606    0.7499 H   0  0  0  0  0  0  0  0  0  0  0  0
   -2.7843   -1.9295   -1.0006 H   0  0  0  0  0  0  0  0  0  0  0  0
    2.6907    2.0445    0.0020 H   0  0  0  0  0  0  0  0  0  0  0  0
    5.3242   -0.6529   -2.1712 H   0  0  0  0  0  0  0  0  0  0  0  0
    7.7675   -0.3042   -2.2134 H   0  0  0  0  0  0  0  0  0  0  0  0
    8.9018    0.8205   -0.3149 H   0  0  0  0  0  0  0  0  0  0  0  0
    7.5779    1.5993    1.6342 H   0  0  0  0  0  0  0  0  0  0  0  0
    5.1344    1.2454    1.6986 H   0  0  0  0  0  0  0  0  0  0  0  0
  1  2  1  0
  2  3  1  0
  3  4  2  0
  4  5  1  0
  5  6  2  0
  5  7  1  0
  8  7  1  1
  8  9  1  0
  9 10  1  0
 10 11  1  0
 11 12  1  0
 12 13  1  0
 13 14  1  0
 14 15  1  0
 14 16  1  0
 12 17  1  0
  4 18  1  0
 18 19  2  0
 19 20  1  0
 20 21  2  0
 21 22  1  0
 22 23  2  0
 23 24  1  0
 24 25  2  0
 19  2  1  0
 25 20  1  0
 16  8  1  0
 17  8  1  0
 15 10  1  0
  1 26  1  0
  1 27  1  0
  1 28  1  0
  7 29  1  0
  9 30  1  0
  9 31  1  0
 10 32  1  6
 11 33  1  0
 11 34  1  0
 12 35  1  6
 13 36  1  0
 13 37  1  0
 14 38  1  1
 15 39  1  0
 15 40  1  0
 16 41  1  0
 16 42  1  0
 17 43  1  0
 17 44  1  0
 18 45  1  0
 21 46  1  0
 22 47  1  0
 23 48  1  0
 24 49  1  0
 25 50  1  0
M  END
>  <_SMILES>  (2) 
Cn1nc(C(=O)N[C@]23C[C@H]4C[C@H](C[C@H](C4)C2)C3)cc1-c1ccccc1

$$$$

     RDKit          3D

 53 57  0  0  0  0  0  0  0  0999 V2000
    3.6787   -1.8258    2.1862 C   0  0  0  0  0  0  0  0  0  0  0  0
    3.5734   -0.3376    1.9032 C   0  0  0  0  0  0  0  0  0  0  0  0
    2.8514   -0.0588    0.6736 N   0  0  0  0  0  0  0  0  0  0  0  0
    1.5003   -0.0932    0.6982 N   0  0  0  0  0  0  0  0  0  0  0  0
    1.1383    0.2567   -0.5534 C   0  0  0  0  0  0  0  0  0  0  0  0
   -0.2741    0.3471   -0.9598 C   0  0  0  0  0  0  0  0  0  0  0  0
   -0.6165    0.6688   -2.0921 O   0  0  0  0  0  0  0  0  0  0  0  0
   -1.1414    0.0340    0.0638 N   0  0  0  0  0  0  0  0  0  0  0  0
   -2.5982    0.0268   -0.0106 C   0  0  2  0  0  0  0  0  0  0  0  0
   -3.1108   -0.9939   -1.0565 C   0  0  0  0  0  0  0  0  0  0  0  0
   -4.6494   -1.0167   -1.0817 C   0  0  1  0  0  0  0  0  0  0  0  0
   -5.1743   -1.4209    0.3051 C   0  0  0  0  0  0  0  0  0  0  0  0
   -4.6973   -0.4117    1.3613 C   0  0  2  0  0  0  0  0  0  0  0  0
   -5.2218    0.9874    1.0021 C   0  0  0  0  0  0  0  0  0  0  0  0
   -4.6973    1.4055   -0.3806 C   0  0  2  0  0  0  0  0  0  0  0  0
   -5.1707    0.3874   -1.4320 C   0  0  0  0  0  0  0  0  0  0  0  0
   -3.1587    1.4289   -0.3553 C   0  0  0  0  0  0  0  0  0  0  0  0
   -3.1606   -0.3855    1.3757 C   0  0  0  0  0  0  0  0  0  0  0  0
    2.2752    0.5090   -1.3578 C   0  0  0  0  0  0  0  0  0  0  0  0
    3.3723    0.2878   -0.5504 C   0  0  0  0  0  0  0  0  0  0  0  0
    4.7899    0.4054   -0.8596 C   0  0  0  0  0  0  0  0  0  0  0  0
    5.5837   -0.7379   -1.0044 C   0  0  0  0  0  0  0  0  0  0  0  0
    6.9436   -0.6182   -1.2973 C   0  0  0  0  0  0  0  0  0  0  0  0
    7.5154    0.6438   -1.4523 C   0  0  0  0  0  0  0  0  0  0  0  0
    6.7282    1.7869   -1.3199 C   0  0  0  0  0  0  0  0  0  0  0  0
    5.3681    1.6685   -1.0273 C   0  0  0  0  0  0  0  0  0  0  0  0
    4.2017   -2.3483    1.3793 H   0  0  0  0  0  0  0  0  0  0  0  0
    2.6875   -2.2801    2.2887 H   0  0  0  0  0  0  0  0  0  0  0  0
    4.2287   -1.9967    3.1167 H   0  0  0  0  0  0  0  0  0  0  0  0
    4.5678    0.1142    1.8374 H   0  0  0  0  0  0  0  0  0  0  0  0
    3.0391    0.1697    2.7147 H   0  0  0  0  0  0  0  0  0  0  0  0
   -0.6741   -0.2090    0.9350 H   0  0  0  0  0  0  0  0  0  0  0  0
   -2.7262   -1.9961   -0.8260 H   0  0  0  0  0  0  0  0  0  0  0  0
   -2.7405   -0.7465   -2.0585 H   0  0  0  0  0  0  0  0  0  0  0  0
   -4.9953   -1.7370   -1.8315 H   0  0  0  0  0  0  0  0  0  0  0  0
   -4.8208   -2.4273    0.5611 H   0  0  0  0  0  0  0  0  0  0  0  0
   -6.2704   -1.4618    0.2938 H   0  0  0  0  0  0  0  0  0  0  0  0
   -5.0718   -0.7048    2.3484 H   0  0  0  0  0  0  0  0  0  0  0  0
   -6.3188    0.9880    1.0028 H   0  0  0  0  0  0  0  0  0  0  0  0
   -4.9026    1.7137    1.7596 H   0  0  0  0  0  0  0  0  0  0  0  0
   -5.0770    2.4017   -0.6336 H   0  0  0  0  0  0  0  0  0  0  0  0
   -6.2668    0.3787   -1.4767 H   0  0  0  0  0  0  0  0  0  0  0  0
   -4.8141    0.6823   -2.4265 H   0  0  0  0  0  0  0  0  0  0  0  0
   -2.8084    2.1664    0.3788 H   0  0  0  0  0  0  0  0  0  0  0  0
   -2.7901    1.7684   -1.3306 H   0  0  0  0  0  0  0  0  0  0  0  0
   -2.8097    0.3121    2.1481 H   0  0  0  0  0  0  0  0  0  0  0  0
   -2.7764   -1.3745    1.6599 H   0  0  0  0  0  0  0  0  0  0  0  0
    2.2811    0.8067   -2.3978 H   0  0  0  0  0  0  0  0  0  0  0  0
    5.1465   -1.7284   -0.9034 H   0  0  0  0  0  0  0  0  0  0  0  0
    7.5549   -1.5097   -1.4122 H   0  0  0  0  0  0  0  0  0  0  0  0
    8.5734    0.7367   -1.6843 H   0  0  0  0  0  0  0  0  0  0  0  0
    7.1718    2.7709   -1.4483 H   0  0  0  0  0  0  0  0  0  0  0  0
    4.7630    2.5671   -0.9298 H   0  0  0  0  0  0  0  0  0  0  0  0
  1  2  1  0
  2  3  1  0
  3  4  1  0
  4  5  2  0
  5  6  1  0
  6  7  2  0
  6  8  1  0
  9  8  1  1
  9 10  1  0
 10 11  1  0
 11 12  1  0
 12 13  1  0
 13 14  1  0
 14 15  1  0
 15 16  1  0
 15 17  1  0
 13 18  1  0
  5 19  1  0
 19 20  2  0
 20 21  1  0
 21 22  2  0
 22 23  1  0
 23 24  2  0
 24 25  1  0
 25 26  2  0
 20  3  1  0
 26 21  1  0
 17  9  1  0
 18  9  1  0
 16 11  1  0
  1 27  1  0
  1 28  1  0
  1 29  1  0
  2 30  1  0
  2 31  1  0
  8 32  1  0
 10 33  1  0
 10 34  1  0
 11 35  1  6
 12 36  1  0
 12 37  1  0
 13 38  1  1
 14 39  1  0
 14 40  1  0
 15 41  1  6
 16 42  1  0
 16 43  1  0
 17 44  1  0
 17 45  1  0
 18 46  1  0
 18 47  1  0
 19 48  1  0
 22 49  1  0
 23 50  1  0
 24 51  1  0
 25 52  1  0
 26 53  1  0
M  END
>  <_SMILES>  (3) 
CCn1nc(C(=O)N[C@]23C[C@H]4C[C@H](C[C@H](C4)C2)C3)cc1-c1ccccc1

$$$$

     RDKit          3D

 56 60  0  0  0  0  0  0  0  0999 V2000
   -4.1530   -2.4609   -0.9405 C   0  0  0  0  0  0  0  0  0  0  0  0
   -3.4720   -2.5603    0.4167 C   0  0  0  0  0  0  0  0  0  0  0  0
   -3.4808   -1.2411    1.1901 C   0  0  0  0  0  0  0  0  0  0  0  0
   -2.6655   -0.2037    0.5813 N   0  0  0  0  0  0  0  0  0  0  0  0
   -1.3204   -0.3327    0.6329 N   0  0  0  0  0  0  0  0  0  0  0  0
   -0.8589    0.7370   -0.0467 C   0  0  0  0  0  0  0  0  0  0  0  0
    0.5810    0.9717   -0.2460 C   0  0  0  0  0  0  0  0  0  0  0  0
    1.0136    1.9381   -0.8639 O   0  0  0  0  0  0  0  0  0  0  0  0
    1.3622   -0.0050    0.3317 N   0  0  0  0  0  0  0  0  0  0  0  0
    2.8195   -0.0674    0.3145 C   0  0  2  0  0  0  0  0  0  0  0  0
    3.2675   -1.3366    1.0871 C   0  0  0  0  0  0  0  0  0  0  0  0
    4.7995   -1.4590    1.1043 C   0  0  1  0  0  0  0  0  0  0  0  0
    5.3146   -1.5425   -0.3412 C   0  0  0  0  0  0  0  0  0  0  0  0
    4.9037   -0.2820   -1.1184 C   0  0  2  0  0  0  0  0  0  0  0  0
    5.4972    0.9569   -0.4261 C   0  0  0  0  0  0  0  0  0  0  0  0
    4.9862    1.0499    1.0217 C   0  0  2  0  0  0  0  0  0  0  0  0
    5.3966   -0.2183    1.7866 C   0  0  0  0  0  0  0  0  0  0  0  0
    3.4515    1.1632    1.0107 C   0  0  0  0  0  0  0  0  0  0  0  0
    3.3690   -0.1690   -1.1299 C   0  0  0  0  0  0  0  0  0  0  0  0
   -1.9264    1.5441   -0.5059 C   0  0  0  0  0  0  0  0  0  0  0  0
   -3.0846    0.9321   -0.0711 C   0  0  0  0  0  0  0  0  0  0  0  0
   -4.4704    1.3355   -0.2631 C   0  0  0  0  0  0  0  0  0  0  0  0
   -5.0592    1.2438   -1.5290 C   0  0  0  0  0  0  0  0  0  0  0  0
   -6.3880    1.6289   -1.7170 C   0  0  0  0  0  0  0  0  0  0  0  0
   -7.1322    2.1150   -0.6430 C   0  0  0  0  0  0  0  0  0  0  0  0
   -6.5483    2.2211    0.6186 C   0  0  0  0  0  0  0  0  0  0  0  0
   -5.2199    1.8354    0.8082 C   0  0  0  0  0  0  0  0  0  0  0  0
   -4.1851   -3.4456   -1.4176 H   0  0  0  0  0  0  0  0  0  0  0  0
   -3.6126   -1.7847   -1.6097 H   0  0  0  0  0  0  0  0  0  0  0  0
   -5.1816   -2.1008   -0.8388 H   0  0  0  0  0  0  0  0  0  0  0  0
   -2.4446   -2.9170    0.2785 H   0  0  0  0  0  0  0  0  0  0  0  0
   -3.9944   -3.3171    1.0138 H   0  0  0  0  0  0  0  0  0  0  0  0
   -3.0781   -1.3985    2.1980 H   0  0  0  0  0  0  0  0  0  0  0  0
   -4.5036   -0.8733    1.3086 H   0  0  0  0  0  0  0  0  0  0  0  0
    0.8261   -0.7307    0.8032 H   0  0  0  0  0  0  0  0  0  0  0  0
    2.8873   -1.3053    2.1171 H   0  0  0  0  0  0  0  0  0  0  0  0
    2.8299   -2.2327    0.6269 H   0  0  0  0  0  0  0  0  0  0  0  0
    5.0927   -2.3604    1.6539 H   0  0  0  0  0  0  0  0  0  0  0  0
    4.9090   -2.4351   -0.8331 H   0  0  0  0  0  0  0  0  0  0  0  0
    6.4067   -1.6456   -0.3445 H   0  0  0  0  0  0  0  0  0  0  0  0
    5.2765   -0.3447   -2.1469 H   0  0  0  0  0  0  0  0  0  0  0  0
    6.5927    0.8998   -0.4329 H   0  0  0  0  0  0  0  0  0  0  0  0
    5.2224    1.8632   -0.9796 H   0  0  0  0  0  0  0  0  0  0  0  0
    5.4174    1.9311    1.5098 H   0  0  0  0  0  0  0  0  0  0  0  0
    5.0500   -0.1582    2.8256 H   0  0  0  0  0  0  0  0  0  0  0  0
    6.4901   -0.2986    1.8199 H   0  0  0  0  0  0  0  0  0  0  0  0
    3.0760    1.2495    2.0389 H   0  0  0  0  0  0  0  0  0  0  0  0
    3.1650    2.0908    0.5010 H   0  0  0  0  0  0  0  0  0  0  0  0
    2.9343   -1.0394   -1.6389 H   0  0  0  0  0  0  0  0  0  0  0  0
    3.0794    0.7079   -1.7210 H   0  0  0  0  0  0  0  0  0  0  0  0
   -1.8483    2.4625   -1.0722 H   0  0  0  0  0  0  0  0  0  0  0  0
   -4.4872    0.8696   -2.3751 H   0  0  0  0  0  0  0  0  0  0  0  0
   -6.8402    1.5534   -2.7026 H   0  0  0  0  0  0  0  0  0  0  0  0
   -8.1655    2.4187   -0.7912 H   0  0  0  0  0  0  0  0  0  0  0  0
   -7.1252    2.6108    1.4534 H   0  0  0  0  0  0  0  0  0  0  0  0
   -4.7713    1.9362    1.7938 H   0  0  0  0  0  0  0  0  0  0  0  0
  1  2  1  0
  2  3  1  0
  3  4  1  0
  4  5  1  0
  5  6  2  0
  6  7  1  0
  7  8  2  0
  7  9  1  0
 10  9  1  6
 10 11  1  0
 11 12  1  0
 12 13  1  0
 13 14  1  0
 14 15  1  0
 15 16  1  0
 16 17  1  0
 16 18  1  0
 14 19  1  0
  6 20  1  0
 20 21  2  0
 21 22  1  0
 22 23  2  0
 23 24  1  0
 24 25  2  0
 25 26  1  0
 26 27  2  0
 21  4  1  0
 27 22  1  0
 18 10  1  0
 19 10  1  0
 17 12  1  0
  1 28  1  0
  1 29  1  0
  1 30  1  0
  2 31  1  0
  2 32  1  0
  3 33  1  0
  3 34  1  0
  9 35  1  0
 11 36  1  0
 11 37  1  0
 12 38  1  1
 13 39  1  0
 13 40  1  0
 14 41  1  6
 15 42  1  0
 15 43  1  0
 16 44  1  1
 17 45  1  0
 17 46  1  0
 18 47  1  0
 18 48  1  0
 19 49  1  0
 19 50  1  0
 20 51  1  0
 23 52  1  0
 24 53  1  0
 25 54  1  0
 26 55  1  0
 27 56  1  0
M  END
>  <_SMILES>  (4) 
CCCn1nc(C(=O)N[C@]23C[C@H]4C[C@H](C[C@H](C4)C2)C3)cc1-c1ccccc1

$$$$

     RDKit          3D

 47 51  0  0  0  0  0  0  0  0999 V2000
    0.0530    0.9458   -1.5135 O   0  0  0  0  0  0  0  0  0  0  0  0
    0.2628    0.3115   -0.4857 C   0  0  0  0  0  0  0  0  0  0  0  0
   -0.7150   -0.2618    0.2972 N   0  0  0  0  0  0  0  0  0  0  0  0
   -2.1523   -0.2208    0.0502 C   0  0  2  0  0  0  0  0  0  0  0  0
   -2.5195   -0.8963   -1.2943 C   0  0  0  0  0  0  0  0  0  0  0  0
   -4.0434   -0.8826   -1.5085 C   0  0  1  0  0  0  0  0  0  0  0  0
   -4.7242   -1.6510   -0.3648 C   0  0  0  0  0  0  0  0  0  0  0  0
   -4.3935   -0.9889    0.9819 C   0  0  2  0  0  0  0  0  0  0  0  0
   -4.8936    0.4642    0.9712 C   0  0  0  0  0  0  0  0  0  0  0  0
   -4.2138    1.2448   -0.1647 C   0  0  2  0  0  0  0  0  0  0  0  0
   -4.5414    0.5727   -1.5090 C   0  0  0  0  0  0  0  0  0  0  0  0
   -2.6900    1.2317    0.0499 C   0  0  0  0  0  0  0  0  0  0  0  0
   -2.8703   -0.9962    1.1868 C   0  0  0  0  0  0  0  0  0  0  0  0
    1.6191    0.0834    0.0412 C   0  0  0  0  0  0  0  0  0  0  0  0
    2.8396    0.5382   -0.5187 C   0  0  0  0  0  0  0  0  0  0  0  0
    3.8404    0.0919    0.3217 C   0  0  0  0  0  0  0  0  0  0  0  0
    5.2935    0.2364    0.2626 C   0  0  0  0  0  0  0  0  0  0  0  0
    6.0687    0.2880    1.4303 C   0  0  0  0  0  0  0  0  0  0  0  0
    7.4584    0.4237    1.3585 C   0  0  0  0  0  0  0  0  0  0  0  0
    8.0891    0.5111    0.1199 C   0  0  0  0  0  0  0  0  0  0  0  0
    7.3316    0.4672   -1.0476 C   0  0  0  0  0  0  0  0  0  0  0  0
    5.9425    0.3330   -0.9762 C   0  0  0  0  0  0  0  0  0  0  0  0
    3.1797   -0.6044    1.3006 N   0  0  0  0  0  0  0  0  0  0  0  0
    1.8412   -0.6212    1.1703 N   0  0  0  0  0  0  0  0  0  0  0  0
   -0.3526   -0.7527    1.1119 H   0  0  0  0  0  0  0  0  0  0  0  0
   -2.0357   -0.3838   -2.1343 H   0  0  0  0  0  0  0  0  0  0  0  0
   -2.1492   -1.9298   -1.3110 H   0  0  0  0  0  0  0  0  0  0  0  0
   -4.2853   -1.3563   -2.4666 H   0  0  0  0  0  0  0  0  0  0  0  0
   -4.3878   -2.6951   -0.3622 H   0  0  0  0  0  0  0  0  0  0  0  0
   -5.8102   -1.6668   -0.5182 H   0  0  0  0  0  0  0  0  0  0  0  0
   -4.8790   -1.5410    1.7944 H   0  0  0  0  0  0  0  0  0  0  0  0
   -5.9826    0.4848    0.8409 H   0  0  0  0  0  0  0  0  0  0  0  0
   -4.6792    0.9419    1.9351 H   0  0  0  0  0  0  0  0  0  0  0  0
   -4.5765    2.2787   -0.1705 H   0  0  0  0  0  0  0  0  0  0  0  0
   -4.0729    1.1289   -2.3302 H   0  0  0  0  0  0  0  0  0  0  0  0
   -5.6239    0.5972   -1.6850 H   0  0  0  0  0  0  0  0  0  0  0  0
   -2.4421    1.7262    0.9983 H   0  0  0  0  0  0  0  0  0  0  0  0
   -2.2128    1.8251   -0.7390 H   0  0  0  0  0  0  0  0  0  0  0  0
   -2.6258   -0.5507    2.1604 H   0  0  0  0  0  0  0  0  0  0  0  0
   -2.5071   -2.0321    1.2248 H   0  0  0  0  0  0  0  0  0  0  0  0
    2.9530    1.1276   -1.4186 H   0  0  0  0  0  0  0  0  0  0  0  0
    5.6064    0.2471    2.4129 H   0  0  0  0  0  0  0  0  0  0  0  0
    8.0477    0.4686    2.2710 H   0  0  0  0  0  0  0  0  0  0  0  0
    9.1693    0.6183    0.0642 H   0  0  0  0  0  0  0  0  0  0  0  0
    7.8199    0.5375   -2.0163 H   0  0  0  0  0  0  0  0  0  0  0  0
    5.3738    0.2945   -1.9027 H   0  0  0  0  0  0  0  0  0  0  0  0
    3.5900   -1.1042    2.0814 H   0  0  0  0  0  0  0  0  0  0  0  0
  1  2  2  0
  2  3  1  0
  4  3  1  1
  4  5  1  0
  5  6  1  0
  6  7  1  0
  7  8  1  0
  8  9  1  0
  9 10  1  0
 10 11  1  0
 10 12  1  0
  8 13  1  0
  2 14  1  0
 14 15  1  0
 15 16  2  0
 16 17  1  0
 17 18  2  0
 18 19  1  0
 19 20  2  0
 20 21  1  0
 21 22  2  0
 16 23  1  0
 23 24  1  0
 12  4  1  0
 24 14  2  0
 13  4  1  0
 22 17  1  0
 11  6  1  0
  3 25  1  0
  5 26  1  0
  5 27  1  0
  6 28  1  6
  7 29  1  0
  7 30  1  0
  8 31  1  1
  9 32  1  0
  9 33  1  0
 10 34  1  6
 11 35  1  0
 11 36  1  0
 12 37  1  0
 12 38  1  0
 13 39  1  0
 13 40  1  0
 15 41  1  0
 18 42  1  0
 19 43  1  0
 20 44  1  0
 21 45  1  0
 22 46  1  0
 23 47  1  0
M  END
>  <_SMILES>  (5) 
O=C(N[C@]12C[C@H]3C[C@H](C[C@H](C3)C1)C2)c1cc(-c2ccccc2)[nH]n1

$$$$

     RDKit          3D

 47 51  0  0  0  0  0  0  0  0999 V2000
   -0.2564    2.0467    1.4040 O   0  0  0  0  0  0  0  0  0  0  0  0
    0.2496    1.1290    0.7684 C   0  0  0  0  0  0  0  0  0  0  0  0
   -0.4808    0.1632    0.1149 N   0  0  0  0  0  0  0  0  0  0  0  0
   -1.9452    0.0906    0.0826 C   0  0  2  0  0  0  0  0  0  0  0  0
   -2.3552   -1.1475   -0.7612 C   0  0  0  0  0  0  0  0  0  0  0  0
   -3.8842   -1.2836   -0.8363 C   0  0  1  0  0  0  0  0  0  0  0  0
   -4.4468   -1.4370    0.5852 C   0  0  0  0  0  0  0  0  0  0  0  0
   -4.0754   -0.2093    1.4315 C   0  0  2  0  0  0  0  0  0  0  0  0
   -4.6577    1.0543    0.7754 C   0  0  0  0  0  0  0  0  0  0  0  0
   -4.1001    1.2168   -0.6490 C   0  0  2  0  0  0  0  0  0  0  0  0
   -4.4714   -0.0194   -1.4829 C   0  0  0  0  0  0  0  0  0  0  0  0
   -2.5678    1.3441   -0.5818 C   0  0  0  0  0  0  0  0  0  0  0  0
   -2.5430   -0.0837    1.5012 C   0  0  0  0  0  0  0  0  0  0  0  0
    1.6782    0.9926    0.6572 C   0  0  0  0  0  0  0  0  0  0  0  0
    2.5153    0.0913    0.0293 C   0  0  0  0  0  0  0  0  0  0  0  0
    3.8472    0.5188    0.3056 C   0  0  0  0  0  0  0  0  0  0  0  0
    5.1122   -0.0912   -0.1281 C   0  0  0  0  0  0  0  0  0  0  0  0
    6.3398    0.4853    0.2363 C   0  0  0  0  0  0  0  0  0  0  0  0
    7.5510   -0.0827   -0.1684 C   0  0  0  0  0  0  0  0  0  0  0  0
    7.5530   -1.2380   -0.9450 C   0  0  0  0  0  0  0  0  0  0  0  0
    6.3456   -1.8246   -1.3163 C   0  0  0  0  0  0  0  0  0  0  0  0
    5.1332   -1.2557   -0.9110 C   0  0  0  0  0  0  0  0  0  0  0  0
    3.8239    1.6268    1.0645 N   0  0  0  0  0  0  0  0  0  0  0  0
    2.5230    1.8833    1.2568 N   0  0  0  0  0  0  0  0  0  0  0  0
    0.0273   -0.5519   -0.3830 H   0  0  0  0  0  0  0  0  0  0  0  0
   -1.9239   -2.0594   -0.3268 H   0  0  0  0  0  0  0  0  0  0  0  0
   -1.9411   -1.0666   -1.7752 H   0  0  0  0  0  0  0  0  0  0  0  0
   -4.1486   -2.1621   -1.4354 H   0  0  0  0  0  0  0  0  0  0  0  0
   -4.0488   -2.3473    1.0502 H   0  0  0  0  0  0  0  0  0  0  0  0
   -5.5372   -1.5499    0.5467 H   0  0  0  0  0  0  0  0  0  0  0  0
   -4.4823   -0.3216    2.4427 H   0  0  0  0  0  0  0  0  0  0  0  0
   -5.7522    0.9876    0.7427 H   0  0  0  0  0  0  0  0  0  0  0  0
   -4.4105    1.9372    1.3777 H   0  0  0  0  0  0  0  0  0  0  0  0
   -4.5245    2.1148   -1.1117 H   0  0  0  0  0  0  0  0  0  0  0  0
   -5.5622   -0.1082   -1.5566 H   0  0  0  0  0  0  0  0  0  0  0  0
   -4.0910    0.0902   -2.5059 H   0  0  0  0  0  0  0  0  0  0  0  0
   -2.1592    1.4778   -1.5920 H   0  0  0  0  0  0  0  0  0  0  0  0
   -2.3107    2.2526   -0.0248 H   0  0  0  0  0  0  0  0  0  0  0  0
   -2.1167   -0.9731    1.9835 H   0  0  0  0  0  0  0  0  0  0  0  0
   -2.2850    0.7663    2.1435 H   0  0  0  0  0  0  0  0  0  0  0  0
    2.2190   -0.7664   -0.5548 H   0  0  0  0  0  0  0  0  0  0  0  0
    6.3600    1.3889    0.8433 H   0  0  0  0  0  0  0  0  0  0  0  0
    8.4894    0.3804    0.1252 H   0  0  0  0  0  0  0  0  0  0  0  0
    8.4945   -1.6802   -1.2599 H   0  0  0  0  0  0  0  0  0  0  0  0
    6.3458   -2.7269   -1.9225 H   0  0  0  0  0  0  0  0  0  0  0  0
    4.2132   -1.7423   -1.2199 H   0  0  0  0  0  0  0  0  0  0  0  0
    2.2565    2.6903    1.8131 H   0  0  0  0  0  0  0  0  0  0  0  0
  1  2  2  0
  2  3  1  0
  4  3  1  1
  4  5  1  0
  5  6  1  0
  6  7  1  0
  7  8  1  0
  8  9  1  0
  9 10  1  0
 10 11  1  0
 10 12  1  0
  8 13  1  0
  2 14  1  0
 14 15  2  0
 15 16  1  0
 16 17  1  0
 17 18  2  0
 18 19  1  0
 19 20  2  0
 20 21  1  0
 21 22  2  0
 16 23  2  0
 23 24  1  0
 12  4  1  0
 24 14  1  0
 13  4  1  0
 22 17  1  0
 11  6  1  0
  3 25  1  0
  5 26  1  0
  5 27  1  0
  6 28  1  6
  7 29  1  0
  7 30  1  0
  8 31  1  1
  9 32  1  0
  9 33  1  0
 10 34  1  6
 11 35  1  0
 11 36  1  0
 12 37  1  0
 12 38  1  0
 13 39  1  0
 13 40  1  0
 15 41  1  0
 18 42  1  0
 19 43  1  0
 20 44  1  0
 21 45  1  0
 22 46  1  0
 24 47  1  0
M  END
>  <_SMILES>  (6) 
O=C(N[C@]12C[C@H]3C[C@H](C[C@H](C3)C1)C2)c1cc(-c2ccccc2)n[nH]1

$$$$

     RDKit          3D

 59 63  0  0  0  0  0  0  0  0999 V2000
   -5.5109   -3.9937   -0.6262 C   0  0  0  0  0  0  0  0  0  0  0  0
   -4.0829   -3.4722   -0.5719 C   0  0  0  0  0  0  0  0  0  0  0  0
   -4.0348   -2.0291   -0.0654 C   0  0  0  0  0  0  0  0  0  0  0  0
   -2.6446   -1.4865    0.0527 C   0  0  0  0  0  0  0  0  0  0  0  0
   -1.4556   -1.8842   -0.5247 C   0  0  0  0  0  0  0  0  0  0  0  0
   -0.4696   -0.9818   -0.0607 C   0  0  0  0  0  0  0  0  0  0  0  0
    0.9659   -0.9879   -0.3906 C   0  0  0  0  0  0  0  0  0  0  0  0
    1.4697   -1.8204   -1.1364 O   0  0  0  0  0  0  0  0  0  0  0  0
    1.6562    0.0320    0.2274 N   0  0  0  0  0  0  0  0  0  0  0  0
    3.0853    0.3007    0.1126 C   0  0  2  0  0  0  0  0  0  0  0  0
    3.4919    0.6107   -1.3494 C   0  0  0  0  0  0  0  0  0  0  0  0
    4.9933    0.9375   -1.4360 C   0  0  1  0  0  0  0  0  0  0  0  0
    5.2967    2.1669   -0.5651 C   0  0  0  0  0  0  0  0  0  0  0  0
    4.9217    1.8796    0.8972 C   0  0  2  0  0  0  0  0  0  0  0  0
    5.7347    0.6783    1.4046 C   0  0  0  0  0  0  0  0  0  0  0  0
    5.4338   -0.5598    0.5452 C   0  0  2  0  0  0  0  0  0  0  0  0
    5.8032   -0.2634   -0.9183 C   0  0  0  0  0  0  0  0  0  0  0  0
    3.9326   -0.8869    0.6323 C   0  0  0  0  0  0  0  0  0  0  0  0
    3.4238    1.5444    0.9769 C   0  0  0  0  0  0  0  0  0  0  0  0
   -1.0091   -0.0619    0.7640 N   0  0  0  0  0  0  0  0  0  0  0  0
   -2.3254   -0.3746    0.8000 N   0  0  0  0  0  0  0  0  0  0  0  0
   -3.2157    0.4378    1.6278 C   0  0  0  0  0  0  0  0  0  0  0  0
   -4.1484    1.2969    0.8087 C   0  0  0  0  0  0  0  0  0  0  0  0
   -5.5367    1.2115    0.9936 C   0  0  0  0  0  0  0  0  0  0  0  0
   -6.4020    2.0141    0.2480 C   0  0  0  0  0  0  0  0  0  0  0  0
   -5.8907    2.9151   -0.6837 C   0  0  0  0  0  0  0  0  0  0  0  0
   -4.5138    3.0180   -0.8689 C   0  0  0  0  0  0  0  0  0  0  0  0
   -3.6466    2.2174   -0.1245 C   0  0  0  0  0  0  0  0  0  0  0  0
   -5.9710   -3.9820    0.3670 H   0  0  0  0  0  0  0  0  0  0  0  0
   -5.5241   -5.0243   -0.9944 H   0  0  0  0  0  0  0  0  0  0  0  0
   -6.1252   -3.3850   -1.2974 H   0  0  0  0  0  0  0  0  0  0  0  0
   -3.6446   -3.5373   -1.5750 H   0  0  0  0  0  0  0  0  0  0  0  0
   -3.4885   -4.1221    0.0819 H   0  0  0  0  0  0  0  0  0  0  0  0
   -4.6059   -1.3872   -0.7472 H   0  0  0  0  0  0  0  0  0  0  0  0
   -4.5292   -1.9879    0.9123 H   0  0  0  0  0  0  0  0  0  0  0  0
   -1.2968   -2.7158   -1.1981 H   0  0  0  0  0  0  0  0  0  0  0  0
    1.0717    0.6225    0.8153 H   0  0  0  0  0  0  0  0  0  0  0  0
    3.2729   -0.2404   -2.0051 H   0  0  0  0  0  0  0  0  0  0  0  0
    2.9033    1.4539   -1.7343 H   0  0  0  0  0  0  0  0  0  0  0  0
    5.2658    1.1460   -2.4766 H   0  0  0  0  0  0  0  0  0  0  0  0
    6.3610    2.4229   -0.6358 H   0  0  0  0  0  0  0  0  0  0  0  0
    4.7354    3.0346   -0.9329 H   0  0  0  0  0  0  0  0  0  0  0  0
    5.1376    2.7592    1.5139 H   0  0  0  0  0  0  0  0  0  0  0  0
    5.4885    0.4750    2.4541 H   0  0  0  0  0  0  0  0  0  0  0  0
    6.8065    0.9087    1.3679 H   0  0  0  0  0  0  0  0  0  0  0  0
    6.0186   -1.4122    0.9086 H   0  0  0  0  0  0  0  0  0  0  0  0
    6.8767   -0.0520   -0.9972 H   0  0  0  0  0  0  0  0  0  0  0  0
    5.6059   -1.1449   -1.5406 H   0  0  0  0  0  0  0  0  0  0  0  0
    3.7302   -1.7950    0.0520 H   0  0  0  0  0  0  0  0  0  0  0  0
    3.6605   -1.1191    1.6703 H   0  0  0  0  0  0  0  0  0  0  0  0
    3.1399    1.3658    2.0228 H   0  0  0  0  0  0  0  0  0  0  0  0
    2.8331    2.4081    0.6432 H   0  0  0  0  0  0  0  0  0  0  0  0
   -3.7607   -0.2540    2.2795 H   0  0  0  0  0  0  0  0  0  0  0  0
   -2.5983    1.0747    2.2726 H   0  0  0  0  0  0  0  0  0  0  0  0
   -5.9578    0.5177    1.7181 H   0  0  0  0  0  0  0  0  0  0  0  0
   -7.4765    1.9380    0.3945 H   0  0  0  0  0  0  0  0  0  0  0  0
   -6.5650    3.5393   -1.2644 H   0  0  0  0  0  0  0  0  0  0  0  0
   -4.1135    3.7222   -1.5940 H   0  0  0  0  0  0  0  0  0  0  0  0
   -2.5728    2.3122   -0.2815 H   0  0  0  0  0  0  0  0  0  0  0  0
  1  2  1  0
  2  3  1  0
  3  4  1  0
  4  5  2  0
  5  6  1  0
  6  7  1  0
  7  8  2  0
  7  9  1  0
 10  9  1  6
 10 11  1  0
 11 12  1  0
 12 13  1  0
 13 14  1  0
 14 15  1  0
 15 16  1  0
 16 17  1  0
 16 18  1  0
 14 19  1  0
  6 20  2  0
 20 21  1  0
 21 22  1  0
 22 23  1  0
 23 24  2  0
 24 25  1  0
 25 26  2  0
 26 27  1  0
 27 28  2  0
 21  4  1  0
 28 23  1  0
 18 10  1  0
 19 10  1  0
 17 12  1  0
  1 29  1  0
  1 30  1  0
  1 31  1  0
  2 32  1  0
  2 33  1  0
  3 34  1  0
  3 35  1  0
  5 36  1  0
  9 37  1  0
 11 38  1  0
 11 39  1  0
 12 40  1  6
 13 41  1  0
 13 42  1  0
 14 43  1  1
 15 44  1  0
 15 45  1  0
 16 46  1  1
 17 47  1  0
 17 48  1  0
 18 49  1  0
 18 50  1  0
 19 51  1  0
 19 52  1  0
 22 53  1  0
 22 54  1  0
 24 55  1  0
 25 56  1  0
 26 57  1  0
 27 58  1  0
 28 59  1  0
M  END
>  <_SMILES>  (7) 
CCCc1cc(C(=O)N[C@]23C[C@H]4C[C@H](C[C@H](C4)C2)C3)nn1Cc1ccccc1

$$$$

     RDKit          3D

 53 57  0  0  0  0  0  0  0  0999 V2000
   -5.1077   -2.3352   -2.2621 C   0  0  0  0  0  0  0  0  0  0  0  0
   -4.5292   -0.9495   -2.5114 C   0  0  0  0  0  0  0  0  0  0  0  0
   -3.2573   -0.7298   -1.7600 C   0  0  0  0  0  0  0  0  0  0  0  0
   -2.0041   -1.1855   -2.1242 C   0  0  0  0  0  0  0  0  0  0  0  0
   -1.0971   -0.6026   -1.2229 C   0  0  0  0  0  0  0  0  0  0  0  0
    0.3669   -0.7581   -1.2087 C   0  0  0  0  0  0  0  0  0  0  0  0
    0.9631   -1.4552   -2.0218 O   0  0  0  0  0  0  0  0  0  0  0  0
    0.9678   -0.0444   -0.1952 N   0  0  0  0  0  0  0  0  0  0  0  0
    2.3972    0.0085    0.0928 C   0  0  2  0  0  0  0  0  0  0  0  0
    3.1977    0.5938   -1.0968 C   0  0  0  0  0  0  0  0  0  0  0  0
    4.6944    0.6835   -0.7502 C   0  0  1  0  0  0  0  0  0  0  0  0
    4.8792    1.5987    0.4706 C   0  0  0  0  0  0  0  0  0  0  0  0
    4.1112    1.0299    1.6739 C   0  0  2  0  0  0  0  0  0  0  0  0
    4.6437   -0.3742    2.0002 C   0  0  0  0  0  0  0  0  0  0  0  0
    4.4576   -1.3009    0.7883 C   0  0  2  0  0  0  0  0  0  0  0  0
    5.2214   -0.7221   -0.4149 C   0  0  0  0  0  0  0  0  0  0  0  0
    2.9608   -1.3911    0.4420 C   0  0  0  0  0  0  0  0  0  0  0  0
    2.6188    0.9331    1.3193 C   0  0  0  0  0  0  0  0  0  0  0  0
   -1.7374    0.1782   -0.3377 N   0  0  0  0  0  0  0  0  0  0  0  0
   -3.0689    0.0377   -0.6113 N   0  0  0  0  0  0  0  0  0  0  0  0
   -4.0044    0.6654    0.2722 C   0  0  0  0  0  0  0  0  0  0  0  0
   -3.5389    1.6600    1.1531 C   0  0  0  0  0  0  0  0  0  0  0  0
   -4.4107    2.3013    2.0370 C   0  0  0  0  0  0  0  0  0  0  0  0
   -5.7561    1.9497    2.0638 C   0  0  0  0  0  0  0  0  0  0  0  0
   -6.2259    0.9515    1.2145 C   0  0  0  0  0  0  0  0  0  0  0  0
   -5.3554    0.3080    0.3264 C   0  0  0  0  0  0  0  0  0  0  0  0
   -4.4226   -3.1156   -2.6113 H   0  0  0  0  0  0  0  0  0  0  0  0
   -5.2960   -2.5155   -1.1992 H   0  0  0  0  0  0  0  0  0  0  0  0
   -6.0525   -2.4529   -2.8022 H   0  0  0  0  0  0  0  0  0  0  0  0
   -4.3148   -0.8595   -3.5849 H   0  0  0  0  0  0  0  0  0  0  0  0
   -5.2681   -0.1698   -2.3104 H   0  0  0  0  0  0  0  0  0  0  0  0
   -1.7621   -1.8223   -2.9653 H   0  0  0  0  0  0  0  0  0  0  0  0
    0.3134    0.4748    0.3860 H   0  0  0  0  0  0  0  0  0  0  0  0
    3.0749   -0.0256   -1.9933 H   0  0  0  0  0  0  0  0  0  0  0  0
    2.8142    1.5892   -1.3567 H   0  0  0  0  0  0  0  0  0  0  0  0
    5.2469    1.0913   -1.6041 H   0  0  0  0  0  0  0  0  0  0  0  0
    5.9450    1.6879    0.7143 H   0  0  0  0  0  0  0  0  0  0  0  0
    4.5198    2.6090    0.2396 H   0  0  0  0  0  0  0  0  0  0  0  0
    4.2438    1.6864    2.5411 H   0  0  0  0  0  0  0  0  0  0  0  0
    5.7054   -0.3190    2.2703 H   0  0  0  0  0  0  0  0  0  0  0  0
    4.1148   -0.7834    2.8698 H   0  0  0  0  0  0  0  0  0  0  0  0
    4.8422   -2.2993    1.0247 H   0  0  0  0  0  0  0  0  0  0  0  0
    6.2939   -0.6751   -0.1891 H   0  0  0  0  0  0  0  0  0  0  0  0
    5.1078   -1.3821   -1.2836 H   0  0  0  0  0  0  0  0  0  0  0  0
    2.8288   -2.0859   -0.3959 H   0  0  0  0  0  0  0  0  0  0  0  0
    2.4072   -1.8209    1.2872 H   0  0  0  0  0  0  0  0  0  0  0  0
    2.0570    0.5545    2.1838 H   0  0  0  0  0  0  0  0  0  0  0  0
    2.2218    1.9361    1.1125 H   0  0  0  0  0  0  0  0  0  0  0  0
   -2.4932    1.9623    1.1538 H   0  0  0  0  0  0  0  0  0  0  0  0
   -4.0354    3.0739    2.7032 H   0  0  0  0  0  0  0  0  0  0  0  0
   -6.4354    2.4449    2.7528 H   0  0  0  0  0  0  0  0  0  0  0  0
   -7.2734    0.6613    1.2507 H   0  0  0  0  0  0  0  0  0  0  0  0
   -5.7700   -0.4953   -0.2668 H   0  0  0  0  0  0  0  0  0  0  0  0
  1  2  1  0
  2  3  1  0
  3  4  2  0
  4  5  1  0
  5  6  1  0
  6  7  2  0
  6  8  1  0
  9  8  1  6
  9 10  1  0
 10 11  1  0
 11 12  1  0
 12 13  1  0
 13 14  1  0
 14 15  1  0
 15 16  1  0
 15 17  1  0
 13 18  1  0
  5 19  2  0
 19 20  1  0
 20 21  1  0
 21 22  2  0
 22 23  1  0
 23 24  2  0
 24 25  1  0
 25 26  2  0
 20  3  1  0
 26 21  1  0
 17  9  1  0
 18  9  1  0
 16 11  1  0
  1 27  1  0
  1 28  1  0
  1 29  1  0
  2 30  1  0
  2 31  1  0
  4 32  1  0
  8 33  1  0
 10 34  1  0
 10 35  1  0
 11 36  1  6
 12 37  1  0
 12 38  1  0
 13 39  1  1
 14 40  1  0
 14 41  1  0
 15 42  1  1
 16 43  1  0
 16 44  1  0
 17 45  1  0
 17 46  1  0
 18 47  1  0
 18 48  1  0
 22 49  1  0
 23 50  1  0
 24 51  1  0
 25 52  1  0
 26 53  1  0
M  END
>  <_SMILES>  (8) 
CCc1cc(C(=O)N[C@]23C[C@H]4C[C@H](C[C@H](C4)C2)C3)nn1-c1ccccc1

$$$$

     RDKit          3D

 49 52  0  0  0  0  0  0  0  0999 V2000
    2.6776   -0.3598    2.5349 O   0  0  0  0  0  0  0  0  0  0  0  0
    2.1279    0.2608    1.6301 C   0  0  0  0  0  0  0  0  0  0  0  0
    2.6170    1.4270    1.0881 N   0  0  0  0  0  0  0  0  0  0  0  0
    3.9205    1.9461    1.4020 C   0  0  0  0  0  0  0  0  0  0  0  0
    4.9311    1.5312    0.3646 C   0  0  0  0  0  0  0  0  0  0  0  0
    5.2244    2.3645   -0.7241 C   0  0  0  0  0  0  0  0  0  0  0  0
    6.1472    1.9646   -1.6924 C   0  0  0  0  0  0  0  0  0  0  0  0
    6.7789    0.7267   -1.5865 C   0  0  0  0  0  0  0  0  0  0  0  0
    6.4867   -0.1147   -0.5147 C   0  0  0  0  0  0  0  0  0  0  0  0
    5.5651    0.2834    0.4546 C   0  0  0  0  0  0  0  0  0  0  0  0
    0.8718   -0.1816    1.0042 C   0  0  0  0  0  0  0  0  0  0  0  0
    0.1147   -1.3309    1.3354 C   0  0  0  0  0  0  0  0  0  0  0  0
   -0.9674   -1.3354    0.4804 C   0  0  0  0  0  0  0  0  0  0  0  0
   -2.0628   -2.2856    0.3726 C   0  0  0  0  0  0  0  0  0  0  0  0
   -1.9354   -3.4177   -0.4393 C   0  0  0  0  0  0  0  0  0  0  0  0
   -2.9907   -4.3252   -0.5492 C   0  0  0  0  0  0  0  0  0  0  0  0
   -4.1747   -4.1073    0.1546 C   0  0  0  0  0  0  0  0  0  0  0  0
   -4.3038   -2.9854    0.9722 C   0  0  0  0  0  0  0  0  0  0  0  0
   -3.2490   -2.0780    1.0842 C   0  0  0  0  0  0  0  0  0  0  0  0
   -0.8209   -0.2080   -0.2949 N   0  0  0  0  0  0  0  0  0  0  0  0
   -1.6811    0.2362   -1.3890 C   0  0  0  0  0  0  0  0  0  0  0  0
   -2.9004    0.9783   -0.8981 C   0  0  0  0  0  0  0  0  0  0  0  0
   -4.1866    0.4861   -1.1661 C   0  0  0  0  0  0  0  0  0  0  0  0
   -5.3165    1.1732   -0.7191 C   0  0  0  0  0  0  0  0  0  0  0  0
   -5.1745    2.3617   -0.0061 C   0  0  0  0  0  0  0  0  0  0  0  0
   -3.9032    2.8656    0.2602 C   0  0  0  0  0  0  0  0  0  0  0  0
   -2.7721    2.1802   -0.1851 C   0  0  0  0  0  0  0  0  0  0  0  0
    0.2999    0.4999   -0.0100 N   0  0  0  0  0  0  0  0  0  0  0  0
    2.1230    1.7551    0.2636 H   0  0  0  0  0  0  0  0  0  0  0  0
    3.8384    3.0380    1.4377 H   0  0  0  0  0  0  0  0  0  0  0  0
    4.2388    1.6129    2.3963 H   0  0  0  0  0  0  0  0  0  0  0  0
    4.7352    3.3306   -0.8246 H   0  0  0  0  0  0  0  0  0  0  0  0
    6.3715    2.6179   -2.5315 H   0  0  0  0  0  0  0  0  0  0  0  0
    7.4959    0.4153   -2.3414 H   0  0  0  0  0  0  0  0  0  0  0  0
    6.9729   -1.0833   -0.4339 H   0  0  0  0  0  0  0  0  0  0  0  0
    5.3364   -0.3863    1.2824 H   0  0  0  0  0  0  0  0  0  0  0  0
    0.3416   -2.0596    2.1020 H   0  0  0  0  0  0  0  0  0  0  0  0
   -1.0135   -3.6009   -0.9864 H   0  0  0  0  0  0  0  0  0  0  0  0
   -2.8868   -5.2047   -1.1794 H   0  0  0  0  0  0  0  0  0  0  0  0
   -4.9949   -4.8159    0.0714 H   0  0  0  0  0  0  0  0  0  0  0  0
   -5.2239   -2.8165    1.5255 H   0  0  0  0  0  0  0  0  0  0  0  0
   -3.3602   -1.2049    1.7242 H   0  0  0  0  0  0  0  0  0  0  0  0
   -1.9502   -0.6502   -1.9741 H   0  0  0  0  0  0  0  0  0  0  0  0
   -1.0885    0.8855   -2.0447 H   0  0  0  0  0  0  0  0  0  0  0  0
   -4.3195   -0.4440   -1.7156 H   0  0  0  0  0  0  0  0  0  0  0  0
   -6.3082    0.7795   -0.9264 H   0  0  0  0  0  0  0  0  0  0  0  0
   -6.0547    2.8958    0.3421 H   0  0  0  0  0  0  0  0  0  0  0  0
   -3.7911    3.7928    0.8164 H   0  0  0  0  0  0  0  0  0  0  0  0
   -1.7856    2.5869    0.0330 H   0  0  0  0  0  0  0  0  0  0  0  0
  1  2  2  0
  2  3  1  0
  3  4  1  0
  4  5  1  0
  5  6  2  0
  6  7  1  0
  7  8  2  0
  8  9  1  0
  9 10  2  0
  2 11  1  0
 11 12  1  0
 12 13  2  0
 13 14  1  0
 14 15  2  0
 15 16  1  0
 16 17  2  0
 17 18  1  0
 18 19  2  0
 13 20  1  0
 20 21  1  0
 21 22  1  0
 22 23  2  0
 23 24  1  0
 24 25  2  0
 25 26  1  0
 26 27  2  0
 20 28  1  0
 10  5  1  0
 28 11  2  0
 19 14  1  0
 27 22  1  0
  3 29  1  0
  4 30  1  0
  4 31  1  0
  6 32  1  0
  7 33  1  0
  8 34  1  0
  9 35  1  0
 10 36  1  0
 12 37  1  0
 15 38  1  0
 16 39  1  0
 17 40  1  0
 18 41  1  0
 19 42  1  0
 21 43  1  0
 21 44  1  0
 23 45  1  0
 24 46  1  0
 25 47  1  0
 26 48  1  0
 27 49  1  0
M  END
>  <_SMILES>  (9) 
O=C(NCc1ccccc1)c1cc(-c2ccccc2)n(Cc2ccccc2)n1

$$$$

     RDKit          3D

 48 50  0  0  0  0  0  0  0  0999 V2000
    5.5063   -0.2671   -0.4247 C   0  0  0  0  0  0  0  0  0  0  0  0
    4.6821   -0.8051    0.7604 C   0  0  0  0  0  0  0  0  0  0  0  0
    4.7158   -2.3406    0.7196 C   0  0  0  0  0  0  0  0  0  0  0  0
    5.3279   -0.2941    2.0589 C   0  0  0  0  0  0  0  0  0  0  0  0
    3.3062   -0.3076    0.6144 N   0  0  0  0  0  0  0  0  0  0  0  0
    2.2785   -0.5581    1.5128 C   0  0  0  0  0  0  0  0  0  0  0  0
    2.4474   -1.1776    2.5591 O   0  0  0  0  0  0  0  0  0  0  0  0
    0.9593   -0.0322    1.0947 C   0  0  0  0  0  0  0  0  0  0  0  0
    0.6732    0.9576    0.1133 C   0  0  0  0  0  0  0  0  0  0  0  0
   -0.6992    1.0994    0.0908 C   0  0  0  0  0  0  0  0  0  0  0  0
   -1.5306    1.9778   -0.7158 C   0  0  0  0  0  0  0  0  0  0  0  0
   -2.0585    1.5290   -1.9310 C   0  0  0  0  0  0  0  0  0  0  0  0
   -2.8616    2.3711   -2.7019 C   0  0  0  0  0  0  0  0  0  0  0  0
   -3.1343    3.6668   -2.2653 C   0  0  0  0  0  0  0  0  0  0  0  0
   -2.6033    4.1228   -1.0591 C   0  0  0  0  0  0  0  0  0  0  0  0
   -1.8012    3.2813   -0.2862 C   0  0  0  0  0  0  0  0  0  0  0  0
   -1.1661    0.2091    1.0281 N   0  0  0  0  0  0  0  0  0  0  0  0
   -2.5505   -0.0165    1.4348 C   0  0  0  0  0  0  0  0  0  0  0  0
   -3.2788   -0.9472    0.4955 C   0  0  0  0  0  0  0  0  0  0  0  0
   -2.8664   -2.2802    0.3463 C   0  0  0  0  0  0  0  0  0  0  0  0
   -3.5447   -3.1405   -0.5180 C   0  0  0  0  0  0  0  0  0  0  0  0
   -4.6450   -2.6808   -1.2386 C   0  0  0  0  0  0  0  0  0  0  0  0
   -5.0694   -1.3614   -1.0944 C   0  0  0  0  0  0  0  0  0  0  0  0
   -4.3930   -0.4992   -0.2298 C   0  0  0  0  0  0  0  0  0  0  0  0
   -0.1821   -0.4669    1.6581 N   0  0  0  0  0  0  0  0  0  0  0  0
    5.0925   -0.6079   -1.3812 H   0  0  0  0  0  0  0  0  0  0  0  0
    6.5488   -0.6007   -0.3729 H   0  0  0  0  0  0  0  0  0  0  0  0
    5.5032    0.8291   -0.4418 H   0  0  0  0  0  0  0  0  0  0  0  0
    4.2404   -2.7199   -0.1923 H   0  0  0  0  0  0  0  0  0  0  0  0
    4.1879   -2.7839    1.5701 H   0  0  0  0  0  0  0  0  0  0  0  0
    5.7456   -2.7145    0.7432 H   0  0  0  0  0  0  0  0  0  0  0  0
    6.3868   -0.5728    2.1091 H   0  0  0  0  0  0  0  0  0  0  0  0
    4.8453   -0.7051    2.9508 H   0  0  0  0  0  0  0  0  0  0  0  0
    5.2640    0.7981    2.1259 H   0  0  0  0  0  0  0  0  0  0  0  0
    3.0322    0.0087   -0.3046 H   0  0  0  0  0  0  0  0  0  0  0  0
    1.3730    1.5154   -0.4922 H   0  0  0  0  0  0  0  0  0  0  0  0
   -1.8560    0.5179   -2.2786 H   0  0  0  0  0  0  0  0  0  0  0  0
   -3.2736    2.0146   -3.6425 H   0  0  0  0  0  0  0  0  0  0  0  0
   -3.7581    4.3229   -2.8672 H   0  0  0  0  0  0  0  0  0  0  0  0
   -2.8117    5.1349   -0.7215 H   0  0  0  0  0  0  0  0  0  0  0  0
   -1.3890    3.6483    0.6511 H   0  0  0  0  0  0  0  0  0  0  0  0
   -2.5442   -0.4368    2.4477 H   0  0  0  0  0  0  0  0  0  0  0  0
   -3.0376    0.9630    1.4975 H   0  0  0  0  0  0  0  0  0  0  0  0
   -2.0080   -2.6542    0.9040 H   0  0  0  0  0  0  0  0  0  0  0  0
   -3.2136   -4.1702   -0.6265 H   0  0  0  0  0  0  0  0  0  0  0  0
   -5.1730   -3.3522   -1.9106 H   0  0  0  0  0  0  0  0  0  0  0  0
   -5.9288   -1.0032   -1.6553 H   0  0  0  0  0  0  0  0  0  0  0  0
   -4.7378    0.5286   -0.1342 H   0  0  0  0  0  0  0  0  0  0  0  0
  1  2  1  0
  2  3  1  0
  2  4  1  0
  2  5  1  0
  5  6  1  0
  6  7  2  0
  6  8  1  0
  8  9  1  0
  9 10  2  0
 10 11  1  0
 11 12  2  0
 12 13  1  0
 13 14  2  0
 14 15  1  0
 15 16  2  0
 10 17  1  0
 17 18  1  0
 18 19  1  0
 19 20  2  0
 20 21  1  0
 21 22  2  0
 22 23  1  0
 23 24  2  0
 17 25  1  0
 25  8  2  0
 16 11  1  0
 24 19  1  0
  1 26  1  0
  1 27  1  0
  1 28  1  0
  3 29  1  0
  3 30  1  0
  3 31  1  0
  4 32  1  0
  4 33  1  0
  4 34  1  0
  5 35  1  0
  9 36  1  0
 12 37  1  0
 13 38  1  0
 14 39  1  0
 15 40  1  0
 16 41  1  0
 18 42  1  0
 18 43  1  0
 20 44  1  0
 21 45  1  0
 22 46  1  0
 23 47  1  0
 24 48  1  0
M  END
>  <_SMILES>  (10) 
CC(C)(C)NC(=O)c1cc(-c2ccccc2)n(Cc2ccccc2)n1

$$$$

     RDKit          3D

 55 58  0  0  0  0  0  0  0  0999 V2000
   -1.8244   -2.3839   -0.3194 O   0  0  0  0  0  0  0  0  0  0  0  0
   -1.3742   -1.5536    0.4670 C   0  0  0  0  0  0  0  0  0  0  0  0
   -2.1940   -0.8428    1.3298 N   0  0  0  0  0  0  0  0  0  0  0  0
   -3.6359   -0.9929    1.3294 C   0  0  0  0  0  0  0  0  0  0  0  0
   -4.3420    0.1753    0.6172 C   0  0  0  0  0  0  0  0  0  0  0  0
   -5.8663    0.1233    0.8529 C   0  0  0  0  0  0  0  0  0  0  0  0
   -6.6129   -0.5087   -0.3158 C   0  0  0  0  0  0  0  0  0  0  0  0
   -6.4015    0.2735   -1.6132 C   0  0  0  0  0  0  0  0  0  0  0  0
   -5.0414    0.9688   -1.6883 C   0  0  0  0  0  0  0  0  0  0  0  0
   -3.9857    0.2222   -0.8826 C   0  0  0  0  0  0  0  0  0  0  0  0
    0.0659   -1.2254    0.5614 C   0  0  0  0  0  0  0  0  0  0  0  0
    0.7420   -0.4640    1.5555 C   0  0  0  0  0  0  0  0  0  0  0  0
    2.0738   -0.4447    1.1946 C   0  0  0  0  0  0  0  0  0  0  0  0
    3.2077    0.1827    1.8535 C   0  0  0  0  0  0  0  0  0  0  0  0
    3.5746    1.4928    1.5286 C   0  0  0  0  0  0  0  0  0  0  0  0
    4.6676    2.0925    2.1564 C   0  0  0  0  0  0  0  0  0  0  0  0
    5.3936    1.3880    3.1159 C   0  0  0  0  0  0  0  0  0  0  0  0
    5.0272    0.0847    3.4502 C   0  0  0  0  0  0  0  0  0  0  0  0
    3.9352   -0.5170    2.8220 C   0  0  0  0  0  0  0  0  0  0  0  0
    2.1375   -1.1629    0.0250 N   0  0  0  0  0  0  0  0  0  0  0  0
    3.3222   -1.4716   -0.7711 C   0  0  0  0  0  0  0  0  0  0  0  0
    3.7125   -0.3315   -1.6804 C   0  0  0  0  0  0  0  0  0  0  0  0
    2.8573    0.0852   -2.7121 C   0  0  0  0  0  0  0  0  0  0  0  0
    3.2217    1.1361   -3.5548 C   0  0  0  0  0  0  0  0  0  0  0  0
    4.4453    1.7789   -3.3796 C   0  0  0  0  0  0  0  0  0  0  0  0
    5.3065    1.3709   -2.3630 C   0  0  0  0  0  0  0  0  0  0  0  0
    4.9447    0.3194   -1.5192 C   0  0  0  0  0  0  0  0  0  0  0  0
    0.9444   -1.6630   -0.3588 N   0  0  0  0  0  0  0  0  0  0  0  0
   -1.7972   -0.1050    1.8910 H   0  0  0  0  0  0  0  0  0  0  0  0
   -3.9194   -1.9518    0.8820 H   0  0  0  0  0  0  0  0  0  0  0  0
   -3.9322   -1.0195    2.3840 H   0  0  0  0  0  0  0  0  0  0  0  0
   -3.9808    1.1062    1.0770 H   0  0  0  0  0  0  0  0  0  0  0  0
   -6.2378    1.1477    0.9887 H   0  0  0  0  0  0  0  0  0  0  0  0
   -6.1035   -0.4099    1.7807 H   0  0  0  0  0  0  0  0  0  0  0  0
   -7.6846   -0.5670   -0.0944 H   0  0  0  0  0  0  0  0  0  0  0  0
   -6.2661   -1.5410   -0.4503 H   0  0  0  0  0  0  0  0  0  0  0  0
   -6.5154   -0.4142   -2.4600 H   0  0  0  0  0  0  0  0  0  0  0  0
   -7.1890    1.0286   -1.7254 H   0  0  0  0  0  0  0  0  0  0  0  0
   -5.1320    1.9925   -1.3039 H   0  0  0  0  0  0  0  0  0  0  0  0
   -4.7305    1.0553   -2.7356 H   0  0  0  0  0  0  0  0  0  0  0  0
   -3.8892   -0.7928   -1.2878 H   0  0  0  0  0  0  0  0  0  0  0  0
   -3.0111    0.7072   -1.0135 H   0  0  0  0  0  0  0  0  0  0  0  0
    0.3263    0.0050    2.4352 H   0  0  0  0  0  0  0  0  0  0  0  0
    3.0185    2.0490    0.7765 H   0  0  0  0  0  0  0  0  0  0  0  0
    4.9516    3.1087    1.8952 H   0  0  0  0  0  0  0  0  0  0  0  0
    6.2436    1.8564    3.6059 H   0  0  0  0  0  0  0  0  0  0  0  0
    5.5902   -0.4623    4.2021 H   0  0  0  0  0  0  0  0  0  0  0  0
    3.6555   -1.5325    3.0931 H   0  0  0  0  0  0  0  0  0  0  0  0
    4.1270   -1.7320   -0.0747 H   0  0  0  0  0  0  0  0  0  0  0  0
    3.1099   -2.3685   -1.3653 H   0  0  0  0  0  0  0  0  0  0  0  0
    1.8970   -0.4081   -2.8610 H   0  0  0  0  0  0  0  0  0  0  0  0
    2.5490    1.4510   -4.3485 H   0  0  0  0  0  0  0  0  0  0  0  0
    4.7280    2.5968   -4.0371 H   0  0  0  0  0  0  0  0  0  0  0  0
    6.2615    1.8717   -2.2269 H   0  0  0  0  0  0  0  0  0  0  0  0
    5.6292    0.0188   -0.7283 H   0  0  0  0  0  0  0  0  0  0  0  0
  1  2  2  0
  2  3  1  0
  3  4  1  0
  4  5  1  0
  5  6  1  0
  6  7  1  0
  7  8  1  0
  8  9  1  0
  9 10  1  0
  2 11  1  0
 11 12  1  0
 12 13  2  0
 13 14  1  0
 14 15  2  0
 15 16  1  0
 16 17  2  0
 17 18  1  0
 18 19  2  0
 13 20  1  0
 20 21  1  0
 21 22  1  0
 22 23  2  0
 23 24  1  0
 24 25  2  0
 25 26  1  0
 26 27  2  0
 20 28  1  0
 10  5  1  0
 28 11  2  0
 19 14  1  0
 27 22  1  0
  3 29  1  0
  4 30  1  0
  4 31  1  0
  5 32  1  0
  6 33  1  0
  6 34  1  0
  7 35  1  0
  7 36  1  0
  8 37  1  0
  8 38  1  0
  9 39  1  0
  9 40  1  0
 10 41  1  0
 10 42  1  0
 12 43  1  0
 15 44  1  0
 16 45  1  0
 17 46  1  0
 18 47  1  0
 19 48  1  0
 21 49  1  0
 21 50  1  0
 23 51  1  0
 24 52  1  0
 25 53  1  0
 26 54  1  0
 27 55  1  0
M  END
>  <_SMILES>  (11) 
O=C(NCC1CCCCC1)c1cc(-c2ccccc2)n(Cc2ccccc2)n1

$$$$

     RDKit          3D

 51 53  0  0  0  0  0  0  0  0999 V2000
    6.3179    1.0234    0.9671 C   0  0  0  0  0  0  0  0  0  0  0  0
    4.8315    0.8791    0.5912 C   0  0  0  0  0  0  0  0  0  0  0  0
    4.7367    0.1887   -0.7796 C   0  0  0  0  0  0  0  0  0  0  0  0
    4.2088    2.2828    0.4966 C   0  0  0  0  0  0  0  0  0  0  0  0
    4.1322    0.0416    1.6895 C   0  0  0  0  0  0  0  0  0  0  0  0
    2.7151   -0.1341    1.4747 N   0  0  0  0  0  0  0  0  0  0  0  0
    2.1528   -1.2716    0.9393 C   0  0  0  0  0  0  0  0  0  0  0  0
    2.7901   -2.2725    0.6277 O   0  0  0  0  0  0  0  0  0  0  0  0
    0.6952   -1.1639    0.7680 C   0  0  0  0  0  0  0  0  0  0  0  0
   -0.1767   -2.1520    0.2510 C   0  0  0  0  0  0  0  0  0  0  0  0
   -1.4398   -1.5990    0.2781 C   0  0  0  0  0  0  0  0  0  0  0  0
   -2.7128   -2.1682   -0.1341 C   0  0  0  0  0  0  0  0  0  0  0  0
   -3.4873   -2.8950    0.7763 C   0  0  0  0  0  0  0  0  0  0  0  0
   -4.7138   -3.4331    0.3820 C   0  0  0  0  0  0  0  0  0  0  0  0
   -5.1686   -3.2508   -0.9235 C   0  0  0  0  0  0  0  0  0  0  0  0
   -4.3966   -2.5348   -1.8375 C   0  0  0  0  0  0  0  0  0  0  0  0
   -3.1694   -1.9975   -1.4451 C   0  0  0  0  0  0  0  0  0  0  0  0
   -1.2686   -0.3293    0.7801 N   0  0  0  0  0  0  0  0  0  0  0  0
   -2.3012    0.6714    1.0373 C   0  0  0  0  0  0  0  0  0  0  0  0
   -2.6841    1.4346   -0.2074 C   0  0  0  0  0  0  0  0  0  0  0  0
   -1.7453    2.2344   -0.8772 C   0  0  0  0  0  0  0  0  0  0  0  0
   -2.1060    2.9426   -2.0242 C   0  0  0  0  0  0  0  0  0  0  0  0
   -3.4087    2.8643   -2.5120 C   0  0  0  0  0  0  0  0  0  0  0  0
   -4.3524    2.0791   -1.8531 C   0  0  0  0  0  0  0  0  0  0  0  0
   -3.9941    1.3702   -0.7053 C   0  0  0  0  0  0  0  0  0  0  0  0
    0.0167   -0.0483    1.1083 N   0  0  0  0  0  0  0  0  0  0  0  0
    6.8054    0.0444    1.0353 H   0  0  0  0  0  0  0  0  0  0  0  0
    6.4345    1.5230    1.9355 H   0  0  0  0  0  0  0  0  0  0  0  0
    6.8612    1.6143    0.2209 H   0  0  0  0  0  0  0  0  0  0  0  0
    5.1423   -0.8283   -0.7386 H   0  0  0  0  0  0  0  0  0  0  0  0
    5.3023    0.7412   -1.5386 H   0  0  0  0  0  0  0  0  0  0  0  0
    3.7010    0.1251   -1.1298 H   0  0  0  0  0  0  0  0  0  0  0  0
    4.7461    2.9042   -0.2289 H   0  0  0  0  0  0  0  0  0  0  0  0
    3.1619    2.2396    0.1771 H   0  0  0  0  0  0  0  0  0  0  0  0
    4.2435    2.7961    1.4640 H   0  0  0  0  0  0  0  0  0  0  0  0
    4.2357    0.5352    2.6629 H   0  0  0  0  0  0  0  0  0  0  0  0
    4.6056   -0.9440    1.7725 H   0  0  0  0  0  0  0  0  0  0  0  0
    2.0606    0.6207    1.6643 H   0  0  0  0  0  0  0  0  0  0  0  0
    0.0942   -3.1404   -0.0951 H   0  0  0  0  0  0  0  0  0  0  0  0
   -3.1381   -3.0500    1.7946 H   0  0  0  0  0  0  0  0  0  0  0  0
   -5.3114   -3.9995    1.0917 H   0  0  0  0  0  0  0  0  0  0  0  0
   -6.1219   -3.6730   -1.2312 H   0  0  0  0  0  0  0  0  0  0  0  0
   -4.7470   -2.3960   -2.8570 H   0  0  0  0  0  0  0  0  0  0  0  0
   -2.5751   -1.4390   -2.1656 H   0  0  0  0  0  0  0  0  0  0  0  0
   -1.9207    1.3642    1.7975 H   0  0  0  0  0  0  0  0  0  0  0  0
   -3.1590    0.1519    1.4784 H   0  0  0  0  0  0  0  0  0  0  0  0
   -0.7223    2.3047   -0.5105 H   0  0  0  0  0  0  0  0  0  0  0  0
   -1.3688    3.5545   -2.5377 H   0  0  0  0  0  0  0  0  0  0  0  0
   -3.6882    3.4154   -3.4062 H   0  0  0  0  0  0  0  0  0  0  0  0
   -5.3685    2.0170   -2.2341 H   0  0  0  0  0  0  0  0  0  0  0  0
   -4.7447    0.7573   -0.2096 H   0  0  0  0  0  0  0  0  0  0  0  0
  1  2  1  0
  2  3  1  0
  2  4  1  0
  2  5  1  0
  5  6  1  0
  6  7  1  0
  7  8  2  0
  7  9  1  0
  9 10  1  0
 10 11  2  0
 11 12  1  0
 12 13  2  0
 13 14  1  0
 14 15  2  0
 15 16  1  0
 16 17  2  0
 11 18  1  0
 18 19  1  0
 19 20  1  0
 20 21  2  0
 21 22  1  0
 22 23  2  0
 23 24  1  0
 24 25  2  0
 18 26  1  0
 26  9  2  0
 17 12  1  0
 25 20  1  0
  1 27  1  0
  1 28  1  0
  1 29  1  0
  3 30  1  0
  3 31  1  0
  3 32  1  0
  4 33  1  0
  4 34  1  0
  4 35  1  0
  5 36  1  0
  5 37  1  0
  6 38  1  0
 10 39  1  0
 13 40  1  0
 14 41  1  0
 15 42  1  0
 16 43  1  0
 17 44  1  0
 19 45  1  0
 19 46  1  0
 21 47  1  0
 22 48  1  0
 23 49  1  0
 24 50  1  0
 25 51  1  0
M  END
>  <_SMILES>  (12) 
CC(C)(C)CNC(=O)c1cc(-c2ccccc2)n(Cc2ccccc2)n1

$$$$

     RDKit          3D

 48 50  0  0  0  0  0  0  0  0999 V2000
    7.4756    0.7775   -0.9589 C   0  0  0  0  0  0  0  0  0  0  0  0
    6.5137    0.6160   -2.1258 C   0  0  0  0  0  0  0  0  0  0  0  0
    5.0525    0.8638   -1.7490 C   0  0  0  0  0  0  0  0  0  0  0  0
    4.5007   -0.1611   -0.7627 C   0  0  0  0  0  0  0  0  0  0  0  0
    3.0899    0.0582   -0.5181 N   0  0  0  0  0  0  0  0  0  0  0  0
    2.3310   -0.9182    0.1139 C   0  0  0  0  0  0  0  0  0  0  0  0
    2.7890   -2.0292    0.3724 O   0  0  0  0  0  0  0  0  0  0  0  0
    0.9552   -0.5030    0.4621 C   0  0  0  0  0  0  0  0  0  0  0  0
    0.2230    0.6182   -0.0188 C   0  0  0  0  0  0  0  0  0  0  0  0
   -1.0086    0.5750    0.6022 C   0  0  0  0  0  0  0  0  0  0  0  0
   -2.1493    1.4675    0.4728 C   0  0  0  0  0  0  0  0  0  0  0  0
   -3.0257    1.3354   -0.6094 C   0  0  0  0  0  0  0  0  0  0  0  0
   -4.1266    2.1851   -0.7299 C   0  0  0  0  0  0  0  0  0  0  0  0
   -4.3523    3.1741    0.2265 C   0  0  0  0  0  0  0  0  0  0  0  0
   -3.4776    3.3161    1.3032 C   0  0  0  0  0  0  0  0  0  0  0  0
   -2.3770    2.4659    1.4261 C   0  0  0  0  0  0  0  0  0  0  0  0
   -0.9793   -0.5624    1.3735 N   0  0  0  0  0  0  0  0  0  0  0  0
   -2.0442   -1.0990    2.2160 C   0  0  0  0  0  0  0  0  0  0  0  0
   -3.0805   -1.8483    1.4143 C   0  0  0  0  0  0  0  0  0  0  0  0
   -4.3973   -1.3730    1.3270 C   0  0  0  0  0  0  0  0  0  0  0  0
   -5.3537   -2.0684    0.5852 C   0  0  0  0  0  0  0  0  0  0  0  0
   -5.0066   -3.2468   -0.0726 C   0  0  0  0  0  0  0  0  0  0  0  0
   -3.7029   -3.7316    0.0097 C   0  0  0  0  0  0  0  0  0  0  0  0
   -2.7448   -3.0380    0.7499 C   0  0  0  0  0  0  0  0  0  0  0  0
    0.2081   -1.2032    1.3342 N   0  0  0  0  0  0  0  0  0  0  0  0
    7.3109    0.0125   -0.1946 H   0  0  0  0  0  0  0  0  0  0  0  0
    7.3669    1.7621   -0.4933 H   0  0  0  0  0  0  0  0  0  0  0  0
    8.5087    0.6799   -1.3078 H   0  0  0  0  0  0  0  0  0  0  0  0
    6.7957    1.3274   -2.9112 H   0  0  0  0  0  0  0  0  0  0  0  0
    6.6238   -0.3875   -2.5531 H   0  0  0  0  0  0  0  0  0  0  0  0
    4.9421    1.8741   -1.3354 H   0  0  0  0  0  0  0  0  0  0  0  0
    4.4490    0.8401   -2.6654 H   0  0  0  0  0  0  0  0  0  0  0  0
    4.6401   -1.1781   -1.1461 H   0  0  0  0  0  0  0  0  0  0  0  0
    5.0081   -0.0930    0.2052 H   0  0  0  0  0  0  0  0  0  0  0  0
    2.7689    1.0121   -0.4367 H   0  0  0  0  0  0  0  0  0  0  0  0
    0.5406    1.3607   -0.7367 H   0  0  0  0  0  0  0  0  0  0  0  0
   -2.8636    0.5605   -1.3560 H   0  0  0  0  0  0  0  0  0  0  0  0
   -4.8077    2.0727   -1.5695 H   0  0  0  0  0  0  0  0  0  0  0  0
   -5.2090    3.8366    0.1307 H   0  0  0  0  0  0  0  0  0  0  0  0
   -3.6510    4.0912    2.0454 H   0  0  0  0  0  0  0  0  0  0  0  0
   -1.6982    2.5896    2.2667 H   0  0  0  0  0  0  0  0  0  0  0  0
   -2.4823   -0.2602    2.7678 H   0  0  0  0  0  0  0  0  0  0  0  0
   -1.5895   -1.7667    2.9577 H   0  0  0  0  0  0  0  0  0  0  0  0
   -4.6868   -0.4509    1.8273 H   0  0  0  0  0  0  0  0  0  0  0  0
   -6.3702   -1.6892    0.5195 H   0  0  0  0  0  0  0  0  0  0  0  0
   -5.7515   -3.7878   -0.6499 H   0  0  0  0  0  0  0  0  0  0  0  0
   -3.4293   -4.6501   -0.5032 H   0  0  0  0  0  0  0  0  0  0  0  0
   -1.7280   -3.4269    0.8019 H   0  0  0  0  0  0  0  0  0  0  0  0
  1  2  1  0
  2  3  1  0
  3  4  1  0
  4  5  1  0
  5  6  1  0
  6  7  2  0
  6  8  1  0
  8  9  1  0
  9 10  2  0
 10 11  1  0
 11 12  2  0
 12 13  1  0
 13 14  2  0
 14 15  1  0
 15 16  2  0
 10 17  1  0
 17 18  1  0
 18 19  1  0
 19 20  2  0
 20 21  1  0
 21 22  2  0
 22 23  1  0
 23 24  2  0
 17 25  1  0
 25  8  2  0
 16 11  1  0
 24 19  1  0
  1 26  1  0
  1 27  1  0
  1 28  1  0
  2 29  1  0
  2 30  1  0
  3 31  1  0
  3 32  1  0
  4 33  1  0
  4 34  1  0
  5 35  1  0
  9 36  1  0
 12 37  1  0
 13 38  1  0
 14 39  1  0
 15 40  1  0
 16 41  1  0
 18 42  1  0
 18 43  1  0
 20 44  1  0
 21 45  1  0
 22 46  1  0
 23 47  1  0
 24 48  1  0
M  END
>  <_SMILES>  (13) 
CCCCNC(=O)c1cc(-c2ccccc2)n(Cc2ccccc2)n1

$$$$

     RDKit          3D

 48 50  0  0  0  0  0  0  0  0999 V2000
    5.2100    0.0326   -2.2238 C   0  0  0  0  0  0  0  0  0  0  0  0
    5.5657    0.1544   -0.7405 C   0  0  0  0  0  0  0  0  0  0  0  0
    7.0146    0.6172   -0.5861 C   0  0  0  0  0  0  0  0  0  0  0  0
    4.6228    1.1228   -0.0147 C   0  0  0  0  0  0  0  0  0  0  0  0
    3.2626    0.6265    0.0321 N   0  0  0  0  0  0  0  0  0  0  0  0
    2.2179    1.4756    0.3713 C   0  0  0  0  0  0  0  0  0  0  0  0
    2.3874    2.6828    0.5281 O   0  0  0  0  0  0  0  0  0  0  0  0
    0.9104    0.8072    0.5445 C   0  0  0  0  0  0  0  0  0  0  0  0
    0.5222   -0.4951    0.1227 C   0  0  0  0  0  0  0  0  0  0  0  0
   -0.7904   -0.6572    0.5161 C   0  0  0  0  0  0  0  0  0  0  0  0
   -1.6848   -1.7893    0.3343 C   0  0  0  0  0  0  0  0  0  0  0  0
   -2.3408   -1.9775   -0.8868 C   0  0  0  0  0  0  0  0  0  0  0  0
   -3.2070   -3.0583   -1.0598 C   0  0  0  0  0  0  0  0  0  0  0  0
   -3.4158   -3.9589   -0.0161 C   0  0  0  0  0  0  0  0  0  0  0  0
   -2.7583   -3.7813    1.2007 C   0  0  0  0  0  0  0  0  0  0  0  0
   -1.8930   -2.6998    1.3760 C   0  0  0  0  0  0  0  0  0  0  0  0
   -1.1374    0.5373    1.1011 N   0  0  0  0  0  0  0  0  0  0  0  0
   -2.4309    0.9150    1.6633 C   0  0  0  0  0  0  0  0  0  0  0  0
   -3.4180    1.3209    0.5960 C   0  0  0  0  0  0  0  0  0  0  0  0
   -4.5720    0.5583    0.3629 C   0  0  0  0  0  0  0  0  0  0  0  0
   -5.4834    0.9364   -0.6245 C   0  0  0  0  0  0  0  0  0  0  0  0
   -5.2544    2.0811   -1.3854 C   0  0  0  0  0  0  0  0  0  0  0  0
   -4.1140    2.8495   -1.1607 C   0  0  0  0  0  0  0  0  0  0  0  0
   -3.2010    2.4734   -0.1748 C   0  0  0  0  0  0  0  0  0  0  0  0
   -0.1157    1.4172    1.1641 N   0  0  0  0  0  0  0  0  0  0  0  0
    5.2692    1.0035   -2.7275 H   0  0  0  0  0  0  0  0  0  0  0  0
    4.1956   -0.3572   -2.3570 H   0  0  0  0  0  0  0  0  0  0  0  0
    5.8962   -0.6537   -2.7315 H   0  0  0  0  0  0  0  0  0  0  0  0
    5.4752   -0.8406   -0.2859 H   0  0  0  0  0  0  0  0  0  0  0  0
    7.1649    1.6086   -1.0270 H   0  0  0  0  0  0  0  0  0  0  0  0
    7.2953    0.6703    0.4712 H   0  0  0  0  0  0  0  0  0  0  0  0
    7.7005   -0.0803   -1.0784 H   0  0  0  0  0  0  0  0  0  0  0  0
    4.6305    2.1087   -0.4946 H   0  0  0  0  0  0  0  0  0  0  0  0
    4.9430    1.2611    1.0248 H   0  0  0  0  0  0  0  0  0  0  0  0
    3.1268   -0.3595    0.2019 H   0  0  0  0  0  0  0  0  0  0  0  0
    1.1141   -1.2239   -0.4122 H   0  0  0  0  0  0  0  0  0  0  0  0
   -2.1920   -1.2748   -1.7042 H   0  0  0  0  0  0  0  0  0  0  0  0
   -3.7191   -3.1949   -2.0088 H   0  0  0  0  0  0  0  0  0  0  0  0
   -4.0892   -4.8014   -0.1527 H   0  0  0  0  0  0  0  0  0  0  0  0
   -2.9171   -4.4871    2.0120 H   0  0  0  0  0  0  0  0  0  0  0  0
   -1.3810   -2.5745    2.3272 H   0  0  0  0  0  0  0  0  0  0  0  0
   -2.7937    0.0672    2.2545 H   0  0  0  0  0  0  0  0  0  0  0  0
   -2.2708    1.7458    2.3610 H   0  0  0  0  0  0  0  0  0  0  0  0
   -4.7654   -0.3430    0.9412 H   0  0  0  0  0  0  0  0  0  0  0  0
   -6.3720    0.3360   -0.8010 H   0  0  0  0  0  0  0  0  0  0  0  0
   -5.9642    2.3751   -2.1540 H   0  0  0  0  0  0  0  0  0  0  0  0
   -3.9325    3.7424   -1.7535 H   0  0  0  0  0  0  0  0  0  0  0  0
   -2.3112    3.0816   -0.0131 H   0  0  0  0  0  0  0  0  0  0  0  0
  1  2  1  0
  2  3  1  0
  2  4  1  0
  4  5  1  0
  5  6  1  0
  6  7  2  0
  6  8  1  0
  8  9  1  0
  9 10  2  0
 10 11  1  0
 11 12  2  0
 12 13  1  0
 13 14  2  0
 14 15  1  0
 15 16  2  0
 10 17  1  0
 17 18  1  0
 18 19  1  0
 19 20  2  0
 20 21  1  0
 21 22  2  0
 22 23  1  0
 23 24  2  0
 17 25  1  0
 25  8  2  0
 16 11  1  0
 24 19  1  0
  1 26  1  0
  1 27  1  0
  1 28  1  0
  2 29  1  0
  3 30  1  0
  3 31  1  0
  3 32  1  0
  4 33  1  0
  4 34  1  0
  5 35  1  0
  9 36  1  0
 12 37  1  0
 13 38  1  0
 14 39  1  0
 15 40  1  0
 16 41  1  0
 18 42  1  0
 18 43  1  0
 20 44  1  0
 21 45  1  0
 22 46  1  0
 23 47  1  0
 24 48  1  0
M  END
>  <_SMILES>  (14) 
CC(C)CNC(=O)c1cc(-c2ccccc2)n(Cc2ccccc2)n1

$$$$

     RDKit          3D

 55 58  0  0  0  0  0  0  0  0999 V2000
   -1.4242   -1.6475   -2.1994 O   0  0  0  0  0  0  0  0  0  0  0  0
   -1.2815   -0.9279   -1.2134 C   0  0  0  0  0  0  0  0  0  0  0  0
   -2.3555   -0.5478   -0.4203 N   0  0  0  0  0  0  0  0  0  0  0  0
   -3.7323   -0.8779   -0.7840 C   0  0  0  0  0  0  0  0  0  0  0  0
   -4.2220    0.0864   -1.8748 C   0  0  0  0  0  0  0  0  0  0  0  0
   -5.7361    0.1508   -2.0573 C   0  0  0  0  0  0  0  0  0  0  0  0
   -6.3999    1.1638   -1.1260 C   0  0  0  0  0  0  0  0  0  0  0  0
   -6.4768    0.7486    0.3391 C   0  0  0  0  0  0  0  0  0  0  0  0
   -5.1417    0.3790    0.9829 C   0  0  0  0  0  0  0  0  0  0  0  0
   -4.5955   -0.9572    0.4819 C   0  0  0  0  0  0  0  0  0  0  0  0
    0.0266   -0.3869   -0.7848 C   0  0  0  0  0  0  0  0  0  0  0  0
    0.3714    0.2150    0.4577 C   0  0  0  0  0  0  0  0  0  0  0  0
    1.7057    0.5556    0.3693 C   0  0  0  0  0  0  0  0  0  0  0  0
    2.5728    1.1886    1.3500 C   0  0  0  0  0  0  0  0  0  0  0  0
    3.1543    0.4273    2.3692 C   0  0  0  0  0  0  0  0  0  0  0  0
    3.9944    1.0319    3.3058 C   0  0  0  0  0  0  0  0  0  0  0  0
    4.2511    2.4003    3.2318 C   0  0  0  0  0  0  0  0  0  0  0  0
    3.6678    3.1661    2.2229 C   0  0  0  0  0  0  0  0  0  0  0  0
    2.8287    2.5626    1.2843 C   0  0  0  0  0  0  0  0  0  0  0  0
    2.1042    0.1174   -0.8709 N   0  0  0  0  0  0  0  0  0  0  0  0
    3.4357    0.2023   -1.4639 C   0  0  0  0  0  0  0  0  0  0  0  0
    4.3560   -0.8794   -0.9529 C   0  0  0  0  0  0  0  0  0  0  0  0
    5.4856   -0.5536   -0.1877 C   0  0  0  0  0  0  0  0  0  0  0  0
    6.3354   -1.5559    0.2832 C   0  0  0  0  0  0  0  0  0  0  0  0
    6.0689   -2.8922   -0.0089 C   0  0  0  0  0  0  0  0  0  0  0  0
    4.9525   -3.2285   -0.7717 C   0  0  0  0  0  0  0  0  0  0  0  0
    4.1010   -2.2285   -1.2429 C   0  0  0  0  0  0  0  0  0  0  0  0
    1.0992   -0.4175   -1.5959 N   0  0  0  0  0  0  0  0  0  0  0  0
   -2.2135    0.2132    0.2274 H   0  0  0  0  0  0  0  0  0  0  0  0
   -3.7112   -1.8879   -1.2146 H   0  0  0  0  0  0  0  0  0  0  0  0
   -3.8299    1.0965   -1.6958 H   0  0  0  0  0  0  0  0  0  0  0  0
   -3.7742   -0.2294   -2.8267 H   0  0  0  0  0  0  0  0  0  0  0  0
   -6.1930   -0.8399   -1.9551 H   0  0  0  0  0  0  0  0  0  0  0  0
   -5.9337    0.4784   -3.0861 H   0  0  0  0  0  0  0  0  0  0  0  0
   -7.4237    1.3386   -1.4803 H   0  0  0  0  0  0  0  0  0  0  0  0
   -5.8840    2.1290   -1.2032 H   0  0  0  0  0  0  0  0  0  0  0  0
   -6.9136    1.5819    0.9038 H   0  0  0  0  0  0  0  0  0  0  0  0
   -7.1792   -0.0879    0.4425 H   0  0  0  0  0  0  0  0  0  0  0  0
   -4.4097    1.1848    0.8584 H   0  0  0  0  0  0  0  0  0  0  0  0
   -5.3177    0.2839    2.0621 H   0  0  0  0  0  0  0  0  0  0  0  0
   -4.0017   -1.4135    1.2855 H   0  0  0  0  0  0  0  0  0  0  0  0
   -5.4304   -1.6475    0.3057 H   0  0  0  0  0  0  0  0  0  0  0  0
   -0.2617    0.3736    1.3187 H   0  0  0  0  0  0  0  0  0  0  0  0
    2.9678   -0.6430    2.4300 H   0  0  0  0  0  0  0  0  0  0  0  0
    4.4487    0.4335    4.0913 H   0  0  0  0  0  0  0  0  0  0  0  0
    4.9040    2.8705    3.9629 H   0  0  0  0  0  0  0  0  0  0  0  0
    3.8639    4.2339    2.1691 H   0  0  0  0  0  0  0  0  0  0  0  0
    2.3746    3.1704    0.5052 H   0  0  0  0  0  0  0  0  0  0  0  0
    3.3308    0.1214   -2.5526 H   0  0  0  0  0  0  0  0  0  0  0  0
    3.8265    1.2040   -1.2545 H   0  0  0  0  0  0  0  0  0  0  0  0
    5.7073    0.4833    0.0574 H   0  0  0  0  0  0  0  0  0  0  0  0
    7.2054   -1.2937    0.8795 H   0  0  0  0  0  0  0  0  0  0  0  0
    6.7308   -3.6722    0.3577 H   0  0  0  0  0  0  0  0  0  0  0  0
    4.7419   -4.2702   -1.0003 H   0  0  0  0  0  0  0  0  0  0  0  0
    3.2293   -2.5068   -1.8350 H   0  0  0  0  0  0  0  0  0  0  0  0
  1  2  2  0
  2  3  1  0
  3  4  1  0
  4  5  1  0
  5  6  1  0
  6  7  1  0
  7  8  1  0
  8  9  1  0
  9 10  1  0
  2 11  1  0
 11 12  1  0
 12 13  2  0
 13 14  1  0
 14 15  2  0
 15 16  1  0
 16 17  2  0
 17 18  1  0
 18 19  2  0
 13 20  1  0
 20 21  1  0
 21 22  1  0
 22 23  2  0
 23 24  1  0
 24 25  2  0
 25 26  1  0
 26 27  2  0
 20 28  1  0
 10  4  1  0
 28 11  2  0
 19 14  1  0
 27 22  1  0
  3 29  1  0
  4 30  1  0
  5 31  1  0
  5 32  1  0
  6 33  1  0
  6 34  1  0
  7 35  1  0
  7 36  1  0
  8 37  1  0
  8 38  1  0
  9 39  1  0
  9 40  1  0
 10 41  1  0
 10 42  1  0
 12 43  1  0
 15 44  1  0
 16 45  1  0
 17 46  1  0
 18 47  1  0
 19 48  1  0
 21 49  1  0
 21 50  1  0
 23 51  1  0
 24 52  1  0
 25 53  1  0
 26 54  1  0
 27 55  1  0
M  END
>  <_SMILES>  (15) 
O=C(NC1CCCCCC1)c1cc(-c2ccccc2)n(Cc2ccccc2)n1

$$$$

     RDKit          3D

 59 63  0  0  0  0  0  0  0  0999 V2000
   -4.5985    1.3889    1.5376 C   0  0  0  0  0  0  0  0  0  0  0  0
   -4.1915    2.4429    0.5061 C   0  0  0  0  0  0  0  0  0  0  0  0
   -5.3288    3.4482    0.3155 C   0  0  0  0  0  0  0  0  0  0  0  0
   -3.8231    1.8120   -0.8477 C   0  0  0  0  0  0  0  0  0  0  0  0
   -2.6294    0.9826   -0.8013 N   0  0  0  0  0  0  0  0  0  0  0  0
   -1.4381    1.5883   -0.6413 N   0  0  0  0  0  0  0  0  0  0  0  0
   -0.5359    0.5916   -0.6130 C   0  0  0  0  0  0  0  0  0  0  0  0
    0.9102    0.8604   -0.4431 C   0  0  0  0  0  0  0  0  0  0  0  0
    1.4024    1.9755   -0.5897 O   0  0  0  0  0  0  0  0  0  0  0  0
    1.6626   -0.2500   -0.0876 N   0  0  0  0  0  0  0  0  0  0  0  0
    3.0970   -0.2219    0.2152 C   0  0  2  0  0  0  0  0  0  0  0  0
    3.5523   -1.6716    0.5398 C   0  0  0  0  0  0  0  0  0  0  0  0
    5.0512   -1.7193    0.8755 C   0  0  1  0  0  0  0  0  0  0  0  0
    5.8535   -1.2034   -0.3287 C   0  0  0  0  0  0  0  0  0  0  0  0
    5.4387    0.2396   -0.6546 C   0  0  2  0  0  0  0  0  0  0  0  0
    5.7055    1.1335    0.5685 C   0  0  0  0  0  0  0  0  0  0  0  0
    4.9067    0.6250    1.7809 C   0  0  2  0  0  0  0  0  0  0  0  0
    5.3240   -0.8210    2.0921 C   0  0  0  0  0  0  0  0  0  0  0  0
    3.4042    0.6612    1.4498 C   0  0  0  0  0  0  0  0  0  0  0  0
    3.9367    0.2748   -0.9893 C   0  0  0  0  0  0  0  0  0  0  0  0
   -1.1914   -0.6606   -0.7763 C   0  0  0  0  0  0  0  0  0  0  0  0
   -2.5372   -0.3831   -0.9104 C   0  0  0  0  0  0  0  0  0  0  0  0
   -3.6543   -1.2926   -1.1157 C   0  0  0  0  0  0  0  0  0  0  0  0
   -4.2499   -1.4092   -2.3769 C   0  0  0  0  0  0  0  0  0  0  0  0
   -5.3207   -2.2836   -2.5709 C   0  0  0  0  0  0  0  0  0  0  0  0
   -5.7978   -3.0488   -1.5075 C   0  0  0  0  0  0  0  0  0  0  0  0
   -5.2030   -2.9442   -0.2508 C   0  0  0  0  0  0  0  0  0  0  0  0
   -4.1313   -2.0710   -0.0556 C   0  0  0  0  0  0  0  0  0  0  0  0
   -4.8956    1.8629    2.4793 H   0  0  0  0  0  0  0  0  0  0  0  0
   -3.7680    0.7123    1.7615 H   0  0  0  0  0  0  0  0  0  0  0  0
   -5.4428    0.7890    1.1814 H   0  0  0  0  0  0  0  0  0  0  0  0
   -3.3244    2.9870    0.9017 H   0  0  0  0  0  0  0  0  0  0  0  0
   -5.0387    4.2346   -0.3893 H   0  0  0  0  0  0  0  0  0  0  0  0
   -5.5857    3.9302    1.2647 H   0  0  0  0  0  0  0  0  0  0  0  0
   -6.2300    2.9606   -0.0720 H   0  0  0  0  0  0  0  0  0  0  0  0
   -3.6196    2.5928   -1.5915 H   0  0  0  0  0  0  0  0  0  0  0  0
   -4.6549    1.2151   -1.2341 H   0  0  0  0  0  0  0  0  0  0  0  0
    1.1507   -1.0688    0.2059 H   0  0  0  0  0  0  0  0  0  0  0  0
    2.9736   -2.0686    1.3848 H   0  0  0  0  0  0  0  0  0  0  0  0
    3.3417   -2.3325   -0.3118 H   0  0  0  0  0  0  0  0  0  0  0  0
    5.3472   -2.7495    1.1029 H   0  0  0  0  0  0  0  0  0  0  0  0
    6.9275   -1.2445   -0.1093 H   0  0  0  0  0  0  0  0  0  0  0  0
    5.6814   -1.8488   -1.1988 H   0  0  0  0  0  0  0  0  0  0  0  0
    6.0158    0.6044   -1.5117 H   0  0  0  0  0  0  0  0  0  0  0  0
    6.7773    1.1367    0.8021 H   0  0  0  0  0  0  0  0  0  0  0  0
    5.4258    2.1700    0.3435 H   0  0  0  0  0  0  0  0  0  0  0  0
    5.1080    1.2620    2.6494 H   0  0  0  0  0  0  0  0  0  0  0  0
    6.3890   -0.8560    2.3526 H   0  0  0  0  0  0  0  0  0  0  0  0
    4.7707   -1.1915    2.9638 H   0  0  0  0  0  0  0  0  0  0  0  0
    3.1020    1.7002    1.2731 H   0  0  0  0  0  0  0  0  0  0  0  0
    2.8228    0.3157    2.3148 H   0  0  0  0  0  0  0  0  0  0  0  0
    3.6625    1.2985   -1.2677 H   0  0  0  0  0  0  0  0  0  0  0  0
    3.7353   -0.3472   -1.8713 H   0  0  0  0  0  0  0  0  0  0  0  0
   -0.7454   -1.6436   -0.8233 H   0  0  0  0  0  0  0  0  0  0  0  0
   -3.8803   -0.8238   -3.2160 H   0  0  0  0  0  0  0  0  0  0  0  0
   -5.7800   -2.3703   -3.5523 H   0  0  0  0  0  0  0  0  0  0  0  0
   -6.6312   -3.7303   -1.6593 H   0  0  0  0  0  0  0  0  0  0  0  0
   -5.5729   -3.5434    0.5773 H   0  0  0  0  0  0  0  0  0  0  0  0
   -3.6758   -1.9973    0.9292 H   0  0  0  0  0  0  0  0  0  0  0  0
  1  2  1  0
  2  3  1  0
  2  4  1  0
  4  5  1  0
  5  6  1  0
  6  7  2  0
  7  8  1  0
  8  9  2  0
  8 10  1  0
 11 10  1  6
 11 12  1  0
 12 13  1  0
 13 14  1  0
 14 15  1  0
 15 16  1  0
 16 17  1  0
 17 18  1  0
 17 19  1  0
 15 20  1  0
  7 21  1  0
 21 22  2  0
 22 23  1  0
 23 24  2  0
 24 25  1  0
 25 26  2  0
 26 27  1  0
 27 28  2  0
 22  5  1  0
 28 23  1  0
 19 11  1  0
 20 11  1  0
 18 13  1  0
  1 29  1  0
  1 30  1  0
  1 31  1  0
  2 32  1  0
  3 33  1  0
  3 34  1  0
  3 35  1  0
  4 36  1  0
  4 37  1  0
 10 38  1  0
 12 39  1  0
 12 40  1  0
 13 41  1  1
 14 42  1  0
 14 43  1  0
 15 44  1  6
 16 45  1  0
 16 46  1  0
 17 47  1  1
 18 48  1  0
 18 49  1  0
 19 50  1  0
 19 51  1  0
 20 52  1  0
 20 53  1  0
 21 54  1  0
 24 55  1  0
 25 56  1  0
 26 57  1  0
 27 58  1  0
 28 59  1  0
M  END
>  <_SMILES>  (16) 
CC(C)Cn1nc(C(=O)N[C@]23C[C@H]4C[C@H](C[C@H](C4)C2)C3)cc1-c1ccccc1

$$$$

     RDKit          3D

 60 65  0  0  0  0  0  0  0  0999 V2000
    1.2770    1.6854   -1.7457 O   0  0  0  0  0  0  0  0  0  0  0  0
    0.7502    0.8977   -0.9681 C   0  0  0  0  0  0  0  0  0  0  0  0
    1.4316    0.0989   -0.0760 N   0  0  0  0  0  0  0  0  0  0  0  0
    2.8774    0.0466    0.1079 C   0  0  2  0  0  0  0  0  0  0  0  0
    3.1954   -0.9914    1.2168 C   0  0  0  0  0  0  0  0  0  0  0  0
    4.7099   -1.0928    1.4583 C   0  0  1  0  0  0  0  0  0  0  0  0
    5.4004   -1.5226    0.1544 C   0  0  0  0  0  0  0  0  0  0  0  0
    5.1195   -0.4938   -0.9521 C   0  0  2  0  0  0  0  0  0  0  0  0
    5.6496    0.8816   -0.5125 C   0  0  0  0  0  0  0  0  0  0  0  0
    4.9630    1.3214    0.7918 C   0  0  2  0  0  0  0  0  0  0  0  0
    5.2448    0.2821    1.8884 C   0  0  0  0  0  0  0  0  0  0  0  0
    3.4448    1.4154    0.5581 C   0  0  0  0  0  0  0  0  0  0  0  0
    3.6013   -0.4001   -1.1862 C   0  0  0  0  0  0  0  0  0  0  0  0
   -0.7079    0.7084   -0.8949 C   0  0  0  0  0  0  0  0  0  0  0  0
   -1.6958    1.3690   -1.6603 C   0  0  0  0  0  0  0  0  0  0  0  0
   -2.9094    0.8738   -1.2283 C   0  0  0  0  0  0  0  0  0  0  0  0
   -4.2550    1.2135   -1.6712 C   0  0  0  0  0  0  0  0  0  0  0  0
   -5.1270    1.9127   -0.8286 C   0  0  0  0  0  0  0  0  0  0  0  0
   -6.4166    2.2321   -1.2583 C   0  0  0  0  0  0  0  0  0  0  0  0
   -6.8393    1.8596   -2.5335 C   0  0  0  0  0  0  0  0  0  0  0  0
   -5.9725    1.1725   -3.3821 C   0  0  0  0  0  0  0  0  0  0  0  0
   -4.6825    0.8529   -2.9539 C   0  0  0  0  0  0  0  0  0  0  0  0
   -2.5967   -0.0655   -0.2688 N   0  0  0  0  0  0  0  0  0  0  0  0
   -3.5282   -0.9203    0.4599 C   0  0  0  0  0  0  0  0  0  0  0  0
   -3.7966   -0.4254    1.8808 C   0  0  0  0  0  0  0  0  0  0  0  0
   -2.6939   -1.0515    2.7254 C   0  0  0  0  0  0  0  0  0  0  0  0
   -2.3301   -2.3629    2.0333 C   0  0  0  0  0  0  0  0  0  0  0  0
   -3.0355   -2.3554    0.6762 C   0  0  0  0  0  0  0  0  0  0  0  0
   -1.2681   -0.1662   -0.0362 N   0  0  0  0  0  0  0  0  0  0  0  0
    0.8239   -0.4901    0.4901 H   0  0  0  0  0  0  0  0  0  0  0  0
    2.7986   -1.9765    0.9367 H   0  0  0  0  0  0  0  0  0  0  0  0
    2.6896   -0.7127    2.1510 H   0  0  0  0  0  0  0  0  0  0  0  0
    4.9110   -1.8300    2.2436 H   0  0  0  0  0  0  0  0  0  0  0  0
    5.0395   -2.5118   -0.1529 H   0  0  0  0  0  0  0  0  0  0  0  0
    6.4816   -1.6142    0.3154 H   0  0  0  0  0  0  0  0  0  0  0  0
    5.6170   -0.8028   -1.8783 H   0  0  0  0  0  0  0  0  0  0  0  0
    5.4673    1.6228   -1.3004 H   0  0  0  0  0  0  0  0  0  0  0  0
    6.7356    0.8340   -0.3655 H   0  0  0  0  0  0  0  0  0  0  0  0
    5.3496    2.2988    1.1016 H   0  0  0  0  0  0  0  0  0  0  0  0
    4.7719    0.5914    2.8285 H   0  0  0  0  0  0  0  0  0  0  0  0
    6.3233    0.2217    2.0793 H   0  0  0  0  0  0  0  0  0  0  0  0
    3.2458    2.1877   -0.1945 H   0  0  0  0  0  0  0  0  0  0  0  0
    2.9452    1.7472    1.4778 H   0  0  0  0  0  0  0  0  0  0  0  0
    3.2141   -1.3721   -1.5191 H   0  0  0  0  0  0  0  0  0  0  0  0
    3.4084    0.3034   -2.0049 H   0  0  0  0  0  0  0  0  0  0  0  0
   -1.5326    2.1223   -2.4194 H   0  0  0  0  0  0  0  0  0  0  0  0
   -4.8044    2.2251    0.1616 H   0  0  0  0  0  0  0  0  0  0  0  0
   -7.0884    2.7783   -0.6011 H   0  0  0  0  0  0  0  0  0  0  0  0
   -7.8420    2.1116   -2.8693 H   0  0  0  0  0  0  0  0  0  0  0  0
   -6.2988    0.8884   -4.3793 H   0  0  0  0  0  0  0  0  0  0  0  0
   -4.0144    0.3189   -3.6260 H   0  0  0  0  0  0  0  0  0  0  0  0
   -4.4559   -0.9464   -0.1214 H   0  0  0  0  0  0  0  0  0  0  0  0
   -4.7689   -0.8018    2.2219 H   0  0  0  0  0  0  0  0  0  0  0  0
   -3.8077    0.6651    1.9722 H   0  0  0  0  0  0  0  0  0  0  0  0
   -1.8190   -0.3917    2.7570 H   0  0  0  0  0  0  0  0  0  0  0  0
   -3.0163   -1.2106    3.7592 H   0  0  0  0  0  0  0  0  0  0  0  0
   -1.2440   -2.4413    1.9125 H   0  0  0  0  0  0  0  0  0  0  0  0
   -2.6517   -3.2257    2.6268 H   0  0  0  0  0  0  0  0  0  0  0  0
   -2.3876   -2.7228   -0.1264 H   0  0  0  0  0  0  0  0  0  0  0  0
   -3.9003   -3.0291    0.7284 H   0  0  0  0  0  0  0  0  0  0  0  0
  1  2  2  0
  2  3  1  0
  4  3  1  6
  4  5  1  0
  5  6  1  0
  6  7  1  0
  7  8  1  0
  8  9  1  0
  9 10  1  0
 10 11  1  0
 10 12  1  0
  8 13  1  0
  2 14  1  0
 14 15  1  0
 15 16  2  0
 16 17  1  0
 17 18  2  0
 18 19  1  0
 19 20  2  0
 20 21  1  0
 21 22  2  0
 16 23  1  0
 23 24  1  0
 24 25  1  0
 25 26  1  0
 26 27  1  0
 27 28  1  0
 23 29  1  0
 12  4  1  0
 29 14  2  0
 13  4  1  0
 22 17  1  0
 28 24  1  0
 11  6  1  0
  3 30  1  0
  5 31  1  0
  5 32  1  0
  6 33  1  1
  7 34  1  0
  7 35  1  0
  8 36  1  6
  9 37  1  0
  9 38  1  0
 10 39  1  1
 11 40  1  0
 11 41  1  0
 12 42  1  0
 12 43  1  0
 13 44  1  0
 13 45  1  0
 15 46  1  0
 18 47  1  0
 19 48  1  0
 20 49  1  0
 21 50  1  0
 22 51  1  0
 24 52  1  0
 25 53  1  0
 25 54  1  0
 26 55  1  0
 26 56  1  0
 27 57  1  0
 27 58  1  0
 28 59  1  0
 28 60  1  0
M  END
>  <_SMILES>  (17) 
O=C(N[C@]12C[C@H]3C[C@H](C[C@H](C3)C1)C2)c1cc(-c2ccccc2)n(C2CCCC2)n1

$$$$

     RDKit          3D

 57 62  0  0  0  0  0  0  0  0999 V2000
    0.8704   -1.3464    1.9193 O   0  0  0  0  0  0  0  0  0  0  0  0
    0.6008   -0.5711    1.0064 C   0  0  0  0  0  0  0  0  0  0  0  0
    1.5576   -0.0903    0.1240 N   0  0  0  0  0  0  0  0  0  0  0  0
    2.9687   -0.4889    0.1273 C   0  0  2  0  0  0  0  0  0  0  0  0
    3.1370   -2.0009   -0.1621 C   0  0  0  0  0  0  0  0  0  0  0  0
    4.6278   -2.3799   -0.2120 C   0  0  1  0  0  0  0  0  0  0  0  0
    5.3175   -1.5834   -1.3307 C   0  0  0  0  0  0  0  0  0  0  0  0
    5.1864   -0.0765   -1.0597 C   0  0  2  0  0  0  0  0  0  0  0  0
    5.8452    0.2580    0.2872 C   0  0  0  0  0  0  0  0  0  0  0  0
    5.1580   -0.5267    1.4152 C   0  0  2  0  0  0  0  0  0  0  0  0
    5.2843   -2.0340    1.1355 C   0  0  0  0  0  0  0  0  0  0  0  0
    3.6678   -0.1447    1.4672 C   0  0  0  0  0  0  0  0  0  0  0  0
    3.6968    0.2968   -0.9983 C   0  0  0  0  0  0  0  0  0  0  0  0
   -0.7731   -0.0849    0.7446 C   0  0  0  0  0  0  0  0  0  0  0  0
   -1.1848    1.0219   -0.0488 C   0  0  0  0  0  0  0  0  0  0  0  0
   -2.5624    1.0717    0.0319 C   0  0  0  0  0  0  0  0  0  0  0  0
   -3.4932    2.0022   -0.5888 C   0  0  0  0  0  0  0  0  0  0  0  0
   -4.1440    2.9756    0.1777 C   0  0  0  0  0  0  0  0  0  0  0  0
   -5.0334    3.8673   -0.4249 C   0  0  0  0  0  0  0  0  0  0  0  0
   -5.2717    3.7951   -1.7967 C   0  0  0  0  0  0  0  0  0  0  0  0
   -4.6185    2.8352   -2.5683 C   0  0  0  0  0  0  0  0  0  0  0  0
   -3.7283    1.9433   -1.9671 C   0  0  0  0  0  0  0  0  0  0  0  0
   -2.9082    0.0125    0.8355 N   0  0  0  0  0  0  0  0  0  0  0  0
   -4.2457   -0.4257    1.2240 C   0  0  0  0  0  0  0  0  0  0  0  0
   -4.8233   -1.4045    0.2440 C   0  0  0  0  0  0  0  0  0  0  0  0
   -6.2876   -1.7620    0.3140 C   0  0  0  0  0  0  0  0  0  0  0  0
   -5.7676   -0.9589   -0.8451 C   0  0  0  0  0  0  0  0  0  0  0  0
   -1.8473   -0.6895    1.2818 N   0  0  0  0  0  0  0  0  0  0  0  0
    1.2161    0.3702   -0.7067 H   0  0  0  0  0  0  0  0  0  0  0  0
    2.6541   -2.2590   -1.1138 H   0  0  0  0  0  0  0  0  0  0  0  0
    2.6403   -2.6045    0.6067 H   0  0  0  0  0  0  0  0  0  0  0  0
    4.7287   -3.4534   -0.4074 H   0  0  0  0  0  0  0  0  0  0  0  0
    6.3766   -1.8625   -1.3914 H   0  0  0  0  0  0  0  0  0  0  0  0
    4.8671   -1.8310   -2.2998 H   0  0  0  0  0  0  0  0  0  0  0  0
    5.6766    0.4873   -1.8611 H   0  0  0  0  0  0  0  0  0  0  0  0
    6.9132    0.0100    0.2543 H   0  0  0  0  0  0  0  0  0  0  0  0
    5.7744    1.3351    0.4825 H   0  0  0  0  0  0  0  0  0  0  0  0
    5.6332   -0.2876    2.3732 H   0  0  0  0  0  0  0  0  0  0  0  0
    6.3422   -2.3238    1.1208 H   0  0  0  0  0  0  0  0  0  0  0  0
    4.8089   -2.6061    1.9418 H   0  0  0  0  0  0  0  0  0  0  0  0
    3.1988   -0.6722    2.3053 H   0  0  0  0  0  0  0  0  0  0  0  0
    3.5636    0.9268    1.6824 H   0  0  0  0  0  0  0  0  0  0  0  0
    3.5917    1.3774   -0.8324 H   0  0  0  0  0  0  0  0  0  0  0  0
    3.2257    0.0895   -1.9686 H   0  0  0  0  0  0  0  0  0  0  0  0
   -0.5626    1.7177   -0.5930 H   0  0  0  0  0  0  0  0  0  0  0  0
   -3.9575    3.0500    1.2467 H   0  0  0  0  0  0  0  0  0  0  0  0
   -5.5365    4.6212    0.1753 H   0  0  0  0  0  0  0  0  0  0  0  0
   -5.9636    4.4905   -2.2654 H   0  0  0  0  0  0  0  0  0  0  0  0
   -4.8017    2.7808   -3.6383 H   0  0  0  0  0  0  0  0  0  0  0  0
   -3.2275    1.1961   -2.5783 H   0  0  0  0  0  0  0  0  0  0  0  0
   -4.1557   -0.8959    2.2105 H   0  0  0  0  0  0  0  0  0  0  0  0
   -4.8755    0.4610    1.3454 H   0  0  0  0  0  0  0  0  0  0  0  0
   -4.1339   -2.2154    0.0288 H   0  0  0  0  0  0  0  0  0  0  0  0
   -6.9156   -1.2571    1.0392 H   0  0  0  0  0  0  0  0  0  0  0  0
   -6.5654   -2.7946    0.1325 H   0  0  0  0  0  0  0  0  0  0  0  0
   -5.6909   -1.4471   -1.8102 H   0  0  0  0  0  0  0  0  0  0  0  0
   -6.0539    0.0853   -0.9013 H   0  0  0  0  0  0  0  0  0  0  0  0
  1  2  2  0
  2  3  1  0
  4  3  1  1
  4  5  1  0
  5  6  1  0
  6  7  1  0
  7  8  1  0
  8  9  1  0
  9 10  1  0
 10 11  1  0
 10 12  1  0
  8 13  1  0
  2 14  1  0
 14 15  1  0
 15 16  2  0
 16 17  1  0
 17 18  2  0
 18 19  1  0
 19 20  2  0
 20 21  1  0
 21 22  2  0
 16 23  1  0
 23 24  1  0
 24 25  1  0
 25 26  1  0
 26 27  1  0
 23 28  1  0
 12  4  1  0
 28 14  2  0
 13  4  1  0
 22 17  1  0
 27 25  1  0
 11  6  1  0
  3 29  1  0
  5 30  1  0
  5 31  1  0
  6 32  1  6
  7 33  1  0
  7 34  1  0
  8 35  1  6
  9 36  1  0
  9 37  1  0
 10 38  1  1
 11 39  1  0
 11 40  1  0
 12 41  1  0
 12 42  1  0
 13 43  1  0
 13 44  1  0
 15 45  1  0
 18 46  1  0
 19 47  1  0
 20 48  1  0
 21 49  1  0
 22 50  1  0
 24 51  1  0
 24 52  1  0
 25 53  1  0
 26 54  1  0
 26 55  1  0
 27 56  1  0
 27 57  1  0
M  END
>  <_SMILES>  (18) 
O=C(N[C@]12C[C@H]3C[C@H](C[C@H](C3)C1)C2)c1cc(-c2ccccc2)n(CC2CC2)n1

$$$$

     RDKit          3D

 54 59  0  0  0  0  0  0  0  0999 V2000
   -0.7059    2.1768    0.2079 O   0  0  0  0  0  0  0  0  0  0  0  0
   -0.3527    1.0243   -0.0140 C   0  0  0  0  0  0  0  0  0  0  0  0
   -1.2082   -0.0390   -0.1996 N   0  0  0  0  0  0  0  0  0  0  0  0
   -2.6663    0.0121   -0.1735 C   0  0  2  0  0  0  0  0  0  0  0  0
   -3.2239    0.9417   -1.2796 C   0  0  0  0  0  0  0  0  0  0  0  0
   -4.7628    0.9410   -1.2621 C   0  0  1  0  0  0  0  0  0  0  0  0
   -5.2730   -0.4873   -1.5100 C   0  0  0  0  0  0  0  0  0  0  0  0
   -4.7511   -1.4289   -0.4133 C   0  0  2  0  0  0  0  0  0  0  0  0
   -5.2454   -0.9382    0.9565 C   0  0  0  0  0  0  0  0  0  0  0  0
   -4.7350    0.4875    1.2188 C   0  0  2  0  0  0  0  0  0  0  0  0
   -5.2535    1.4234    0.1136 C   0  0  0  0  0  0  0  0  0  0  0  0
   -3.1961    0.4880    1.2019 C   0  0  0  0  0  0  0  0  0  0  0  0
   -3.2143   -1.4173   -0.4283 C   0  0  0  0  0  0  0  0  0  0  0  0
    1.0640    0.6370   -0.1119 C   0  0  0  0  0  0  0  0  0  0  0  0
    2.1917    1.4834    0.0274 C   0  0  0  0  0  0  0  0  0  0  0  0
    3.3000    0.6751   -0.1366 C   0  0  0  0  0  0  0  0  0  0  0  0
    4.7158    1.0213   -0.1183 C   0  0  0  0  0  0  0  0  0  0  0  0
    5.5766    0.4785    0.8428 C   0  0  0  0  0  0  0  0  0  0  0  0
    6.9306    0.8208    0.8531 C   0  0  0  0  0  0  0  0  0  0  0  0
    7.4320    1.7133   -0.0928 C   0  0  0  0  0  0  0  0  0  0  0  0
    6.5802    2.2681   -1.0462 C   0  0  0  0  0  0  0  0  0  0  0  0
    5.2261    1.9265   -1.0569 C   0  0  0  0  0  0  0  0  0  0  0  0
    2.7842   -0.5766   -0.3757 N   0  0  0  0  0  0  0  0  0  0  0  0
    3.5980   -1.7762   -0.7032 C   0  0  0  0  0  0  0  0  0  0  0  0
    4.0951   -2.7181    0.3691 C   0  0  0  0  0  0  0  0  0  0  0  0
    3.0567   -3.1850   -0.6058 C   0  0  0  0  0  0  0  0  0  0  0  0
    1.4394   -0.6326   -0.3655 N   0  0  0  0  0  0  0  0  0  0  0  0
   -0.7347   -0.9217   -0.3820 H   0  0  0  0  0  0  0  0  0  0  0  0
   -2.8650    1.9690   -1.1445 H   0  0  0  0  0  0  0  0  0  0  0  0
   -2.8615    0.6169   -2.2638 H   0  0  0  0  0  0  0  0  0  0  0  0
   -5.1407    1.6088   -2.0443 H   0  0  0  0  0  0  0  0  0  0  0  0
   -6.3699   -0.4969   -1.5214 H   0  0  0  0  0  0  0  0  0  0  0  0
   -4.9413   -0.8383   -2.4949 H   0  0  0  0  0  0  0  0  0  0  0  0
   -5.1155   -2.4461   -0.5951 H   0  0  0  0  0  0  0  0  0  0  0  0
   -4.8939   -1.6135    1.7462 H   0  0  0  0  0  0  0  0  0  0  0  0
   -6.3418   -0.9554    0.9876 H   0  0  0  0  0  0  0  0  0  0  0  0
   -5.0931    0.8340    2.1946 H   0  0  0  0  0  0  0  0  0  0  0  0
   -6.3500    1.4503    0.1308 H   0  0  0  0  0  0  0  0  0  0  0  0
   -4.9071    2.4479    0.2970 H   0  0  0  0  0  0  0  0  0  0  0  0
   -2.8136   -0.1624    1.9995 H   0  0  0  0  0  0  0  0  0  0  0  0
   -2.8366    1.4982    1.4313 H   0  0  0  0  0  0  0  0  0  0  0  0
   -2.8315   -2.1096    0.3335 H   0  0  0  0  0  0  0  0  0  0  0  0
   -2.8510   -1.7941   -1.3939 H   0  0  0  0  0  0  0  0  0  0  0  0
    2.1837    2.5466    0.2278 H   0  0  0  0  0  0  0  0  0  0  0  0
    5.1993   -0.2049    1.5996 H   0  0  0  0  0  0  0  0  0  0  0  0
    7.5922    0.3959    1.6035 H   0  0  0  0  0  0  0  0  0  0  0  0
    8.4854    1.9815   -0.0830 H   0  0  0  0  0  0  0  0  0  0  0  0
    6.9686    2.9691   -1.7806 H   0  0  0  0  0  0  0  0  0  0  0  0
    4.5737    2.3687   -1.8068 H   0  0  0  0  0  0  0  0  0  0  0  0
    4.2621   -1.5872   -1.5420 H   0  0  0  0  0  0  0  0  0  0  0  0
    3.7802   -2.5485    1.3926 H   0  0  0  0  0  0  0  0  0  0  0  0
    5.1012   -3.1083    0.2700 H   0  0  0  0  0  0  0  0  0  0  0  0
    3.3534   -3.8929   -1.3707 H   0  0  0  0  0  0  0  0  0  0  0  0
    2.0452   -3.3266   -0.2412 H   0  0  0  0  0  0  0  0  0  0  0  0
  1  2  2  0
  2  3  1  0
  4  3  1  1
  4  5  1  0
  5  6  1  0
  6  7  1  0
  7  8  1  0
  8  9  1  0
  9 10  1  0
 10 11  1  0
 10 12  1  0
  8 13  1  0
  2 14  1  0
 14 15  1  0
 15 16  2  0
 16 17  1  0
 17 18  2  0
 18 19  1  0
 19 20  2  0
 20 21  1  0
 21 22  2  0
 16 23  1  0
 23 24  1  0
 24 25  1  0
 25 26  1  0
 23 27  1  0
 12  4  1  0
 27 14  2  0
 13  4  1  0
 22 17  1  0
 26 24  1  0
 11  6  1  0
  3 28  1  0
  5 29  1  0
  5 30  1  0
  6 31  1  6
  7 32  1  0
  7 33  1  0
  8 34  1  6
  9 35  1  0
  9 36  1  0
 10 37  1  1
 11 38  1  0
 11 39  1  0
 12 40  1  0
 12 41  1  0
 13 42  1  0
 13 43  1  0
 15 44  1  0
 18 45  1  0
 19 46  1  0
 20 47  1  0
 21 48  1  0
 22 49  1  0
 24 50  1  0
 25 51  1  0
 25 52  1  0
 26 53  1  0
 26 54  1  0
M  END
>  <_SMILES>  (19) 
O=C(N[C@]12C[C@H]3C[C@H](C[C@H](C3)C1)C2)c1cc(-c2ccccc2)n(C2CC2)n1

$$$$

     RDKit          3D

 59 63  0  0  0  0  0  0  0  0999 V2000
    5.1367    2.8418    1.5084 C   0  0  0  0  0  0  0  0  0  0  0  0
    4.2599    2.3337    0.3743 C   0  0  0  0  0  0  0  0  0  0  0  0
    4.8962    1.1315   -0.3267 C   0  0  0  0  0  0  0  0  0  0  0  0
    4.0882    0.6433   -1.5305 C   0  0  0  0  0  0  0  0  0  0  0  0
    2.7885    0.0943   -1.1848 N   0  0  0  0  0  0  0  0  0  0  0  0
    1.6990    0.8641   -1.3611 N   0  0  0  0  0  0  0  0  0  0  0  0
    0.6654    0.1156   -0.9374 C   0  0  0  0  0  0  0  0  0  0  0  0
   -0.7242    0.6257   -0.9687 C   0  0  0  0  0  0  0  0  0  0  0  0
   -1.0561    1.6162   -1.6138 O   0  0  0  0  0  0  0  0  0  0  0  0
   -1.6192   -0.0986   -0.1943 N   0  0  0  0  0  0  0  0  0  0  0  0
   -3.0287    0.2557    0.0005 C   0  0  2  0  0  0  0  0  0  0  0  0
   -3.1821    1.6266    0.7044 C   0  0  0  0  0  0  0  0  0  0  0  0
   -4.6675    1.9459    0.9498 C   0  0  1  0  0  0  0  0  0  0  0  0
   -5.4105    1.9689   -0.3969 C   0  0  0  0  0  0  0  0  0  0  0  0
   -5.2984    0.5989   -1.0876 C   0  0  2  0  0  0  0  0  0  0  0  0
   -5.9072   -0.4792   -0.1780 C   0  0  0  0  0  0  0  0  0  0  0  0
   -5.1619   -0.5129    1.1649 C   0  0  2  0  0  0  0  0  0  0  0  0
   -5.2795    0.8588    1.8474 C   0  0  0  0  0  0  0  0  0  0  0  0
   -3.6785   -0.8236    0.9101 C   0  0  0  0  0  0  0  0  0  0  0  0
   -3.8137    0.2773   -1.3358 C   0  0  0  0  0  0  0  0  0  0  0  0
    1.1337   -1.1553   -0.5012 C   0  0  0  0  0  0  0  0  0  0  0  0
    2.5023   -1.1518   -0.6834 C   0  0  0  0  0  0  0  0  0  0  0  0
    3.4778   -2.1967   -0.4091 C   0  0  0  0  0  0  0  0  0  0  0  0
    3.8162   -2.5110    0.9118 C   0  0  0  0  0  0  0  0  0  0  0  0
    4.7499   -3.5139    1.1797 C   0  0  0  0  0  0  0  0  0  0  0  0
    5.3440   -4.2125    0.1296 C   0  0  0  0  0  0  0  0  0  0  0  0
    5.0034   -3.9121   -1.1886 C   0  0  0  0  0  0  0  0  0  0  0  0
    4.0707   -2.9087   -1.4578 C   0  0  0  0  0  0  0  0  0  0  0  0
    5.2927    2.0634    2.2621 H   0  0  0  0  0  0  0  0  0  0  0  0
    6.1152    3.1609    1.1355 H   0  0  0  0  0  0  0  0  0  0  0  0
    4.6640    3.6990    1.9979 H   0  0  0  0  0  0  0  0  0  0  0  0
    3.2808    2.0606    0.7830 H   0  0  0  0  0  0  0  0  0  0  0  0
    4.0991    3.1437   -0.3465 H   0  0  0  0  0  0  0  0  0  0  0  0
    5.8970    1.4116   -0.6780 H   0  0  0  0  0  0  0  0  0  0  0  0
    5.0315    0.3184    0.3956 H   0  0  0  0  0  0  0  0  0  0  0  0
    3.9278    1.4611   -2.2435 H   0  0  0  0  0  0  0  0  0  0  0  0
    4.6416   -0.1356   -2.0652 H   0  0  0  0  0  0  0  0  0  0  0  0
   -1.2231   -0.7643    0.4525 H   0  0  0  0  0  0  0  0  0  0  0  0
   -2.6382    1.6239    1.6582 H   0  0  0  0  0  0  0  0  0  0  0  0
   -2.7392    2.4282    0.1016 H   0  0  0  0  0  0  0  0  0  0  0  0
   -4.7586    2.9223    1.4387 H   0  0  0  0  0  0  0  0  0  0  0  0
   -6.4660    2.2212   -0.2369 H   0  0  0  0  0  0  0  0  0  0  0  0
   -4.9911    2.7499   -1.0430 H   0  0  0  0  0  0  0  0  0  0  0  0
   -5.8351    0.6217   -2.0426 H   0  0  0  0  0  0  0  0  0  0  0  0
   -5.8462   -1.4598   -0.6660 H   0  0  0  0  0  0  0  0  0  0  0  0
   -6.9714   -0.2722   -0.0114 H   0  0  0  0  0  0  0  0  0  0  0  0
   -5.5965   -1.2851    1.8095 H   0  0  0  0  0  0  0  0  0  0  0  0
   -4.7668    0.8407    2.8170 H   0  0  0  0  0  0  0  0  0  0  0  0
   -6.3331    1.0882    2.0487 H   0  0  0  0  0  0  0  0  0  0  0  0
   -3.1450   -0.8803    1.8685 H   0  0  0  0  0  0  0  0  0  0  0  0
   -3.5813   -1.8149    0.4472 H   0  0  0  0  0  0  0  0  0  0  0  0
   -3.4026    1.0241   -2.0244 H   0  0  0  0  0  0  0  0  0  0  0  0
   -3.7207   -0.6917   -1.8435 H   0  0  0  0  0  0  0  0  0  0  0  0
    0.5522   -1.9861   -0.1284 H   0  0  0  0  0  0  0  0  0  0  0  0
    3.3609   -1.9717    1.7392 H   0  0  0  0  0  0  0  0  0  0  0  0
    5.0129   -3.7505    2.2076 H   0  0  0  0  0  0  0  0  0  0  0  0
    6.0696   -4.9946    0.3386 H   0  0  0  0  0  0  0  0  0  0  0  0
    5.4607   -4.4621   -2.0072 H   0  0  0  0  0  0  0  0  0  0  0  0
    3.8047   -2.6917   -2.4900 H   0  0  0  0  0  0  0  0  0  0  0  0
  1  2  1  0
  2  3  1  0
  3  4  1  0
  4  5  1  0
  5  6  1  0
  6  7  2  0
  7  8  1  0
  8  9  2  0
  8 10  1  0
 11 10  1  6
 11 12  1  0
 12 13  1  0
 13 14  1  0
 14 15  1  0
 15 16  1  0
 16 17  1  0
 17 18  1  0
 17 19  1  0
 15 20  1  0
  7 21  1  0
 21 22  2  0
 22 23  1  0
 23 24  2  0
 24 25  1  0
 25 26  2  0
 26 27  1  0
 27 28  2  0
 22  5  1  0
 28 23  1  0
 19 11  1  0
 20 11  1  0
 18 13  1  0
  1 29  1  0
  1 30  1  0
  1 31  1  0
  2 32  1  0
  2 33  1  0
  3 34  1  0
  3 35  1  0
  4 36  1  0
  4 37  1  0
 10 38  1  0
 12 39  1  0
 12 40  1  0
 13 41  1  1
 14 42  1  0
 14 43  1  0
 15 44  1  6
 16 45  1  0
 16 46  1  0
 17 47  1  1
 18 48  1  0
 18 49  1  0
 19 50  1  0
 19 51  1  0
 20 52  1  0
 20 53  1  0
 21 54  1  0
 24 55  1  0
 25 56  1  0
 26 57  1  0
 27 58  1  0
 28 59  1  0
M  END
>  <_SMILES>  (20) 
CCCCn1nc(C(=O)N[C@]23C[C@H]4C[C@H](C[C@H](C4)C2)C3)cc1-c1ccccc1

$$$$

     RDKit          3D

 50 54  0  0  0  0  0  0  0  0999 V2000
   -0.4999    2.1205   -0.1030 O   0  0  0  0  0  0  0  0  0  0  0  0
   -0.1349    0.9535   -0.0376 C   0  0  0  0  0  0  0  0  0  0  0  0
   -0.9820   -0.1262    0.1136 N   0  0  0  0  0  0  0  0  0  0  0  0
   -2.4454   -0.0296    0.1699 C   0  0  2  0  0  0  0  0  0  0  0  0
   -3.0312    0.5263   -1.1513 C   0  0  0  0  0  0  0  0  0  0  0  0
   -4.5685    0.5637   -1.0879 C   0  0  1  0  0  0  0  0  0  0  0  0
   -5.1029   -0.8608   -0.8698 C   0  0  0  0  0  0  0  0  0  0  0  0
   -4.5548   -1.4313    0.4477 C   0  0  2  0  0  0  0  0  0  0  0  0
   -4.9973   -0.5346    1.6141 C   0  0  0  0  0  0  0  0  0  0  0  0
   -4.4614    0.8909    1.4110 C   0  0  2  0  0  0  0  0  0  0  0  0
   -5.0060    1.4546    0.0873 C   0  0  0  0  0  0  0  0  0  0  0  0
   -2.9239    0.8535    1.3505 C   0  0  0  0  0  0  0  0  0  0  0  0
   -3.0194   -1.4566    0.3860 C   0  0  0  0  0  0  0  0  0  0  0  0
    1.3132    0.6285   -0.1658 C   0  0  0  0  0  0  0  0  0  0  0  0
    1.8806   -0.4860    0.4607 C   0  0  0  0  0  0  0  0  0  0  0  0
    3.2472   -0.7512    0.3141 C   0  0  0  0  0  0  0  0  0  0  0  0
    4.0742    0.0909   -0.4490 C   0  0  0  0  0  0  0  0  0  0  0  0
    5.5115   -0.1909   -0.5970 C   0  0  0  0  0  0  0  0  0  0  0  0
    6.4760    0.7800   -0.2791 C   0  0  0  0  0  0  0  0  0  0  0  0
    7.8408    0.5132   -0.4181 C   0  0  0  0  0  0  0  0  0  0  0  0
    8.2646   -0.7304   -0.8791 C   0  0  0  0  0  0  0  0  0  0  0  0
    7.3255   -1.7070   -1.2005 C   0  0  0  0  0  0  0  0  0  0  0  0
    5.9610   -1.4390   -1.0598 C   0  0  0  0  0  0  0  0  0  0  0  0
    3.4908    1.2147   -1.0570 C   0  0  0  0  0  0  0  0  0  0  0  0
    2.1260    1.4851   -0.9142 C   0  0  0  0  0  0  0  0  0  0  0  0
   -0.5987   -1.0383   -0.0946 H   0  0  0  0  0  0  0  0  0  0  0  0
   -2.6561    1.5372   -1.3504 H   0  0  0  0  0  0  0  0  0  0  0  0
   -2.7074   -0.0933   -1.9978 H   0  0  0  0  0  0  0  0  0  0  0  0
   -4.9662    0.9674   -2.0257 H   0  0  0  0  0  0  0  0  0  0  0  0
   -6.1995   -0.8501   -0.8462 H   0  0  0  0  0  0  0  0  0  0  0  0
   -4.8088   -1.5040   -1.7083 H   0  0  0  0  0  0  0  0  0  0  0  0
   -4.9362   -2.4476    0.5975 H   0  0  0  0  0  0  0  0  0  0  0  0
   -4.6273   -0.9428    2.5626 H   0  0  0  0  0  0  0  0  0  0  0  0
   -6.0921   -0.5180    1.6801 H   0  0  0  0  0  0  0  0  0  0  0  0
   -4.7821    1.5275    2.2433 H   0  0  0  0  0  0  0  0  0  0  0  0
   -6.1008    1.5095    0.1271 H   0  0  0  0  0  0  0  0  0  0  0  0
   -4.6413    2.4783   -0.0625 H   0  0  0  0  0  0  0  0  0  0  0  0
   -2.5215    0.4685    2.2966 H   0  0  0  0  0  0  0  0  0  0  0  0
   -2.5502    1.8791    1.2536 H   0  0  0  0  0  0  0  0  0  0  0  0
   -2.6176   -1.8883    1.3126 H   0  0  0  0  0  0  0  0  0  0  0  0
   -2.6951   -2.1210   -0.4263 H   0  0  0  0  0  0  0  0  0  0  0  0
    1.2847   -1.1394    1.0915 H   0  0  0  0  0  0  0  0  0  0  0  0
    3.6732   -1.6145    0.8228 H   0  0  0  0  0  0  0  0  0  0  0  0
    6.1676    1.7551    0.0934 H   0  0  0  0  0  0  0  0  0  0  0  0
    8.5709    1.2772   -0.1637 H   0  0  0  0  0  0  0  0  0  0  0  0
    9.3258   -0.9380   -0.9881 H   0  0  0  0  0  0  0  0  0  0  0  0
    7.6530   -2.6775   -1.5640 H   0  0  0  0  0  0  0  0  0  0  0  0
    5.2447   -2.2128   -1.3281 H   0  0  0  0  0  0  0  0  0  0  0  0
    4.0986    1.8895   -1.6573 H   0  0  0  0  0  0  0  0  0  0  0  0
    1.6986    2.3645   -1.3923 H   0  0  0  0  0  0  0  0  0  0  0  0
  1  2  2  0
  2  3  1  0
  4  3  1  6
  4  5  1  0
  5  6  1  0
  6  7  1  0
  7  8  1  0
  8  9  1  0
  9 10  1  0
 10 11  1  0
 10 12  1  0
  8 13  1  0
  2 14  1  0
 14 15  1  0
 15 16  2  0
 16 17  1  0
 17 18  1  0
 18 19  2  0
 19 20  1  0
 20 21  2  0
 21 22  1  0
 22 23  2  0
 17 24  2  0
 24 25  1  0
 12  4  1  0
 25 14  2  0
 13  4  1  0
 23 18  1  0
 11  6  1  0
  3 26  1  0
  5 27  1  0
  5 28  1  0
  6 29  1  6
  7 30  1  0
  7 31  1  0
  8 32  1  1
  9 33  1  0
  9 34  1  0
 10 35  1  1
 11 36  1  0
 11 37  1  0
 12 38  1  0
 12 39  1  0
 13 40  1  0
 13 41  1  0
 15 42  1  0
 16 43  1  0
 19 44  1  0
 20 45  1  0
 21 46  1  0
 22 47  1  0
 23 48  1  0
 24 49  1  0
 25 50  1  0
M  END
>  <_SMILES>  (21) 
O=C(N[C@]12C[C@H]3C[C@H](C[C@H](C3)C1)C2)c1ccc(-c2ccccc2)cc1

$$$$

     RDKit          3D

 42 44  0  0  0  0  0  0  0  0999 V2000
   -1.3463   -2.2731    0.4801 O   0  0  0  0  0  0  0  0  0  0  0  0
   -0.9906   -1.1791    0.0590 C   0  0  0  0  0  0  0  0  0  0  0  0
   -1.8649   -0.1936   -0.3547 N   0  0  0  0  0  0  0  0  0  0  0  0
   -3.3067   -0.3613   -0.2254 C   0  0  0  0  0  0  0  0  0  0  0  0
   -4.0331    0.5328   -1.2364 C   0  0  0  0  0  0  0  0  0  0  0  0
   -5.5492    0.4307   -1.0929 C   0  0  0  0  0  0  0  0  0  0  0  0
   -5.9998    0.7313    0.3334 C   0  0  0  0  0  0  0  0  0  0  0  0
   -5.2813   -0.1533    1.3477 C   0  0  0  0  0  0  0  0  0  0  0  0
   -3.7643   -0.0554    1.2073 C   0  0  0  0  0  0  0  0  0  0  0  0
    0.4569   -0.8382    0.0084 C   0  0  0  0  0  0  0  0  0  0  0  0
    0.9717    0.0649   -0.9265 C   0  0  0  0  0  0  0  0  0  0  0  0
    2.3405    0.3508   -0.9396 C   0  0  0  0  0  0  0  0  0  0  0  0
    3.2222   -0.2598   -0.0280 C   0  0  0  0  0  0  0  0  0  0  0  0
    4.6504    0.0822   -0.0855 C   0  0  0  0  0  0  0  0  0  0  0  0
    5.4739   -0.4492   -1.0904 C   0  0  0  0  0  0  0  0  0  0  0  0
    6.8288   -0.1158   -1.1542 C   0  0  0  0  0  0  0  0  0  0  0  0
    7.3775    0.7552   -0.2154 C   0  0  0  0  0  0  0  0  0  0  0  0
    6.5735    1.2929    0.7874 C   0  0  0  0  0  0  0  0  0  0  0  0
    5.2186    0.9597    0.8512 C   0  0  0  0  0  0  0  0  0  0  0  0
    2.6885   -1.1800    0.8945 C   0  0  0  0  0  0  0  0  0  0  0  0
    3.6887   -2.0049    2.0415 Cl  0  0  0  0  0  0  0  0  0  0  0  0
    1.3203   -1.4697    0.9093 C   0  0  0  0  0  0  0  0  0  0  0  0
   -1.5153    0.7517   -0.4340 H   0  0  0  0  0  0  0  0  0  0  0  0
   -3.5431   -1.4096   -0.4507 H   0  0  0  0  0  0  0  0  0  0  0  0
   -3.7421    0.2554   -2.2569 H   0  0  0  0  0  0  0  0  0  0  0  0
   -3.7256    1.5781   -1.1003 H   0  0  0  0  0  0  0  0  0  0  0  0
   -6.0328    1.1275   -1.7868 H   0  0  0  0  0  0  0  0  0  0  0  0
   -5.8751   -0.5782   -1.3741 H   0  0  0  0  0  0  0  0  0  0  0  0
   -5.8016    1.7853    0.5639 H   0  0  0  0  0  0  0  0  0  0  0  0
   -7.0824    0.5841    0.4170 H   0  0  0  0  0  0  0  0  0  0  0  0
   -5.5767    0.1354    2.3627 H   0  0  0  0  0  0  0  0  0  0  0  0
   -5.5932   -1.1957    1.2084 H   0  0  0  0  0  0  0  0  0  0  0  0
   -3.4367    0.9526    1.4942 H   0  0  0  0  0  0  0  0  0  0  0  0
   -3.2895   -0.7465    1.9140 H   0  0  0  0  0  0  0  0  0  0  0  0
    0.3309    0.5333   -1.6687 H   0  0  0  0  0  0  0  0  0  0  0  0
    2.7266    1.0569   -1.6742 H   0  0  0  0  0  0  0  0  0  0  0  0
    5.0630   -1.1361   -1.8275 H   0  0  0  0  0  0  0  0  0  0  0  0
    7.4558   -0.5399   -1.9342 H   0  0  0  0  0  0  0  0  0  0  0  0
    8.4326    1.0117   -0.2627 H   0  0  0  0  0  0  0  0  0  0  0  0
    7.0009    1.9693    1.5230 H   0  0  0  0  0  0  0  0  0  0  0  0
    4.6058    1.3865    1.6425 H   0  0  0  0  0  0  0  0  0  0  0  0
    0.9229   -2.1888    1.6234 H   0  0  0  0  0  0  0  0  0  0  0  0
  1  2  2  0
  2  3  1  0
  3  4  1  0
  4  5  1  0
  5  6  1  0
  6  7  1  0
  7  8  1  0
  8  9  1  0
  2 10  1  0
 10 11  1  0
 11 12  2  0
 12 13  1  0
 13 14  1  0
 14 15  2  0
 15 16  1  0
 16 17  2  0
 17 18  1  0
 18 19  2  0
 13 20  2  0
 20 21  1  0
 20 22  1  0
  9  4  1  0
 22 10  2  0
 19 14  1  0
  3 23  1  0
  4 24  1  0
  5 25  1  0
  5 26  1  0
  6 27  1  0
  6 28  1  0
  7 29  1  0
  7 30  1  0
  8 31  1  0
  8 32  1  0
  9 33  1  0
  9 34  1  0
 11 35  1  0
 12 36  1  0
 15 37  1  0
 16 38  1  0
 17 39  1  0
 18 40  1  0
 19 41  1  0
 22 42  1  0
M  END
>  <_SMILES>  (22) 
O=C(NC1CCCCC1)c1ccc(-c2ccccc2)c(Cl)c1

$$$$

     RDKit          3D

 43 46  0  0  0  0  0  0  0  0999 V2000
    6.7880    0.8284    0.2262 C   0  0  0  0  0  0  0  0  0  0  0  0
    5.3379    0.4460    0.1762 C   0  0  0  0  0  0  0  0  0  0  0  0
    4.9222   -0.8114    0.6309 C   0  0  0  0  0  0  0  0  0  0  0  0
    3.5778   -1.1826    0.5526 C   0  0  0  0  0  0  0  0  0  0  0  0
    2.6333   -0.2996    0.0183 C   0  0  0  0  0  0  0  0  0  0  0  0
    1.2100   -0.7346   -0.0459 C   0  0  0  0  0  0  0  0  0  0  0  0
    0.9451   -1.9261   -0.1441 O   0  0  0  0  0  0  0  0  0  0  0  0
    0.2700    0.2722    0.0513 N   0  0  0  0  0  0  0  0  0  0  0  0
   -1.1799    0.0506    0.0991 C   0  0  2  0  0  0  0  0  0  0  0  0
   -1.8817    1.4346    0.1671 C   0  0  0  0  0  0  0  0  0  0  0  0
   -3.4093    1.2773    0.2273 C   0  0  1  0  0  0  0  0  0  0  0  0
   -3.8892    0.5368   -1.0303 C   0  0  0  0  0  0  0  0  0  0  0  0
   -3.2266   -0.8472   -1.1079 C   0  0  2  0  0  0  0  0  0  0  0  0
   -3.5969   -1.6587    0.1454 C   0  0  0  0  0  0  0  0  0  0  0  0
   -3.1206   -0.9257    1.4111 C   0  0  2  0  0  0  0  0  0  0  0  0
   -3.7831    0.4597    1.4737 C   0  0  0  0  0  0  0  0  0  0  0  0
   -1.5920   -0.7567    1.3545 C   0  0  0  0  0  0  0  0  0  0  0  0
   -1.6980   -0.6776   -1.1673 C   0  0  0  0  0  0  0  0  0  0  0  0
    3.0484    0.9465   -0.4666 C   0  0  0  0  0  0  0  0  0  0  0  0
    4.3948    1.3145   -0.3879 C   0  0  0  0  0  0  0  0  0  0  0  0
    6.9023    1.9118    0.3370 H   0  0  0  0  0  0  0  0  0  0  0  0
    7.2858    0.3605    1.0821 H   0  0  0  0  0  0  0  0  0  0  0  0
    7.2905    0.5113   -0.6928 H   0  0  0  0  0  0  0  0  0  0  0  0
    5.6426   -1.5132    1.0459 H   0  0  0  0  0  0  0  0  0  0  0  0
    3.2677   -2.1634    0.9080 H   0  0  0  0  0  0  0  0  0  0  0  0
    0.5998    1.1709    0.3767 H   0  0  0  0  0  0  0  0  0  0  0  0
   -1.5346    1.9910    1.0482 H   0  0  0  0  0  0  0  0  0  0  0  0
   -1.6050    2.0410   -0.7057 H   0  0  0  0  0  0  0  0  0  0  0  0
   -3.8815    2.2648    0.2776 H   0  0  0  0  0  0  0  0  0  0  0  0
   -3.6443    1.1206   -1.9261 H   0  0  0  0  0  0  0  0  0  0  0  0
   -4.9807    0.4295   -1.0088 H   0  0  0  0  0  0  0  0  0  0  0  0
   -3.5743   -1.3728   -2.0043 H   0  0  0  0  0  0  0  0  0  0  0  0
   -4.6830   -1.8077    0.1864 H   0  0  0  0  0  0  0  0  0  0  0  0
   -3.1407   -2.6550    0.0952 H   0  0  0  0  0  0  0  0  0  0  0  0
   -3.3945   -1.5061    2.2993 H   0  0  0  0  0  0  0  0  0  0  0  0
   -4.8728    0.3514    1.5379 H   0  0  0  0  0  0  0  0  0  0  0  0
   -3.4618    0.9884    2.3795 H   0  0  0  0  0  0  0  0  0  0  0  0
   -1.1216   -1.7472    1.3541 H   0  0  0  0  0  0  0  0  0  0  0  0
   -1.2385   -0.2497    2.2620 H   0  0  0  0  0  0  0  0  0  0  0  0
   -1.4188   -0.1139   -2.0672 H   0  0  0  0  0  0  0  0  0  0  0  0
   -1.2377   -1.6667   -1.2705 H   0  0  0  0  0  0  0  0  0  0  0  0
    2.3447    1.6274   -0.9366 H   0  0  0  0  0  0  0  0  0  0  0  0
    4.7063    2.2808   -0.7793 H   0  0  0  0  0  0  0  0  0  0  0  0
  1  2  1  0
  2  3  1  0
  3  4  2  0
  4  5  1  0
  5  6  1  0
  6  7  2  0
  6  8  1  0
  9  8  1  6
  9 10  1  0
 10 11  1  0
 11 12  1  0
 12 13  1  0
 13 14  1  0
 14 15  1  0
 15 16  1  0
 15 17  1  0
 13 18  1  0
  5 19  2  0
 19 20  1  0
 20  2  2  0
 17  9  1  0
 18  9  1  0
 16 11  1  0
  1 21  1  0
  1 22  1  0
  1 23  1  0
  3 24  1  0
  4 25  1  0
  8 26  1  0
 10 27  1  0
 10 28  1  0
 11 29  1  1
 12 30  1  0
 12 31  1  0
 13 32  1  6
 14 33  1  0
 14 34  1  0
 15 35  1  1
 16 36  1  0
 16 37  1  0
 17 38  1  0
 17 39  1  0
 18 40  1  0
 18 41  1  0
 19 42  1  0
 20 43  1  0
M  END
>  <_SMILES>  (23) 
Cc1ccc(C(=O)N[C@]23C[C@H]4C[C@H](C[C@H](C4)C2)C3)cc1

$$$$

     RDKit          3D

 50 54  0  0  0  0  0  0  0  0999 V2000
    0.0828    1.3644   -0.4598 O   0  0  0  0  0  0  0  0  0  0  0  0
    0.1919    0.1477   -0.5410 C   0  0  0  0  0  0  0  0  0  0  0  0
   -0.8642   -0.7407   -0.5017 N   0  0  0  0  0  0  0  0  0  0  0  0
   -2.2658   -0.3529   -0.3042 C   0  0  2  0  0  0  0  0  0  0  0  0
   -2.7647    0.6061   -1.4151 C   0  0  0  0  0  0  0  0  0  0  0  0
   -4.2502    0.9509   -1.2064 C   0  0  1  0  0  0  0  0  0  0  0  0
   -5.0838   -0.3386   -1.2585 C   0  0  0  0  0  0  0  0  0  0  0  0
   -4.6248   -1.3037   -0.1548 C   0  0  2  0  0  0  0  0  0  0  0  0
   -4.8043   -0.6324    1.2160 C   0  0  0  0  0  0  0  0  0  0  0  0
   -3.9696    0.6564    1.2830 C   0  0  2  0  0  0  0  0  0  0  0  0
   -4.4266    1.6148    0.1700 C   0  0  0  0  0  0  0  0  0  0  0  0
   -2.4839    0.3117    1.0772 C   0  0  0  0  0  0  0  0  0  0  0  0
   -3.1388   -1.6362   -0.3624 C   0  0  0  0  0  0  0  0  0  0  0  0
    1.5452   -0.4625   -0.6531 C   0  0  0  0  0  0  0  0  0  0  0  0
    1.7593   -1.6531   -1.3557 C   0  0  0  0  0  0  0  0  0  0  0  0
    3.0445   -2.1860   -1.4381 C   0  0  0  0  0  0  0  0  0  0  0  0
    4.1156   -1.5285   -0.8266 C   0  0  0  0  0  0  0  0  0  0  0  0
    3.9288   -0.3230   -0.1284 C   0  0  0  0  0  0  0  0  0  0  0  0
    5.0632    0.3733    0.5032 C   0  0  0  0  0  0  0  0  0  0  0  0
    5.9427   -0.3045    1.3646 C   0  0  0  0  0  0  0  0  0  0  0  0
    7.0189    0.3563    1.9639 C   0  0  0  0  0  0  0  0  0  0  0  0
    7.2349    1.7083    1.7115 C   0  0  0  0  0  0  0  0  0  0  0  0
    6.3759    2.3998    0.8617 C   0  0  0  0  0  0  0  0  0  0  0  0
    5.2999    1.7377    0.2639 C   0  0  0  0  0  0  0  0  0  0  0  0
    2.6270    0.2003   -0.0562 C   0  0  0  0  0  0  0  0  0  0  0  0
   -0.6360   -1.7106   -0.3291 H   0  0  0  0  0  0  0  0  0  0  0  0
   -2.1851    1.5361   -1.4239 H   0  0  0  0  0  0  0  0  0  0  0  0
   -2.6223    0.1465   -2.4019 H   0  0  0  0  0  0  0  0  0  0  0  0
   -4.5832    1.6373   -1.9930 H   0  0  0  0  0  0  0  0  0  0  0  0
   -4.9777   -0.8144   -2.2411 H   0  0  0  0  0  0  0  0  0  0  0  0
   -6.1476   -0.1029   -1.1320 H   0  0  0  0  0  0  0  0  0  0  0  0
   -5.2194   -2.2231   -0.1969 H   0  0  0  0  0  0  0  0  0  0  0  0
   -4.4972   -1.3199    2.0136 H   0  0  0  0  0  0  0  0  0  0  0  0
   -5.8635   -0.4021    1.3846 H   0  0  0  0  0  0  0  0  0  0  0  0
   -4.1053    1.1334    2.2601 H   0  0  0  0  0  0  0  0  0  0  0  0
   -5.4783    1.8880    0.3208 H   0  0  0  0  0  0  0  0  0  0  0  0
   -3.8467    2.5448    0.2148 H   0  0  0  0  0  0  0  0  0  0  0  0
   -2.1419   -0.3587    1.8767 H   0  0  0  0  0  0  0  0  0  0  0  0
   -1.8875    1.2272    1.1692 H   0  0  0  0  0  0  0  0  0  0  0  0
   -2.8113   -2.3506    0.4050 H   0  0  0  0  0  0  0  0  0  0  0  0
   -3.0027   -2.1414   -1.3281 H   0  0  0  0  0  0  0  0  0  0  0  0
    0.9442   -2.1571   -1.8671 H   0  0  0  0  0  0  0  0  0  0  0  0
    3.2195   -3.1061   -1.9905 H   0  0  0  0  0  0  0  0  0  0  0  0
    5.1135   -1.9546   -0.9187 H   0  0  0  0  0  0  0  0  0  0  0  0
    5.7866   -1.3579    1.5875 H   0  0  0  0  0  0  0  0  0  0  0  0
    7.6849   -0.1856    2.6303 H   0  0  0  0  0  0  0  0  0  0  0  0
    8.0708    2.2233    2.1775 H   0  0  0  0  0  0  0  0  0  0  0  0
    6.5408    3.4552    0.6610 H   0  0  0  0  0  0  0  0  0  0  0  0
    4.6472    2.2973   -0.4039 H   0  0  0  0  0  0  0  0  0  0  0  0
    2.4446    1.1302    0.4819 H   0  0  0  0  0  0  0  0  0  0  0  0
  1  2  2  0
  2  3  1  0
  4  3  1  6
  4  5  1  0
  5  6  1  0
  6  7  1  0
  7  8  1  0
  8  9  1  0
  9 10  1  0
 10 11  1  0
 10 12  1  0
  8 13  1  0
  2 14  1  0
 14 15  1  0
 15 16  2  0
 16 17  1  0
 17 18  2  0
 18 19  1  0
 19 20  2  0
 20 21  1  0
 21 22  2  0
 22 23  1  0
 23 24  2  0
 18 25  1  0
 12  4  1  0
 25 14  2  0
 13  4  1  0
 24 19  1  0
 11  6  1  0
  3 26  1  0
  5 27  1  0
  5 28  1  0
  6 29  1  6
  7 30  1  0
  7 31  1  0
  8 32  1  1
  9 33  1  0
  9 34  1  0
 10 35  1  1
 11 36  1  0
 11 37  1  0
 12 38  1  0
 12 39  1  0
 13 40  1  0
 13 41  1  0
 15 42  1  0
 16 43  1  0
 17 44  1  0
 20 45  1  0
 21 46  1  0
 22 47  1  0
 23 48  1  0
 24 49  1  0
 25 50  1  0
M  END
>  <_SMILES>  (24) 
O=C(N[C@]12C[C@H]3C[C@H](C[C@H](C3)C1)C2)c1cccc(-c2ccccc2)c1

$$$$

     RDKit          3D

 40 43  0  0  0  0  0  0  0  0999 V2000
    1.4993   -0.9036   -1.4939 O   0  0  0  0  0  0  0  0  0  0  0  0
    1.7268   -0.0845   -0.6126 C   0  0  0  0  0  0  0  0  0  0  0  0
    0.7760    0.4229    0.2507 N   0  0  0  0  0  0  0  0  0  0  0  0
   -0.6335    0.0147    0.2638 C   0  0  2  0  0  0  0  0  0  0  0  0
   -1.3708    0.8458    1.3493 C   0  0  0  0  0  0  0  0  0  0  0  0
   -2.8574    0.4631    1.4235 C   0  0  1  0  0  0  0  0  0  0  0  0
   -3.5146    0.7294    0.0606 C   0  0  0  0  0  0  0  0  0  0  0  0
   -2.8175   -0.1011   -1.0279 C   0  0  2  0  0  0  0  0  0  0  0  0
   -2.9327   -1.5949   -0.6790 C   0  0  0  0  0  0  0  0  0  0  0  0
   -2.2774   -1.8726    0.6846 C   0  0  2  0  0  0  0  0  0  0  0  0
   -2.9770   -1.0308    1.7636 C   0  0  0  0  0  0  0  0  0  0  0  0
   -0.7896   -1.4839    0.6211 C   0  0  0  0  0  0  0  0  0  0  0  0
   -1.3303    0.2899   -1.0931 C   0  0  0  0  0  0  0  0  0  0  0  0
    3.1205    0.3945   -0.3952 C   0  0  0  0  0  0  0  0  0  0  0  0
    3.3936    1.6762    0.1013 C   0  0  0  0  0  0  0  0  0  0  0  0
    4.7163    2.0847    0.2887 C   0  0  0  0  0  0  0  0  0  0  0  0
    5.7662    1.2213   -0.0252 C   0  0  0  0  0  0  0  0  0  0  0  0
    5.4992   -0.0488   -0.5355 C   0  0  0  0  0  0  0  0  0  0  0  0
    4.1791   -0.4606   -0.7254 C   0  0  0  0  0  0  0  0  0  0  0  0
    1.1185    0.8875    1.0809 H   0  0  0  0  0  0  0  0  0  0  0  0
   -0.9012    0.6876    2.3296 H   0  0  0  0  0  0  0  0  0  0  0  0
   -1.2738    1.9183    1.1335 H   0  0  0  0  0  0  0  0  0  0  0  0
   -3.3550    1.0592    2.1966 H   0  0  0  0  0  0  0  0  0  0  0  0
   -3.4518    1.7968   -0.1842 H   0  0  0  0  0  0  0  0  0  0  0  0
   -4.5806    0.4743    0.1020 H   0  0  0  0  0  0  0  0  0  0  0  0
   -3.2915    0.0894   -1.9973 H   0  0  0  0  0  0  0  0  0  0  0  0
   -3.9883   -1.8922   -0.6537 H   0  0  0  0  0  0  0  0  0  0  0  0
   -2.4504   -2.1998   -1.4567 H   0  0  0  0  0  0  0  0  0  0  0  0
   -2.3701   -2.9367    0.9293 H   0  0  0  0  0  0  0  0  0  0  0  0
   -2.5274   -1.2295    2.7442 H   0  0  0  0  0  0  0  0  0  0  0  0
   -4.0339   -1.3156    1.8343 H   0  0  0  0  0  0  0  0  0  0  0  0
   -0.3073   -1.6944    1.5846 H   0  0  0  0  0  0  0  0  0  0  0  0
   -0.2852   -2.1168   -0.1187 H   0  0  0  0  0  0  0  0  0  0  0  0
   -1.2337    1.3510   -1.3582 H   0  0  0  0  0  0  0  0  0  0  0  0
   -0.8534   -0.2728   -1.9035 H   0  0  0  0  0  0  0  0  0  0  0  0
    2.5916    2.3760    0.3176 H   0  0  0  0  0  0  0  0  0  0  0  0
    4.9296    3.0808    0.6689 H   0  0  0  0  0  0  0  0  0  0  0  0
    6.7953    1.5425    0.1176 H   0  0  0  0  0  0  0  0  0  0  0  0
    6.3176   -0.7174   -0.7909 H   0  0  0  0  0  0  0  0  0  0  0  0
    3.9750   -1.4500   -1.1304 H   0  0  0  0  0  0  0  0  0  0  0  0
  1  2  2  0
  2  3  1  0
  4  3  1  6
  4  5  1  0
  5  6  1  0
  6  7  1  0
  7  8  1  0
  8  9  1  0
  9 10  1  0
 10 11  1  0
 10 12  1  0
  8 13  1  0
  2 14  1  0
 14 15  2  0
 15 16  1  0
 16 17  2  0
 17 18  1  0
 18 19  2  0
 12  4  1  0
 19 14  1  0
 13  4  1  0
 11  6  1  0
  3 20  1  0
  5 21  1  0
  5 22  1  0
  6 23  1  1
  7 24  1  0
  7 25  1  0
  8 26  1  6
  9 27  1  0
  9 28  1  0
 10 29  1  1
 11 30  1  0
 11 31  1  0
 12 32  1  0
 12 33  1  0
 13 34  1  0
 13 35  1  0
 15 36  1  0
 16 37  1  0
 17 38  1  0
 18 39  1  0
 19 40  1  0
M  END
>  <_SMILES>  (25) 
O=C(N[C@]12C[C@H]3C[C@H](C[C@H](C3)C1)C2)c1ccccc1

$$$$

     RDKit          3D

 38 39  0  0  0  0  0  0  0  0999 V2000
   -4.6123    1.3037    0.4615 C   0  0  0  0  0  0  0  0  0  0  0  0
   -4.1401   -0.1318    0.1848 C   0  0  0  0  0  0  0  0  0  0  0  0
   -4.6623   -1.0451    1.3097 C   0  0  0  0  0  0  0  0  0  0  0  0
   -4.7227   -0.6342   -1.1464 C   0  0  0  0  0  0  0  0  0  0  0  0
   -2.6696   -0.2073    0.1870 N   0  0  0  0  0  0  0  0  0  0  0  0
   -1.8555    0.4488   -0.7145 C   0  0  0  0  0  0  0  0  0  0  0  0
   -2.2566    1.1358   -1.6448 O   0  0  0  0  0  0  0  0  0  0  0  0
   -0.3910    0.3171   -0.4833 C   0  0  0  0  0  0  0  0  0  0  0  0
    0.1666   -0.8335    0.0827 C   0  0  0  0  0  0  0  0  0  0  0  0
    1.5490   -0.9160    0.2753 C   0  0  0  0  0  0  0  0  0  0  0  0
    2.4019    0.1394   -0.0987 C   0  0  0  0  0  0  0  0  0  0  0  0
    3.8474   -0.0046    0.1238 C   0  0  0  0  0  0  0  0  0  0  0  0
    4.3945    0.1595    1.4060 C   0  0  0  0  0  0  0  0  0  0  0  0
    5.7666    0.0110    1.6212 C   0  0  0  0  0  0  0  0  0  0  0  0
    6.6090   -0.3061    0.5577 C   0  0  0  0  0  0  0  0  0  0  0  0
    6.0816   -0.4744   -0.7207 C   0  0  0  0  0  0  0  0  0  0  0  0
    4.7096   -0.3260   -0.9361 C   0  0  0  0  0  0  0  0  0  0  0  0
    1.8239    1.2843   -0.6801 C   0  0  0  0  0  0  0  0  0  0  0  0
    2.7816    2.6421   -1.1655 Cl  0  0  0  0  0  0  0  0  0  0  0  0
    0.4418    1.3698   -0.8756 C   0  0  0  0  0  0  0  0  0  0  0  0
   -4.3115    1.9929   -0.3342 H   0  0  0  0  0  0  0  0  0  0  0  0
   -4.1883    1.6830    1.3984 H   0  0  0  0  0  0  0  0  0  0  0  0
   -5.7041    1.3526    0.5417 H   0  0  0  0  0  0  0  0  0  0  0  0
   -5.7569   -1.0366    1.3579 H   0  0  0  0  0  0  0  0  0  0  0  0
   -4.3391   -2.0817    1.1578 H   0  0  0  0  0  0  0  0  0  0  0  0
   -4.2812   -0.7261    2.2870 H   0  0  0  0  0  0  0  0  0  0  0  0
   -5.8171   -0.6791   -1.1064 H   0  0  0  0  0  0  0  0  0  0  0  0
   -4.3531   -1.6387   -1.3827 H   0  0  0  0  0  0  0  0  0  0  0  0
   -4.4580    0.0171   -1.9850 H   0  0  0  0  0  0  0  0  0  0  0  0
   -2.2388   -0.5317    1.0423 H   0  0  0  0  0  0  0  0  0  0  0  0
   -0.4529   -1.6854    0.3501 H   0  0  0  0  0  0  0  0  0  0  0  0
    1.9699   -1.8225    0.7094 H   0  0  0  0  0  0  0  0  0  0  0  0
    3.7519    0.4132    2.2463 H   0  0  0  0  0  0  0  0  0  0  0  0
    6.1776    0.1469    2.6181 H   0  0  0  0  0  0  0  0  0  0  0  0
    7.6772   -0.4183    0.7242 H   0  0  0  0  0  0  0  0  0  0  0  0
    6.7376   -0.7182   -1.5524 H   0  0  0  0  0  0  0  0  0  0  0  0
    4.3144   -0.4587   -1.9413 H   0  0  0  0  0  0  0  0  0  0  0  0
    0.0090    2.2588   -1.3310 H   0  0  0  0  0  0  0  0  0  0  0  0
  1  2  1  0
  2  3  1  0
  2  4  1  0
  2  5  1  0
  5  6  1  0
  6  7  2  0
  6  8  1  0
  8  9  1  0
  9 10  2  0
 10 11  1  0
 11 12  1  0
 12 13  2  0
 13 14  1  0
 14 15  2  0
 15 16  1  0
 16 17  2  0
 11 18  2  0
 18 19  1  0
 18 20  1  0
 20  8  2  0
 17 12  1  0
  1 21  1  0
  1 22  1  0
  1 23  1  0
  3 24  1  0
  3 25  1  0
  3 26  1  0
  4 27  1  0
  4 28  1  0
  4 29  1  0
  5 30  1  0
  9 31  1  0
 10 32  1  0
 13 33  1  0
 14 34  1  0
 15 35  1  0
 16 36  1  0
 17 37  1  0
 20 38  1  0
M  END
>  <_SMILES>  (26) 
CC(C)(C)NC(=O)c1ccc(-c2ccccc2)c(Cl)c1

$$$$

     RDKit          3D

 44 47  0  0  0  0  0  0  0  0999 V2000
    7.2859    0.3728   -1.3849 C   0  0  0  0  0  0  0  0  0  0  0  0
    6.4071   -0.5614   -0.7700 O   0  0  0  0  0  0  0  0  0  0  0  0
    5.1102   -0.1662   -0.5933 C   0  0  0  0  0  0  0  0  0  0  0  0
    4.5661    1.0602   -0.9757 C   0  0  0  0  0  0  0  0  0  0  0  0
    3.2151    1.3349   -0.7332 C   0  0  0  0  0  0  0  0  0  0  0  0
    2.3961    0.3821   -0.1159 C   0  0  0  0  0  0  0  0  0  0  0  0
    0.9647    0.7214    0.1205 C   0  0  0  0  0  0  0  0  0  0  0  0
    0.6382    1.8932    0.2613 O   0  0  0  0  0  0  0  0  0  0  0  0
    0.0862   -0.3435    0.1253 N   0  0  0  0  0  0  0  0  0  0  0  0
   -1.3701   -0.2162    0.2559 C   0  0  2  0  0  0  0  0  0  0  0  0
   -1.9853   -1.6425    0.2568 C   0  0  0  0  0  0  0  0  0  0  0  0
   -3.5158   -1.5841    0.3839 C   0  0  1  0  0  0  0  0  0  0  0  0
   -3.8855   -0.8813    1.6991 C   0  0  0  0  0  0  0  0  0  0  0  0
   -3.3079    0.5424    1.7123 C   0  0  2  0  0  0  0  0  0  0  0  0
   -3.8788    1.3332    0.5227 C   0  0  0  0  0  0  0  0  0  0  0  0
   -3.5142    0.6377   -0.7999 C   0  0  2  0  0  0  0  0  0  0  0  0
   -4.0897   -0.7874   -0.7983 C   0  0  0  0  0  0  0  0  0  0  0  0
   -1.9823    0.5678   -0.9308 C   0  0  0  0  0  0  0  0  0  0  0  0
   -1.7757    0.4718    1.5843 C   0  0  0  0  0  0  0  0  0  0  0  0
    2.9446   -0.8411    0.2829 C   0  0  0  0  0  0  0  0  0  0  0  0
    4.2946   -1.1101    0.0382 C   0  0  0  0  0  0  0  0  0  0  0  0
    8.2760   -0.0893   -1.4448 H   0  0  0  0  0  0  0  0  0  0  0  0
    7.3789    1.2828   -0.7830 H   0  0  0  0  0  0  0  0  0  0  0  0
    6.9641    0.6041   -2.4057 H   0  0  0  0  0  0  0  0  0  0  0  0
    5.1615    1.8269   -1.4604 H   0  0  0  0  0  0  0  0  0  0  0  0
    2.8010    2.2972   -1.0294 H   0  0  0  0  0  0  0  0  0  0  0  0
    0.4302   -1.2205   -0.2420 H   0  0  0  0  0  0  0  0  0  0  0  0
   -1.5664   -2.2333    1.0825 H   0  0  0  0  0  0  0  0  0  0  0  0
   -1.7131   -2.1716   -0.6664 H   0  0  0  0  0  0  0  0  0  0  0  0
   -3.9267   -2.5998    0.3794 H   0  0  0  0  0  0  0  0  0  0  0  0
   -3.4967   -1.4517    2.5516 H   0  0  0  0  0  0  0  0  0  0  0  0
   -4.9760   -0.8448    1.8111 H   0  0  0  0  0  0  0  0  0  0  0  0
   -3.5768    1.0407    2.6504 H   0  0  0  0  0  0  0  0  0  0  0  0
   -3.4843    2.3568    0.5291 H   0  0  0  0  0  0  0  0  0  0  0  0
   -4.9691    1.4118    0.6153 H   0  0  0  0  0  0  0  0  0  0  0  0
   -3.9304    1.2027   -1.6415 H   0  0  0  0  0  0  0  0  0  0  0  0
   -5.1838   -0.7496   -0.7288 H   0  0  0  0  0  0  0  0  0  0  0  0
   -3.8479   -1.2905   -1.7426 H   0  0  0  0  0  0  0  0  0  0  0  0
   -1.5796    1.5867   -0.9756 H   0  0  0  0  0  0  0  0  0  0  0  0
   -1.7102    0.0884   -1.8803 H   0  0  0  0  0  0  0  0  0  0  0  0
   -1.3702    1.4882    1.6427 H   0  0  0  0  0  0  0  0  0  0  0  0
   -1.3539   -0.0763    2.4369 H   0  0  0  0  0  0  0  0  0  0  0  0
    2.3494   -1.5819    0.8083 H   0  0  0  0  0  0  0  0  0  0  0  0
    4.7202   -2.0607    0.3521 H   0  0  0  0  0  0  0  0  0  0  0  0
  1  2  1  0
  2  3  1  0
  3  4  1  0
  4  5  2  0
  5  6  1  0
  6  7  1  0
  7  8  2  0
  7  9  1  0
 10  9  1  6
 10 11  1  0
 11 12  1  0
 12 13  1  0
 13 14  1  0
 14 15  1  0
 15 16  1  0
 16 17  1  0
 16 18  1  0
 14 19  1  0
  6 20  2  0
 20 21  1  0
 21  3  2  0
 18 10  1  0
 19 10  1  0
 17 12  1  0
  1 22  1  0
  1 23  1  0
  1 24  1  0
  4 25  1  0
  5 26  1  0
  9 27  1  0
 11 28  1  0
 11 29  1  0
 12 30  1  1
 13 31  1  0
 13 32  1  0
 14 33  1  1
 15 34  1  0
 15 35  1  0
 16 36  1  6
 17 37  1  0
 17 38  1  0
 18 39  1  0
 18 40  1  0
 19 41  1  0
 19 42  1  0
 20 43  1  0
 21 44  1  0
M  END
>  <_SMILES>  (27) 
COc1ccc(C(=O)N[C@]23C[C@H]4C[C@H](C[C@H](C4)C2)C3)cc1

$$$$

     RDKit          3D

 40 43  0  0  0  0  0  0  0  0999 V2000
    1.4060    1.7805    0.8213 O   0  0  0  0  0  0  0  0  0  0  0  0
    1.7130    0.8130    0.1412 C   0  0  0  0  0  0  0  0  0  0  0  0
    0.8376   -0.1070   -0.3967 N   0  0  0  0  0  0  0  0  0  0  0  0
   -0.6068   -0.1198   -0.1442 C   0  0  2  0  0  0  0  0  0  0  0  0
   -1.2321   -1.3000   -0.9361 C   0  0  0  0  0  0  0  0  0  0  0  0
   -2.7503   -1.3746   -0.7087 C   0  0  1  0  0  0  0  0  0  0  0  0
   -3.0263   -1.5703    0.7904 C   0  0  0  0  0  0  0  0  0  0  0  0
   -2.4388   -0.3968    1.5903 C   0  0  2  0  0  0  0  0  0  0  0  0
   -3.0807    0.9160    1.1098 C   0  0  0  0  0  0  0  0  0  0  0  0
   -2.8089    1.1207   -0.3904 C   0  0  2  0  0  0  0  0  0  0  0  0
   -3.3949   -0.0613   -1.1780 C   0  0  0  0  0  0  0  0  0  0  0  0
   -1.2892    1.1858   -0.6250 C   0  0  0  0  0  0  0  0  0  0  0  0
   -0.9189   -0.3329    1.3576 C   0  0  0  0  0  0  0  0  0  0  0  0
    3.1309    0.5640   -0.1854 C   0  0  0  0  0  0  0  0  0  0  0  0
    3.5190    0.6225   -1.5324 C   0  0  0  0  0  0  0  0  0  0  0  0
    4.8523    0.4084   -1.8821 C   0  0  0  0  0  0  0  0  0  0  0  0
    5.7961    0.1375   -0.8917 C   0  0  0  0  0  0  0  0  0  0  0  0
    5.4087    0.0789    0.4498 C   0  0  0  0  0  0  0  0  0  0  0  0
    4.0743    0.2929    0.8095 C   0  0  0  0  0  0  0  0  0  0  0  0
    3.6564    0.1502    2.4780 Cl  0  0  0  0  0  0  0  0  0  0  0  0
    1.2391   -0.9283   -0.8319 H   0  0  0  0  0  0  0  0  0  0  0  0
   -1.0227   -1.1877   -2.0084 H   0  0  0  0  0  0  0  0  0  0  0  0
   -0.7672   -2.2473   -0.6314 H   0  0  0  0  0  0  0  0  0  0  0  0
   -3.1686   -2.2146   -1.2743 H   0  0  0  0  0  0  0  0  0  0  0  0
   -2.5863   -2.5150    1.1328 H   0  0  0  0  0  0  0  0  0  0  0  0
   -4.1068   -1.6402    0.9665 H   0  0  0  0  0  0  0  0  0  0  0  0
   -2.6426   -0.5389    2.6575 H   0  0  0  0  0  0  0  0  0  0  0  0
   -4.1618    0.8924    1.2938 H   0  0  0  0  0  0  0  0  0  0  0  0
   -2.6789    1.7611    1.6823 H   0  0  0  0  0  0  0  0  0  0  0  0
   -3.2740    2.0544   -0.7260 H   0  0  0  0  0  0  0  0  0  0  0  0
   -4.4816   -0.1051   -1.0354 H   0  0  0  0  0  0  0  0  0  0  0  0
   -3.2201    0.0799   -2.2516 H   0  0  0  0  0  0  0  0  0  0  0  0
   -1.0817    1.3494   -1.6906 H   0  0  0  0  0  0  0  0  0  0  0  0
   -0.8872    2.0582   -0.0972 H   0  0  0  0  0  0  0  0  0  0  0  0
   -0.4472   -1.2583    1.7135 H   0  0  0  0  0  0  0  0  0  0  0  0
   -0.4972    0.4783    1.9632 H   0  0  0  0  0  0  0  0  0  0  0  0
    2.7884    0.8545   -2.3043 H   0  0  0  0  0  0  0  0  0  0  0  0
    5.1578    0.4620   -2.9247 H   0  0  0  0  0  0  0  0  0  0  0  0
    6.8370   -0.0258   -1.1625 H   0  0  0  0  0  0  0  0  0  0  0  0
    6.1540   -0.1368    1.2121 H   0  0  0  0  0  0  0  0  0  0  0  0
  1  2  2  0
  2  3  1  0
  4  3  1  1
  4  5  1  0
  5  6  1  0
  6  7  1  0
  7  8  1  0
  8  9  1  0
  9 10  1  0
 10 11  1  0
 10 12  1  0
  8 13  1  0
  2 14  1  0
 14 15  2  0
 15 16  1  0
 16 17  2  0
 17 18  1  0
 18 19  2  0
 19 20  1  0
 12  4  1  0
 19 14  1  0
 13  4  1  0
 11  6  1  0
  3 21  1  0
  5 22  1  0
  5 23  1  0
  6 24  1  6
  7 25  1  0
  7 26  1  0
  8 27  1  1
  9 28  1  0
  9 29  1  0
 10 30  1  6
 11 31  1  0
 11 32  1  0
 12 33  1  0
 12 34  1  0
 13 35  1  0
 13 36  1  0
 15 37  1  0
 16 38  1  0
 17 39  1  0
 18 40  1  0
M  END
>  <_SMILES>  (28) 
O=C(N[C@]12C[C@H]3C[C@H](C[C@H](C3)C1)C2)c1ccccc1Cl

$$$$

     RDKit          3D

 40 43  0  0  0  0  0  0  0  0999 V2000
    1.1301   -1.2559   -1.5628 O   0  0  0  0  0  0  0  0  0  0  0  0
    1.5895   -0.7288   -0.5579 C   0  0  0  0  0  0  0  0  0  0  0  0
    0.8411   -0.0675    0.3949 N   0  0  0  0  0  0  0  0  0  0  0  0
   -0.6106    0.1354    0.3131 C   0  0  2  0  0  0  0  0  0  0  0  0
   -0.9968    1.0020   -0.9106 C   0  0  0  0  0  0  0  0  0  0  0  0
   -2.5158    1.2477   -0.9416 C   0  0  1  0  0  0  0  0  0  0  0  0
   -3.2467   -0.1039   -1.0135 C   0  0  0  0  0  0  0  0  0  0  0  0
   -2.9005   -0.9596    0.2171 C   0  0  2  0  0  0  0  0  0  0  0  0
   -3.3210   -0.2103    1.4908 C   0  0  0  0  0  0  0  0  0  0  0  0
   -2.5863    1.1365    1.5725 C   0  0  2  0  0  0  0  0  0  0  0  0
   -2.9377    1.9842    0.3398 C   0  0  0  0  0  0  0  0  0  0  0  0
   -1.0706    0.8830    1.5945 C   0  0  0  0  0  0  0  0  0  0  0  0
   -1.3818   -1.2076    0.2498 C   0  0  0  0  0  0  0  0  0  0  0  0
    3.0619   -0.7468   -0.3302 C   0  0  0  0  0  0  0  0  0  0  0  0
    3.9087   -0.7995   -1.4474 C   0  0  0  0  0  0  0  0  0  0  0  0
    5.2942   -0.8208   -1.2767 C   0  0  0  0  0  0  0  0  0  0  0  0
    5.8258   -0.7999    0.0077 C   0  0  0  0  0  0  0  0  0  0  0  0
    7.1545   -0.8220    0.1723 F   0  0  0  0  0  0  0  0  0  0  0  0
    4.9990   -0.7649    1.1262 C   0  0  0  0  0  0  0  0  0  0  0  0
    3.6118   -0.7425    0.9607 C   0  0  0  0  0  0  0  0  0  0  0  0
    1.3426    0.5322    1.0361 H   0  0  0  0  0  0  0  0  0  0  0  0
   -0.4640    1.9614   -0.8768 H   0  0  0  0  0  0  0  0  0  0  0  0
   -0.6934    0.5159   -1.8454 H   0  0  0  0  0  0  0  0  0  0  0  0
   -2.7732    1.8540   -1.8173 H   0  0  0  0  0  0  0  0  0  0  0  0
   -2.9637   -0.6346   -1.9308 H   0  0  0  0  0  0  0  0  0  0  0  0
   -4.3303    0.0596   -1.0618 H   0  0  0  0  0  0  0  0  0  0  0  0
   -3.4293   -1.9177    0.1614 H   0  0  0  0  0  0  0  0  0  0  0  0
   -3.0923   -0.8169    2.3756 H   0  0  0  0  0  0  0  0  0  0  0  0
   -4.4056   -0.0464    1.4888 H   0  0  0  0  0  0  0  0  0  0  0  0
   -2.8863    1.6665    2.4834 H   0  0  0  0  0  0  0  0  0  0  0  0
   -4.0158    2.1857    0.3185 H   0  0  0  0  0  0  0  0  0  0  0  0
   -2.4332    2.9565    0.3968 H   0  0  0  0  0  0  0  0  0  0  0  0
   -0.8045    0.3007    2.4869 H   0  0  0  0  0  0  0  0  0  0  0  0
   -0.5392    1.8401    1.6845 H   0  0  0  0  0  0  0  0  0  0  0  0
   -1.1232   -1.8321    1.1150 H   0  0  0  0  0  0  0  0  0  0  0  0
   -1.0998   -1.7837   -0.6388 H   0  0  0  0  0  0  0  0  0  0  0  0
    3.4876   -0.8233   -2.4510 H   0  0  0  0  0  0  0  0  0  0  0  0
    5.9578   -0.8582   -2.1349 H   0  0  0  0  0  0  0  0  0  0  0  0
    5.4407   -0.7665    2.1180 H   0  0  0  0  0  0  0  0  0  0  0  0
    2.9763   -0.7522    1.8418 H   0  0  0  0  0  0  0  0  0  0  0  0
  1  2  2  0
  2  3  1  0
  4  3  1  1
  4  5  1  0
  5  6  1  0
  6  7  1  0
  7  8  1  0
  8  9  1  0
  9 10  1  0
 10 11  1  0
 10 12  1  0
  8 13  1  0
  2 14  1  0
 14 15  1  0
 15 16  2  0
 16 17  1  0
 17 18  1  0
 17 19  2  0
 19 20  1  0
 12  4  1  0
 20 14  2  0
 13  4  1  0
 11  6  1  0
  3 21  1  0
  5 22  1  0
  5 23  1  0
  6 24  1  6
  7 25  1  0
  7 26  1  0
  8 27  1  6
  9 28  1  0
  9 29  1  0
 10 30  1  1
 11 31  1  0
 11 32  1  0
 12 33  1  0
 12 34  1  0
 13 35  1  0
 13 36  1  0
 15 37  1  0
 16 38  1  0
 19 39  1  0
 20 40  1  0
M  END
>  <_SMILES>  (29) 
O=C(N[C@]12C[C@H]3C[C@H](C[C@H](C3)C1)C2)c1ccc(F)cc1

$$$$

     RDKit          3D

 40 43  0  0  0  0  0  0  0  0999 V2000
    1.3413    1.0291    1.6573 O   0  0  0  0  0  0  0  0  0  0  0  0
    1.6886    0.4782    0.6206 C   0  0  0  0  0  0  0  0  0  0  0  0
    0.8307   -0.1400   -0.2666 N   0  0  0  0  0  0  0  0  0  0  0  0
   -0.6286   -0.1845   -0.1124 C   0  0  2  0  0  0  0  0  0  0  0  0
   -1.2181   -1.0037   -1.2931 C   0  0  0  0  0  0  0  0  0  0  0  0
   -2.7499   -1.0852   -1.1989 C   0  0  1  0  0  0  0  0  0  0  0  0
   -3.1376   -1.7662    0.1225 C   0  0  0  0  0  0  0  0  0  0  0  0
   -2.5858   -0.9603    1.3085 C   0  0  2  0  0  0  0  0  0  0  0  0
   -3.1659    0.4639    1.2687 C   0  0  0  0  0  0  0  0  0  0  0  0
   -2.7832    1.1552   -0.0511 C   0  0  2  0  0  0  0  0  0  0  0  0
   -3.3331    0.3363   -1.2298 C   0  0  0  0  0  0  0  0  0  0  0  0
   -1.2499    1.2332   -0.1570 C   0  0  0  0  0  0  0  0  0  0  0  0
   -1.0521   -0.8850    1.2038 C   0  0  0  0  0  0  0  0  0  0  0  0
    3.1274    0.4878    0.2339 C   0  0  0  0  0  0  0  0  0  0  0  0
    3.9283    1.5519    0.6706 C   0  0  0  0  0  0  0  0  0  0  0  0
    5.2834    1.5977    0.3327 C   0  0  0  0  0  0  0  0  0  0  0  0
    5.8397    0.5744   -0.4327 C   0  0  0  0  0  0  0  0  0  0  0  0
    7.5079    0.6283   -0.8490 Cl  0  0  0  0  0  0  0  0  0  0  0  0
    5.0552   -0.4978   -0.8577 C   0  0  0  0  0  0  0  0  0  0  0  0
    3.6985   -0.5455   -0.5218 C   0  0  0  0  0  0  0  0  0  0  0  0
    1.1903   -0.3349   -1.1912 H   0  0  0  0  0  0  0  0  0  0  0  0
   -0.7920   -2.0160   -1.2994 H   0  0  0  0  0  0  0  0  0  0  0  0
   -0.9325   -0.5460   -2.2499 H   0  0  0  0  0  0  0  0  0  0  0  0
   -3.1424   -1.6642   -2.0423 H   0  0  0  0  0  0  0  0  0  0  0  0
   -2.7423   -2.7891    0.1478 H   0  0  0  0  0  0  0  0  0  0  0  0
   -4.2291   -1.8448    0.1978 H   0  0  0  0  0  0  0  0  0  0  0  0
   -2.8676   -1.4477    2.2485 H   0  0  0  0  0  0  0  0  0  0  0  0
   -2.7899    1.0458    2.1192 H   0  0  0  0  0  0  0  0  0  0  0  0
   -4.2577    0.4254    1.3673 H   0  0  0  0  0  0  0  0  0  0  0  0
   -3.2061    2.1658   -0.0750 H   0  0  0  0  0  0  0  0  0  0  0  0
   -3.0783    0.8259   -2.1777 H   0  0  0  0  0  0  0  0  0  0  0  0
   -4.4279    0.2934   -1.1779 H   0  0  0  0  0  0  0  0  0  0  0  0
   -0.9652    1.7408   -1.0879 H   0  0  0  0  0  0  0  0  0  0  0  0
   -0.8653    1.8544    0.6607 H   0  0  0  0  0  0  0  0  0  0  0  0
   -0.6652   -0.3499    2.0784 H   0  0  0  0  0  0  0  0  0  0  0  0
   -0.6240   -1.8950    1.2480 H   0  0  0  0  0  0  0  0  0  0  0  0
    3.4960    2.3478    1.2749 H   0  0  0  0  0  0  0  0  0  0  0  0
    5.8954    2.4290    0.6732 H   0  0  0  0  0  0  0  0  0  0  0  0
    5.4960   -1.3029   -1.4402 H   0  0  0  0  0  0  0  0  0  0  0  0
    3.1108   -1.4059   -0.8301 H   0  0  0  0  0  0  0  0  0  0  0  0
  1  2  2  0
  2  3  1  0
  4  3  1  6
  4  5  1  0
  5  6  1  0
  6  7  1  0
  7  8  1  0
  8  9  1  0
  9 10  1  0
 10 11  1  0
 10 12  1  0
  8 13  1  0
  2 14  1  0
 14 15  1  0
 15 16  2  0
 16 17  1  0
 17 18  1  0
 17 19  2  0
 19 20  1  0
 12  4  1  0
 20 14  2  0
 13  4  1  0
 11  6  1  0
  3 21  1  0
  5 22  1  0
  5 23  1  0
  6 24  1  6
  7 25  1  0
  7 26  1  0
  8 27  1  1
  9 28  1  0
  9 29  1  0
 10 30  1  1
 11 31  1  0
 11 32  1  0
 12 33  1  0
 12 34  1  0
 13 35  1  0
 13 36  1  0
 15 37  1  0
 16 38  1  0
 19 39  1  0
 20 40  1  0
M  END
>  <_SMILES>  (30) 
O=C(N[C@]12C[C@H]3C[C@H](C[C@H](C3)C1)C2)c1ccc(Cl)cc1

$$$$

     RDKit          3D

 40 43  0  0  0  0  0  0  0  0999 V2000
    1.4322    1.1715   -1.4430 O   0  0  0  0  0  0  0  0  0  0  0  0
    1.7238    0.4150   -0.5256 C   0  0  0  0  0  0  0  0  0  0  0  0
    0.8123   -0.1710    0.3295 N   0  0  0  0  0  0  0  0  0  0  0  0
   -0.6428   -0.0040    0.2295 C   0  0  2  0  0  0  0  0  0  0  0  0
   -1.1917   -0.5740   -1.1015 C   0  0  0  0  0  0  0  0  0  0  0  0
   -2.7238   -0.4389   -1.1566 C   0  0  1  0  0  0  0  0  0  0  0  0
   -3.3453   -1.2215    0.0110 C   0  0  0  0  0  0  0  0  0  0  0  0
   -2.8350   -0.6626    1.3485 C   0  0  2  0  0  0  0  0  0  0  0  0
   -3.2224    0.8197    1.4621 C   0  0  0  0  0  0  0  0  0  0  0  0
   -2.5993    1.6140    0.3039 C   0  0  2  0  0  0  0  0  0  0  0  0
   -3.1066    1.0458   -1.0326 C   0  0  0  0  0  0  0  0  0  0  0  0
   -1.0670    1.4810    0.3611 C   0  0  0  0  0  0  0  0  0  0  0  0
   -1.3040   -0.7882    1.3959 C   0  0  0  0  0  0  0  0  0  0  0  0
    3.1502    0.0443   -0.3076 C   0  0  0  0  0  0  0  0  0  0  0  0
    4.0151    0.0430   -1.4102 C   0  0  0  0  0  0  0  0  0  0  0  0
    5.3607   -0.2964   -1.2493 C   0  0  0  0  0  0  0  0  0  0  0  0
    5.8427   -0.6242    0.0169 C   0  0  0  0  0  0  0  0  0  0  0  0
    7.6633   -1.0817    0.2377 Br  0  0  0  0  0  0  0  0  0  0  0  0
    4.9947   -0.6093    1.1244 C   0  0  0  0  0  0  0  0  0  0  0  0
    3.6475   -0.2709    0.9645 C   0  0  0  0  0  0  0  0  0  0  0  0
    1.1376   -0.9573    0.8756 H   0  0  0  0  0  0  0  0  0  0  0  0
   -0.7547   -0.0510   -1.9605 H   0  0  0  0  0  0  0  0  0  0  0  0
   -0.9058   -1.6288   -1.2067 H   0  0  0  0  0  0  0  0  0  0  0  0
   -3.0949   -0.8380   -2.1072 H   0  0  0  0  0  0  0  0  0  0  0  0
   -3.0907   -2.2852   -0.0728 H   0  0  0  0  0  0  0  0  0  0  0  0
   -4.4392   -1.1518   -0.0313 H   0  0  0  0  0  0  0  0  0  0  0  0
   -3.2785   -1.2252    2.1776 H   0  0  0  0  0  0  0  0  0  0  0  0
   -4.3141    0.9245    1.4443 H   0  0  0  0  0  0  0  0  0  0  0  0
   -2.8793    1.2248    2.4221 H   0  0  0  0  0  0  0  0  0  0  0  0
   -2.8810    2.6697    0.3872 H   0  0  0  0  0  0  0  0  0  0  0  0
   -4.1961    1.1572   -1.0963 H   0  0  0  0  0  0  0  0  0  0  0  0
   -2.6793    1.6141   -1.8679 H   0  0  0  0  0  0  0  0  0  0  0  0
   -0.6901    1.8986    1.3039 H   0  0  0  0  0  0  0  0  0  0  0  0
   -0.6305    2.0890   -0.4393 H   0  0  0  0  0  0  0  0  0  0  0  0
   -1.0205   -1.8482    1.3467 H   0  0  0  0  0  0  0  0  0  0  0  0
   -0.9306   -0.4165    2.3596 H   0  0  0  0  0  0  0  0  0  0  0  0
    3.6398    0.3064   -2.3977 H   0  0  0  0  0  0  0  0  0  0  0  0
    6.0198   -0.2967   -2.1137 H   0  0  0  0  0  0  0  0  0  0  0  0
    5.3746   -0.8484    2.1147 H   0  0  0  0  0  0  0  0  0  0  0  0
    3.0087   -0.2286    1.8424 H   0  0  0  0  0  0  0  0  0  0  0  0
  1  2  2  0
  2  3  1  0
  4  3  1  6
  4  5  1  0
  5  6  1  0
  6  7  1  0
  7  8  1  0
  8  9  1  0
  9 10  1  0
 10 11  1  0
 10 12  1  0
  8 13  1  0
  2 14  1  0
 14 15  1  0
 15 16  2  0
 16 17  1  0
 17 18  1  0
 17 19  2  0
 19 20  1  0
 12  4  1  0
 20 14  2  0
 13  4  1  0
 11  6  1  0
  3 21  1  0
  5 22  1  0
  5 23  1  0
  6 24  1  6
  7 25  1  0
  7 26  1  0
  8 27  1  1
  9 28  1  0
  9 29  1  0
 10 30  1  1
 11 31  1  0
 11 32  1  0
 12 33  1  0
 12 34  1  0
 13 35  1  0
 13 36  1  0
 15 37  1  0
 16 38  1  0
 19 39  1  0
 20 40  1  0
M  END
>  <_SMILES>  (31) 
O=C(N[C@]12C[C@H]3C[C@H](C[C@H](C3)C1)C2)c1ccc(Br)cc1

$$$$

     RDKit          3D

 40 43  0  0  0  0  0  0  0  0999 V2000
    1.4865    1.8483   -0.3473 O   0  0  0  0  0  0  0  0  0  0  0  0
    1.7585    0.6522   -0.3346 C   0  0  0  0  0  0  0  0  0  0  0  0
    0.8090   -0.3430   -0.2465 N   0  0  0  0  0  0  0  0  0  0  0  0
   -0.6385   -0.1248   -0.1568 C   0  0  2  0  0  0  0  0  0  0  0  0
   -1.1864    0.6104   -1.4053 C   0  0  0  0  0  0  0  0  0  0  0  0
   -2.7130    0.7793   -1.3077 C   0  0  1  0  0  0  0  0  0  0  0  0
   -3.3731   -0.6057   -1.2212 C   0  0  0  0  0  0  0  0  0  0  0  0
   -2.8638   -1.3526    0.0213 C   0  0  2  0  0  0  0  0  0  0  0  0
   -3.2084   -0.5415    1.2800 C   0  0  0  0  0  0  0  0  0  0  0  0
   -2.5473    0.8439    1.2084 C   0  0  2  0  0  0  0  0  0  0  0  0
   -3.0535    1.5838   -0.0416 C   0  0  0  0  0  0  0  0  0  0  0  0
   -1.0205    0.6751    1.1136 C   0  0  0  0  0  0  0  0  0  0  0  0
   -1.3380   -1.5092   -0.0751 C   0  0  0  0  0  0  0  0  0  0  0  0
    3.1874    0.2303   -0.4179 C   0  0  0  0  0  0  0  0  0  0  0  0
    4.1712    1.2281   -0.5083 C   0  0  0  0  0  0  0  0  0  0  0  0
    5.5252    0.8890   -0.5888 C   0  0  0  0  0  0  0  0  0  0  0  0
    5.9114   -0.4502   -0.5798 C   0  0  0  0  0  0  0  0  0  0  0  0
    4.9438   -1.4492   -0.4904 C   0  0  0  0  0  0  0  0  0  0  0  0
    3.5939   -1.1060   -0.4103 C   0  0  0  0  0  0  0  0  0  0  0  0
    2.6997   -2.1040   -0.3258 F   0  0  0  0  0  0  0  0  0  0  0  0
    1.1313   -1.3047   -0.2431 H   0  0  0  0  0  0  0  0  0  0  0  0
   -0.7254    1.5992   -1.5127 H   0  0  0  0  0  0  0  0  0  0  0  0
   -0.9295    0.0519   -2.3150 H   0  0  0  0  0  0  0  0  0  0  0  0
   -3.0825    1.3093   -2.1928 H   0  0  0  0  0  0  0  0  0  0  0  0
   -4.4638   -0.4989   -1.1735 H   0  0  0  0  0  0  0  0  0  0  0  0
   -3.1492   -1.1851   -2.1253 H   0  0  0  0  0  0  0  0  0  0  0  0
   -3.3345   -2.3404    0.0777 H   0  0  0  0  0  0  0  0  0  0  0  0
   -2.8659   -1.0746    2.1754 H   0  0  0  0  0  0  0  0  0  0  0  0
   -4.2963   -0.4336    1.3703 H   0  0  0  0  0  0  0  0  0  0  0  0
   -2.7994    1.4197    2.1060 H   0  0  0  0  0  0  0  0  0  0  0  0
   -2.5987    2.5804   -0.0972 H   0  0  0  0  0  0  0  0  0  0  0  0
   -4.1383    1.7324    0.0260 H   0  0  0  0  0  0  0  0  0  0  0  0
   -0.6447    0.1629    2.0091 H   0  0  0  0  0  0  0  0  0  0  0  0
   -0.5527    1.6665    1.1090 H   0  0  0  0  0  0  0  0  0  0  0  0
   -0.9680   -2.0679    0.7951 H   0  0  0  0  0  0  0  0  0  0  0  0
   -1.0833   -2.1129   -0.9567 H   0  0  0  0  0  0  0  0  0  0  0  0
    3.8848    2.2789   -0.5164 H   0  0  0  0  0  0  0  0  0  0  0  0
    6.2759    1.6733   -0.6583 H   0  0  0  0  0  0  0  0  0  0  0  0
    6.9645   -0.7140   -0.6424 H   0  0  0  0  0  0  0  0  0  0  0  0
    5.2316   -2.4963   -0.4825 H   0  0  0  0  0  0  0  0  0  0  0  0
  1  2  2  0
  2  3  1  0
  4  3  1  6
  4  5  1  0
  5  6  1  0
  6  7  1  0
  7  8  1  0
  8  9  1  0
  9 10  1  0
 10 11  1  0
 10 12  1  0
  8 13  1  0
  2 14  1  0
 14 15  2  0
 15 16  1  0
 16 17  2  0
 17 18  1  0
 18 19  2  0
 19 20  1  0
 12  4  1  0
 19 14  1  0
 13  4  1  0
 11  6  1  0
  3 21  1  0
  5 22  1  0
  5 23  1  0
  6 24  1  6
  7 25  1  0
  7 26  1  0
  8 27  1  1
  9 28  1  0
  9 29  1  0
 10 30  1  1
 11 31  1  0
 11 32  1  0
 12 33  1  0
 12 34  1  0
 13 35  1  0
 13 36  1  0
 15 37  1  0
 16 38  1  0
 17 39  1  0
 18 40  1  0
M  END
>  <_SMILES>  (32) 
O=C(N[C@]12C[C@H]3C[C@H](C[C@H](C3)C1)C2)c1ccccc1F

$$$$

     RDKit          3D

 40 43  0  0  0  0  0  0  0  0999 V2000
    0.6739   -2.1687   -0.7036 O   0  0  0  0  0  0  0  0  0  0  0  0
    0.6122   -1.1155   -1.3242 C   0  0  0  0  0  0  0  0  0  0  0  0
    0.1630    0.0805   -0.8033 N   0  0  0  0  0  0  0  0  0  0  0  0
   -0.2715    0.2658    0.5874 C   0  0  2  0  0  0  0  0  0  0  0  0
   -0.7393    1.7369    0.7597 C   0  0  0  0  0  0  0  0  0  0  0  0
   -1.2034    2.0042    2.2002 C   0  0  1  0  0  0  0  0  0  0  0  0
   -2.3738    1.0669    2.5344 C   0  0  0  0  0  0  0  0  0  0  0  0
   -1.9287   -0.3970    2.3946 C   0  0  2  0  0  0  0  0  0  0  0  0
   -0.7576   -0.6658    3.3553 C   0  0  0  0  0  0  0  0  0  0  0  0
    0.4204    0.2681    3.0292 C   0  0  2  0  0  0  0  0  0  0  0  0
   -0.0387    1.7286    3.1642 C   0  0  0  0  0  0  0  0  0  0  0  0
    0.8856    0.0123    1.5847 C   0  0  0  0  0  0  0  0  0  0  0  0
   -1.4662   -0.6531    0.9492 C   0  0  0  0  0  0  0  0  0  0  0  0
    1.0818   -1.0772   -2.7367 C   0  0  0  0  0  0  0  0  0  0  0  0
    2.0737   -1.9825   -3.1341 C   0  0  0  0  0  0  0  0  0  0  0  0
    2.5383   -1.9844   -4.4516 C   0  0  0  0  0  0  0  0  0  0  0  0
    2.0074   -1.0880   -5.3829 C   0  0  0  0  0  0  0  0  0  0  0  0
    2.6282   -1.1395   -6.9937 Cl  0  0  0  0  0  0  0  0  0  0  0  0
    1.0028   -0.1935   -4.9927 C   0  0  0  0  0  0  0  0  0  0  0  0
    0.2901    0.9332   -6.0929 Cl  0  0  0  0  0  0  0  0  0  0  0  0
    0.5368   -0.1903   -3.6728 C   0  0  0  0  0  0  0  0  0  0  0  0
    0.3803    0.9230   -1.3182 H   0  0  0  0  0  0  0  0  0  0  0  0
   -1.5563    1.9572    0.0595 H   0  0  0  0  0  0  0  0  0  0  0  0
    0.0772    2.4252    0.5028 H   0  0  0  0  0  0  0  0  0  0  0  0
   -1.5254    3.0470    2.2980 H   0  0  0  0  0  0  0  0  0  0  0  0
   -3.2186    1.2676    1.8641 H   0  0  0  0  0  0  0  0  0  0  0  0
   -2.7260    1.2560    3.5559 H   0  0  0  0  0  0  0  0  0  0  0  0
   -2.7654   -1.0616    2.6371 H   0  0  0  0  0  0  0  0  0  0  0  0
   -0.4395   -1.7125    3.2749 H   0  0  0  0  0  0  0  0  0  0  0  0
   -1.0816   -0.5104    4.3918 H   0  0  0  0  0  0  0  0  0  0  0  0
    1.2472    0.0757    3.7221 H   0  0  0  0  0  0  0  0  0  0  0  0
   -0.3511    1.9294    4.1964 H   0  0  0  0  0  0  0  0  0  0  0  0
    0.7964    2.4058    2.9470 H   0  0  0  0  0  0  0  0  0  0  0  0
    1.2531   -1.0176    1.5037 H   0  0  0  0  0  0  0  0  0  0  0  0
    1.7381    0.6618    1.3464 H   0  0  0  0  0  0  0  0  0  0  0  0
   -1.1963   -1.7104    0.8477 H   0  0  0  0  0  0  0  0  0  0  0  0
   -2.2984   -0.4809    0.2540 H   0  0  0  0  0  0  0  0  0  0  0  0
    2.4874   -2.6894   -2.4157 H   0  0  0  0  0  0  0  0  0  0  0  0
    3.3120   -2.6910   -4.7442 H   0  0  0  0  0  0  0  0  0  0  0  0
   -0.2681    0.4841   -3.3935 H   0  0  0  0  0  0  0  0  0  0  0  0
  1  2  2  0
  2  3  1  0
  4  3  1  6
  4  5  1  0
  5  6  1  0
  6  7  1  0
  7  8  1  0
  8  9  1  0
  9 10  1  0
 10 11  1  0
 10 12  1  0
  8 13  1  0
  2 14  1  0
 14 15  1  0
 15 16  2  0
 16 17  1  0
 17 18  1  0
 17 19  2  0
 19 20  1  0
 19 21  1  0
 12  4  1  0
 21 14  2  0
 13  4  1  0
 11  6  1  0
  3 22  1  0
  5 23  1  0
  5 24  1  0
  6 25  1  6
  7 26  1  0
  7 27  1  0
  8 28  1  1
  9 29  1  0
  9 30  1  0
 10 31  1  1
 11 32  1  0
 11 33  1  0
 12 34  1  0
 12 35  1  0
 13 36  1  0
 13 37  1  0
 15 38  1  0
 16 39  1  0
 21 40  1  0
M  END
>  <_SMILES>  (33) 
O=C(N[C@]12C[C@H]3C[C@H](C[C@H](C3)C1)C2)c1ccc(Cl)c(Cl)c1

$$$$

     RDKit          3D

 40 43  0  0  0  0  0  0  0  0999 V2000
    1.1836   -1.9011   -0.8111 O   0  0  0  0  0  0  0  0  0  0  0  0
    1.6245   -0.8262   -0.4254 C   0  0  0  0  0  0  0  0  0  0  0  0
    0.8506    0.2406   -0.0168 N   0  0  0  0  0  0  0  0  0  0  0  0
   -0.6166    0.2214    0.0482 C   0  0  2  0  0  0  0  0  0  0  0  0
   -1.1283   -0.8253    1.0682 C   0  0  0  0  0  0  0  0  0  0  0  0
   -2.6641   -0.7859    1.1592 C   0  0  1  0  0  0  0  0  0  0  0  0
   -3.1104    0.6115    1.6176 C   0  0  0  0  0  0  0  0  0  0  0  0
   -2.6348    1.6711    0.6112 C   0  0  2  0  0  0  0  0  0  0  0  0
   -3.2371    1.3688   -0.7694 C   0  0  0  0  0  0  0  0  0  0  0  0
   -2.7908   -0.0234   -1.2420 C   0  0  2  0  0  0  0  0  0  0  0  0
   -3.2618   -1.0794   -0.2274 C   0  0  0  0  0  0  0  0  0  0  0  0
   -1.2550   -0.0614   -1.3356 C   0  0  0  0  0  0  0  0  0  0  0  0
   -1.1019    1.6216    0.5139 C   0  0  0  0  0  0  0  0  0  0  0  0
    3.0989   -0.6331   -0.3448 C   0  0  0  0  0  0  0  0  0  0  0  0
    3.9103   -1.7626   -0.1453 C   0  0  0  0  0  0  0  0  0  0  0  0
    5.2992   -1.6296   -0.0701 C   0  0  0  0  0  0  0  0  0  0  0  0
    5.8724   -0.3702   -0.2041 C   0  0  0  0  0  0  0  0  0  0  0  0
    7.2039   -0.2422   -0.1313 F   0  0  0  0  0  0  0  0  0  0  0  0
    5.0725    0.7472   -0.4181 C   0  0  0  0  0  0  0  0  0  0  0  0
    5.6310    1.9573   -0.5586 F   0  0  0  0  0  0  0  0  0  0  0  0
    3.6876    0.6283   -0.4943 C   0  0  0  0  0  0  0  0  0  0  0  0
    1.3103    0.9774    0.5006 H   0  0  0  0  0  0  0  0  0  0  0  0
   -0.6906   -0.6340    2.0568 H   0  0  0  0  0  0  0  0  0  0  0  0
   -0.8121   -1.8358    0.7835 H   0  0  0  0  0  0  0  0  0  0  0  0
   -3.0100   -1.5377    1.8774 H   0  0  0  0  0  0  0  0  0  0  0  0
   -4.2031    0.6449    1.7087 H   0  0  0  0  0  0  0  0  0  0  0  0
   -2.7014    0.8283    2.6121 H   0  0  0  0  0  0  0  0  0  0  0  0
   -2.9528    2.6656    0.9435 H   0  0  0  0  0  0  0  0  0  0  0  0
   -2.9194    2.1300   -1.4924 H   0  0  0  0  0  0  0  0  0  0  0  0
   -4.3320    1.4147   -0.7192 H   0  0  0  0  0  0  0  0  0  0  0  0
   -3.2253   -0.2359   -2.2251 H   0  0  0  0  0  0  0  0  0  0  0  0
   -4.3573   -1.0793   -0.1696 H   0  0  0  0  0  0  0  0  0  0  0  0
   -2.9609   -2.0802   -0.5610 H   0  0  0  0  0  0  0  0  0  0  0  0
   -0.9064    0.6769   -2.0696 H   0  0  0  0  0  0  0  0  0  0  0  0
   -0.9495   -1.0417   -1.7187 H   0  0  0  0  0  0  0  0  0  0  0  0
   -0.7489    2.3938   -0.1828 H   0  0  0  0  0  0  0  0  0  0  0  0
   -0.6634    1.8676    1.4904 H   0  0  0  0  0  0  0  0  0  0  0  0
    3.4575   -2.7487   -0.0484 H   0  0  0  0  0  0  0  0  0  0  0  0
    5.9322   -2.4976    0.0871 H   0  0  0  0  0  0  0  0  0  0  0  0
    3.0994    1.5168   -0.6970 H   0  0  0  0  0  0  0  0  0  0  0  0
  1  2  2  0
  2  3  1  0
  4  3  1  6
  4  5  1  0
  5  6  1  0
  6  7  1  0
  7  8  1  0
  8  9  1  0
  9 10  1  0
 10 11  1  0
 10 12  1  0
  8 13  1  0
  2 14  1  0
 14 15  1  0
 15 16  2  0
 16 17  1  0
 17 18  1  0
 17 19  2  0
 19 20  1  0
 19 21  1  0
 12  4  1  0
 21 14  2  0
 13  4  1  0
 11  6  1  0
  3 22  1  0
  5 23  1  0
  5 24  1  0
  6 25  1  1
  7 26  1  0
  7 27  1  0
  8 28  1  1
  9 29  1  0
  9 30  1  0
 10 31  1  6
 11 32  1  0
 11 33  1  0
 12 34  1  0
 12 35  1  0
 13 36  1  0
 13 37  1  0
 15 38  1  0
 16 39  1  0
 21 40  1  0
M  END
>  <_SMILES>  (34) 
O=C(N[C@]12C[C@H]3C[C@H](C[C@H](C3)C1)C2)c1ccc(F)c(F)c1

$$$$

     RDKit          3D

 50 54  0  0  0  0  0  0  0  0999 V2000
    0.6130    1.7242   -1.1966 O   0  0  0  0  0  0  0  0  0  0  0  0
    0.1955    0.7264   -0.6231 C   0  0  0  0  0  0  0  0  0  0  0  0
    0.9937   -0.2377   -0.0415 N   0  0  0  0  0  0  0  0  0  0  0  0
    2.4602   -0.1813    0.0043 C   0  0  2  0  0  0  0  0  0  0  0  0
    2.9754   -1.4690    0.7036 C   0  0  0  0  0  0  0  0  0  0  0  0
    4.5097   -1.4733    0.7926 C   0  0  1  0  0  0  0  0  0  0  0  0
    5.0967   -1.4076   -0.6256 C   0  0  0  0  0  0  0  0  0  0  0  0
    4.6204   -0.1283   -1.3307 C   0  0  2  0  0  0  0  0  0  0  0  0
    5.0778    1.0978   -0.5221 C   0  0  0  0  0  0  0  0  0  0  0  0
    4.4953    1.0419    0.9005 C   0  0  2  0  0  0  0  0  0  0  0  0
    4.9716   -0.2451    1.5926 C   0  0  0  0  0  0  0  0  0  0  0  0
    2.9584    1.0373    0.8195 C   0  0  0  0  0  0  0  0  0  0  0  0
    3.0835   -0.1346   -1.4141 C   0  0  0  0  0  0  0  0  0  0  0  0
   -1.2734    0.5227   -0.4908 C   0  0  0  0  0  0  0  0  0  0  0  0
   -2.1029    1.6476   -0.4637 C   0  0  0  0  0  0  0  0  0  0  0  0
   -3.4872    1.4977   -0.3445 C   0  0  0  0  0  0  0  0  0  0  0  0
   -4.0748    0.2227   -0.2583 C   0  0  0  0  0  0  0  0  0  0  0  0
   -5.5353    0.1202   -0.1315 C   0  0  0  0  0  0  0  0  0  0  0  0
   -6.3666    0.3317   -1.2427 C   0  0  0  0  0  0  0  0  0  0  0  0
   -7.7555    0.2455   -1.1225 C   0  0  0  0  0  0  0  0  0  0  0  0
   -8.3316   -0.0507    0.1109 C   0  0  0  0  0  0  0  0  0  0  0  0
   -7.5210   -0.2605    1.2244 C   0  0  0  0  0  0  0  0  0  0  0  0
   -6.1321   -0.1742    1.1044 C   0  0  0  0  0  0  0  0  0  0  0  0
   -3.2264   -0.9004   -0.3073 C   0  0  0  0  0  0  0  0  0  0  0  0
   -3.8472   -2.5159   -0.2430 Cl  0  0  0  0  0  0  0  0  0  0  0  0
   -1.8388   -0.7543   -0.4264 C   0  0  0  0  0  0  0  0  0  0  0  0
    0.5502   -0.8782    0.6031 H   0  0  0  0  0  0  0  0  0  0  0  0
    2.5484   -1.5473    1.7125 H   0  0  0  0  0  0  0  0  0  0  0  0
    2.6327   -2.3578    0.1569 H   0  0  0  0  0  0  0  0  0  0  0  0
    4.8491   -2.3882    1.2911 H   0  0  0  0  0  0  0  0  0  0  0  0
    4.7888   -2.2896   -1.2005 H   0  0  0  0  0  0  0  0  0  0  0  0
    6.1925   -1.4245   -0.5791 H   0  0  0  0  0  0  0  0  0  0  0  0
    5.0440   -0.0841   -2.3402 H   0  0  0  0  0  0  0  0  0  0  0  0
    6.1735    1.1273   -0.4762 H   0  0  0  0  0  0  0  0  0  0  0  0
    4.7555    2.0188   -1.0231 H   0  0  0  0  0  0  0  0  0  0  0  0
    4.8315    1.9142    1.4720 H   0  0  0  0  0  0  0  0  0  0  0  0
    4.5735   -0.2910    2.6137 H   0  0  0  0  0  0  0  0  0  0  0  0
    6.0652   -0.2425    1.6771 H   0  0  0  0  0  0  0  0  0  0  0  0
    2.6208    1.9763    0.3649 H   0  0  0  0  0  0  0  0  0  0  0  0
    2.5312    1.0150    1.8306 H   0  0  0  0  0  0  0  0  0  0  0  0
    2.7443   -0.9966   -2.0035 H   0  0  0  0  0  0  0  0  0  0  0  0
    2.7566    0.7575   -1.9601 H   0  0  0  0  0  0  0  0  0  0  0  0
   -1.6733    2.6458   -0.5335 H   0  0  0  0  0  0  0  0  0  0  0  0
   -4.1135    2.3888   -0.3174 H   0  0  0  0  0  0  0  0  0  0  0  0
   -5.9330    0.5601   -2.2142 H   0  0  0  0  0  0  0  0  0  0  0  0
   -8.3864    0.4073   -1.9926 H   0  0  0  0  0  0  0  0  0  0  0  0
   -9.4123   -0.1198    0.2040 H   0  0  0  0  0  0  0  0  0  0  0  0
   -7.9689   -0.4930    2.1870 H   0  0  0  0  0  0  0  0  0  0  0  0
   -5.5141   -0.3406    1.9842 H   0  0  0  0  0  0  0  0  0  0  0  0
   -1.2149   -1.6406   -0.4996 H   0  0  0  0  0  0  0  0  0  0  0  0
  1  2  2  0
  2  3  1  0
  4  3  1  6
  4  5  1  0
  5  6  1  0
  6  7  1  0
  7  8  1  0
  8  9  1  0
  9 10  1  0
 10 11  1  0
 10 12  1  0
  8 13  1  0
  2 14  1  0
 14 15  1  0
 15 16  2  0
 16 17  1  0
 17 18  1  0
 18 19  2  0
 19 20  1  0
 20 21  2  0
 21 22  1  0
 22 23  2  0
 17 24  2  0
 24 25  1  0
 24 26  1  0
 12  4  1  0
 26 14  2  0
 13  4  1  0
 23 18  1  0
 11  6  1  0
  3 27  1  0
  5 28  1  0
  5 29  1  0
  6 30  1  1
  7 31  1  0
  7 32  1  0
  8 33  1  6
  9 34  1  0
  9 35  1  0
 10 36  1  1
 11 37  1  0
 11 38  1  0
 12 39  1  0
 12 40  1  0
 13 41  1  0
 13 42  1  0
 15 43  1  0
 16 44  1  0
 19 45  1  0
 20 46  1  0
 21 47  1  0
 22 48  1  0
 23 49  1  0
 26 50  1  0
M  END
>  <_SMILES>  (35) 
O=C(N[C@]12C[C@H]3C[C@H](C[C@H](C3)C1)C2)c1ccc(-c2ccccc2)c(Cl)c1

$$$$

     RDKit          3D

 50 54  0  0  0  0  0  0  0  0999 V2000
   -0.5730    1.9970    0.5032 O   0  0  0  0  0  0  0  0  0  0  0  0
   -0.1763    0.9182    0.0821 C   0  0  0  0  0  0  0  0  0  0  0  0
   -0.9939   -0.1163   -0.3254 N   0  0  0  0  0  0  0  0  0  0  0  0
   -2.4606   -0.0839   -0.2673 C   0  0  2  0  0  0  0  0  0  0  0  0
   -2.9706    0.0401    1.1895 C   0  0  0  0  0  0  0  0  0  0  0  0
   -4.5089    0.0140    1.2280 C   0  0  1  0  0  0  0  0  0  0  0  0
   -5.0569    1.1797    0.3870 C   0  0  0  0  0  0  0  0  0  0  0  0
   -4.5879    1.0468   -1.0720 C   0  0  2  0  0  0  0  0  0  0  0  0
   -5.0890   -0.2871   -1.6466 C   0  0  0  0  0  0  0  0  0  0  0  0
   -4.5365   -1.4555   -0.8160 C   0  0  2  0  0  0  0  0  0  0  0  0
   -5.0096   -1.3145    0.6394 C   0  0  0  0  0  0  0  0  0  0  0  0
   -3.0005   -1.4176   -0.8525 C   0  0  0  0  0  0  0  0  0  0  0  0
   -3.0495    1.0736   -1.1133 C   0  0  0  0  0  0  0  0  0  0  0  0
    1.2864    0.6509    0.0254 C   0  0  0  0  0  0  0  0  0  0  0  0
    1.8478   -0.1992   -0.9342 C   0  0  0  0  0  0  0  0  0  0  0  0
    3.2311   -0.4173   -0.9546 C   0  0  0  0  0  0  0  0  0  0  0  0
    4.0822    0.2104   -0.0268 C   0  0  0  0  0  0  0  0  0  0  0  0
    5.5369   -0.0266   -0.0597 C   0  0  0  0  0  0  0  0  0  0  0  0
    6.0586   -1.3320   -0.0914 C   0  0  0  0  0  0  0  0  0  0  0  0
    7.4373   -1.5593   -0.1328 C   0  0  0  0  0  0  0  0  0  0  0  0
    8.3211   -0.4838   -0.1436 C   0  0  0  0  0  0  0  0  0  0  0  0
    7.8276    0.8173   -0.1109 C   0  0  0  0  0  0  0  0  0  0  0  0
    6.4487    1.0426   -0.0692 C   0  0  0  0  0  0  0  0  0  0  0  0
    3.4910    1.0720    0.9119 C   0  0  0  0  0  0  0  0  0  0  0  0
    4.2494    1.7003    1.8239 F   0  0  0  0  0  0  0  0  0  0  0  0
    2.1164    1.2982    0.9422 C   0  0  0  0  0  0  0  0  0  0  0  0
   -0.5686   -1.0291   -0.4161 H   0  0  0  0  0  0  0  0  0  0  0  0
   -2.6163    0.9700    1.6500 H   0  0  0  0  0  0  0  0  0  0  0  0
   -2.5679   -0.7780    1.8012 H   0  0  0  0  0  0  0  0  0  0  0  0
   -4.8532    0.1117    2.2637 H   0  0  0  0  0  0  0  0  0  0  0  0
   -6.1531    1.1867    0.4278 H   0  0  0  0  0  0  0  0  0  0  0  0
   -4.7169    2.1353    0.8046 H   0  0  0  0  0  0  0  0  0  0  0  0
   -4.9870    1.8771   -1.6654 H   0  0  0  0  0  0  0  0  0  0  0  0
   -4.7729   -0.3874   -2.6922 H   0  0  0  0  0  0  0  0  0  0  0  0
   -6.1857   -0.3092   -1.6419 H   0  0  0  0  0  0  0  0  0  0  0  0
   -4.8934   -2.4049   -1.2304 H   0  0  0  0  0  0  0  0  0  0  0  0
   -6.1049   -1.3545    0.6829 H   0  0  0  0  0  0  0  0  0  0  0  0
   -4.6364   -2.1543    1.2383 H   0  0  0  0  0  0  0  0  0  0  0  0
   -2.5983   -2.2685   -0.2864 H   0  0  0  0  0  0  0  0  0  0  0  0
   -2.6504   -1.5450   -1.8857 H   0  0  0  0  0  0  0  0  0  0  0  0
   -2.7042    2.0467   -0.7463 H   0  0  0  0  0  0  0  0  0  0  0  0
   -2.7017    0.9964   -2.1518 H   0  0  0  0  0  0  0  0  0  0  0  0
    1.2309   -0.6731   -1.6933 H   0  0  0  0  0  0  0  0  0  0  0  0
    3.6482   -1.0683   -1.7218 H   0  0  0  0  0  0  0  0  0  0  0  0
    5.3906   -2.1905   -0.0699 H   0  0  0  0  0  0  0  0  0  0  0  0
    7.8194   -2.5766   -0.1517 H   0  0  0  0  0  0  0  0  0  0  0  0
    9.3932   -0.6589   -0.1733 H   0  0  0  0  0  0  0  0  0  0  0  0
    8.5135    1.6605   -0.1157 H   0  0  0  0  0  0  0  0  0  0  0  0
    6.0884    2.0697   -0.0457 H   0  0  0  0  0  0  0  0  0  0  0  0
    1.7051    1.9764    1.6851 H   0  0  0  0  0  0  0  0  0  0  0  0
  1  2  2  0
  2  3  1  0
  4  3  1  1
  4  5  1  0
  5  6  1  0
  6  7  1  0
  7  8  1  0
  8  9  1  0
  9 10  1  0
 10 11  1  0
 10 12  1  0
  8 13  1  0
  2 14  1  0
 14 15  1  0
 15 16  2  0
 16 17  1  0
 17 18  1  0
 18 19  2  0
 19 20  1  0
 20 21  2  0
 21 22  1  0
 22 23  2  0
 17 24  2  0
 24 25  1  0
 24 26  1  0
 12  4  1  0
 26 14  2  0
 13  4  1  0
 23 18  1  0
 11  6  1  0
  3 27  1  0
  5 28  1  0
  5 29  1  0
  6 30  1  1
  7 31  1  0
  7 32  1  0
  8 33  1  6
  9 34  1  0
  9 35  1  0
 10 36  1  6
 11 37  1  0
 11 38  1  0
 12 39  1  0
 12 40  1  0
 13 41  1  0
 13 42  1  0
 15 43  1  0
 16 44  1  0
 19 45  1  0
 20 46  1  0
 21 47  1  0
 22 48  1  0
 23 49  1  0
 26 50  1  0
M  END
>  <_SMILES>  (36) 
O=C(N[C@]12C[C@H]3C[C@H](C[C@H](C3)C1)C2)c1ccc(-c2ccccc2)c(F)c1

$$$$

     RDKit          3D

 53 57  0  0  0  0  0  0  0  0999 V2000
    4.1855    2.4185    0.5583 C   0  0  0  0  0  0  0  0  0  0  0  0
    3.2949    1.2124    0.4166 C   0  0  0  0  0  0  0  0  0  0  0  0
    1.9095    1.3602    0.6077 C   0  0  0  0  0  0  0  0  0  0  0  0
    1.0437    0.2670    0.4814 C   0  0  0  0  0  0  0  0  0  0  0  0
   -0.4144    0.4860    0.6953 C   0  0  0  0  0  0  0  0  0  0  0  0
   -0.7880    1.3794    1.4447 O   0  0  0  0  0  0  0  0  0  0  0  0
   -1.2571   -0.3405   -0.0211 N   0  0  0  0  0  0  0  0  0  0  0  0
   -2.7207   -0.2326   -0.0211 C   0  0  2  0  0  0  0  0  0  0  0  0
   -3.3158   -0.4100    1.3991 C   0  0  0  0  0  0  0  0  0  0  0  0
   -4.8529   -0.3430    1.3549 C   0  0  1  0  0  0  0  0  0  0  0  0
   -5.2833    1.0164    0.7779 C   0  0  0  0  0  0  0  0  0  0  0  0
   -4.7294    1.1867   -0.6470 C   0  0  2  0  0  0  0  0  0  0  0  0
   -5.2617    0.0518   -1.5363 C   0  0  0  0  0  0  0  0  0  0  0  0
   -4.8272   -1.3084   -0.9682 C   0  0  2  0  0  0  0  0  0  0  0  0
   -5.3853   -1.4681    0.4542 C   0  0  0  0  0  0  0  0  0  0  0  0
   -3.2923   -1.3659   -0.9165 C   0  0  0  0  0  0  0  0  0  0  0  0
   -3.1923    1.1218   -0.6048 C   0  0  0  0  0  0  0  0  0  0  0  0
    1.5645   -0.9953    0.1874 C   0  0  0  0  0  0  0  0  0  0  0  0
    2.9396   -1.1520   -0.0044 C   0  0  0  0  0  0  0  0  0  0  0  0
    3.8205   -0.0599    0.1006 C   0  0  0  0  0  0  0  0  0  0  0  0
    5.2565   -0.2836   -0.1111 C   0  0  0  0  0  0  0  0  0  0  0  0
    5.8283   -0.1161   -1.3813 C   0  0  0  0  0  0  0  0  0  0  0  0
    7.1931   -0.3335   -1.5833 C   0  0  0  0  0  0  0  0  0  0  0  0
    8.0020   -0.7232   -0.5177 C   0  0  0  0  0  0  0  0  0  0  0  0
    7.4483   -0.8964    0.7493 C   0  0  0  0  0  0  0  0  0  0  0  0
    6.0836   -0.6790    0.9510 C   0  0  0  0  0  0  0  0  0  0  0  0
    4.9256    2.2573    1.3485 H   0  0  0  0  0  0  0  0  0  0  0  0
    4.6959    2.6296   -0.3866 H   0  0  0  0  0  0  0  0  0  0  0  0
    3.6108    3.3115    0.8270 H   0  0  0  0  0  0  0  0  0  0  0  0
    1.4952    2.3365    0.8571 H   0  0  0  0  0  0  0  0  0  0  0  0
   -0.8437   -0.8626   -0.7820 H   0  0  0  0  0  0  0  0  0  0  0  0
   -2.9489    0.3655    2.0809 H   0  0  0  0  0  0  0  0  0  0  0  0
   -2.9952   -1.3698    1.8251 H   0  0  0  0  0  0  0  0  0  0  0  0
   -5.2561   -0.4591    2.3672 H   0  0  0  0  0  0  0  0  0  0  0  0
   -4.9207    1.8282    1.4204 H   0  0  0  0  0  0  0  0  0  0  0  0
   -6.3780    1.0865    0.7640 H   0  0  0  0  0  0  0  0  0  0  0  0
   -5.0463    2.1536   -1.0536 H   0  0  0  0  0  0  0  0  0  0  0  0
   -4.8844    0.1689   -2.5596 H   0  0  0  0  0  0  0  0  0  0  0  0
   -6.3561    0.1019   -1.5929 H   0  0  0  0  0  0  0  0  0  0  0  0
   -5.2065   -2.1139   -1.6068 H   0  0  0  0  0  0  0  0  0  0  0  0
   -5.0969   -2.4442    0.8632 H   0  0  0  0  0  0  0  0  0  0  0  0
   -6.4817   -1.4436    0.4318 H   0  0  0  0  0  0  0  0  0  0  0  0
   -2.9699   -2.3449   -0.5373 H   0  0  0  0  0  0  0  0  0  0  0  0
   -2.8869   -1.2838   -1.9340 H   0  0  0  0  0  0  0  0  0  0  0  0
   -2.7849    1.2597   -1.6150 H   0  0  0  0  0  0  0  0  0  0  0  0
   -2.8146    1.9586   -0.0053 H   0  0  0  0  0  0  0  0  0  0  0  0
    0.9233   -1.8701    0.1323 H   0  0  0  0  0  0  0  0  0  0  0  0
    3.3334   -2.1421   -0.2302 H   0  0  0  0  0  0  0  0  0  0  0  0
    5.2077    0.1886   -2.2214 H   0  0  0  0  0  0  0  0  0  0  0  0
    7.6235   -0.1979   -2.5719 H   0  0  0  0  0  0  0  0  0  0  0  0
    9.0643   -0.8918   -0.6744 H   0  0  0  0  0  0  0  0  0  0  0  0
    8.0778   -1.1998    1.5817 H   0  0  0  0  0  0  0  0  0  0  0  0
    5.6637   -0.8157    1.9455 H   0  0  0  0  0  0  0  0  0  0  0  0
  1  2  1  0
  2  3  1  0
  3  4  2  0
  4  5  1  0
  5  6  2  0
  5  7  1  0
  8  7  1  1
  8  9  1  0
  9 10  1  0
 10 11  1  0
 11 12  1  0
 12 13  1  0
 13 14  1  0
 14 15  1  0
 14 16  1  0
 12 17  1  0
  4 18  1  0
 18 19  2  0
 19 20  1  0
 20 21  1  0
 21 22  2  0
 22 23  1  0
 23 24  2  0
 24 25  1  0
 25 26  2  0
 20  2  2  0
 26 21  1  0
 16  8  1  0
 17  8  1  0
 15 10  1  0
  1 27  1  0
  1 28  1  0
  1 29  1  0
  3 30  1  0
  7 31  1  0
  9 32  1  0
  9 33  1  0
 10 34  1  1
 11 35  1  0
 11 36  1  0
 12 37  1  6
 13 38  1  0
 13 39  1  0
 14 40  1  6
 15 41  1  0
 15 42  1  0
 16 43  1  0
 16 44  1  0
 17 45  1  0
 17 46  1  0
 18 47  1  0
 19 48  1  0
 22 49  1  0
 23 50  1  0
 24 51  1  0
 25 52  1  0
 26 53  1  0
M  END
>  <_SMILES>  (37) 
Cc1cc(C(=O)N[C@]23C[C@H]4C[C@H](C[C@H](C4)C2)C3)ccc1-c1ccccc1

$$$$

     RDKit          3D

 44 47  0  0  0  0  0  0  0  0999 V2000
    0.2469   -0.7852    2.3903 O   0  0  0  0  0  0  0  0  0  0  0  0
    0.7249   -0.5368    1.2915 C   0  0  0  0  0  0  0  0  0  0  0  0
    2.1774   -0.7392    1.0647 C   0  0  0  0  0  0  0  0  0  0  0  0
    2.9172    0.0374    0.2576 C   0  0  0  0  0  0  0  0  0  0  0  0
    4.3622   -0.1403    0.0567 C   0  0  0  0  0  0  0  0  0  0  0  0
    5.2260   -0.4978    1.1004 C   0  0  0  0  0  0  0  0  0  0  0  0
    6.5987   -0.6294    0.8737 C   0  0  0  0  0  0  0  0  0  0  0  0
    7.1229   -0.3948   -0.3955 C   0  0  0  0  0  0  0  0  0  0  0  0
    6.2768   -0.0225   -1.4375 C   0  0  0  0  0  0  0  0  0  0  0  0
    4.9043    0.1098   -1.2111 C   0  0  0  0  0  0  0  0  0  0  0  0
    0.0188   -0.1378    0.1847 N   0  0  0  0  0  0  0  0  0  0  0  0
   -1.4374    0.0307    0.1426 C   0  0  2  0  0  0  0  0  0  0  0  0
   -1.8307    0.5314   -1.2740 C   0  0  0  0  0  0  0  0  0  0  0  0
   -3.3512    0.7240   -1.3893 C   0  0  1  0  0  0  0  0  0  0  0  0
   -4.0512   -0.6164   -1.1154 C   0  0  0  0  0  0  0  0  0  0  0  0
   -3.6968   -1.1156    0.2943 C   0  0  2  0  0  0  0  0  0  0  0  0
   -4.1479   -0.0716    1.3301 C   0  0  0  0  0  0  0  0  0  0  0  0
   -3.4515    1.2739    1.0640 C   0  0  2  0  0  0  0  0  0  0  0  0
   -3.8080    1.7589   -0.3497 C   0  0  0  0  0  0  0  0  0  0  0  0
   -1.9277    1.0843    1.1682 C   0  0  0  0  0  0  0  0  0  0  0  0
   -2.1734   -1.3076    0.3981 C   0  0  0  0  0  0  0  0  0  0  0  0
    2.6069   -1.5369    1.6611 H   0  0  0  0  0  0  0  0  0  0  0  0
    2.4681    0.8597   -0.2933 H   0  0  0  0  0  0  0  0  0  0  0  0
    4.8460   -0.6659    2.1054 H   0  0  0  0  0  0  0  0  0  0  0  0
    7.2583   -0.9093    1.6912 H   0  0  0  0  0  0  0  0  0  0  0  0
    8.1909   -0.4963   -0.5704 H   0  0  0  0  0  0  0  0  0  0  0  0
    6.6847    0.1671   -2.4270 H   0  0  0  0  0  0  0  0  0  0  0  0
    4.2628    0.4032   -2.0388 H   0  0  0  0  0  0  0  0  0  0  0  0
    0.5020   -0.1675   -0.7027 H   0  0  0  0  0  0  0  0  0  0  0  0
   -1.4918   -0.1845   -2.0349 H   0  0  0  0  0  0  0  0  0  0  0  0
   -1.3189    1.4776   -1.4950 H   0  0  0  0  0  0  0  0  0  0  0  0
   -3.6046    1.0746   -2.3960 H   0  0  0  0  0  0  0  0  0  0  0  0
   -5.1377   -0.4976   -1.2088 H   0  0  0  0  0  0  0  0  0  0  0  0
   -3.7466   -1.3585   -1.8635 H   0  0  0  0  0  0  0  0  0  0  0  0
   -4.2023   -2.0687    0.4861 H   0  0  0  0  0  0  0  0  0  0  0  0
   -5.2365    0.0554    1.2828 H   0  0  0  0  0  0  0  0  0  0  0  0
   -3.9121   -0.4220    2.3425 H   0  0  0  0  0  0  0  0  0  0  0  0
   -3.7822    2.0134    1.8019 H   0  0  0  0  0  0  0  0  0  0  0  0
   -4.8904    1.9182   -0.4297 H   0  0  0  0  0  0  0  0  0  0  0  0
   -3.3285    2.7256   -0.5466 H   0  0  0  0  0  0  0  0  0  0  0  0
   -1.6782    0.7833    2.1921 H   0  0  0  0  0  0  0  0  0  0  0  0
   -1.4190    2.0421    0.9973 H   0  0  0  0  0  0  0  0  0  0  0  0
   -1.9290   -1.7045    1.3906 H   0  0  0  0  0  0  0  0  0  0  0  0
   -1.8423   -2.0644   -0.3251 H   0  0  0  0  0  0  0  0  0  0  0  0
  1  2  2  0
  2  3  1  0
  3  4  2  0
  4  5  1  0
  5  6  2  0
  6  7  1  0
  7  8  2  0
  8  9  1  0
  9 10  2  0
  2 11  1  0
 12 11  1  6
 12 13  1  0
 13 14  1  0
 14 15  1  0
 15 16  1  0
 16 17  1  0
 17 18  1  0
 18 19  1  0
 18 20  1  0
 16 21  1  0
 10  5  1  0
 20 12  1  0
 21 12  1  0
 19 14  1  0
  3 22  1  0
  4 23  1  0
  6 24  1  0
  7 25  1  0
  8 26  1  0
  9 27  1  0
 10 28  1  0
 11 29  1  0
 13 30  1  0
 13 31  1  0
 14 32  1  6
 15 33  1  0
 15 34  1  0
 16 35  1  1
 17 36  1  0
 17 37  1  0
 18 38  1  1
 19 39  1  0
 19 40  1  0
 20 41  1  0
 20 42  1  0
 21 43  1  0
 21 44  1  0
M  END
>  <_SMILES>  (38) 
O=C(/C=C/c1ccccc1)N[C@]12C[C@H]3C[C@H](C[C@H](C3)C1)C2

$$$$

     RDKit          3D

 40 43  0  0  0  0  0  0  0  0999 V2000
    1.3463   -1.2042    1.5790 O   0  0  0  0  0  0  0  0  0  0  0  0
    1.6958   -0.5606    0.5979 C   0  0  0  0  0  0  0  0  0  0  0  0
    0.8330    0.0611   -0.2820 N   0  0  0  0  0  0  0  0  0  0  0  0
   -0.6284    0.0707   -0.1411 C   0  0  2  0  0  0  0  0  0  0  0  0
   -1.2292    0.8360   -1.3520 C   0  0  0  0  0  0  0  0  0  0  0  0
   -2.7627    0.8912   -1.2652 C   0  0  1  0  0  0  0  0  0  0  0  0
   -3.3183   -0.5411   -1.2556 C   0  0  0  0  0  0  0  0  0  0  0  0
   -2.7568   -1.3125   -0.0514 C   0  0  2  0  0  0  0  0  0  0  0  0
   -3.1587   -0.5910    1.2464 C   0  0  0  0  0  0  0  0  0  0  0  0
   -2.6070    0.8449    1.2471 C   0  0  2  0  0  0  0  0  0  0  0  0
   -3.1686    1.6039    0.0344 C   0  0  0  0  0  0  0  0  0  0  0  0
   -1.0716    0.7984    1.1519 C   0  0  0  0  0  0  0  0  0  0  0  0
   -1.2215   -1.3613   -0.1485 C   0  0  0  0  0  0  0  0  0  0  0  0
    3.1478   -0.3813    0.3218 C   0  0  0  0  0  0  0  0  0  0  0  0
    4.0397   -0.4016    1.4031 C   0  0  0  0  0  0  0  0  0  0  0  0
    5.4096   -0.2400    1.1892 C   0  0  0  0  0  0  0  0  0  0  0  0
    5.8938   -0.0670   -0.1072 C   0  0  0  0  0  0  0  0  0  0  0  0
    5.0071   -0.0651   -1.1839 C   0  0  0  0  0  0  0  0  0  0  0  0
    5.6110    0.1322   -2.7836 Cl  0  0  0  0  0  0  0  0  0  0  0  0
    3.6369   -0.2253   -0.9804 C   0  0  0  0  0  0  0  0  0  0  0  0
    1.2277    0.7558   -0.9016 H   0  0  0  0  0  0  0  0  0  0  0  0
   -0.8263    1.8571   -1.3908 H   0  0  0  0  0  0  0  0  0  0  0  0
   -0.9276    0.3526   -2.2909 H   0  0  0  0  0  0  0  0  0  0  0  0
   -3.1628    1.4372   -2.1268 H   0  0  0  0  0  0  0  0  0  0  0  0
   -4.4140   -0.5180   -1.2085 H   0  0  0  0  0  0  0  0  0  0  0  0
   -3.0505   -1.0539   -2.1876 H   0  0  0  0  0  0  0  0  0  0  0  0
   -3.1583   -2.3321   -0.0468 H   0  0  0  0  0  0  0  0  0  0  0  0
   -2.7751   -1.1403    2.1149 H   0  0  0  0  0  0  0  0  0  0  0  0
   -4.2515   -0.5713    1.3397 H   0  0  0  0  0  0  0  0  0  0  0  0
   -2.9036    1.3542    2.1708 H   0  0  0  0  0  0  0  0  0  0  0  0
   -2.7930    2.6345    0.0303 H   0  0  0  0  0  0  0  0  0  0  0  0
   -4.2618    1.6638    0.1032 H   0  0  0  0  0  0  0  0  0  0  0  0
   -0.6654    1.8182    1.1690 H   0  0  0  0  0  0  0  0  0  0  0  0
   -0.6726    0.2947    2.0403 H   0  0  0  0  0  0  0  0  0  0  0  0
   -0.8342   -1.9536    0.6881 H   0  0  0  0  0  0  0  0  0  0  0  0
   -0.9210   -1.8891   -1.0631 H   0  0  0  0  0  0  0  0  0  0  0  0
    3.6650   -0.5432    2.4158 H   0  0  0  0  0  0  0  0  0  0  0  0
    6.0966   -0.2536    2.0320 H   0  0  0  0  0  0  0  0  0  0  0  0
    6.9613    0.0561   -0.2720 H   0  0  0  0  0  0  0  0  0  0  0  0
    2.9690   -0.2562   -1.8358 H   0  0  0  0  0  0  0  0  0  0  0  0
  1  2  2  0
  2  3  1  0
  4  3  1  6
  4  5  1  0
  5  6  1  0
  6  7  1  0
  7  8  1  0
  8  9  1  0
  9 10  1  0
 10 11  1  0
 10 12  1  0
  8 13  1  0
  2 14  1  0
 14 15  2  0
 15 16  1  0
 16 17  2  0
 17 18  1  0
 18 19  1  0
 18 20  2  0
 12  4  1  0
 20 14  1  0
 13  4  1  0
 11  6  1  0
  3 21  1  0
  5 22  1  0
  5 23  1  0
  6 24  1  6
  7 25  1  0
  7 26  1  0
  8 27  1  1
  9 28  1  0
  9 29  1  0
 10 30  1  1
 11 31  1  0
 11 32  1  0
 12 33  1  0
 12 34  1  0
 13 35  1  0
 13 36  1  0
 15 37  1  0
 16 38  1  0
 17 39  1  0
 20 40  1  0
M  END
>  <_SMILES>  (39) 
O=C(N[C@]12C[C@H]3C[C@H](C[C@H](C3)C1)C2)c1cccc(Cl)c1

$$$$

     RDKit          3D

 40 43  0  0  0  0  0  0  0  0999 V2000
    1.6525   -0.8296    2.0763 O   0  0  0  0  0  0  0  0  0  0  0  0
    1.8118   -0.3607    0.9553 C   0  0  0  0  0  0  0  0  0  0  0  0
    0.8197    0.2896    0.2500 N   0  0  0  0  0  0  0  0  0  0  0  0
   -0.5263    0.4448    0.7856 C   0  0  1  0  0  0  0  0  0  0  0  0
   -1.3122    1.5577    0.0508 C   0  0  2  0  0  0  0  0  0  0  0  0
   -2.6556    1.7666    0.7779 C   0  0  0  0  0  0  0  0  0  0  0  0
   -3.4776    0.4648    0.7573 C   0  0  1  0  0  0  0  0  0  0  0  0
   -3.7459    0.0605   -0.7024 C   0  0  0  0  0  0  0  0  0  0  0  0
   -2.4143   -0.1555   -1.4416 C   0  0  1  0  0  0  0  0  0  0  0  0
   -1.6030    1.1496   -1.4077 C   0  0  0  0  0  0  0  0  0  0  0  0
   -1.6176   -1.2662   -0.7373 C   0  0  0  0  0  0  0  0  0  0  0  0
   -1.3363   -0.8745    0.7267 C   0  0  2  0  0  0  0  0  0  0  0  0
   -2.6802   -0.6552    1.4490 C   0  0  0  0  0  0  0  0  0  0  0  0
    3.1424   -0.4422    0.2928 C   0  0  0  0  0  0  0  0  0  0  0  0
    4.2859   -0.4893    1.0997 C   0  0  0  0  0  0  0  0  0  0  0  0
    5.5524   -0.5668    0.5182 C   0  0  0  0  0  0  0  0  0  0  0  0
    5.6804   -0.6078   -0.8698 C   0  0  0  0  0  0  0  0  0  0  0  0
    4.5440   -0.5798   -1.6786 C   0  0  0  0  0  0  0  0  0  0  0  0
    3.2745   -0.5012   -1.1010 C   0  0  0  0  0  0  0  0  0  0  0  0
    1.0655    0.7895   -0.5925 H   0  0  0  0  0  0  0  0  0  0  0  0
   -0.4049    0.7359    1.8380 H   0  0  0  0  0  0  0  0  0  0  0  0
   -0.7398    2.4928    0.0601 H   0  0  0  0  0  0  0  0  0  0  0  0
   -2.4766    2.0800    1.8138 H   0  0  0  0  0  0  0  0  0  0  0  0
   -3.2208    2.5736    0.2955 H   0  0  0  0  0  0  0  0  0  0  0  0
   -4.4284    0.6191    1.2794 H   0  0  0  0  0  0  0  0  0  0  0  0
   -4.3319    0.8396   -1.2053 H   0  0  0  0  0  0  0  0  0  0  0  0
   -4.3450   -0.8579   -0.7331 H   0  0  0  0  0  0  0  0  0  0  0  0
   -2.6113   -0.4424   -2.4806 H   0  0  0  0  0  0  0  0  0  0  0  0
   -2.1619    1.9483   -1.9115 H   0  0  0  0  0  0  0  0  0  0  0  0
   -0.6692    1.0239   -1.9676 H   0  0  0  0  0  0  0  0  0  0  0  0
   -2.1837   -2.2055   -0.7675 H   0  0  0  0  0  0  0  0  0  0  0  0
   -0.6771   -1.4498   -1.2706 H   0  0  0  0  0  0  0  0  0  0  0  0
   -0.7894   -1.6868    1.2187 H   0  0  0  0  0  0  0  0  0  0  0  0
   -2.5027   -0.3946    2.4996 H   0  0  0  0  0  0  0  0  0  0  0  0
   -3.2621   -1.5852    1.4467 H   0  0  0  0  0  0  0  0  0  0  0  0
    4.1899   -0.4642    2.1835 H   0  0  0  0  0  0  0  0  0  0  0  0
    6.4373   -0.5999    1.1490 H   0  0  0  0  0  0  0  0  0  0  0  0
    6.6675   -0.6729   -1.3213 H   0  0  0  0  0  0  0  0  0  0  0  0
    4.6478   -0.6306   -2.7598 H   0  0  0  0  0  0  0  0  0  0  0  0
    2.4022   -0.5176   -1.7476 H   0  0  0  0  0  0  0  0  0  0  0  0
  1  2  2  0
  2  3  1  0
  3  4  1  0
  4  5  1  0
  5  6  1  0
  6  7  1  0
  7  8  1  0
  8  9  1  0
  9 10  1  0
  9 11  1  0
 11 12  1  0
 12 13  1  0
  2 14  1  0
 14 15  2  0
 15 16  1  0
 16 17  2  0
 17 18  1  0
 18 19  2  0
 12  4  1  0
 19 14  1  0
 10  5  1  0
 13  7  1  0
  3 20  1  0
  4 21  1  1
  5 22  1  6
  6 23  1  0
  6 24  1  0
  7 25  1  1
  8 26  1  0
  8 27  1  0
  9 28  1  6
 10 29  1  0
 10 30  1  0
 11 31  1  0
 11 32  1  0
 12 33  1  1
 13 34  1  0
 13 35  1  0
 15 36  1  0
 16 37  1  0
 17 38  1  0
 18 39  1  0
 19 40  1  0
M  END
>  <_SMILES>  (40) 
O=C(N[C@H]1[C@@H]2C[C@H]3C[C@@H](C2)C[C@@H]1C3)c1ccccc1

$$$$

     RDKit          3D

 43 46  0  0  0  0  0  0  0  0999 V2000
    6.6279    0.4633   -0.8470 C   0  0  0  0  0  0  0  0  0  0  0  0
    5.2262    0.3678   -0.3200 C   0  0  0  0  0  0  0  0  0  0  0  0
    4.1330    0.5806   -1.1694 C   0  0  0  0  0  0  0  0  0  0  0  0
    2.8258    0.4638   -0.6875 C   0  0  0  0  0  0  0  0  0  0  0  0
    2.6008    0.1130    0.6490 C   0  0  0  0  0  0  0  0  0  0  0  0
    1.2280   -0.0220    1.2087 C   0  0  0  0  0  0  0  0  0  0  0  0
    1.0229    0.1995    2.3965 O   0  0  0  0  0  0  0  0  0  0  0  0
    0.2492   -0.4341    0.3274 N   0  0  0  0  0  0  0  0  0  0  0  0
   -1.1347   -0.6122    0.7465 C   0  0  1  0  0  0  0  0  0  0  0  0
   -1.8664    0.7394    0.9422 C   0  0  2  0  0  0  0  0  0  0  0  0
   -3.2637    0.4579    1.5289 C   0  0  0  0  0  0  0  0  0  0  0  0
   -4.0749   -0.4272    0.5658 C   0  0  1  0  0  0  0  0  0  0  0  0
   -4.2269    0.3043   -0.7788 C   0  0  0  0  0  0  0  0  0  0  0  0
   -2.8409    0.5871   -1.3833 C   0  0  1  0  0  0  0  0  0  0  0  0
   -2.0317    1.4604   -0.4101 C   0  0  0  0  0  0  0  0  0  0  0  0
   -2.1055   -0.7452   -1.6000 C   0  0  0  0  0  0  0  0  0  0  0  0
   -1.9313   -1.4815   -0.2563 C   0  0  2  0  0  0  0  0  0  0  0  0
   -3.3278   -1.7541    0.3374 C   0  0  0  0  0  0  0  0  0  0  0  0
    3.6904   -0.0968    1.5011 C   0  0  0  0  0  0  0  0  0  0  0  0
    4.9953    0.0195    1.0163 C   0  0  0  0  0  0  0  0  0  0  0  0
    7.3193    0.7872   -0.0620 H   0  0  0  0  0  0  0  0  0  0  0  0
    6.6912    1.1968   -1.6578 H   0  0  0  0  0  0  0  0  0  0  0  0
    6.9523   -0.5111   -1.2249 H   0  0  0  0  0  0  0  0  0  0  0  0
    4.2942    0.8509   -2.2110 H   0  0  0  0  0  0  0  0  0  0  0  0
    1.9995    0.6760   -1.3594 H   0  0  0  0  0  0  0  0  0  0  0  0
    0.5211   -0.7533   -0.5915 H   0  0  0  0  0  0  0  0  0  0  0  0
   -1.0968   -1.1343    1.7124 H   0  0  0  0  0  0  0  0  0  0  0  0
   -1.3088    1.3855    1.6296 H   0  0  0  0  0  0  0  0  0  0  0  0
   -3.1682   -0.0380    2.5026 H   0  0  0  0  0  0  0  0  0  0  0  0
   -3.7928    1.4026    1.7044 H   0  0  0  0  0  0  0  0  0  0  0  0
   -5.0641   -0.6279    0.9918 H   0  0  0  0  0  0  0  0  0  0  0  0
   -4.8209   -0.3045   -1.4714 H   0  0  0  0  0  0  0  0  0  0  0  0
   -4.7719    1.2452   -0.6344 H   0  0  0  0  0  0  0  0  0  0  0  0
   -2.9551    1.1074   -2.3408 H   0  0  0  0  0  0  0  0  0  0  0  0
   -1.0505    1.6928   -0.8410 H   0  0  0  0  0  0  0  0  0  0  0  0
   -2.5428    2.4193   -0.2589 H   0  0  0  0  0  0  0  0  0  0  0  0
   -1.1323   -0.5628   -2.0701 H   0  0  0  0  0  0  0  0  0  0  0  0
   -2.6736   -1.3746   -2.2965 H   0  0  0  0  0  0  0  0  0  0  0  0
   -1.4124   -2.4323   -0.4267 H   0  0  0  0  0  0  0  0  0  0  0  0
   -3.9040   -2.3959   -0.3405 H   0  0  0  0  0  0  0  0  0  0  0  0
   -3.2328   -2.2981    1.2852 H   0  0  0  0  0  0  0  0  0  0  0  0
    3.5243   -0.3562    2.5449 H   0  0  0  0  0  0  0  0  0  0  0  0
    5.8295   -0.1584    1.6917 H   0  0  0  0  0  0  0  0  0  0  0  0
  1  2  1  0
  2  3  1  0
  3  4  2  0
  4  5  1  0
  5  6  1  0
  6  7  2  0
  6  8  1  0
  8  9  1  0
  9 10  1  0
 10 11  1  0
 11 12  1  0
 12 13  1  0
 13 14  1  0
 14 15  1  0
 14 16  1  0
 16 17  1  0
 17 18  1  0
  5 19  2  0
 19 20  1  0
 20  2  2  0
 17  9  1  0
 15 10  1  0
 18 12  1  0
  1 21  1  0
  1 22  1  0
  1 23  1  0
  3 24  1  0
  4 25  1  0
  8 26  1  0
  9 27  1  1
 10 28  1  1
 11 29  1  0
 11 30  1  0
 12 31  1  1
 13 32  1  0
 13 33  1  0
 14 34  1  6
 15 35  1  0
 15 36  1  0
 16 37  1  0
 16 38  1  0
 17 39  1  6
 18 40  1  0
 18 41  1  0
 19 42  1  0
 20 43  1  0
M  END
>  <_SMILES>  (41) 
Cc1ccc(C(=O)N[C@H]2[C@@H]3C[C@H]4C[C@@H](C3)C[C@@H]2C4)cc1

$$$$

     RDKit          3D

 44 47  0  0  0  0  0  0  0  0999 V2000
    7.2754    0.4405   -1.1018 C   0  0  0  0  0  0  0  0  0  0  0  0
    6.0312    0.6804   -1.7478 O   0  0  0  0  0  0  0  0  0  0  0  0
    4.9002    0.4622   -1.0111 C   0  0  0  0  0  0  0  0  0  0  0  0
    3.7052    0.7332   -1.6845 C   0  0  0  0  0  0  0  0  0  0  0  0
    2.4704    0.5537   -1.0536 C   0  0  0  0  0  0  0  0  0  0  0  0
    2.4246    0.0882    0.2644 C   0  0  0  0  0  0  0  0  0  0  0  0
    1.1396   -0.1189    0.9871 C   0  0  0  0  0  0  0  0  0  0  0  0
    1.0981   -0.0136    2.2074 O   0  0  0  0  0  0  0  0  0  0  0  0
    0.0504   -0.4583    0.2111 N   0  0  0  0  0  0  0  0  0  0  0  0
   -1.2663   -0.6825    0.7932 C   0  0  1  0  0  0  0  0  0  0  0  0
   -1.9614    0.6419    1.1966 C   0  0  2  0  0  0  0  0  0  0  0  0
   -3.2685    0.3007    1.9389 C   0  0  0  0  0  0  0  0  0  0  0  0
   -4.2034   -0.5084    1.0223 C   0  0  1  0  0  0  0  0  0  0  0  0
   -4.5320    0.3309   -0.2241 C   0  0  0  0  0  0  0  0  0  0  0  0
   -3.2386    0.6747   -0.9826 C   0  0  1  0  0  0  0  0  0  0  0  0
   -2.3041    1.4710   -0.0567 C   0  0  0  0  0  0  0  0  0  0  0  0
   -2.5425   -0.6287   -1.4060 C   0  0  0  0  0  0  0  0  0  0  0  0
   -2.1916   -1.4724   -0.1637 C   0  0  2  0  0  0  0  0  0  0  0  0
   -3.4969   -1.8054    0.5863 C   0  0  0  0  0  0  0  0  0  0  0  0
    3.6204   -0.1672    0.9458 C   0  0  0  0  0  0  0  0  0  0  0  0
    4.8538    0.0141    0.3092 C   0  0  0  0  0  0  0  0  0  0  0  0
    8.0722    0.6653   -1.8174 H   0  0  0  0  0  0  0  0  0  0  0  0
    7.4064    1.1019   -0.2390 H   0  0  0  0  0  0  0  0  0  0  0  0
    7.3739   -0.6112   -0.8134 H   0  0  0  0  0  0  0  0  0  0  0  0
    3.7390    1.0984   -2.7086 H   0  0  0  0  0  0  0  0  0  0  0  0
    1.5648    0.8097   -1.5948 H   0  0  0  0  0  0  0  0  0  0  0  0
    0.1889   -0.6699   -0.7667 H   0  0  0  0  0  0  0  0  0  0  0  0
   -1.1021   -1.2826    1.6987 H   0  0  0  0  0  0  0  0  0  0  0  0
   -1.3149    1.2332    1.8549 H   0  0  0  0  0  0  0  0  0  0  0  0
   -3.0450   -0.2734    2.8466 H   0  0  0  0  0  0  0  0  0  0  0  0
   -3.7670    1.2231    2.2616 H   0  0  0  0  0  0  0  0  0  0  0  0
   -5.1273   -0.7524    1.5583 H   0  0  0  0  0  0  0  0  0  0  0  0
   -5.2149   -0.2234   -0.8796 H   0  0  0  0  0  0  0  0  0  0  0  0
   -5.0503    1.2518    0.0698 H   0  0  0  0  0  0  0  0  0  0  0  0
   -3.4785    1.2717   -1.8694 H   0  0  0  0  0  0  0  0  0  0  0  0
   -1.3887    1.7466   -0.5939 H   0  0  0  0  0  0  0  0  0  0  0  0
   -2.7878    2.4098    0.2408 H   0  0  0  0  0  0  0  0  0  0  0  0
   -3.2006   -1.2031   -2.0701 H   0  0  0  0  0  0  0  0  0  0  0  0
   -1.6409   -0.3996   -1.9855 H   0  0  0  0  0  0  0  0  0  0  0  0
   -1.7024   -2.4011   -0.4805 H   0  0  0  0  0  0  0  0  0  0  0  0
   -3.2775   -2.4254    1.4642 H   0  0  0  0  0  0  0  0  0  0  0  0
   -4.1602   -2.3936   -0.0598 H   0  0  0  0  0  0  0  0  0  0  0  0
    3.5944   -0.5115    1.9783 H   0  0  0  0  0  0  0  0  0  0  0  0
    5.7542   -0.2008    0.8751 H   0  0  0  0  0  0  0  0  0  0  0  0
  1  2  1  0
  2  3  1  0
  3  4  1  0
  4  5  2  0
  5  6  1  0
  6  7  1  0
  7  8  2  0
  7  9  1  0
  9 10  1  0
 10 11  1  0
 11 12  1  0
 12 13  1  0
 13 14  1  0
 14 15  1  0
 15 16  1  0
 15 17  1  0
 17 18  1  0
 18 19  1  0
  6 20  2  0
 20 21  1  0
 21  3  2  0
 18 10  1  0
 16 11  1  0
 19 13  1  0
  1 22  1  0
  1 23  1  0
  1 24  1  0
  4 25  1  0
  5 26  1  0
  9 27  1  0
 10 28  1  1
 11 29  1  1
 12 30  1  0
 12 31  1  0
 13 32  1  1
 14 33  1  0
 14 34  1  0
 15 35  1  6
 16 36  1  0
 16 37  1  0
 17 38  1  0
 17 39  1  0
 18 40  1  6
 19 41  1  0
 19 42  1  0
 20 43  1  0
 21 44  1  0
M  END
>  <_SMILES>  (42) 
COc1ccc(C(=O)N[C@H]2[C@@H]3C[C@H]4C[C@@H](C3)C[C@@H]2C4)cc1

$$$$

     RDKit          3D

 46 50  0  0  0  0  0  0  0  0999 V2000
    0.7842   -0.9644    2.6377 O   0  0  0  0  0  0  0  0  0  0  0  0
    1.0644   -0.5738    1.5118 C   0  0  0  0  0  0  0  0  0  0  0  0
    0.1731    0.0303    0.6493 N   0  0  0  0  0  0  0  0  0  0  0  0
   -1.2363    0.1700    0.9840 C   0  0  1  0  0  0  0  0  0  0  0  0
   -1.9074    1.3156    0.1904 C   0  0  2  0  0  0  0  0  0  0  0  0
   -3.3409    1.5004    0.7286 C   0  0  0  0  0  0  0  0  0  0  0  0
   -4.1498    0.2032    0.5394 C   0  0  1  0  0  0  0  0  0  0  0  0
   -4.2090   -0.1403   -0.9587 C   0  0  0  0  0  0  0  0  0  0  0  0
   -2.7858   -0.3308   -1.5109 C   0  0  1  0  0  0  0  0  0  0  0  0
   -1.9916    0.9702   -1.3099 C   0  0  0  0  0  0  0  0  0  0  0  0
   -2.0948   -1.4730   -0.7472 C   0  0  0  0  0  0  0  0  0  0  0  0
   -2.0235   -1.1433    0.7569 C   0  0  2  0  0  0  0  0  0  0  0  0
   -3.4567   -0.9486    1.2900 C   0  0  0  0  0  0  0  0  0  0  0  0
    2.4175   -0.8140    0.9519 C   0  0  0  0  0  0  0  0  0  0  0  0
    2.8695   -2.1405    0.9994 C   0  0  0  0  0  0  0  0  0  0  0  0
    4.0972   -2.4766    0.4433 C   0  0  0  0  0  0  0  0  0  0  0  0
    4.8767   -1.4892   -0.1570 C   0  0  0  0  0  0  0  0  0  0  0  0
    4.4537   -0.1494   -0.1930 C   0  0  0  0  0  0  0  0  0  0  0  0
    5.2674    0.8299   -0.7865 C   0  0  0  0  0  0  0  0  0  0  0  0
    4.8810    2.1691   -0.8099 C   0  0  0  0  0  0  0  0  0  0  0  0
    3.6784    2.5501   -0.2306 C   0  0  0  0  0  0  0  0  0  0  0  0
    2.8560    1.5890    0.3605 C   0  0  0  0  0  0  0  0  0  0  0  0
    3.2097    0.2169    0.3792 C   0  0  0  0  0  0  0  0  0  0  0  0
    0.4570    0.1270   -0.3178 H   0  0  0  0  0  0  0  0  0  0  0  0
   -1.2751    0.4175    2.0536 H   0  0  0  0  0  0  0  0  0  0  0  0
   -1.3422    2.2462    0.3194 H   0  0  0  0  0  0  0  0  0  0  0  0
   -3.8338    2.3284    0.2043 H   0  0  0  0  0  0  0  0  0  0  0  0
   -3.3109    1.7709    1.7912 H   0  0  0  0  0  0  0  0  0  0  0  0
   -5.1650    0.3402    0.9281 H   0  0  0  0  0  0  0  0  0  0  0  0
   -4.7199    0.6607   -1.5070 H   0  0  0  0  0  0  0  0  0  0  0  0
   -4.7958   -1.0545   -1.1112 H   0  0  0  0  0  0  0  0  0  0  0  0
   -2.8338   -0.5744   -2.5781 H   0  0  0  0  0  0  0  0  0  0  0  0
   -2.4791    1.7905   -1.8518 H   0  0  0  0  0  0  0  0  0  0  0  0
   -0.9895    0.8686   -1.7414 H   0  0  0  0  0  0  0  0  0  0  0  0
   -2.6499   -2.4078   -0.8955 H   0  0  0  0  0  0  0  0  0  0  0  0
   -1.0887   -1.6395   -1.1499 H   0  0  0  0  0  0  0  0  0  0  0  0
   -1.5464   -1.9747    1.2885 H   0  0  0  0  0  0  0  0  0  0  0  0
   -3.4307   -0.7325    2.3651 H   0  0  0  0  0  0  0  0  0  0  0  0
   -4.0309   -1.8751    1.1664 H   0  0  0  0  0  0  0  0  0  0  0  0
    2.2554   -2.9095    1.4641 H   0  0  0  0  0  0  0  0  0  0  0  0
    4.4474   -3.5052    0.4747 H   0  0  0  0  0  0  0  0  0  0  0  0
    5.8345   -1.7739   -0.5893 H   0  0  0  0  0  0  0  0  0  0  0  0
    6.2218    0.5556   -1.2321 H   0  0  0  0  0  0  0  0  0  0  0  0
    5.5265    2.9139   -1.2683 H   0  0  0  0  0  0  0  0  0  0  0  0
    3.3807    3.5956   -0.2280 H   0  0  0  0  0  0  0  0  0  0  0  0
    1.9352    1.9314    0.8293 H   0  0  0  0  0  0  0  0  0  0  0  0
  1  2  2  0
  2  3  1  0
  3  4  1  0
  4  5  1  0
  5  6  1  0
  6  7  1  0
  7  8  1  0
  8  9  1  0
  9 10  1  0
  9 11  1  0
 11 12  1  0
 12 13  1  0
  2 14  1  0
 14 15  2  0
 15 16  1  0
 16 17  2  0
 17 18  1  0
 18 19  2  0
 19 20  1  0
 20 21  2  0
 21 22  1  0
 22 23  2  0
 12  4  1  0
 23 14  1  0
 10  5  1  0
 23 18  1  0
 13  7  1  0
  3 24  1  0
  4 25  1  1
  5 26  1  6
  6 27  1  0
  6 28  1  0
  7 29  1  1
  8 30  1  0
  8 31  1  0
  9 32  1  6
 10 33  1  0
 10 34  1  0
 11 35  1  0
 11 36  1  0
 12 37  1  1
 13 38  1  0
 13 39  1  0
 15 40  1  0
 16 41  1  0
 17 42  1  0
 19 43  1  0
 20 44  1  0
 21 45  1  0
 22 46  1  0
M  END
>  <_SMILES>  (43) 
O=C(N[C@H]1[C@@H]2C[C@H]3C[C@@H](C2)C[C@@H]1C3)c1cccc2ccccc12

$$$$

     RDKit          3D

 46 49  0  0  0  0  0  0  0  0999 V2000
    1.5962   -1.4469    1.2239 O   0  0  0  0  0  0  0  0  0  0  0  0
    1.4199   -0.2371    1.1281 C   0  0  0  0  0  0  0  0  0  0  0  0
    0.1633    0.3315    1.0590 N   0  0  0  0  0  0  0  0  0  0  0  0
   -1.0389   -0.4834    0.9485 C   0  0  1  0  0  0  0  0  0  0  0  0
   -2.3066    0.2921    1.3790 C   0  0  2  0  0  0  0  0  0  0  0  0
   -3.4943   -0.6919    1.3905 C   0  0  0  0  0  0  0  0  0  0  0  0
   -3.7082   -1.2818   -0.0164 C   0  0  1  0  0  0  0  0  0  0  0  0
   -4.0034   -0.1394   -1.0032 C   0  0  0  0  0  0  0  0  0  0  0  0
   -2.8262    0.8505   -1.0287 C   0  0  1  0  0  0  0  0  0  0  0  0
   -2.6240    1.4256    0.3825 C   0  0  0  0  0  0  0  0  0  0  0  0
   -1.5505    0.1102   -1.4644 C   0  0  0  0  0  0  0  0  0  0  0  0
   -1.2380   -1.0372   -0.4839 C   0  0  2  0  0  0  0  0  0  0  0  0
   -2.4307   -2.0135   -0.4661 C   0  0  0  0  0  0  0  0  0  0  0  0
    2.5615    0.7847    1.0932 C   0  0  0  0  0  0  0  0  0  0  0  0
    3.9218    0.1475    1.4172 C   0  0  0  0  0  0  0  0  0  0  0  0
    4.5089   -0.6641    0.2617 C   0  0  0  0  0  0  0  0  0  0  0  0
    4.5374    0.1293   -1.0390 C   0  0  0  0  0  0  0  0  0  0  0  0
    3.1630    0.6920   -1.3810 C   0  0  0  0  0  0  0  0  0  0  0  0
    2.6111    1.5450   -0.2409 C   0  0  0  0  0  0  0  0  0  0  0  0
    0.0941    1.3236    0.8815 H   0  0  0  0  0  0  0  0  0  0  0  0
   -0.8992   -1.3312    1.6331 H   0  0  0  0  0  0  0  0  0  0  0  0
   -2.1688    0.7153    2.3810 H   0  0  0  0  0  0  0  0  0  0  0  0
   -3.3063   -1.4986    2.1097 H   0  0  0  0  0  0  0  0  0  0  0  0
   -4.4042   -0.1767    1.7223 H   0  0  0  0  0  0  0  0  0  0  0  0
   -4.5499   -1.9830    0.0005 H   0  0  0  0  0  0  0  0  0  0  0  0
   -4.1734   -0.5459   -2.0078 H   0  0  0  0  0  0  0  0  0  0  0  0
   -4.9240    0.3802   -0.7102 H   0  0  0  0  0  0  0  0  0  0  0  0
   -3.0421    1.6623   -1.7321 H   0  0  0  0  0  0  0  0  0  0  0  0
   -3.5305    1.9554    0.7012 H   0  0  0  0  0  0  0  0  0  0  0  0
   -1.8198    2.1698    0.3720 H   0  0  0  0  0  0  0  0  0  0  0  0
   -0.7081    0.8103   -1.5140 H   0  0  0  0  0  0  0  0  0  0  0  0
   -1.6825   -0.2929   -2.4763 H   0  0  0  0  0  0  0  0  0  0  0  0
   -0.3394   -1.5667   -0.8210 H   0  0  0  0  0  0  0  0  0  0  0  0
   -2.5772   -2.4433   -1.4647 H   0  0  0  0  0  0  0  0  0  0  0  0
   -2.2202   -2.8501    0.2116 H   0  0  0  0  0  0  0  0  0  0  0  0
    2.3382    1.5046    1.8928 H   0  0  0  0  0  0  0  0  0  0  0  0
    4.6286    0.9486    1.6705 H   0  0  0  0  0  0  0  0  0  0  0  0
    3.8449   -0.4908    2.3056 H   0  0  0  0  0  0  0  0  0  0  0  0
    3.9267   -1.5806    0.1134 H   0  0  0  0  0  0  0  0  0  0  0  0
    5.5262   -0.9807    0.5195 H   0  0  0  0  0  0  0  0  0  0  0  0
    4.8874   -0.5128   -1.8551 H   0  0  0  0  0  0  0  0  0  0  0  0
    5.2574    0.9520   -0.9492 H   0  0  0  0  0  0  0  0  0  0  0  0
    2.4702   -0.1297   -1.5995 H   0  0  0  0  0  0  0  0  0  0  0  0
    3.2328    1.2991   -2.2908 H   0  0  0  0  0  0  0  0  0  0  0  0
    1.6233    1.9222   -0.5262 H   0  0  0  0  0  0  0  0  0  0  0  0
    3.2534    2.4268   -0.1185 H   0  0  0  0  0  0  0  0  0  0  0  0
  1  2  2  0
  2  3  1  0
  3  4  1  0
  4  5  1  0
  5  6  1  0
  6  7  1  0
  7  8  1  0
  8  9  1  0
  9 10  1  0
  9 11  1  0
 11 12  1  0
 12 13  1  0
  2 14  1  0
 14 15  1  0
 15 16  1  0
 16 17  1  0
 17 18  1  0
 18 19  1  0
 12  4  1  0
 19 14  1  0
 10  5  1  0
 13  7  1  0
  3 20  1  0
  4 21  1  1
  5 22  1  1
  6 23  1  0
  6 24  1  0
  7 25  1  1
  8 26  1  0
  8 27  1  0
  9 28  1  6
 10 29  1  0
 10 30  1  0
 11 31  1  0
 11 32  1  0
 12 33  1  6
 13 34  1  0
 13 35  1  0
 14 36  1  0
 15 37  1  0
 15 38  1  0
 16 39  1  0
 16 40  1  0
 17 41  1  0
 17 42  1  0
 18 43  1  0
 18 44  1  0
 19 45  1  0
 19 46  1  0
M  END
>  <_SMILES>  (44) 
O=C(N[C@H]1[C@@H]2C[C@H]3C[C@@H](C2)C[C@@H]1C3)C1CCCCC1

$$$$

     RDKit          3D

 40 43  0  0  0  0  0  0  0  0999 V2000
    1.9384    1.7542    1.0060 O   0  0  0  0  0  0  0  0  0  0  0  0
    1.9049    0.8089    0.2271 C   0  0  0  0  0  0  0  0  0  0  0  0
    0.7479    0.3409   -0.3609 N   0  0  0  0  0  0  0  0  0  0  0  0
   -0.5528    0.9288   -0.0672 C   0  0  1  0  0  0  0  0  0  0  0  0
   -1.6049    0.5630   -1.1420 C   0  0  2  0  0  0  0  0  0  0  0  0
   -2.8972    1.3501   -0.8460 C   0  0  0  0  0  0  0  0  0  0  0  0
   -3.4395    0.9748    0.5455 C   0  0  1  0  0  0  0  0  0  0  0  0
   -3.7423   -0.5329    0.5793 C   0  0  0  0  0  0  0  0  0  0  0  0
   -2.4611   -1.3333    0.2890 C   0  0  1  0  0  0  0  0  0  0  0  0
   -1.9289   -0.9441   -1.0995 C   0  0  0  0  0  0  0  0  0  0  0  0
   -1.4012   -0.9965    1.3509 C   0  0  0  0  0  0  0  0  0  0  0  0
   -1.0829    0.5114    1.3274 C   0  0  2  0  0  0  0  0  0  0  0  0
   -2.3782    1.2968    1.6126 C   0  0  0  0  0  0  0  0  0  0  0  0
    3.1659    0.1191   -0.1607 C   0  0  0  0  0  0  0  0  0  0  0  0
    3.1917   -1.2368   -0.5147 C   0  0  0  0  0  0  0  0  0  0  0  0
    4.4008   -1.8445   -0.8667 C   0  0  0  0  0  0  0  0  0  0  0  0
    5.5806   -1.1002   -0.8563 C   0  0  0  0  0  0  0  0  0  0  0  0
    7.2129   -1.9261   -1.3323 Br  0  0  0  0  0  0  0  0  0  0  0  0
    5.5670    0.2445   -0.4898 C   0  0  0  0  0  0  0  0  0  0  0  0
    4.3598    0.8525   -0.1368 C   0  0  0  0  0  0  0  0  0  0  0  0
    0.8135   -0.3349   -1.1086 H   0  0  0  0  0  0  0  0  0  0  0  0
   -0.4051    2.0174   -0.0754 H   0  0  0  0  0  0  0  0  0  0  0  0
   -1.2335    0.8277   -2.1391 H   0  0  0  0  0  0  0  0  0  0  0  0
   -3.6515    1.1331   -1.6124 H   0  0  0  0  0  0  0  0  0  0  0  0
   -2.6990    2.4279   -0.8922 H   0  0  0  0  0  0  0  0  0  0  0  0
   -4.3549    1.5408    0.7510 H   0  0  0  0  0  0  0  0  0  0  0  0
   -4.5129   -0.7771   -0.1621 H   0  0  0  0  0  0  0  0  0  0  0  0
   -4.1448   -0.8128    1.5606 H   0  0  0  0  0  0  0  0  0  0  0  0
   -2.6826   -2.4061    0.3136 H   0  0  0  0  0  0  0  0  0  0  0  0
   -2.6773   -1.1839   -1.8654 H   0  0  0  0  0  0  0  0  0  0  0  0
   -1.0393   -1.5379   -1.3387 H   0  0  0  0  0  0  0  0  0  0  0  0
   -0.4910   -1.5814    1.1718 H   0  0  0  0  0  0  0  0  0  0  0  0
   -1.7672   -1.2827    2.3448 H   0  0  0  0  0  0  0  0  0  0  0  0
   -0.3446    0.7365    2.1054 H   0  0  0  0  0  0  0  0  0  0  0  0
   -2.7594    1.0404    2.6088 H   0  0  0  0  0  0  0  0  0  0  0  0
   -2.1695    2.3737    1.6201 H   0  0  0  0  0  0  0  0  0  0  0  0
    2.2889   -1.8405   -0.4925 H   0  0  0  0  0  0  0  0  0  0  0  0
    4.4143   -2.8977   -1.1361 H   0  0  0  0  0  0  0  0  0  0  0  0
    6.4851    0.8262   -0.4706 H   0  0  0  0  0  0  0  0  0  0  0  0
    4.3497    1.9009    0.1564 H   0  0  0  0  0  0  0  0  0  0  0  0
  1  2  2  0
  2  3  1  0
  3  4  1  0
  4  5  1  0
  5  6  1  0
  6  7  1  0
  7  8  1  0
  8  9  1  0
  9 10  1  0
  9 11  1  0
 11 12  1  0
 12 13  1  0
  2 14  1  0
 14 15  1  0
 15 16  2  0
 16 17  1  0
 17 18  1  0
 17 19  2  0
 19 20  1  0
 12  4  1  0
 20 14  2  0
 10  5  1  0
 13  7  1  0
  3 21  1  0
  4 22  1  1
  5 23  1  6
  6 24  1  0
  6 25  1  0
  7 26  1  1
  8 27  1  0
  8 28  1  0
  9 29  1  6
 10 30  1  0
 10 31  1  0
 11 32  1  0
 11 33  1  0
 12 34  1  1
 13 35  1  0
 13 36  1  0
 15 37  1  0
 16 38  1  0
 19 39  1  0
 20 40  1  0
M  END
>  <_SMILES>  (45) 
O=C(N[C@H]1[C@@H]2C[C@H]3C[C@@H](C2)C[C@@H]1C3)c1ccc(Br)cc1

$$$$

     RDKit          3D

 40 43  0  0  0  0  0  0  0  0999 V2000
    1.7274   -2.1779    0.2079 O   0  0  0  0  0  0  0  0  0  0  0  0
    1.8338   -0.9862   -0.0559 C   0  0  0  0  0  0  0  0  0  0  0  0
    0.7899   -0.2039   -0.5047 N   0  0  0  0  0  0  0  0  0  0  0  0
   -0.5544   -0.7421   -0.6700 C   0  0  1  0  0  0  0  0  0  0  0  0
   -1.2764   -0.9415    0.6861 C   0  0  2  0  0  0  0  0  0  0  0  0
   -2.6188   -1.6524    0.4246 C   0  0  0  0  0  0  0  0  0  0  0  0
   -3.5005   -0.7968   -0.5025 C   0  0  1  0  0  0  0  0  0  0  0  0
   -3.7675    0.5596    0.1720 C   0  0  0  0  0  0  0  0  0  0  0  0
   -2.4379    1.2875    0.4340 C   0  0  1  0  0  0  0  0  0  0  0  0
   -1.5573    0.4211    1.3496 C   0  0  0  0  0  0  0  0  0  0  0  0
   -1.7141    1.5092   -0.9037 C   0  0  0  0  0  0  0  0  0  0  0  0
   -1.4247    0.1552   -1.5830 C   0  0  2  0  0  0  0  0  0  0  0  0
   -2.7658   -0.5623   -1.8353 C   0  0  0  0  0  0  0  0  0  0  0  0
    3.1555   -0.3124    0.0692 C   0  0  0  0  0  0  0  0  0  0  0  0
    3.2680    1.0514    0.3729 C   0  0  0  0  0  0  0  0  0  0  0  0
    4.5318    1.6397    0.4866 C   0  0  0  0  0  0  0  0  0  0  0  0
    5.6783    0.8659    0.3057 C   0  0  0  0  0  0  0  0  0  0  0  0
    7.2300    1.5949    0.4465 Cl  0  0  0  0  0  0  0  0  0  0  0  0
    5.5752   -0.4942    0.0197 C   0  0  0  0  0  0  0  0  0  0  0  0
    4.3138   -1.0846   -0.0933 C   0  0  0  0  0  0  0  0  0  0  0  0
    0.9821    0.7256   -0.8496 H   0  0  0  0  0  0  0  0  0  0  0  0
   -0.4342   -1.7223   -1.1514 H   0  0  0  0  0  0  0  0  0  0  0  0
   -0.6685   -1.5534    1.3620 H   0  0  0  0  0  0  0  0  0  0  0  0
   -3.1382   -1.8319    1.3741 H   0  0  0  0  0  0  0  0  0  0  0  0
   -2.4403   -2.6346   -0.0300 H   0  0  0  0  0  0  0  0  0  0  0  0
   -4.4500   -1.3109   -0.6887 H   0  0  0  0  0  0  0  0  0  0  0  0
   -4.3052    0.4095    1.1163 H   0  0  0  0  0  0  0  0  0  0  0  0
   -4.4125    1.1752   -0.4670 H   0  0  0  0  0  0  0  0  0  0  0  0
   -2.6341    2.2529    0.9137 H   0  0  0  0  0  0  0  0  0  0  0  0
   -0.6163    0.9407    1.5670 H   0  0  0  0  0  0  0  0  0  0  0  0
   -2.0605    0.2679    2.3124 H   0  0  0  0  0  0  0  0  0  0  0  0
   -2.3334    2.1298   -1.5635 H   0  0  0  0  0  0  0  0  0  0  0  0
   -0.7843    2.0653   -0.7378 H   0  0  0  0  0  0  0  0  0  0  0  0
   -0.9150    0.3286   -2.5382 H   0  0  0  0  0  0  0  0  0  0  0  0
   -2.5895   -1.5206   -2.3392 H   0  0  0  0  0  0  0  0  0  0  0  0
   -3.3914    0.0388   -2.5066 H   0  0  0  0  0  0  0  0  0  0  0  0
    2.3877    1.6617    0.5536 H   0  0  0  0  0  0  0  0  0  0  0  0
    4.6159    2.6967    0.7263 H   0  0  0  0  0  0  0  0  0  0  0  0
    6.4675   -1.1008   -0.1120 H   0  0  0  0  0  0  0  0  0  0  0  0
    4.2340   -2.1487   -0.3097 H   0  0  0  0  0  0  0  0  0  0  0  0
  1  2  2  0
  2  3  1  0
  3  4  1  0
  4  5  1  0
  5  6  1  0
  6  7  1  0
  7  8  1  0
  8  9  1  0
  9 10  1  0
  9 11  1  0
 11 12  1  0
 12 13  1  0
  2 14  1  0
 14 15  1  0
 15 16  2  0
 16 17  1  0
 17 18  1  0
 17 19  2  0
 19 20  1  0
 12  4  1  0
 20 14  2  0
 10  5  1  0
 13  7  1  0
  3 21  1  0
  4 22  1  6
  5 23  1  1
  6 24  1  0
  6 25  1  0
  7 26  1  6
  8 27  1  0
  8 28  1  0
  9 29  1  1
 10 30  1  0
 10 31  1  0
 11 32  1  0
 11 33  1  0
 12 34  1  6
 13 35  1  0
 13 36  1  0
 15 37  1  0
 16 38  1  0
 19 39  1  0
 20 40  1  0
M  END
>  <_SMILES>  (46) 
O=C(N[C@H]1[C@@H]2C[C@H]3C[C@@H](C2)C[C@@H]1C3)c1ccc(Cl)cc1

$$$$

     RDKit          3D

 46 50  0  0  0  0  0  0  0  0999 V2000
    0.4910   -1.9877    1.7817 O   0  0  0  0  0  0  0  0  0  0  0  0
    0.7529   -1.2839    0.8134 C   0  0  0  0  0  0  0  0  0  0  0  0
   -0.1999   -0.7776   -0.0468 N   0  0  0  0  0  0  0  0  0  0  0  0
   -1.6218   -1.0257    0.1519 C   0  0  1  0  0  0  0  0  0  0  0  0
   -2.2061   -0.1864    1.3157 C   0  0  2  0  0  0  0  0  0  0  0  0
   -3.6656   -0.6239    1.5488 C   0  0  0  0  0  0  0  0  0  0  0  0
   -4.5004   -0.3850    0.2781 C   0  0  1  0  0  0  0  0  0  0  0  0
   -4.4686    1.1134   -0.0679 C   0  0  0  0  0  0  0  0  0  0  0  0
   -3.0188    1.5664   -0.3115 C   0  0  1  0  0  0  0  0  0  0  0  0
   -2.1883    1.3127    0.9575 C   0  0  0  0  0  0  0  0  0  0  0  0
   -2.4272    0.7548   -1.4751 C   0  0  0  0  0  0  0  0  0  0  0  0
   -2.4376   -0.7492   -1.1342 C   0  0  2  0  0  0  0  0  0  0  0  0
   -3.8958   -1.1860   -0.8898 C   0  0  0  0  0  0  0  0  0  0  0  0
    2.1679   -0.9613    0.4859 C   0  0  0  0  0  0  0  0  0  0  0  0
    3.1582   -1.8813    0.8397 C   0  0  0  0  0  0  0  0  0  0  0  0
    4.4976   -1.6163    0.5473 C   0  0  0  0  0  0  0  0  0  0  0  0
    4.8678   -0.4233   -0.0925 C   0  0  0  0  0  0  0  0  0  0  0  0
    6.2102   -0.1431   -0.3928 C   0  0  0  0  0  0  0  0  0  0  0  0
    6.5664    1.0514   -1.0205 C   0  0  0  0  0  0  0  0  0  0  0  0
    5.5863    1.9814   -1.3540 C   0  0  0  0  0  0  0  0  0  0  0  0
    4.2468    1.7187   -1.0626 C   0  0  0  0  0  0  0  0  0  0  0  0
    3.8702    0.5200   -0.4349 C   0  0  0  0  0  0  0  0  0  0  0  0
    2.5254    0.2420   -0.1366 C   0  0  0  0  0  0  0  0  0  0  0  0
    0.0998   -0.3552   -0.9143 H   0  0  0  0  0  0  0  0  0  0  0  0
   -1.7139   -2.0907    0.4054 H   0  0  0  0  0  0  0  0  0  0  0  0
   -1.6300   -0.3445    2.2344 H   0  0  0  0  0  0  0  0  0  0  0  0
   -4.0943   -0.0636    2.3889 H   0  0  0  0  0  0  0  0  0  0  0  0
   -3.6991   -1.6850    1.8250 H   0  0  0  0  0  0  0  0  0  0  0  0
   -5.5346   -0.7035    0.4492 H   0  0  0  0  0  0  0  0  0  0  0  0
   -4.9112    1.6964    0.7491 H   0  0  0  0  0  0  0  0  0  0  0  0
   -5.0762    1.3047   -0.9609 H   0  0  0  0  0  0  0  0  0  0  0  0
   -3.0022    2.6338   -0.5581 H   0  0  0  0  0  0  0  0  0  0  0  0
   -2.5958    1.8979    1.7912 H   0  0  0  0  0  0  0  0  0  0  0  0
   -1.1580    1.6568    0.8071 H   0  0  0  0  0  0  0  0  0  0  0  0
   -1.4076    1.0958   -1.6883 H   0  0  0  0  0  0  0  0  0  0  0  0
   -3.0111    0.9321   -2.3871 H   0  0  0  0  0  0  0  0  0  0  0  0
   -2.0203   -1.3160   -1.9749 H   0  0  0  0  0  0  0  0  0  0  0  0
   -4.4907   -1.0297   -1.7981 H   0  0  0  0  0  0  0  0  0  0  0  0
   -3.9335   -2.2594   -0.6666 H   0  0  0  0  0  0  0  0  0  0  0  0
    2.8885   -2.8084    1.3419 H   0  0  0  0  0  0  0  0  0  0  0  0
    5.2511   -2.3493    0.8278 H   0  0  0  0  0  0  0  0  0  0  0  0
    6.9917   -0.8552   -0.1364 H   0  0  0  0  0  0  0  0  0  0  0  0
    7.6100    1.2557   -1.2458 H   0  0  0  0  0  0  0  0  0  0  0  0
    5.8640    2.9132   -1.8401 H   0  0  0  0  0  0  0  0  0  0  0  0
    3.4979    2.4608   -1.3303 H   0  0  0  0  0  0  0  0  0  0  0  0
    1.7647    0.9830   -0.3674 H   0  0  0  0  0  0  0  0  0  0  0  0
  1  2  2  0
  2  3  1  0
  3  4  1  0
  4  5  1  0
  5  6  1  0
  6  7  1  0
  7  8  1  0
  8  9  1  0
  9 10  1  0
  9 11  1  0
 11 12  1  0
 12 13  1  0
  2 14  1  0
 14 15  1  0
 15 16  2  0
 16 17  1  0
 17 18  2  0
 18 19  1  0
 19 20  2  0
 20 21  1  0
 21 22  2  0
 22 23  1  0
 12  4  1  0
 23 14  2  0
 10  5  1  0
 22 17  1  0
 13  7  1  0
  3 24  1  0
  4 25  1  1
  5 26  1  1
  6 27  1  0
  6 28  1  0
  7 29  1  1
  8 30  1  0
  8 31  1  0
  9 32  1  6
 10 33  1  0
 10 34  1  0
 11 35  1  0
 11 36  1  0
 12 37  1  6
 13 38  1  0
 13 39  1  0
 15 40  1  0
 16 41  1  0
 18 42  1  0
 19 43  1  0
 20 44  1  0
 21 45  1  0
 23 46  1  0
M  END
>  <_SMILES>  (47) 
O=C(N[C@H]1[C@@H]2C[C@H]3C[C@@H](C2)C[C@@H]1C3)c1ccc2ccccc2c1

$$$$

     RDKit          3D

 44 47  0  0  0  0  0  0  0  0999 V2000
    0.8289    0.6154    2.8419 O   0  0  0  0  0  0  0  0  0  0  0  0
    0.9983    0.7363    1.6352 C   0  0  0  0  0  0  0  0  0  0  0  0
    2.3722    0.7657    1.0791 C   0  0  0  0  0  0  0  0  0  0  0  0
    2.7033    0.2305   -0.1065 C   0  0  0  0  0  0  0  0  0  0  0  0
    4.0709    0.2287   -0.6445 C   0  0  0  0  0  0  0  0  0  0  0  0
    4.2548    0.3867   -2.0246 C   0  0  0  0  0  0  0  0  0  0  0  0
    5.5372    0.3646   -2.5791 C   0  0  0  0  0  0  0  0  0  0  0  0
    6.6478    0.1723   -1.7606 C   0  0  0  0  0  0  0  0  0  0  0  0
    6.4769   -0.0031   -0.3893 C   0  0  0  0  0  0  0  0  0  0  0  0
    5.1947    0.0196    0.1659 C   0  0  0  0  0  0  0  0  0  0  0  0
   -0.0066    0.9096    0.7186 N   0  0  0  0  0  0  0  0  0  0  0  0
   -1.4110    0.8631    1.0989 C   0  0  1  0  0  0  0  0  0  0  0  0
   -2.3176    1.5523    0.0511 C   0  0  2  0  0  0  0  0  0  0  0  0
   -3.7538    1.6020    0.6106 C   0  0  0  0  0  0  0  0  0  0  0  0
   -4.2704    0.1749    0.8730 C   0  0  1  0  0  0  0  0  0  0  0  0
   -4.2654   -0.6144   -0.4472 C   0  0  0  0  0  0  0  0  0  0  0  0
   -2.8380   -0.6758   -1.0176 C   0  0  1  0  0  0  0  0  0  0  0  0
   -2.3357    0.7550   -1.2689 C   0  0  0  0  0  0  0  0  0  0  0  0
   -1.9145   -1.3669   -0.0005 C   0  0  0  0  0  0  0  0  0  0  0  0
   -1.9055   -0.5864    1.3286 C   0  0  2  0  0  0  0  0  0  0  0  0
   -3.3436   -0.5289    1.8804 C   0  0  0  0  0  0  0  0  0  0  0  0
    3.1060    1.2046    1.7465 H   0  0  0  0  0  0  0  0  0  0  0  0
    1.9559   -0.2450   -0.7358 H   0  0  0  0  0  0  0  0  0  0  0  0
    3.4021    0.5370   -2.6826 H   0  0  0  0  0  0  0  0  0  0  0  0
    5.6681    0.4957   -3.6501 H   0  0  0  0  0  0  0  0  0  0  0  0
    7.6456    0.1534   -2.1915 H   0  0  0  0  0  0  0  0  0  0  0  0
    7.3412   -0.1641    0.2501 H   0  0  0  0  0  0  0  0  0  0  0  0
    5.0877   -0.1409    1.2362 H   0  0  0  0  0  0  0  0  0  0  0  0
    0.2338    1.0699   -0.2486 H   0  0  0  0  0  0  0  0  0  0  0  0
   -1.4900    1.4127    2.0469 H   0  0  0  0  0  0  0  0  0  0  0  0
   -1.9627    2.5713   -0.1434 H   0  0  0  0  0  0  0  0  0  0  0  0
   -3.7745    2.1842    1.5400 H   0  0  0  0  0  0  0  0  0  0  0  0
   -4.4147    2.1143   -0.0995 H   0  0  0  0  0  0  0  0  0  0  0  0
   -5.2889    0.2181    1.2745 H   0  0  0  0  0  0  0  0  0  0  0  0
   -4.6459   -1.6294   -0.2790 H   0  0  0  0  0  0  0  0  0  0  0  0
   -4.9382   -0.1383   -1.1710 H   0  0  0  0  0  0  0  0  0  0  0  0
   -2.8404   -1.2382   -1.9579 H   0  0  0  0  0  0  0  0  0  0  0  0
   -1.3369    0.7270   -1.7188 H   0  0  0  0  0  0  0  0  0  0  0  0
   -2.9882    1.2559   -1.9951 H   0  0  0  0  0  0  0  0  0  0  0  0
   -0.8984   -1.4416   -0.4060 H   0  0  0  0  0  0  0  0  0  0  0  0
   -2.2582   -2.3939    0.1752 H   0  0  0  0  0  0  0  0  0  0  0  0
   -1.2608   -1.1042    2.0481 H   0  0  0  0  0  0  0  0  0  0  0  0
   -3.7088   -1.5440    2.0792 H   0  0  0  0  0  0  0  0  0  0  0  0
   -3.3565    0.0061    2.8380 H   0  0  0  0  0  0  0  0  0  0  0  0
  1  2  2  0
  2  3  1  0
  3  4  2  0
  4  5  1  0
  5  6  2  0
  6  7  1  0
  7  8  2  0
  8  9  1  0
  9 10  2  0
  2 11  1  0
 11 12  1  0
 12 13  1  0
 13 14  1  0
 14 15  1  0
 15 16  1  0
 16 17  1  0
 17 18  1  0
 17 19  1  0
 19 20  1  0
 20 21  1  0
 10  5  1  0
 20 12  1  0
 18 13  1  0
 21 15  1  0
  3 22  1  0
  4 23  1  0
  6 24  1  0
  7 25  1  0
  8 26  1  0
  9 27  1  0
 10 28  1  0
 11 29  1  0
 12 30  1  1
 13 31  1  6
 14 32  1  0
 14 33  1  0
 15 34  1  1
 16 35  1  0
 16 36  1  0
 17 37  1  6
 18 38  1  0
 18 39  1  0
 19 40  1  0
 19 41  1  0
 20 42  1  1
 21 43  1  0
 21 44  1  0
M  END
>  <_SMILES>  (48) 
O=C(/C=C/c1ccccc1)N[C@H]1[C@@H]2C[C@H]3C[C@@H](C2)C[C@@H]1C3

$$$$

     RDKit          3D

 40 43  0  0  0  0  0  0  0  0999 V2000
    2.2141   -1.5821    0.7646 O   0  0  0  0  0  0  0  0  0  0  0  0
    2.0257   -0.4446    0.3502 C   0  0  0  0  0  0  0  0  0  0  0  0
    0.8469   -0.0258   -0.2314 N   0  0  0  0  0  0  0  0  0  0  0  0
   -0.2982   -0.9167   -0.3688 C   0  0  1  0  0  0  0  0  0  0  0  0
   -1.0322   -1.1392    0.9772 C   0  0  2  0  0  0  0  0  0  0  0  0
   -2.1245   -2.2064    0.7671 C   0  0  0  0  0  0  0  0  0  0  0  0
   -3.1341   -1.7306   -0.2926 C   0  0  1  0  0  0  0  0  0  0  0  0
   -3.7873   -0.4239    0.1890 C   0  0  0  0  0  0  0  0  0  0  0  0
   -2.7118    0.6562    0.3969 C   0  0  1  0  0  0  0  0  0  0  0  0
   -1.6996    0.1685    1.4467 C   0  0  0  0  0  0  0  0  0  0  0  0
   -1.9830    0.9026   -0.9338 C   0  0  0  0  0  0  0  0  0  0  0  0
   -1.3086   -0.3964   -1.4197 C   0  0  2  0  0  0  0  0  0  0  0  0
   -2.3985   -1.4684   -1.6198 C   0  0  0  0  0  0  0  0  0  0  0  0
    3.1167    0.5656    0.4287 C   0  0  0  0  0  0  0  0  0  0  0  0
    2.8505    1.9373    0.5550 C   0  0  0  0  0  0  0  0  0  0  0  0
    3.9082    2.8471    0.6311 C   0  0  0  0  0  0  0  0  0  0  0  0
    5.2197    2.3843    0.5896 C   0  0  0  0  0  0  0  0  0  0  0  0
    6.2293    3.2608    0.6637 F   0  0  0  0  0  0  0  0  0  0  0  0
    5.4978    1.0266    0.4810 C   0  0  0  0  0  0  0  0  0  0  0  0
    4.4444    0.1134    0.4057 C   0  0  0  0  0  0  0  0  0  0  0  0
    0.8147    0.8740   -0.6889 H   0  0  0  0  0  0  0  0  0  0  0  0
    0.1032   -1.8796   -0.7133 H   0  0  0  0  0  0  0  0  0  0  0  0
   -0.3328   -1.4839    1.7471 H   0  0  0  0  0  0  0  0  0  0  0  0
   -2.6413   -2.4040    1.7143 H   0  0  0  0  0  0  0  0  0  0  0  0
   -1.6680   -3.1525    0.4514 H   0  0  0  0  0  0  0  0  0  0  0  0
   -3.9036   -2.4963   -0.4410 H   0  0  0  0  0  0  0  0  0  0  0  0
   -4.5258   -0.0811   -0.5461 H   0  0  0  0  0  0  0  0  0  0  0  0
   -4.3291   -0.5988    1.1266 H   0  0  0  0  0  0  0  0  0  0  0  0
   -3.1825    1.5845    0.7391 H   0  0  0  0  0  0  0  0  0  0  0  0
   -2.2087    0.0018    2.4042 H   0  0  0  0  0  0  0  0  0  0  0  0
   -0.9418    0.9408    1.6250 H   0  0  0  0  0  0  0  0  0  0  0  0
   -2.6968    1.2545   -1.6892 H   0  0  0  0  0  0  0  0  0  0  0  0
   -1.2420    1.7009   -0.8117 H   0  0  0  0  0  0  0  0  0  0  0  0
   -0.7991   -0.2079   -2.3721 H   0  0  0  0  0  0  0  0  0  0  0  0
   -1.9472   -2.3981   -1.9876 H   0  0  0  0  0  0  0  0  0  0  0  0
   -3.1125   -1.1382   -2.3843 H   0  0  0  0  0  0  0  0  0  0  0  0
    1.8323    2.3088    0.6260 H   0  0  0  0  0  0  0  0  0  0  0  0
    3.7199    3.9115    0.7334 H   0  0  0  0  0  0  0  0  0  0  0  0
    6.5285    0.6867    0.4603 H   0  0  0  0  0  0  0  0  0  0  0  0
    4.6572   -0.9514    0.3278 H   0  0  0  0  0  0  0  0  0  0  0  0
  1  2  2  0
  2  3  1  0
  3  4  1  0
  4  5  1  0
  5  6  1  0
  6  7  1  0
  7  8  1  0
  8  9  1  0
  9 10  1  0
  9 11  1  0
 11 12  1  0
 12 13  1  0
  2 14  1  0
 14 15  1  0
 15 16  2  0
 16 17  1  0
 17 18  1  0
 17 19  2  0
 19 20  1  0
 12  4  1  0
 20 14  2  0
 10  5  1  0
 13  7  1  0
  3 21  1  0
  4 22  1  6
  5 23  1  1
  6 24  1  0
  6 25  1  0
  7 26  1  6
  8 27  1  0
  8 28  1  0
  9 29  1  1
 10 30  1  0
 10 31  1  0
 11 32  1  0
 11 33  1  0
 12 34  1  6
 13 35  1  0
 13 36  1  0
 15 37  1  0
 16 38  1  0
 19 39  1  0
 20 40  1  0
M  END
>  <_SMILES>  (49) 
O=C(N[C@H]1[C@@H]2C[C@H]3C[C@@H](C2)C[C@@H]1C3)c1ccc(F)cc1

$$$$

     RDKit          3D

 43 46  0  0  0  0  0  0  0  0999 V2000
    1.3635    3.0253   -0.3557 O   0  0  0  0  0  0  0  0  0  0  0  0
    1.5508    1.8843   -0.7704 C   0  0  0  0  0  0  0  0  0  0  0  0
    2.9360    1.3822   -1.1461 C   0  0  0  0  0  0  0  0  0  0  0  0
    3.2937    0.0571   -0.5134 C   0  0  0  0  0  0  0  0  0  0  0  0
    3.4044   -0.0539    0.8801 C   0  0  0  0  0  0  0  0  0  0  0  0
    3.7097   -1.2813    1.4688 C   0  0  0  0  0  0  0  0  0  0  0  0
    3.9111   -2.4065    0.6720 C   0  0  0  0  0  0  0  0  0  0  0  0
    3.8105   -2.3055   -0.7144 C   0  0  0  0  0  0  0  0  0  0  0  0
    3.5046   -1.0793   -1.3064 C   0  0  0  0  0  0  0  0  0  0  0  0
    0.5311    0.9768   -0.9867 N   0  0  0  0  0  0  0  0  0  0  0  0
   -0.8303    1.2489   -0.5480 C   0  0  1  0  0  0  0  0  0  0  0  0
   -1.8637    0.3794   -1.3024 C   0  0  2  0  0  0  0  0  0  0  0  0
   -3.2764    0.8502   -0.9004 C   0  0  0  0  0  0  0  0  0  0  0  0
   -3.4788    0.6846    0.6175 C   0  0  1  0  0  0  0  0  0  0  0  0
   -3.3120   -0.7986    0.9897 C   0  0  0  0  0  0  0  0  0  0  0  0
   -1.9058   -1.2838    0.5978 C   0  0  1  0  0  0  0  0  0  0  0  0
   -1.7183   -1.1069   -0.9179 C   0  0  0  0  0  0  0  0  0  0  0  0
   -0.8547   -0.4441    1.3428 C   0  0  0  0  0  0  0  0  0  0  0  0
   -1.0047    1.0461    0.9774 C   0  0  2  0  0  0  0  0  0  0  0  0
   -2.4208    1.5118    1.3702 C   0  0  0  0  0  0  0  0  0  0  0  0
    2.9843    1.3216   -2.2399 H   0  0  0  0  0  0  0  0  0  0  0  0
    3.6764    2.1297   -0.8364 H   0  0  0  0  0  0  0  0  0  0  0  0
    3.2489    0.8164    1.5158 H   0  0  0  0  0  0  0  0  0  0  0  0
    3.7922   -1.3586    2.5500 H   0  0  0  0  0  0  0  0  0  0  0  0
    4.1517   -3.3616    1.1318 H   0  0  0  0  0  0  0  0  0  0  0  0
    3.9746   -3.1828   -1.3350 H   0  0  0  0  0  0  0  0  0  0  0  0
    3.4337   -1.0191   -2.3904 H   0  0  0  0  0  0  0  0  0  0  0  0
    0.8073    0.0084   -1.0937 H   0  0  0  0  0  0  0  0  0  0  0  0
   -1.0244    2.3043   -0.7832 H   0  0  0  0  0  0  0  0  0  0  0  0
   -1.7325    0.4904   -2.3852 H   0  0  0  0  0  0  0  0  0  0  0  0
   -3.4168    1.9005   -1.1842 H   0  0  0  0  0  0  0  0  0  0  0  0
   -4.0329    0.2710   -1.4441 H   0  0  0  0  0  0  0  0  0  0  0  0
   -4.4821    1.0254    0.8963 H   0  0  0  0  0  0  0  0  0  0  0  0
   -3.4692   -0.9352    2.0667 H   0  0  0  0  0  0  0  0  0  0  0  0
   -4.0727   -1.4011    0.4783 H   0  0  0  0  0  0  0  0  0  0  0  0
   -1.7926   -2.3405    0.8642 H   0  0  0  0  0  0  0  0  0  0  0  0
   -2.4656   -1.7033   -1.4565 H   0  0  0  0  0  0  0  0  0  0  0  0
   -0.7389   -1.4925   -1.2226 H   0  0  0  0  0  0  0  0  0  0  0  0
   -0.9753   -0.5738    2.4256 H   0  0  0  0  0  0  0  0  0  0  0  0
    0.1525   -0.7995    1.0964 H   0  0  0  0  0  0  0  0  0  0  0  0
   -0.2620    1.6315    1.5314 H   0  0  0  0  0  0  0  0  0  0  0  0
   -2.5628    1.4052    2.4527 H   0  0  0  0  0  0  0  0  0  0  0  0
   -2.5432    2.5767    1.1374 H   0  0  0  0  0  0  0  0  0  0  0  0
  1  2  2  0
  2  3  1  0
  3  4  1  0
  4  5  2  0
  5  6  1  0
  6  7  2  0
  7  8  1  0
  8  9  2  0
  2 10  1  0
 10 11  1  0
 11 12  1  0
 12 13  1  0
 13 14  1  0
 14 15  1  0
 15 16  1  0
 16 17  1  0
 16 18  1  0
 18 19  1  0
 19 20  1  0
  9  4  1  0
 19 11  1  0
 17 12  1  0
 20 14  1  0
  3 21  1  0
  3 22  1  0
  5 23  1  0
  6 24  1  0
  7 25  1  0
  8 26  1  0
  9 27  1  0
 10 28  1  0
 11 29  1  1
 12 30  1  6
 13 31  1  0
 13 32  1  0
 14 33  1  1
 15 34  1  0
 15 35  1  0
 16 36  1  6
 17 37  1  0
 17 38  1  0
 18 39  1  0
 18 40  1  0
 19 41  1  1
 20 42  1  0
 20 43  1  0
M  END
>  <_SMILES>  (50) 
O=C(Cc1ccccc1)N[C@H]1[C@@H]2C[C@H]3C[C@@H](C2)C[C@@H]1C3

$$$$

     RDKit          3D

 40 43  0  0  0  0  0  0  0  0999 V2000
   -1.9231    2.0630    0.0427 O   0  0  0  0  0  0  0  0  0  0  0  0
   -1.9231    0.8626   -0.2145 C   0  0  0  0  0  0  0  0  0  0  0  0
   -0.7768    0.1711   -0.5334 N   0  0  0  0  0  0  0  0  0  0  0  0
    0.5362    0.8000   -0.5350 C   0  0  1  0  0  0  0  0  0  0  0  0
    1.1178    0.9367    0.8929 C   0  0  2  0  0  0  0  0  0  0  0  0
    2.4216    1.7548    0.8103 C   0  0  0  0  0  0  0  0  0  0  0  0
    3.4411    1.0378   -0.0932 C   0  0  1  0  0  0  0  0  0  0  0  0
    3.7491   -0.3469    0.5017 C   0  0  0  0  0  0  0  0  0  0  0  0
    2.4598   -1.1818    0.5846 C   0  0  1  0  0  0  0  0  0  0  0  0
    1.4401   -0.4532    1.4760 C   0  0  0  0  0  0  0  0  0  0  0  0
    1.8756   -1.3443   -0.8279 C   0  0  0  0  0  0  0  0  0  0  0  0
    1.5429    0.0366   -1.4282 C   0  0  2  0  0  0  0  0  0  0  0  0
    2.8443    0.8611   -1.5023 C   0  0  0  0  0  0  0  0  0  0  0  0
   -3.1984    0.0900   -0.1275 C   0  0  0  0  0  0  0  0  0  0  0  0
   -4.1824    0.6282    0.7242 C   0  0  0  0  0  0  0  0  0  0  0  0
   -5.4140   -0.0066    0.8971 C   0  0  0  0  0  0  0  0  0  0  0  0
   -5.6845   -1.1880    0.2162 C   0  0  0  0  0  0  0  0  0  0  0  0
   -4.7259   -1.7287   -0.6407 C   0  0  0  0  0  0  0  0  0  0  0  0
   -3.4864   -1.0959   -0.8198 C   0  0  0  0  0  0  0  0  0  0  0  0
   -2.4065   -1.8491   -1.9421 Cl  0  0  0  0  0  0  0  0  0  0  0  0
   -0.8366   -0.8306   -0.6660 H   0  0  0  0  0  0  0  0  0  0  0  0
    0.3945    1.8068   -0.9511 H   0  0  0  0  0  0  0  0  0  0  0  0
    0.4067    1.4499    1.5506 H   0  0  0  0  0  0  0  0  0  0  0  0
    2.2114    2.7565    0.4158 H   0  0  0  0  0  0  0  0  0  0  0  0
    2.8419    1.8911    1.8144 H   0  0  0  0  0  0  0  0  0  0  0  0
    4.3622    1.6281   -0.1529 H   0  0  0  0  0  0  0  0  0  0  0  0
    4.4917   -0.8642   -0.1182 H   0  0  0  0  0  0  0  0  0  0  0  0
    4.1894   -0.2368    1.5003 H   0  0  0  0  0  0  0  0  0  0  0  0
    2.6849   -2.1670    1.0080 H   0  0  0  0  0  0  0  0  0  0  0  0
    1.8443   -0.3448    2.4903 H   0  0  0  0  0  0  0  0  0  0  0  0
    0.5251   -1.0509    1.5657 H   0  0  0  0  0  0  0  0  0  0  0  0
    2.5975   -1.8633   -1.4711 H   0  0  0  0  0  0  0  0  0  0  0  0
    0.9827   -1.9784   -0.7930 H   0  0  0  0  0  0  0  0  0  0  0  0
    1.1309   -0.0935   -2.4359 H   0  0  0  0  0  0  0  0  0  0  0  0
    3.5690    0.3591   -2.1552 H   0  0  0  0  0  0  0  0  0  0  0  0
    2.6419    1.8425   -1.9486 H   0  0  0  0  0  0  0  0  0  0  0  0
   -3.9874    1.5544    1.2647 H   0  0  0  0  0  0  0  0  0  0  0  0
   -6.1587    0.4260    1.5615 H   0  0  0  0  0  0  0  0  0  0  0  0
   -6.6433   -1.6848    0.3452 H   0  0  0  0  0  0  0  0  0  0  0  0
   -4.9558   -2.6472   -1.1771 H   0  0  0  0  0  0  0  0  0  0  0  0
  1  2  2  0
  2  3  1  0
  3  4  1  0
  4  5  1  0
  5  6  1  0
  6  7  1  0
  7  8  1  0
  8  9  1  0
  9 10  1  0
  9 11  1  0
 11 12  1  0
 12 13  1  0
  2 14  1  0
 14 15  2  0
 15 16  1  0
 16 17  2  0
 17 18  1  0
 18 19  2  0
 19 20  1  0
 12  4  1  0
 19 14  1  0
 10  5  1  0
 13  7  1  0
  3 21  1  0
  4 22  1  6
  5 23  1  1
  6 24  1  0
  6 25  1  0
  7 26  1  6
  8 27  1  0
  8 28  1  0
  9 29  1  1
 10 30  1  0
 10 31  1  0
 11 32  1  0
 11 33  1  0
 12 34  1  6
 13 35  1  0
 13 36  1  0
 15 37  1  0
 16 38  1  0
 17 39  1  0
 18 40  1  0
M  END
>  <_SMILES>  (51) 
O=C(N[C@H]1[C@@H]2C[C@H]3C[C@@H](C2)C[C@@H]1C3)c1ccccc1Cl

$$$$

     RDKit          3D

 43 46  0  0  0  0  0  0  0  0999 V2000
    2.4133   -0.9909    1.6636 C   0  0  0  0  0  0  0  0  0  0  0  0
    3.3586   -0.4357    0.6371 C   0  0  0  0  0  0  0  0  0  0  0  0
    4.6602   -0.9573    0.5571 C   0  0  0  0  0  0  0  0  0  0  0  0
    5.5842   -0.4419   -0.3555 C   0  0  0  0  0  0  0  0  0  0  0  0
    5.2244    0.6035   -1.2023 C   0  0  0  0  0  0  0  0  0  0  0  0
    3.9327    1.1237   -1.1495 C   0  0  0  0  0  0  0  0  0  0  0  0
    2.9957    0.5944   -0.2509 C   0  0  0  0  0  0  0  0  0  0  0  0
    1.6337    1.1810   -0.2922 C   0  0  0  0  0  0  0  0  0  0  0  0
    1.4814    2.3911   -0.1881 O   0  0  0  0  0  0  0  0  0  0  0  0
    0.6156    0.2807   -0.5210 N   0  0  0  0  0  0  0  0  0  0  0  0
   -0.7680    0.7077   -0.6705 C   0  0  1  0  0  0  0  0  0  0  0  0
   -1.6254   -0.3564   -1.3964 C   0  0  2  0  0  0  0  0  0  0  0  0
   -3.0175    0.2475   -1.6706 C   0  0  0  0  0  0  0  0  0  0  0  0
   -3.6980    0.6342   -0.3444 C   0  0  1  0  0  0  0  0  0  0  0  0
   -3.8530   -0.6239    0.5267 C   0  0  0  0  0  0  0  0  0  0  0  0
   -2.4721   -1.2378    0.8133 C   0  0  1  0  0  0  0  0  0  0  0  0
   -1.7997   -1.6112   -0.5176 C   0  0  0  0  0  0  0  0  0  0  0  0
   -1.6018   -0.2052    1.5476 C   0  0  0  0  0  0  0  0  0  0  0  0
   -1.4298    1.0599    0.6846 C   0  0  2  0  0  0  0  0  0  0  0  0
   -2.8231    1.6573    0.4028 C   0  0  0  0  0  0  0  0  0  0  0  0
    1.8288   -0.1915    2.1298 H   0  0  0  0  0  0  0  0  0  0  0  0
    2.9588   -1.4913    2.4713 H   0  0  0  0  0  0  0  0  0  0  0  0
    1.7403   -1.7220    1.2062 H   0  0  0  0  0  0  0  0  0  0  0  0
    4.9713   -1.7625    1.2203 H   0  0  0  0  0  0  0  0  0  0  0  0
    6.5913   -0.8502   -0.3960 H   0  0  0  0  0  0  0  0  0  0  0  0
    5.9477    1.0135   -1.9024 H   0  0  0  0  0  0  0  0  0  0  0  0
    3.6502    1.9400   -1.8113 H   0  0  0  0  0  0  0  0  0  0  0  0
    0.8585   -0.6844   -0.7018 H   0  0  0  0  0  0  0  0  0  0  0  0
   -0.7392    1.6148   -1.2899 H   0  0  0  0  0  0  0  0  0  0  0  0
   -1.1538   -0.6384   -2.3452 H   0  0  0  0  0  0  0  0  0  0  0  0
   -3.6389   -0.4755   -2.2133 H   0  0  0  0  0  0  0  0  0  0  0  0
   -2.9232    1.1308   -2.3141 H   0  0  0  0  0  0  0  0  0  0  0  0
   -4.6836    1.0678   -0.5468 H   0  0  0  0  0  0  0  0  0  0  0  0
   -4.3526   -0.3683    1.4692 H   0  0  0  0  0  0  0  0  0  0  0  0
   -4.4907   -1.3567    0.0171 H   0  0  0  0  0  0  0  0  0  0  0  0
   -2.5880   -2.1333    1.4339 H   0  0  0  0  0  0  0  0  0  0  0  0
   -2.4106   -2.3527   -1.0476 H   0  0  0  0  0  0  0  0  0  0  0  0
   -0.8308   -2.0866   -0.3265 H   0  0  0  0  0  0  0  0  0  0  0  0
   -2.0673    0.0596    2.5051 H   0  0  0  0  0  0  0  0  0  0  0  0
   -0.6255   -0.6415    1.7851 H   0  0  0  0  0  0  0  0  0  0  0  0
   -0.8243    1.7917    1.2315 H   0  0  0  0  0  0  0  0  0  0  0  0
   -3.3050    1.9438    1.3457 H   0  0  0  0  0  0  0  0  0  0  0  0
   -2.7249    2.5724   -0.1941 H   0  0  0  0  0  0  0  0  0  0  0  0
  1  2  1  0
  2  3  2  0
  3  4  1  0
  4  5  2  0
  5  6  1  0
  6  7  2  0
  7  8  1  0
  8  9  2  0
  8 10  1  0
 10 11  1  0
 11 12  1  0
 12 13  1  0
 13 14  1  0
 14 15  1  0
 15 16  1  0
 16 17  1  0
 16 18  1  0
 18 19  1  0
 19 20  1  0
  7  2  1  0
 19 11  1  0
 17 12  1  0
 20 14  1  0
  1 21  1  0
  1 22  1  0
  1 23  1  0
  3 24  1  0
  4 25  1  0
  5 26  1  0
  6 27  1  0
 10 28  1  0
 11 29  1  6
 12 30  1  6
 13 31  1  0
 13 32  1  0
 14 33  1  6
 15 34  1  0
 15 35  1  0
 16 36  1  1
 17 37  1  0
 17 38  1  0
 18 39  1  0
 18 40  1  0
 19 41  1  1
 20 42  1  0
 20 43  1  0
M  END
>  <_SMILES>  (52) 
Cc1ccccc1C(=O)N[C@H]1[C@@H]2C[C@H]3C[C@@H](C2)C[C@@H]1C3

$$$$

     RDKit          3D

 48 52  0  0  0  0  0  0  0  0999 V2000
   -1.2005    0.0131   -2.6987 C   0  0  0  0  0  0  0  0  0  0  0  0
   -2.1406   -0.3577   -1.5434 C   0  0  2  0  0  0  0  0  0  0  0  0
   -3.5357    0.3026   -1.7066 C   0  0  2  0  0  0  0  0  0  0  0  0
   -3.4490    1.8280   -1.5195 C   0  0  0  0  0  0  0  0  0  0  0  0
   -2.9051    2.1569   -0.1214 C   0  0  1  0  0  0  0  0  0  0  0  0
   -3.8548    1.5779    0.9382 C   0  0  0  0  0  0  0  0  0  0  0  0
   -3.9535    0.0545    0.7715 C   0  0  1  0  0  0  0  0  0  0  0  0
   -4.4841   -0.2696   -0.6348 C   0  0  0  0  0  0  0  0  0  0  0  0
   -2.5564   -0.5660    0.9434 C   0  0  0  0  0  0  0  0  0  0  0  0
   -1.5710   -0.0185   -0.1267 C   0  0  1  0  0  0  0  0  0  0  0  0
   -0.2217   -0.5557    0.0854 N   0  0  0  0  0  0  0  0  0  0  0  0
    0.1310   -1.8989    0.0319 C   0  0  0  0  0  0  0  0  0  0  0  0
   -0.6902   -2.7812   -0.2041 O   0  0  0  0  0  0  0  0  0  0  0  0
    1.5418   -2.1475    0.2738 C   0  0  0  0  0  0  0  0  0  0  0  0
    2.1539   -3.3141    0.2848 N   0  0  0  0  0  0  0  0  0  0  0  0
    3.4828   -3.0543    0.5548 N   0  0  0  0  0  0  0  0  0  0  0  0
    3.5940   -1.7482    0.6903 C   0  0  0  0  0  0  0  0  0  0  0  0
    4.7678   -0.9340    0.9797 C   0  0  0  0  0  0  0  0  0  0  0  0
    4.6959    0.4635    1.0893 C   0  0  0  0  0  0  0  0  0  0  0  0
    5.8395    1.2178    1.3678 C   0  0  0  0  0  0  0  0  0  0  0  0
    7.0686    0.5851    1.5402 C   0  0  0  0  0  0  0  0  0  0  0  0
    7.1572   -0.8008    1.4348 C   0  0  0  0  0  0  0  0  0  0  0  0
    6.0143   -1.5547    1.1564 C   0  0  0  0  0  0  0  0  0  0  0  0
    2.3965   -1.0980    0.5248 O   0  0  0  0  0  0  0  0  0  0  0  0
   -1.5151    1.5255    0.0526 C   0  0  0  0  0  0  0  0  0  0  0  0
   -0.9375    1.0736   -2.7119 H   0  0  0  0  0  0  0  0  0  0  0  0
   -0.2685   -0.5585   -2.6436 H   0  0  0  0  0  0  0  0  0  0  0  0
   -1.6685   -0.2243   -3.6604 H   0  0  0  0  0  0  0  0  0  0  0  0
   -2.2865   -1.4440   -1.6160 H   0  0  0  0  0  0  0  0  0  0  0  0
   -3.9416    0.0782   -2.7001 H   0  0  0  0  0  0  0  0  0  0  0  0
   -4.4440    2.2735   -1.6447 H   0  0  0  0  0  0  0  0  0  0  0  0
   -2.8120    2.2785   -2.2884 H   0  0  0  0  0  0  0  0  0  0  0  0
   -2.8359    3.2434    0.0020 H   0  0  0  0  0  0  0  0  0  0  0  0
   -3.4911    1.8233    1.9436 H   0  0  0  0  0  0  0  0  0  0  0  0
   -4.8487    2.0317    0.8403 H   0  0  0  0  0  0  0  0  0  0  0  0
   -4.6340   -0.3551    1.5263 H   0  0  0  0  0  0  0  0  0  0  0  0
   -5.4887    0.1527   -0.7613 H   0  0  0  0  0  0  0  0  0  0  0  0
   -4.5797   -1.3553   -0.7589 H   0  0  0  0  0  0  0  0  0  0  0  0
   -2.6426   -1.6568    0.8761 H   0  0  0  0  0  0  0  0  0  0  0  0
   -2.1753   -0.3522    1.9509 H   0  0  0  0  0  0  0  0  0  0  0  0
    0.5273    0.1001    0.2747 H   0  0  0  0  0  0  0  0  0  0  0  0
    3.7498    0.9836    0.9595 H   0  0  0  0  0  0  0  0  0  0  0  0
    5.7708    2.2999    1.4503 H   0  0  0  0  0  0  0  0  0  0  0  0
    7.9580    1.1717    1.7568 H   0  0  0  0  0  0  0  0  0  0  0  0
    8.1151   -1.2976    1.5688 H   0  0  0  0  0  0  0  0  0  0  0  0
    6.1030   -2.6378    1.0776 H   0  0  0  0  0  0  0  0  0  0  0  0
   -1.1258    1.7707    1.0505 H   0  0  0  0  0  0  0  0  0  0  0  0
   -0.8096    1.9748   -0.6569 H   0  0  0  0  0  0  0  0  0  0  0  0
  1  2  1  0
  2  3  1  0
  3  4  1  0
  4  5  1  0
  5  6  1  0
  6  7  1  0
  7  8  1  0
  7  9  1  0
  9 10  1  0
 10 11  1  1
 11 12  1  0
 12 13  2  0
 12 14  1  0
 14 15  2  0
 15 16  1  0
 16 17  2  0
 17 18  1  0
 18 19  2  0
 19 20  1  0
 20 21  2  0
 21 22  1  0
 22 23  2  0
 17 24  1  0
 10 25  1  0
 10  2  1  0
 24 14  1  0
  8  3  1  0
 23 18  1  0
 25  5  1  0
  1 26  1  0
  1 27  1  0
  1 28  1  0
  2 29  1  1
  3 30  1  6
  4 31  1  0
  4 32  1  0
  5 33  1  1
  6 34  1  0
  6 35  1  0
  7 36  1  1
  8 37  1  0
  8 38  1  0
  9 39  1  0
  9 40  1  0
 11 41  1  0
 19 42  1  0
 20 43  1  0
 21 44  1  0
 22 45  1  0
 23 46  1  0
 25 47  1  0
 25 48  1  0
M  END
>  <_SMILES>  (53) 
C[C@@H]1[C@@H]2C[C@H]3C[C@@H](C2)C[C@]1(NC(=O)c1nnc(-c2ccccc2)o1)C3

$$$$

     RDKit          3D

 53 57  0  0  0  0  0  0  0  0999 V2000
    2.9948   -1.9696    1.1598 C   0  0  0  0  0  0  0  0  0  0  0  0
    2.8265   -0.7152    0.3810 C   0  0  0  0  0  0  0  0  0  0  0  0
    1.5879   -0.0889    0.0332 C   0  0  0  0  0  0  0  0  0  0  0  0
    0.2189   -0.5288    0.3775 C   0  0  0  0  0  0  0  0  0  0  0  0
   -0.0134   -1.5506    1.0136 O   0  0  0  0  0  0  0  0  0  0  0  0
   -0.7463    0.3289   -0.1064 N   0  0  0  0  0  0  0  0  0  0  0  0
   -2.1932    0.1216   -0.0666 C   0  0  1  0  0  0  0  0  0  0  0  0
   -2.7178   -0.0879    1.3791 C   0  0  0  0  0  0  0  0  0  0  0  0
   -4.2420   -0.3033    1.3812 C   0  0  2  0  0  0  0  0  0  0  0  0
   -4.5754   -1.5476    0.5411 C   0  0  0  0  0  0  0  0  0  0  0  0
   -4.0965   -1.3479   -0.9057 C   0  0  1  0  0  0  0  0  0  0  0  0
   -4.7893   -0.1151   -1.5054 C   0  0  0  0  0  0  0  0  0  0  0  0
   -4.4516    1.1366   -0.6749 C   0  0  1  0  0  0  0  0  0  0  0  0
   -4.9426    0.9174    0.7673 C   0  0  0  0  0  0  0  0  0  0  0  0
   -2.9173    1.3588   -0.7048 C   0  0  1  0  0  0  0  0  0  0  0  0
   -2.5391    2.7071   -0.0710 C   0  0  0  0  0  0  0  0  0  0  0  0
   -2.5750   -1.1278   -0.9077 C   0  0  0  0  0  0  0  0  0  0  0  0
    1.7943    1.0246   -0.7023 N   0  0  0  0  0  0  0  0  0  0  0  0
    3.1295    1.1062   -0.7967 N   0  0  0  0  0  0  0  0  0  0  0  0
    3.8066    0.0945   -0.1716 C   0  0  0  0  0  0  0  0  0  0  0  0
    5.2628    0.0301   -0.1515 C   0  0  0  0  0  0  0  0  0  0  0  0
    5.9946    0.0718   -1.3454 C   0  0  0  0  0  0  0  0  0  0  0  0
    7.3905    0.0221   -1.3217 C   0  0  0  0  0  0  0  0  0  0  0  0
    8.0653   -0.0679   -0.1056 C   0  0  0  0  0  0  0  0  0  0  0  0
    7.3462   -0.1109    1.0874 C   0  0  0  0  0  0  0  0  0  0  0  0
    5.9506   -0.0626    1.0645 C   0  0  0  0  0  0  0  0  0  0  0  0
    2.3784   -2.7704    0.7391 H   0  0  0  0  0  0  0  0  0  0  0  0
    2.6995   -1.8124    2.2020 H   0  0  0  0  0  0  0  0  0  0  0  0
    4.0309   -2.3205    1.1501 H   0  0  0  0  0  0  0  0  0  0  0  0
   -0.3596    1.0590   -0.7012 H   0  0  0  0  0  0  0  0  0  0  0  0
   -2.2451   -0.9612    1.8433 H   0  0  0  0  0  0  0  0  0  0  0  0
   -2.4550    0.7644    2.0166 H   0  0  0  0  0  0  0  0  0  0  0  0
   -4.5914   -0.4505    2.4094 H   0  0  0  0  0  0  0  0  0  0  0  0
   -4.0974   -2.4339    0.9762 H   0  0  0  0  0  0  0  0  0  0  0  0
   -5.6569   -1.7307    0.5557 H   0  0  0  0  0  0  0  0  0  0  0  0
   -4.3416   -2.2347   -1.5010 H   0  0  0  0  0  0  0  0  0  0  0  0
   -5.8753   -0.2690   -1.5259 H   0  0  0  0  0  0  0  0  0  0  0  0
   -4.4702    0.0266   -2.5453 H   0  0  0  0  0  0  0  0  0  0  0  0
   -4.9652    2.0025   -1.1091 H   0  0  0  0  0  0  0  0  0  0  0  0
   -6.0289    0.7618    0.7690 H   0  0  0  0  0  0  0  0  0  0  0  0
   -4.7594    1.8063    1.3807 H   0  0  0  0  0  0  0  0  0  0  0  0
   -2.6076    1.4293   -1.7582 H   0  0  0  0  0  0  0  0  0  0  0  0
   -1.4780    2.9301   -0.2209 H   0  0  0  0  0  0  0  0  0  0  0  0
   -2.7351    2.7439    1.0033 H   0  0  0  0  0  0  0  0  0  0  0  0
   -3.1062    3.5190   -0.5396 H   0  0  0  0  0  0  0  0  0  0  0  0
   -2.0822   -2.0257   -0.5147 H   0  0  0  0  0  0  0  0  0  0  0  0
   -2.2170   -1.0112   -1.9393 H   0  0  0  0  0  0  0  0  0  0  0  0
    3.5306    1.8931   -1.2951 H   0  0  0  0  0  0  0  0  0  0  0  0
    5.4865    0.1227   -2.3055 H   0  0  0  0  0  0  0  0  0  0  0  0
    7.9509    0.0470   -2.2528 H   0  0  0  0  0  0  0  0  0  0  0  0
    9.1514   -0.1086   -0.0873 H   0  0  0  0  0  0  0  0  0  0  0  0
    7.8707   -0.1822    2.0368 H   0  0  0  0  0  0  0  0  0  0  0  0
    5.4039   -0.0902    2.0045 H   0  0  0  0  0  0  0  0  0  0  0  0
  1  2  1  0
  2  3  1  0
  3  4  1  0
  4  5  2  0
  4  6  1  0
  7  6  1  1
  7  8  1  0
  8  9  1  0
  9 10  1  0
 10 11  1  0
 11 12  1  0
 12 13  1  0
 13 14  1  0
 13 15  1  0
 15 16  1  0
 11 17  1  0
  3 18  2  0
 18 19  1  0
 19 20  1  0
 20 21  1  0
 21 22  2  0
 22 23  1  0
 23 24  2  0
 24 25  1  0
 25 26  2  0
 20  2  2  0
 26 21  1  0
 15  7  1  0
 17  7  1  0
 14  9  1  0
  1 27  1  0
  1 28  1  0
  1 29  1  0
  6 30  1  0
  8 31  1  0
  8 32  1  0
  9 33  1  1
 10 34  1  0
 10 35  1  0
 11 36  1  6
 12 37  1  0
 12 38  1  0
 13 39  1  6
 14 40  1  0
 14 41  1  0
 15 42  1  6
 16 43  1  0
 16 44  1  0
 16 45  1  0
 17 46  1  0
 17 47  1  0
 19 48  1  0
 22 49  1  0
 23 50  1  0
 24 51  1  0
 25 52  1  0
 26 53  1  0
M  END
>  <_SMILES>  (54) 
Cc1c(C(=O)N[C@@]23C[C@@H]4C[C@@H](C[C@@H](C4)[C@H]2C)C3)n[nH]c1-c1ccccc1

$$$$

     RDKit          3D

 53 57  0  0  0  0  0  0  0  0999 V2000
    2.3083   -0.0823   -1.2811 C   0  0  0  0  0  0  0  0  0  0  0  0
    2.5170   -0.1725    0.1883 C   0  0  0  0  0  0  0  0  0  0  0  0
    3.7727   -0.1149    0.8832 C   0  0  0  0  0  0  0  0  0  0  0  0
    5.1099    0.1250    0.3392 C   0  0  0  0  0  0  0  0  0  0  0  0
    5.3417    1.1615   -0.5752 C   0  0  0  0  0  0  0  0  0  0  0  0
    6.6227    1.3778   -1.0901 C   0  0  0  0  0  0  0  0  0  0  0  0
    7.6825    0.5651   -0.6906 C   0  0  0  0  0  0  0  0  0  0  0  0
    7.4660   -0.4599    0.2287 C   0  0  0  0  0  0  0  0  0  0  0  0
    6.1862   -0.6764    0.7442 C   0  0  0  0  0  0  0  0  0  0  0  0
    3.6060   -0.3445    2.1932 N   0  0  0  0  0  0  0  0  0  0  0  0
    2.2892   -0.5217    2.3365 N   0  0  0  0  0  0  0  0  0  0  0  0
    1.5680   -0.3767    1.1842 C   0  0  0  0  0  0  0  0  0  0  0  0
    0.1313   -0.4985    1.2141 C   0  0  0  0  0  0  0  0  0  0  0  0
   -0.4453   -1.0174    2.1633 O   0  0  0  0  0  0  0  0  0  0  0  0
   -0.5256    0.0510    0.1375 N   0  0  0  0  0  0  0  0  0  0  0  0
   -1.9843    0.1186   -0.0170 C   0  0  1  0  0  0  0  0  0  0  0  0
   -2.2979    0.8010   -1.3793 C   0  0  0  0  0  0  0  0  0  0  0  0
   -3.8127    0.9439   -1.5944 C   0  0  2  0  0  0  0  0  0  0  0  0
   -4.3998    1.8073   -0.4672 C   0  0  0  0  0  0  0  0  0  0  0  0
   -4.1307    1.1436    0.8915 C   0  0  1  0  0  0  0  0  0  0  0  0
   -4.7783   -0.2508    0.9125 C   0  0  0  0  0  0  0  0  0  0  0  0
   -4.1921   -1.1273   -0.2119 C   0  0  1  0  0  0  0  0  0  0  0  0
   -4.4707   -0.4430   -1.5620 C   0  0  0  0  0  0  0  0  0  0  0  0
   -2.6669   -1.2891    0.0253 C   0  0  1  0  0  0  0  0  0  0  0  0
   -2.0492   -2.3108   -0.9397 C   0  0  0  0  0  0  0  0  0  0  0  0
   -2.6125    1.0030    1.0953 C   0  0  0  0  0  0  0  0  0  0  0  0
    1.4868   -0.7299   -1.6038 H   0  0  0  0  0  0  0  0  0  0  0  0
    3.1964   -0.4054   -1.8329 H   0  0  0  0  0  0  0  0  0  0  0  0
    2.0775    0.9472   -1.5716 H   0  0  0  0  0  0  0  0  0  0  0  0
    4.5335    1.8205   -0.8803 H   0  0  0  0  0  0  0  0  0  0  0  0
    6.7951    2.1860   -1.7961 H   0  0  0  0  0  0  0  0  0  0  0  0
    8.6797    0.7361   -1.0880 H   0  0  0  0  0  0  0  0  0  0  0  0
    8.2922   -1.0884    0.5505 H   0  0  0  0  0  0  0  0  0  0  0  0
    6.0275   -1.4734    1.4681 H   0  0  0  0  0  0  0  0  0  0  0  0
    1.9185   -0.7291    3.2590 H   0  0  0  0  0  0  0  0  0  0  0  0
    0.0208    0.6629   -0.4499 H   0  0  0  0  0  0  0  0  0  0  0  0
   -1.8526    0.2382   -2.2086 H   0  0  0  0  0  0  0  0  0  0  0  0
   -1.8315    1.7953   -1.4142 H   0  0  0  0  0  0  0  0  0  0  0  0
   -4.0054    1.4219   -2.5613 H   0  0  0  0  0  0  0  0  0  0  0  0
   -3.9548    2.8097   -0.4905 H   0  0  0  0  0  0  0  0  0  0  0  0
   -5.4792    1.9353   -0.6154 H   0  0  0  0  0  0  0  0  0  0  0  0
   -4.5544    1.7595    1.6926 H   0  0  0  0  0  0  0  0  0  0  0  0
   -5.8644   -0.1600    0.7872 H   0  0  0  0  0  0  0  0  0  0  0  0
   -4.6112   -0.7276    1.8862 H   0  0  0  0  0  0  0  0  0  0  0  0
   -4.6800   -2.1090   -0.1915 H   0  0  0  0  0  0  0  0  0  0  0  0
   -5.5535   -0.3436   -1.7104 H   0  0  0  0  0  0  0  0  0  0  0  0
   -4.1022   -1.0558   -2.3919 H   0  0  0  0  0  0  0  0  0  0  0  0
   -2.5418   -1.7153    1.0296 H   0  0  0  0  0  0  0  0  0  0  0  0
   -2.5868   -3.2634   -0.8792 H   0  0  0  0  0  0  0  0  0  0  0  0
   -2.0735   -1.9833   -1.9818 H   0  0  0  0  0  0  0  0  0  0  0  0
   -1.0049   -2.5126   -0.6806 H   0  0  0  0  0  0  0  0  0  0  0  0
   -2.1437    1.9960    1.0967 H   0  0  0  0  0  0  0  0  0  0  0  0
   -2.4234    0.5759    2.0874 H   0  0  0  0  0  0  0  0  0  0  0  0
  1  2  1  0
  2  3  1  0
  3  4  1  0
  4  5  2  0
  5  6  1  0
  6  7  2  0
  7  8  1  0
  8  9  2  0
  3 10  2  0
 10 11  1  0
 11 12  1  0
 12 13  1  0
 13 14  2  0
 13 15  1  0
 16 15  1  1
 16 17  1  0
 17 18  1  0
 18 19  1  0
 19 20  1  0
 20 21  1  0
 21 22  1  0
 22 23  1  0
 22 24  1  0
 24 25  1  0
 20 26  1  0
 12  2  2  0
 24 16  1  0
  9  4  1  0
 26 16  1  0
 23 18  1  0
  1 27  1  0
  1 28  1  0
  1 29  1  0
  5 30  1  0
  6 31  1  0
  7 32  1  0
  8 33  1  0
  9 34  1  0
 11 35  1  0
 15 36  1  0
 17 37  1  0
 17 38  1  0
 18 39  1  6
 19 40  1  0
 19 41  1  0
 20 42  1  1
 21 43  1  0
 21 44  1  0
 22 45  1  6
 23 46  1  0
 23 47  1  0
 24 48  1  1
 25 49  1  0
 25 50  1  0
 25 51  1  0
 26 52  1  0
 26 53  1  0
M  END
>  <_SMILES>  (55) 
Cc1c(-c2ccccc2)n[nH]c1C(=O)N[C@@]12C[C@@H]3C[C@@H](C[C@@H](C3)[C@H]1C)C2

$$$$

     RDKit          3D

 49 52  0  0  0  0  0  0  0  0999 V2000
    2.8343    0.7062   -1.9286 C   0  0  0  0  0  0  0  0  0  0  0  0
    3.2335    0.1247   -0.6212 C   0  0  0  0  0  0  0  0  0  0  0  0
    2.4486    0.0434    0.5771 C   0  0  0  0  0  0  0  0  0  0  0  0
    1.0467    0.4619    0.7850 C   0  0  0  0  0  0  0  0  0  0  0  0
    0.6637    1.0359    1.7993 O   0  0  0  0  0  0  0  0  0  0  0  0
    0.2062    0.1123   -0.2604 N   0  0  0  0  0  0  0  0  0  0  0  0
   -1.2483    0.3003   -0.2614 C   0  0  1  0  0  0  0  0  0  0  0  0
   -1.7957   -0.1739   -1.6380 C   0  0  0  0  0  0  0  0  0  0  0  0
   -3.3174    0.0188   -1.7286 C   0  0  2  0  0  0  0  0  0  0  0  0
   -3.6439    1.5109   -1.5669 C   0  0  0  0  0  0  0  0  0  0  0  0
   -3.1387    2.0084   -0.2051 C   0  0  1  0  0  0  0  0  0  0  0  0
   -3.8187    1.2038    0.9150 C   0  0  0  0  0  0  0  0  0  0  0  0
   -3.4941   -0.2956    0.7659 C   0  0  1  0  0  0  0  0  0  0  0  0
   -4.0047   -0.7725   -0.6058 C   0  0  0  0  0  0  0  0  0  0  0  0
   -1.9588   -0.4896    0.8856 C   0  0  1  0  0  0  0  0  0  0  0  0
   -1.5800   -1.9759    0.9473 C   0  0  0  0  0  0  0  0  0  0  0  0
   -1.6160    1.8052   -0.1234 C   0  0  0  0  0  0  0  0  0  0  0  0
    3.1605   -0.5093    1.5734 N   0  0  0  0  0  0  0  0  0  0  0  0
    4.3620   -0.7644    1.0396 N   0  0  0  0  0  0  0  0  0  0  0  0
    5.3872   -1.3486    1.8737 C   0  0  0  0  0  0  0  0  0  0  0  0
    4.4563   -0.4353   -0.2866 C   0  0  0  0  0  0  0  0  0  0  0  0
    5.6864   -0.6556   -1.0890 C   0  0  0  0  0  0  0  0  0  0  0  0
    2.1450    1.5457   -1.7941 H   0  0  0  0  0  0  0  0  0  0  0  0
    2.3442   -0.0517   -2.5477 H   0  0  0  0  0  0  0  0  0  0  0  0
    3.7031    1.0856   -2.4758 H   0  0  0  0  0  0  0  0  0  0  0  0
    0.5812   -0.5792   -0.8961 H   0  0  0  0  0  0  0  0  0  0  0  0
   -1.5434   -1.2264   -1.8160 H   0  0  0  0  0  0  0  0  0  0  0  0
   -1.3066    0.3871   -2.4464 H   0  0  0  0  0  0  0  0  0  0  0  0
   -3.6774   -0.3324   -2.7021 H   0  0  0  0  0  0  0  0  0  0  0  0
   -3.1772    2.0879   -2.3747 H   0  0  0  0  0  0  0  0  0  0  0  0
   -4.7263    1.6698   -1.6472 H   0  0  0  0  0  0  0  0  0  0  0  0
   -3.3752    3.0723   -0.0911 H   0  0  0  0  0  0  0  0  0  0  0  0
   -4.9045    1.3562    0.8776 H   0  0  0  0  0  0  0  0  0  0  0  0
   -3.4822    1.5653    1.8944 H   0  0  0  0  0  0  0  0  0  0  0  0
   -4.0044   -0.8528    1.5605 H   0  0  0  0  0  0  0  0  0  0  0  0
   -3.8259   -1.8455   -0.7356 H   0  0  0  0  0  0  0  0  0  0  0  0
   -5.0915   -0.6326   -0.6653 H   0  0  0  0  0  0  0  0  0  0  0  0
   -1.6507   -0.0642    1.8505 H   0  0  0  0  0  0  0  0  0  0  0  0
   -1.7908   -2.5091    0.0171 H   0  0  0  0  0  0  0  0  0  0  0  0
   -2.1336   -2.4762    1.7494 H   0  0  0  0  0  0  0  0  0  0  0  0
   -0.5144   -2.0991    1.1654 H   0  0  0  0  0  0  0  0  0  0  0  0
   -1.1193    2.3878   -0.9107 H   0  0  0  0  0  0  0  0  0  0  0  0
   -1.2583    2.2135    0.8286 H   0  0  0  0  0  0  0  0  0  0  0  0
    6.3286   -0.8229    1.6967 H   0  0  0  0  0  0  0  0  0  0  0  0
    5.4782   -2.4051    1.6106 H   0  0  0  0  0  0  0  0  0  0  0  0
    5.1046   -1.2451    2.9248 H   0  0  0  0  0  0  0  0  0  0  0  0
    6.4551    0.0743   -0.8167 H   0  0  0  0  0  0  0  0  0  0  0  0
    5.4856   -0.5534   -2.1599 H   0  0  0  0  0  0  0  0  0  0  0  0
    6.0870   -1.6613   -0.9259 H   0  0  0  0  0  0  0  0  0  0  0  0
  1  2  1  0
  2  3  1  0
  3  4  1  0
  4  5  2  0
  4  6  1  0
  7  6  1  6
  7  8  1  0
  8  9  1  0
  9 10  1  0
 10 11  1  0
 11 12  1  0
 12 13  1  0
 13 14  1  0
 13 15  1  0
 15 16  1  0
 11 17  1  0
  3 18  2  0
 18 19  1  0
 19 20  1  0
 19 21  1  0
 21 22  1  0
 21  2  2  0
 15  7  1  0
 17  7  1  0
 14  9  1  0
  1 23  1  0
  1 24  1  0
  1 25  1  0
  6 26  1  0
  8 27  1  0
  8 28  1  0
  9 29  1  6
 10 30  1  0
 10 31  1  0
 11 32  1  1
 12 33  1  0
 12 34  1  0
 13 35  1  1
 14 36  1  0
 14 37  1  0
 15 38  1  1
 16 39  1  0
 16 40  1  0
 16 41  1  0
 17 42  1  0
 17 43  1  0
 20 44  1  0
 20 45  1  0
 20 46  1  0
 22 47  1  0
 22 48  1  0
 22 49  1  0
M  END
>  <_SMILES>  (56) 
Cc1c(C(=O)N[C@@]23C[C@@H]4C[C@@H](C[C@@H](C4)[C@H]2C)C3)nn(C)c1C

$$$$

     RDKit          3D

 50 54  0  0  0  0  0  0  0  0999 V2000
   -1.7673    1.7879    1.7218 C   0  0  0  0  0  0  0  0  0  0  0  0
   -2.4472    1.3471    0.4199 C   0  0  2  0  0  0  0  0  0  0  0  0
   -3.9936    1.4319    0.5503 C   0  0  2  0  0  0  0  0  0  0  0  0
   -4.5251    0.3416    1.4999 C   0  0  0  0  0  0  0  0  0  0  0  0
   -4.1545   -1.0521    0.9677 C   0  0  1  0  0  0  0  0  0  0  0  0
   -4.7810   -1.2443   -0.4208 C   0  0  0  0  0  0  0  0  0  0  0  0
   -4.2584   -0.1657   -1.3795 C   0  0  1  0  0  0  0  0  0  0  0  0
   -4.6265    1.2229   -0.8376 C   0  0  0  0  0  0  0  0  0  0  0  0
   -2.7307   -0.2795   -1.4767 C   0  0  0  0  0  0  0  0  0  0  0  0
   -2.0507   -0.0796   -0.0870 C   0  0  1  0  0  0  0  0  0  0  0  0
   -0.6082   -0.2113   -0.3072 N   0  0  0  0  0  0  0  0  0  0  0  0
    0.3733   -0.4369    0.6327 C   0  0  0  0  0  0  0  0  0  0  0  0
    0.1763   -0.7045    1.8119 O   0  0  0  0  0  0  0  0  0  0  0  0
    1.7303   -0.3132    0.0714 C   0  0  0  0  0  0  0  0  0  0  0  0
    2.9575   -0.5118    0.7525 C   0  0  0  0  0  0  0  0  0  0  0  0
    3.9550   -0.2902   -0.1764 C   0  0  0  0  0  0  0  0  0  0  0  0
    5.4116   -0.3348   -0.0655 C   0  0  0  0  0  0  0  0  0  0  0  0
    6.2147   -0.6986   -1.1562 C   0  0  0  0  0  0  0  0  0  0  0  0
    7.6072   -0.7341   -1.0363 C   0  0  0  0  0  0  0  0  0  0  0  0
    8.2130   -0.4082    0.1747 C   0  0  0  0  0  0  0  0  0  0  0  0
    7.4280   -0.0509    1.2678 C   0  0  0  0  0  0  0  0  0  0  0  0
    6.0361   -0.0167    1.1487 C   0  0  0  0  0  0  0  0  0  0  0  0
    3.2849    0.0414   -1.3256 N   0  0  0  0  0  0  0  0  0  0  0  0
    1.9445    0.0309   -1.2157 N   0  0  0  0  0  0  0  0  0  0  0  0
   -2.6238   -1.1689    0.8580 C   0  0  0  0  0  0  0  0  0  0  0  0
   -2.1697    2.7504    2.0568 H   0  0  0  0  0  0  0  0  0  0  0  0
   -1.9025    1.0713    2.5356 H   0  0  0  0  0  0  0  0  0  0  0  0
   -0.6932    1.9326    1.5711 H   0  0  0  0  0  0  0  0  0  0  0  0
   -2.1333    2.0787   -0.3394 H   0  0  0  0  0  0  0  0  0  0  0  0
   -4.2845    2.4194    0.9276 H   0  0  0  0  0  0  0  0  0  0  0  0
   -5.6158    0.4267    1.5867 H   0  0  0  0  0  0  0  0  0  0  0  0
   -4.1245    0.4787    2.5104 H   0  0  0  0  0  0  0  0  0  0  0  0
   -4.5341   -1.8205    1.6506 H   0  0  0  0  0  0  0  0  0  0  0  0
   -5.8742   -1.1875   -0.3513 H   0  0  0  0  0  0  0  0  0  0  0  0
   -4.5384   -2.2416   -0.8079 H   0  0  0  0  0  0  0  0  0  0  0  0
   -4.7041   -0.3056   -2.3706 H   0  0  0  0  0  0  0  0  0  0  0  0
   -5.7170    1.3220   -0.7710 H   0  0  0  0  0  0  0  0  0  0  0  0
   -4.2799    2.0006   -1.5293 H   0  0  0  0  0  0  0  0  0  0  0  0
   -2.4595   -1.2611   -1.8889 H   0  0  0  0  0  0  0  0  0  0  0  0
   -2.3531    0.4637   -2.1923 H   0  0  0  0  0  0  0  0  0  0  0  0
   -0.2260    0.0929   -1.2007 H   0  0  0  0  0  0  0  0  0  0  0  0
    3.0779   -0.7936    1.7898 H   0  0  0  0  0  0  0  0  0  0  0  0
    5.7734   -0.9823   -2.1079 H   0  0  0  0  0  0  0  0  0  0  0  0
    8.2186   -1.0236   -1.8874 H   0  0  0  0  0  0  0  0  0  0  0  0
    9.2956   -0.4375    0.2683 H   0  0  0  0  0  0  0  0  0  0  0  0
    7.8968    0.2018    2.2154 H   0  0  0  0  0  0  0  0  0  0  0  0
    5.4453    0.2720    2.0152 H   0  0  0  0  0  0  0  0  0  0  0  0
    3.6890    0.3005   -2.2186 H   0  0  0  0  0  0  0  0  0  0  0  0
   -2.3535   -2.1666    0.4877 H   0  0  0  0  0  0  0  0  0  0  0  0
   -2.1988   -1.0937    1.8638 H   0  0  0  0  0  0  0  0  0  0  0  0
  1  2  1  0
  2  3  1  0
  3  4  1  0
  4  5  1  0
  5  6  1  0
  6  7  1  0
  7  8  1  0
  7  9  1  0
  9 10  1  0
 10 11  1  6
 11 12  1  0
 12 13  2  0
 12 14  1  0
 14 15  1  0
 15 16  2  0
 16 17  1  0
 17 18  2  0
 18 19  1  0
 19 20  2  0
 20 21  1  0
 21 22  2  0
 16 23  1  0
 23 24  1  0
 10 25  1  0
 10  2  1  0
 24 14  2  0
  8  3  1  0
 22 17  1  0
 25  5  1  0
  1 26  1  0
  1 27  1  0
  1 28  1  0
  2 29  1  6
  3 30  1  1
  4 31  1  0
  4 32  1  0
  5 33  1  1
  6 34  1  0
  6 35  1  0
  7 36  1  6
  8 37  1  0
  8 38  1  0
  9 39  1  0
  9 40  1  0
 11 41  1  0
 15 42  1  0
 18 43  1  0
 19 44  1  0
 20 45  1  0
 21 46  1  0
 22 47  1  0
 23 48  1  0
 25 49  1  0
 25 50  1  0
M  END
>  <_SMILES>  (57) 
C[C@@H]1[C@@H]2C[C@H]3C[C@@H](C2)C[C@]1(NC(=O)c1cc(-c2ccccc2)[nH]n1)C3

$$$$

     RDKit          3D

 50 54  0  0  0  0  0  0  0  0999 V2000
   -2.1140   -1.9725    1.4151 C   0  0  0  0  0  0  0  0  0  0  0  0
   -2.3870   -0.4805    1.1915 C   0  0  2  0  0  0  0  0  0  0  0  0
   -3.9097   -0.1810    1.2803 C   0  0  2  0  0  0  0  0  0  0  0  0
   -4.6557   -0.7611    0.0637 C   0  0  0  0  0  0  0  0  0  0  0  0
   -4.1120   -0.1448   -1.2355 C   0  0  1  0  0  0  0  0  0  0  0  0
   -4.3177    1.3760   -1.1968 C   0  0  0  0  0  0  0  0  0  0  0  0
   -3.5773    1.9683    0.0097 C   0  0  1  0  0  0  0  0  0  0  0  0
   -4.1213    1.3437    1.3023 C   0  0  0  0  0  0  0  0  0  0  0  0
   -2.0816    1.6467   -0.1137 C   0  0  0  0  0  0  0  0  0  0  0  0
   -1.8235    0.1070   -0.1455 C   0  0  1  0  0  0  0  0  0  0  0  0
   -0.3652   -0.0641   -0.2622 N   0  0  0  0  0  0  0  0  0  0  0  0
    0.3030   -1.1980   -0.6625 C   0  0  0  0  0  0  0  0  0  0  0  0
   -0.2489   -2.2117   -1.0718 O   0  0  0  0  0  0  0  0  0  0  0  0
    1.7377   -1.1229   -0.5599 C   0  0  0  0  0  0  0  0  0  0  0  0
    2.6287   -0.1300   -0.2023 C   0  0  0  0  0  0  0  0  0  0  0  0
    3.9307   -0.7012   -0.3071 C   0  0  0  0  0  0  0  0  0  0  0  0
    5.2295   -0.0693   -0.0374 C   0  0  0  0  0  0  0  0  0  0  0  0
    5.3340    1.3059    0.2216 C   0  0  0  0  0  0  0  0  0  0  0  0
    6.5774    1.8932    0.4795 C   0  0  0  0  0  0  0  0  0  0  0  0
    7.7323    1.1148    0.4814 C   0  0  0  0  0  0  0  0  0  0  0  0
    7.6473   -0.2507    0.2240 C   0  0  0  0  0  0  0  0  0  0  0  0
    6.4052   -0.8372   -0.0340 C   0  0  0  0  0  0  0  0  0  0  0  0
    3.8393   -1.9802   -0.7064 N   0  0  0  0  0  0  0  0  0  0  0  0
    2.5262   -2.1975   -0.8609 N   0  0  0  0  0  0  0  0  0  0  0  0
   -2.6096   -0.4550   -1.3603 C   0  0  0  0  0  0  0  0  0  0  0  0
   -2.6197   -2.3223    2.3221 H   0  0  0  0  0  0  0  0  0  0  0  0
   -2.4554   -2.5958    0.5850 H   0  0  0  0  0  0  0  0  0  0  0  0
   -1.0454   -2.1557    1.5619 H   0  0  0  0  0  0  0  0  0  0  0  0
   -1.8933    0.0380    2.0268 H   0  0  0  0  0  0  0  0  0  0  0  0
   -4.3230   -0.6095    2.2012 H   0  0  0  0  0  0  0  0  0  0  0  0
   -4.5589   -1.8520    0.0335 H   0  0  0  0  0  0  0  0  0  0  0  0
   -5.7288   -0.5494    0.1528 H   0  0  0  0  0  0  0  0  0  0  0  0
   -4.6469   -0.5650   -2.0948 H   0  0  0  0  0  0  0  0  0  0  0  0
   -5.3876    1.6094   -1.1328 H   0  0  0  0  0  0  0  0  0  0  0  0
   -3.9483    1.8290   -2.1250 H   0  0  0  0  0  0  0  0  0  0  0  0
   -3.7221    3.0541    0.0346 H   0  0  0  0  0  0  0  0  0  0  0  0
   -3.6164    1.7804    2.1727 H   0  0  0  0  0  0  0  0  0  0  0  0
   -5.1890    1.5724    1.4083 H   0  0  0  0  0  0  0  0  0  0  0  0
   -1.5398    2.1033    0.7260 H   0  0  0  0  0  0  0  0  0  0  0  0
   -1.6780    2.1126   -1.0231 H   0  0  0  0  0  0  0  0  0  0  0  0
    0.1939    0.6420    0.1926 H   0  0  0  0  0  0  0  0  0  0  0  0
    2.3870    0.8787    0.0961 H   0  0  0  0  0  0  0  0  0  0  0  0
    4.4570    1.9459    0.2208 H   0  0  0  0  0  0  0  0  0  0  0  0
    6.6432    2.9602    0.6765 H   0  0  0  0  0  0  0  0  0  0  0  0
    8.6982    1.5715    0.6808 H   0  0  0  0  0  0  0  0  0  0  0  0
    8.5447   -0.8637    0.2217 H   0  0  0  0  0  0  0  0  0  0  0  0
    6.3595   -1.9065   -0.2337 H   0  0  0  0  0  0  0  0  0  0  0  0
    2.2107   -3.1109   -1.1739 H   0  0  0  0  0  0  0  0  0  0  0  0
   -2.4914   -1.5389   -1.4522 H   0  0  0  0  0  0  0  0  0  0  0  0
   -2.2176   -0.0257   -2.2918 H   0  0  0  0  0  0  0  0  0  0  0  0
  1  2  1  0
  2  3  1  0
  3  4  1  0
  4  5  1  0
  5  6  1  0
  6  7  1  0
  7  8  1  0
  7  9  1  0
  9 10  1  0
 10 11  1  6
 11 12  1  0
 12 13  2  0
 12 14  1  0
 14 15  2  0
 15 16  1  0
 16 17  1  0
 17 18  2  0
 18 19  1  0
 19 20  2  0
 20 21  1  0
 21 22  2  0
 16 23  2  0
 23 24  1  0
 10 25  1  0
 10  2  1  0
 24 14  1  0
  8  3  1  0
 22 17  1  0
 25  5  1  0
  1 26  1  0
  1 27  1  0
  1 28  1  0
  2 29  1  1
  3 30  1  1
  4 31  1  0
  4 32  1  0
  5 33  1  6
  6 34  1  0
  6 35  1  0
  7 36  1  1
  8 37  1  0
  8 38  1  0
  9 39  1  0
  9 40  1  0
 11 41  1  0
 15 42  1  0
 18 43  1  0
 19 44  1  0
 20 45  1  0
 21 46  1  0
 22 47  1  0
 24 48  1  0
 25 49  1  0
 25 50  1  0
M  END
>  <_SMILES>  (58) 
C[C@@H]1[C@@H]2C[C@H]3C[C@@H](C2)C[C@]1(NC(=O)c1cc(-c2ccccc2)n[nH]1)C3

$$$$

     RDKit          3D

 53 57  0  0  0  0  0  0  0  0999 V2000
    1.4314   -2.0955   -1.9244 C   0  0  0  0  0  0  0  0  0  0  0  0
    2.2197   -1.0444   -1.2377 C   0  0  0  0  0  0  0  0  0  0  0  0
    3.5868   -1.0237   -1.0561 C   0  0  0  0  0  0  0  0  0  0  0  0
    3.9046    0.1545   -0.4198 N   0  0  0  0  0  0  0  0  0  0  0  0
    5.1924    0.6249   -0.0350 C   0  0  0  0  0  0  0  0  0  0  0  0
    6.3488   -0.1284   -0.2829 C   0  0  0  0  0  0  0  0  0  0  0  0
    7.5995    0.3601    0.1079 C   0  0  0  0  0  0  0  0  0  0  0  0
    7.7047    1.5960    0.7441 C   0  0  0  0  0  0  0  0  0  0  0  0
    6.5602    2.3501    0.9927 C   0  0  0  0  0  0  0  0  0  0  0  0
    5.3076    1.8689    0.6057 C   0  0  0  0  0  0  0  0  0  0  0  0
    2.7952    0.8832   -0.1623 N   0  0  0  0  0  0  0  0  0  0  0  0
    1.7644    0.1753   -0.6518 C   0  0  0  0  0  0  0  0  0  0  0  0
    0.3808    0.6836   -0.5407 C   0  0  0  0  0  0  0  0  0  0  0  0
    0.0953    1.8652   -0.7023 O   0  0  0  0  0  0  0  0  0  0  0  0
   -0.5463   -0.2911   -0.2044 N   0  0  0  0  0  0  0  0  0  0  0  0
   -1.9576   -0.0290    0.1095 C   0  0  1  0  0  0  0  0  0  0  0  0
   -2.7000    0.6886   -1.0504 C   0  0  0  0  0  0  0  0  0  0  0  0
   -4.1747    0.9366   -0.6852 C   0  0  2  0  0  0  0  0  0  0  0  0
   -4.2399    1.8155    0.5752 C   0  0  0  0  0  0  0  0  0  0  0  0
   -3.5445    1.1053    1.7478 C   0  0  1  0  0  0  0  0  0  0  0  0
   -4.2402   -0.2379    2.0134 C   0  0  0  0  0  0  0  0  0  0  0  0
   -4.1687   -1.1265    0.7582 C   0  0  1  0  0  0  0  0  0  0  0  0
   -4.8741   -0.4001   -0.4005 C   0  0  0  0  0  0  0  0  0  0  0  0
   -2.6798   -1.3898    0.4154 C   0  0  1  0  0  0  0  0  0  0  0  0
   -2.5437   -2.4401   -0.6979 C   0  0  0  0  0  0  0  0  0  0  0  0
   -2.0720    0.8531    1.3839 C   0  0  0  0  0  0  0  0  0  0  0  0
    1.0146   -2.7960   -1.1943 H   0  0  0  0  0  0  0  0  0  0  0  0
    0.6099   -1.6599   -2.5016 H   0  0  0  0  0  0  0  0  0  0  0  0
    2.0582   -2.6643   -2.6192 H   0  0  0  0  0  0  0  0  0  0  0  0
    4.3403   -1.7390   -1.3472 H   0  0  0  0  0  0  0  0  0  0  0  0
    6.3162   -1.0946   -0.7754 H   0  0  0  0  0  0  0  0  0  0  0  0
    8.4952   -0.2252   -0.0857 H   0  0  0  0  0  0  0  0  0  0  0  0
    8.6788    1.9727    1.0452 H   0  0  0  0  0  0  0  0  0  0  0  0
    6.6389    3.3152    1.4866 H   0  0  0  0  0  0  0  0  0  0  0  0
    4.4276    2.4780    0.8080 H   0  0  0  0  0  0  0  0  0  0  0  0
   -0.1474   -1.1360    0.1823 H   0  0  0  0  0  0  0  0  0  0  0  0
   -2.6317    0.1057   -1.9763 H   0  0  0  0  0  0  0  0  0  0  0  0
   -2.2363    1.6554   -1.2758 H   0  0  0  0  0  0  0  0  0  0  0  0
   -4.6782    1.4465   -1.5143 H   0  0  0  0  0  0  0  0  0  0  0  0
   -5.2856    2.0252    0.8319 H   0  0  0  0  0  0  0  0  0  0  0  0
   -3.7597    2.7831    0.3839 H   0  0  0  0  0  0  0  0  0  0  0  0
   -3.6002    1.7328    2.6443 H   0  0  0  0  0  0  0  0  0  0  0  0
   -5.2874   -0.0683    2.2929 H   0  0  0  0  0  0  0  0  0  0  0  0
   -3.7648   -0.7462    2.8613 H   0  0  0  0  0  0  0  0  0  0  0  0
   -4.6808   -2.0743    0.9623 H   0  0  0  0  0  0  0  0  0  0  0  0
   -5.9251   -0.2214   -0.1406 H   0  0  0  0  0  0  0  0  0  0  0  0
   -4.8827   -1.0217   -1.3024 H   0  0  0  0  0  0  0  0  0  0  0  0
   -2.2050   -1.8357    1.3023 H   0  0  0  0  0  0  0  0  0  0  0  0
   -1.4991   -2.7352   -0.8335 H   0  0  0  0  0  0  0  0  0  0  0  0
   -3.1008   -3.3463   -0.4356 H   0  0  0  0  0  0  0  0  0  0  0  0
   -2.9162   -2.0905   -1.6636 H   0  0  0  0  0  0  0  0  0  0  0  0
   -1.5581    0.3683    2.2246 H   0  0  0  0  0  0  0  0  0  0  0  0
   -1.5709    1.8176    1.2373 H   0  0  0  0  0  0  0  0  0  0  0  0
  1  2  1  0
  2  3  2  0
  3  4  1  0
  4  5  1  0
  5  6  2  0
  6  7  1  0
  7  8  2  0
  8  9  1  0
  9 10  2  0
  4 11  1  0
 11 12  2  0
 12 13  1  0
 13 14  2  0
 13 15  1  0
 16 15  1  6
 16 17  1  0
 17 18  1  0
 18 19  1  0
 19 20  1  0
 20 21  1  0
 21 22  1  0
 22 23  1  0
 22 24  1  0
 24 25  1  0
 20 26  1  0
 12  2  1  0
 24 16  1  0
 10  5  1  0
 26 16  1  0
 23 18  1  0
  1 27  1  0
  1 28  1  0
  1 29  1  0
  3 30  1  0
  6 31  1  0
  7 32  1  0
  8 33  1  0
  9 34  1  0
 10 35  1  0
 15 36  1  0
 17 37  1  0
 17 38  1  0
 18 39  1  6
 19 40  1  0
 19 41  1  0
 20 42  1  1
 21 43  1  0
 21 44  1  0
 22 45  1  1
 23 46  1  0
 23 47  1  0
 24 48  1  1
 25 49  1  0
 25 50  1  0
 25 51  1  0
 26 52  1  0
 26 53  1  0
M  END
>  <_SMILES>  (59) 
Cc1cn(-c2ccccc2)nc1C(=O)N[C@@]12C[C@@H]3C[C@@H](C[C@@H](C3)[C@H]1C)C2

$$$$

     RDKit          3D

 48 52  0  0  0  0  0  0  0  0999 V2000
   -1.9783   -2.2093    1.0104 C   0  0  0  0  0  0  0  0  0  0  0  0
   -2.4031   -0.7476    1.2085 C   0  0  2  0  0  0  0  0  0  0  0  0
   -3.9397   -0.6172    1.3831 C   0  0  2  0  0  0  0  0  0  0  0  0
   -4.6734   -0.9466    0.0706 C   0  0  0  0  0  0  0  0  0  0  0  0
   -4.2174    0.0090   -1.0419 C   0  0  1  0  0  0  0  0  0  0  0  0
   -4.5491    1.4526   -0.6339 C   0  0  0  0  0  0  0  0  0  0  0  0
   -3.8237    1.8035    0.6734 C   0  0  1  0  0  0  0  0  0  0  0  0
   -4.2726    0.8346    1.7797 C   0  0  0  0  0  0  0  0  0  0  0  0
   -2.3059    1.6672    0.4634 C   0  0  0  0  0  0  0  0  0  0  0  0
   -1.9294    0.2120    0.0679 C   0  0  1  0  0  0  0  0  0  0  0  0
   -0.4926    0.1041   -0.2006 N   0  0  0  0  0  0  0  0  0  0  0  0
    0.5264    0.3425    0.7075 C   0  0  0  0  0  0  0  0  0  0  0  0
    0.3110    0.6826    1.8682 O   0  0  0  0  0  0  0  0  0  0  0  0
    1.8539    0.1448    0.1464 C   0  0  0  0  0  0  0  0  0  0  0  0
    2.0602   -0.2248   -1.1017 N   0  0  0  0  0  0  0  0  0  0  0  0
    3.4062   -0.3419   -1.3799 N   0  0  0  0  0  0  0  0  0  0  0  0
    4.1772   -0.0599   -0.3418 C   0  0  0  0  0  0  0  0  0  0  0  0
    5.6521   -0.1059   -0.3638 C   0  0  0  0  0  0  0  0  0  0  0  0
    6.4547    0.1964    0.7495 C   0  0  0  0  0  0  0  0  0  0  0  0
    7.8508    0.1358    0.6699 C   0  0  0  0  0  0  0  0  0  0  0  0
    8.4697   -0.2278   -0.5226 C   0  0  0  0  0  0  0  0  0  0  0  0
    7.6954   -0.5314   -1.6377 C   0  0  0  0  0  0  0  0  0  0  0  0
    6.3012   -0.4706   -1.5575 C   0  0  0  0  0  0  0  0  0  0  0  0
    3.2747    0.3741    1.0641 S   0  0  0  0  0  0  0  0  0  0  0  0
   -2.6992   -0.1194   -1.2417 C   0  0  0  0  0  0  0  0  0  0  0  0
   -2.3636   -2.8307    1.8262 H   0  0  0  0  0  0  0  0  0  0  0  0
   -2.3394   -2.6354    0.0712 H   0  0  0  0  0  0  0  0  0  0  0  0
   -0.8878   -2.3045    1.0197 H   0  0  0  0  0  0  0  0  0  0  0  0
   -1.9415   -0.4295    2.1532 H   0  0  0  0  0  0  0  0  0  0  0  0
   -4.2848   -1.2925    2.1749 H   0  0  0  0  0  0  0  0  0  0  0  0
   -4.4923   -1.9855   -0.2259 H   0  0  0  0  0  0  0  0  0  0  0  0
   -5.7567   -0.8535    0.2186 H   0  0  0  0  0  0  0  0  0  0  0  0
   -4.7355   -0.2369   -1.9756 H   0  0  0  0  0  0  0  0  0  0  0  0
   -5.6324    1.5672   -0.5049 H   0  0  0  0  0  0  0  0  0  0  0  0
   -4.2485    2.1465   -1.4285 H   0  0  0  0  0  0  0  0  0  0  0  0
   -4.0647    2.8323    0.9635 H   0  0  0  0  0  0  0  0  0  0  0  0
   -3.7774    1.0887    2.7249 H   0  0  0  0  0  0  0  0  0  0  0  0
   -5.3515    0.9369    1.9504 H   0  0  0  0  0  0  0  0  0  0  0  0
   -1.9734    2.3671   -0.3147 H   0  0  0  0  0  0  0  0  0  0  0  0
   -1.7917    1.9687    1.3836 H   0  0  0  0  0  0  0  0  0  0  0  0
   -0.1930   -0.1813   -1.1293 H   0  0  0  0  0  0  0  0  0  0  0  0
    6.0182    0.4853    1.7023 H   0  0  0  0  0  0  0  0  0  0  0  0
    8.4539    0.3736    1.5430 H   0  0  0  0  0  0  0  0  0  0  0  0
    9.5541   -0.2744   -0.5827 H   0  0  0  0  0  0  0  0  0  0  0  0
    8.1725   -0.8161   -2.5722 H   0  0  0  0  0  0  0  0  0  0  0  0
    5.7180   -0.7133   -2.4453 H   0  0  0  0  0  0  0  0  0  0  0  0
   -2.3785    0.5591   -2.0442 H   0  0  0  0  0  0  0  0  0  0  0  0
   -2.4530   -1.1286   -1.5936 H   0  0  0  0  0  0  0  0  0  0  0  0
  1  2  1  0
  2  3  1  0
  3  4  1  0
  4  5  1  0
  5  6  1  0
  6  7  1  0
  7  8  1  0
  7  9  1  0
  9 10  1  0
 10 11  1  6
 11 12  1  0
 12 13  2  0
 12 14  1  0
 14 15  2  0
 15 16  1  0
 16 17  2  0
 17 18  1  0
 18 19  2  0
 19 20  1  0
 20 21  2  0
 21 22  1  0
 22 23  2  0
 17 24  1  0
 10 25  1  0
 10  2  1  0
 24 14  1  0
  8  3  1  0
 23 18  1  0
 25  5  1  0
  1 26  1  0
  1 27  1  0
  1 28  1  0
  2 29  1  1
  3 30  1  1
  4 31  1  0
  4 32  1  0
  5 33  1  6
  6 34  1  0
  6 35  1  0
  7 36  1  1
  8 37  1  0
  8 38  1  0
  9 39  1  0
  9 40  1  0
 11 41  1  0
 19 42  1  0
 20 43  1  0
 21 44  1  0
 22 45  1  0
 23 46  1  0
 25 47  1  0
 25 48  1  0
M  END
>  <_SMILES>  (60) 
C[C@@H]1[C@@H]2C[C@H]3C[C@@H](C2)C[C@]1(NC(=O)c1nnc(-c2ccccc2)s1)C3

$$$$

     RDKit          3D

 43 46  0  0  0  0  0  0  0  0999 V2000
   -0.7045   -1.3915   -2.3950 C   0  0  0  0  0  0  0  0  0  0  0  0
   -1.3250   -1.2753   -0.9936 C   0  0  2  0  0  0  0  0  0  0  0  0
   -2.8593   -1.0683   -1.0739 C   0  0  2  0  0  0  0  0  0  0  0  0
   -3.1925    0.3219   -1.6432 C   0  0  0  0  0  0  0  0  0  0  0  0
   -2.5785    1.4137   -0.7555 C   0  0  1  0  0  0  0  0  0  0  0  0
   -3.1638    1.2960    0.6619 C   0  0  0  0  0  0  0  0  0  0  0  0
   -2.8463   -0.0891    1.2483 C   0  0  1  0  0  0  0  0  0  0  0  0
   -3.4496   -1.1744    0.3441 C   0  0  0  0  0  0  0  0  0  0  0  0
   -1.3210   -0.2716    1.3155 C   0  0  0  0  0  0  0  0  0  0  0  0
   -0.6851   -0.1550   -0.0974 C   0  0  1  0  0  0  0  0  0  0  0  0
    0.7666   -0.3703   -0.0234 N   0  0  0  0  0  0  0  0  0  0  0  0
    1.6568    0.4464    0.6598 C   0  0  0  0  0  0  0  0  0  0  0  0
    1.3167    1.4844    1.2193 O   0  0  0  0  0  0  0  0  0  0  0  0
    3.0502   -0.0548    0.6734 C   0  0  0  0  0  0  0  0  0  0  0  0
    3.6542   -1.0144   -0.1923 C   0  0  0  0  0  0  0  0  0  0  0  0
    4.9579   -1.1284    0.2279 C   0  0  0  0  0  0  0  0  0  0  0  0
    5.0839   -0.2688    1.2753 N   0  0  0  0  0  0  0  0  0  0  0  0
    6.2716   -0.0130    2.0537 C   0  0  0  0  0  0  0  0  0  0  0  0
    3.9525    0.3875    1.5703 N   0  0  0  0  0  0  0  0  0  0  0  0
   -1.0511    1.2345   -0.6862 C   0  0  0  0  0  0  0  0  0  0  0  0
   -1.2156   -2.1692   -2.9730 H   0  0  0  0  0  0  0  0  0  0  0  0
    0.3507   -1.6770   -2.3364 H   0  0  0  0  0  0  0  0  0  0  0  0
   -0.7634   -0.4621   -2.9666 H   0  0  0  0  0  0  0  0  0  0  0  0
   -1.1423   -2.2457   -0.5081 H   0  0  0  0  0  0  0  0  0  0  0  0
   -3.3102   -1.8414   -1.7072 H   0  0  0  0  0  0  0  0  0  0  0  0
   -2.8264    0.4202   -2.6709 H   0  0  0  0  0  0  0  0  0  0  0  0
   -4.2812    0.4512   -1.6915 H   0  0  0  0  0  0  0  0  0  0  0  0
   -2.8147    2.4007   -1.1689 H   0  0  0  0  0  0  0  0  0  0  0  0
   -2.7488    2.0808    1.3062 H   0  0  0  0  0  0  0  0  0  0  0  0
   -4.2495    1.4501    0.6328 H   0  0  0  0  0  0  0  0  0  0  0  0
   -3.2717   -0.1697    2.2549 H   0  0  0  0  0  0  0  0  0  0  0  0
   -3.2463   -2.1678    0.7626 H   0  0  0  0  0  0  0  0  0  0  0  0
   -4.5405   -1.0649    0.3047 H   0  0  0  0  0  0  0  0  0  0  0  0
   -0.9014    0.4796    1.9955 H   0  0  0  0  0  0  0  0  0  0  0  0
   -1.0818   -1.2483    1.7566 H   0  0  0  0  0  0  0  0  0  0  0  0
    1.0896   -1.3098   -0.2032 H   0  0  0  0  0  0  0  0  0  0  0  0
    3.2042   -1.5361   -1.0245 H   0  0  0  0  0  0  0  0  0  0  0  0
    5.7847   -1.7251   -0.1311 H   0  0  0  0  0  0  0  0  0  0  0  0
    6.5258    1.0455    1.9571 H   0  0  0  0  0  0  0  0  0  0  0  0
    7.0921   -0.6296    1.6785 H   0  0  0  0  0  0  0  0  0  0  0  0
    6.0617   -0.2654    3.0961 H   0  0  0  0  0  0  0  0  0  0  0  0
   -0.6395    2.0430   -0.0717 H   0  0  0  0  0  0  0  0  0  0  0  0
   -0.6088    1.3651   -1.6807 H   0  0  0  0  0  0  0  0  0  0  0  0
  1  2  1  0
  2  3  1  0
  3  4  1  0
  4  5  1  0
  5  6  1  0
  6  7  1  0
  7  8  1  0
  7  9  1  0
  9 10  1  0
 10 11  1  1
 11 12  1  0
 12 13  2  0
 12 14  1  0
 14 15  1  0
 15 16  2  0
 16 17  1  0
 17 18  1  0
 17 19  1  0
 10 20  1  0
 10  2  1  0
 19 14  2  0
  8  3  1  0
 20  5  1  0
  1 21  1  0
  1 22  1  0
  1 23  1  0
  2 24  1  1
  3 25  1  6
  4 26  1  0
  4 27  1  0
  5 28  1  6
  6 29  1  0
  6 30  1  0
  7 31  1  1
  8 32  1  0
  8 33  1  0
  9 34  1  0
  9 35  1  0
 11 36  1  0
 15 37  1  0
 16 38  1  0
 18 39  1  0
 18 40  1  0
 18 41  1  0
 20 42  1  0
 20 43  1  0
M  END
>  <_SMILES>  (61) 
C[C@@H]1[C@@H]2C[C@H]3C[C@@H](C2)C[C@]1(NC(=O)c1ccn(C)n1)C3

$$$$

     RDKit          3D

 46 49  0  0  0  0  0  0  0  0999 V2000
    2.8571   -0.7586    2.3775 C   0  0  0  0  0  0  0  0  0  0  0  0
    3.4890   -0.2933    1.1191 C   0  0  0  0  0  0  0  0  0  0  0  0
    4.8090   -0.4483    0.7483 C   0  0  0  0  0  0  0  0  0  0  0  0
    4.9456    0.1794   -0.4508 N   0  0  0  0  0  0  0  0  0  0  0  0
    6.1524    0.3124   -1.2303 C   0  0  0  0  0  0  0  0  0  0  0  0
    3.8068    0.7142   -0.9097 N   0  0  0  0  0  0  0  0  0  0  0  0
    2.8928    0.4422    0.0402 C   0  0  0  0  0  0  0  0  0  0  0  0
    1.4873    0.8780   -0.1061 C   0  0  0  0  0  0  0  0  0  0  0  0
    1.1790    1.9829   -0.5382 O   0  0  0  0  0  0  0  0  0  0  0  0
    0.5710   -0.0881    0.2739 N   0  0  0  0  0  0  0  0  0  0  0  0
   -0.8900   -0.0179    0.1239 C   0  0  1  0  0  0  0  0  0  0  0  0
   -1.4908    1.3439    0.5641 C   0  0  0  0  0  0  0  0  0  0  0  0
   -3.0284    1.3144    0.4988 C   0  0  2  0  0  0  0  0  0  0  0  0
   -3.5587    0.2305    1.4477 C   0  0  0  0  0  0  0  0  0  0  0  0
   -3.0083   -1.1392    1.0286 C   0  0  1  0  0  0  0  0  0  0  0  0
   -3.4519   -1.4524   -0.4074 C   0  0  0  0  0  0  0  0  0  0  0  0
   -2.9157   -0.3779   -1.3707 C   0  0  1  0  0  0  0  0  0  0  0  0
   -3.4736    0.9908   -0.9366 C   0  0  0  0  0  0  0  0  0  0  0  0
   -1.3620   -0.3838   -1.3229 C   0  0  1  0  0  0  0  0  0  0  0  0
   -0.7819    0.4912   -2.4402 C   0  0  0  0  0  0  0  0  0  0  0  0
   -1.4751   -1.1009    1.0845 C   0  0  0  0  0  0  0  0  0  0  0  0
    2.3057   -1.6885    2.2077 H   0  0  0  0  0  0  0  0  0  0  0  0
    3.6111   -0.9484    3.1486 H   0  0  0  0  0  0  0  0  0  0  0  0
    2.1641   -0.0075    2.7696 H   0  0  0  0  0  0  0  0  0  0  0  0
    5.6442   -0.9251    1.2426 H   0  0  0  0  0  0  0  0  0  0  0  0
    6.3691    1.3767   -1.3516 H   0  0  0  0  0  0  0  0  0  0  0  0
    6.9779   -0.1794   -0.7099 H   0  0  0  0  0  0  0  0  0  0  0  0
    5.9893   -0.1607   -2.2019 H   0  0  0  0  0  0  0  0  0  0  0  0
    0.9600   -1.0175    0.3608 H   0  0  0  0  0  0  0  0  0  0  0  0
   -1.1381    2.1648   -0.0676 H   0  0  0  0  0  0  0  0  0  0  0  0
   -1.1667    1.5844    1.5853 H   0  0  0  0  0  0  0  0  0  0  0  0
   -3.4279    2.2902    0.7976 H   0  0  0  0  0  0  0  0  0  0  0  0
   -3.2619    0.4560    2.4794 H   0  0  0  0  0  0  0  0  0  0  0  0
   -4.6554    0.2170    1.4280 H   0  0  0  0  0  0  0  0  0  0  0  0
   -3.3847   -1.9118    1.7084 H   0  0  0  0  0  0  0  0  0  0  0  0
   -4.5469   -1.4912   -0.4611 H   0  0  0  0  0  0  0  0  0  0  0  0
   -3.0854   -2.4420   -0.7070 H   0  0  0  0  0  0  0  0  0  0  0  0
   -3.2604   -0.6082   -2.3858 H   0  0  0  0  0  0  0  0  0  0  0  0
   -4.5697    0.9768   -0.9896 H   0  0  0  0  0  0  0  0  0  0  0  0
   -3.1426    1.7794   -1.6214 H   0  0  0  0  0  0  0  0  0  0  0  0
   -1.0231   -1.4068   -1.5437 H   0  0  0  0  0  0  0  0  0  0  0  0
   -0.9499    1.5582   -2.2744 H   0  0  0  0  0  0  0  0  0  0  0  0
    0.2949    0.3276   -2.5443 H   0  0  0  0  0  0  0  0  0  0  0  0
   -1.2334    0.2304   -3.4039 H   0  0  0  0  0  0  0  0  0  0  0  0
   -1.1482   -0.9032    2.1147 H   0  0  0  0  0  0  0  0  0  0  0  0
   -1.0753   -2.0909    0.8257 H   0  0  0  0  0  0  0  0  0  0  0  0
  1  2  1  0
  2  3  2  0
  3  4  1  0
  4  5  1  0
  4  6  1  0
  6  7  2  0
  7  8  1  0
  8  9  2  0
  8 10  1  0
 11 10  1  6
 11 12  1  0
 12 13  1  0
 13 14  1  0
 14 15  1  0
 15 16  1  0
 16 17  1  0
 17 18  1  0
 17 19  1  0
 19 20  1  0
 15 21  1  0
  7  2  1  0
 19 11  1  0
 21 11  1  0
 18 13  1  0
  1 22  1  0
  1 23  1  0
  1 24  1  0
  3 25  1  0
  5 26  1  0
  5 27  1  0
  5 28  1  0
 10 29  1  0
 12 30  1  0
 12 31  1  0
 13 32  1  1
 14 33  1  0
 14 34  1  0
 15 35  1  1
 16 36  1  0
 16 37  1  0
 17 38  1  6
 18 39  1  0
 18 40  1  0
 19 41  1  6
 20 42  1  0
 20 43  1  0
 20 44  1  0
 21 45  1  0
 21 46  1  0
M  END
>  <_SMILES>  (62) 
Cc1cn(C)nc1C(=O)N[C@@]12C[C@@H]3C[C@@H](C[C@@H](C3)[C@H]1C)C2

$$$$

     RDKit          3D

 53 57  0  0  0  0  0  0  0  0999 V2000
   -2.5229    2.5059   -0.5585 C   0  0  0  0  0  0  0  0  0  0  0  0
   -2.9042    1.0644   -0.9315 C   0  0  2  0  0  0  0  0  0  0  0  0
   -4.4433    0.8757   -0.9379 C   0  0  2  0  0  0  0  0  0  0  0  0
   -5.0081    0.9552    0.4916 C   0  0  0  0  0  0  0  0  0  0  0  0
   -4.3686   -0.1294    1.3706 C   0  0  1  0  0  0  0  0  0  0  0  0
   -4.6925   -1.5108    0.7772 C   0  0  0  0  0  0  0  0  0  0  0  0
   -4.1399   -1.6102   -0.6537 C   0  0  1  0  0  0  0  0  0  0  0  0
   -4.7720   -0.5110   -1.5207 C   0  0  0  0  0  0  0  0  0  0  0  0
   -2.6149   -1.4177   -0.6202 C   0  0  0  0  0  0  0  0  0  0  0  0
   -2.2428   -0.0319   -0.0243 C   0  0  1  0  0  0  0  0  0  0  0  0
   -0.7909    0.1418   -0.0290 N   0  0  0  0  0  0  0  0  0  0  0  0
    0.1266   -0.6165    0.6662 C   0  0  0  0  0  0  0  0  0  0  0  0
   -0.1556   -1.4889    1.4794 O   0  0  0  0  0  0  0  0  0  0  0  0
    1.5173   -0.2810    0.3160 C   0  0  0  0  0  0  0  0  0  0  0  0
    2.6951   -0.8427    0.8647 C   0  0  0  0  0  0  0  0  0  0  0  0
    3.7508   -0.2098    0.2387 C   0  0  0  0  0  0  0  0  0  0  0  0
    5.1864   -0.3906    0.4205 C   0  0  0  0  0  0  0  0  0  0  0  0
    5.9995    0.6783    0.8175 C   0  0  0  0  0  0  0  0  0  0  0  0
    7.3733    0.4950    0.9901 C   0  0  0  0  0  0  0  0  0  0  0  0
    7.9427   -0.7585    0.7727 C   0  0  0  0  0  0  0  0  0  0  0  0
    7.1395   -1.8308    0.3882 C   0  0  0  0  0  0  0  0  0  0  0  0
    5.7656   -1.6486    0.2163 C   0  0  0  0  0  0  0  0  0  0  0  0
    3.1639    0.6482   -0.6609 N   0  0  0  0  0  0  0  0  0  0  0  0
    3.8267    1.4991   -1.6235 C   0  0  0  0  0  0  0  0  0  0  0  0
    1.8144    0.6420   -0.6219 N   0  0  0  0  0  0  0  0  0  0  0  0
   -2.8411    0.0583    1.4050 C   0  0  0  0  0  0  0  0  0  0  0  0
   -3.0461    3.2168   -1.2074 H   0  0  0  0  0  0  0  0  0  0  0  0
   -2.7693    2.7588    0.4756 H   0  0  0  0  0  0  0  0  0  0  0  0
   -1.4505    2.6783   -0.6941 H   0  0  0  0  0  0  0  0  0  0  0  0
   -2.5428    0.9192   -1.9606 H   0  0  0  0  0  0  0  0  0  0  0  0
   -4.9136    1.6456   -1.5610 H   0  0  0  0  0  0  0  0  0  0  0  0
   -6.0968    0.8194    0.4677 H   0  0  0  0  0  0  0  0  0  0  0  0
   -4.8322    1.9454    0.9257 H   0  0  0  0  0  0  0  0  0  0  0  0
   -4.7704   -0.0639    2.3879 H   0  0  0  0  0  0  0  0  0  0  0  0
   -5.7776   -1.6711    0.7714 H   0  0  0  0  0  0  0  0  0  0  0  0
   -4.2582   -2.2999    1.4033 H   0  0  0  0  0  0  0  0  0  0  0  0
   -4.3782   -2.5938   -1.0737 H   0  0  0  0  0  0  0  0  0  0  0  0
   -4.4000   -0.5838   -2.5500 H   0  0  0  0  0  0  0  0  0  0  0  0
   -5.8593   -0.6496   -1.5667 H   0  0  0  0  0  0  0  0  0  0  0  0
   -2.1641   -2.2266   -0.0320 H   0  0  0  0  0  0  0  0  0  0  0  0
   -2.2050   -1.5141   -1.6343 H   0  0  0  0  0  0  0  0  0  0  0  0
   -0.3583    0.7294   -0.7389 H   0  0  0  0  0  0  0  0  0  0  0  0
    2.7534   -1.6011    1.6339 H   0  0  0  0  0  0  0  0  0  0  0  0
    5.5684    1.6572    1.0129 H   0  0  0  0  0  0  0  0  0  0  0  0
    7.9975    1.3281    1.3028 H   0  0  0  0  0  0  0  0  0  0  0  0
    9.0114   -0.9021    0.9105 H   0  0  0  0  0  0  0  0  0  0  0  0
    7.5810   -2.8106    0.2250 H   0  0  0  0  0  0  0  0  0  0  0  0
    5.1509   -2.4947   -0.0832 H   0  0  0  0  0  0  0  0  0  0  0  0
    3.1298    1.7379   -2.4316 H   0  0  0  0  0  0  0  0  0  0  0  0
    4.1363    2.4140   -1.1130 H   0  0  0  0  0  0  0  0  0  0  0  0
    4.6893    0.9721   -2.0380 H   0  0  0  0  0  0  0  0  0  0  0  0
   -2.4130   -0.7123    2.0566 H   0  0  0  0  0  0  0  0  0  0  0  0
   -2.5879    1.0162    1.8740 H   0  0  0  0  0  0  0  0  0  0  0  0
  1  2  1  0
  2  3  1  0
  3  4  1  0
  4  5  1  0
  5  6  1  0
  6  7  1  0
  7  8  1  0
  7  9  1  0
  9 10  1  0
 10 11  1  1
 11 12  1  0
 12 13  2  0
 12 14  1  0
 14 15  1  0
 15 16  2  0
 16 17  1  0
 17 18  2  0
 18 19  1  0
 19 20  2  0
 20 21  1  0
 21 22  2  0
 16 23  1  0
 23 24  1  0
 23 25  1  0
 10 26  1  0
 10  2  1  0
 25 14  2  0
  8  3  1  0
 22 17  1  0
 26  5  1  0
  1 27  1  0
  1 28  1  0
  1 29  1  0
  2 30  1  6
  3 31  1  6
  4 32  1  0
  4 33  1  0
  5 34  1  1
  6 35  1  0
  6 36  1  0
  7 37  1  6
  8 38  1  0
  8 39  1  0
  9 40  1  0
  9 41  1  0
 11 42  1  0
 15 43  1  0
 18 44  1  0
 19 45  1  0
 20 46  1  0
 21 47  1  0
 22 48  1  0
 24 49  1  0
 24 50  1  0
 24 51  1  0
 26 52  1  0
 26 53  1  0
M  END
>  <_SMILES>  (63) 
C[C@@H]1[C@@H]2C[C@H]3C[C@@H](C2)C[C@]1(NC(=O)c1cc(-c2ccccc2)n(C)n1)C3

$$$$

     RDKit          3D

 52 56  0  0  0  0  0  0  0  0999 V2000
    4.9226    1.0740   -2.7062 C   0  0  0  0  0  0  0  0  0  0  0  0
    3.6760    0.7664   -1.9693 C   0  0  0  0  0  0  0  0  0  0  0  0
    2.4827    1.1417   -2.3836 N   0  0  0  0  0  0  0  0  0  0  0  0
    1.6158    0.5802   -1.4850 C   0  0  0  0  0  0  0  0  0  0  0  0
    0.1431    0.7251   -1.5523 C   0  0  0  0  0  0  0  0  0  0  0  0
   -0.4332    1.3748   -2.4189 O   0  0  0  0  0  0  0  0  0  0  0  0
   -0.5076    0.0557   -0.5300 N   0  0  0  0  0  0  0  0  0  0  0  0
   -1.9520    0.0238   -0.3041 C   0  0  1  0  0  0  0  0  0  0  0  0
   -2.2355   -0.8701    0.9356 C   0  0  0  0  0  0  0  0  0  0  0  0
   -3.7437   -0.9758    1.2109 C   0  0  2  0  0  0  0  0  0  0  0  0
   -4.4334   -1.6033   -0.0100 C   0  0  0  0  0  0  0  0  0  0  0  0
   -4.1942   -0.7286   -1.2495 C   0  0  1  0  0  0  0  0  0  0  0  0
   -4.7630    0.6774   -0.9970 C   0  0  0  0  0  0  0  0  0  0  0  0
   -4.0737    1.3190    0.2231 C   0  0  1  0  0  0  0  0  0  0  0  0
   -4.3231    0.4260    1.4519 C   0  0  0  0  0  0  0  0  0  0  0  0
   -2.5553    1.4477   -0.0710 C   0  0  1  0  0  0  0  0  0  0  0  0
   -1.8360    2.2598    1.0151 C   0  0  0  0  0  0  0  0  0  0  0  0
   -2.6823   -0.6253   -1.5129 C   0  0  0  0  0  0  0  0  0  0  0  0
    2.2240   -0.1337   -0.5215 N   0  0  0  0  0  0  0  0  0  0  0  0
    3.5499    0.0206   -0.8023 N   0  0  0  0  0  0  0  0  0  0  0  0
    4.5186   -0.5614    0.0725 C   0  0  0  0  0  0  0  0  0  0  0  0
    4.0731   -1.4270    1.0900 C   0  0  0  0  0  0  0  0  0  0  0  0
    4.9773   -2.0245    1.9719 C   0  0  0  0  0  0  0  0  0  0  0  0
    6.3377   -1.7614    1.8564 C   0  0  0  0  0  0  0  0  0  0  0  0
    6.7916   -0.8973    0.8637 C   0  0  0  0  0  0  0  0  0  0  0  0
    5.8894   -0.2965   -0.0233 C   0  0  0  0  0  0  0  0  0  0  0  0
    5.5273    0.1768   -2.8659 H   0  0  0  0  0  0  0  0  0  0  0  0
    5.5081    1.8365   -2.1850 H   0  0  0  0  0  0  0  0  0  0  0  0
    4.6822    1.4757   -3.6969 H   0  0  0  0  0  0  0  0  0  0  0  0
    0.1129   -0.4183    0.1211 H   0  0  0  0  0  0  0  0  0  0  0  0
   -1.8230   -1.8753    0.7723 H   0  0  0  0  0  0  0  0  0  0  0  0
   -1.7204   -0.4812    1.8224 H   0  0  0  0  0  0  0  0  0  0  0  0
   -3.9155   -1.6034    2.0926 H   0  0  0  0  0  0  0  0  0  0  0  0
   -5.5097   -1.7038    0.1767 H   0  0  0  0  0  0  0  0  0  0  0  0
   -4.0451   -2.6145   -0.1830 H   0  0  0  0  0  0  0  0  0  0  0  0
   -4.6899   -1.1769   -2.1178 H   0  0  0  0  0  0  0  0  0  0  0  0
   -5.8450    0.6173   -0.8258 H   0  0  0  0  0  0  0  0  0  0  0  0
   -4.6177    1.3060   -1.8841 H   0  0  0  0  0  0  0  0  0  0  0  0
   -4.5063    2.3113    0.3977 H   0  0  0  0  0  0  0  0  0  0  0  0
   -5.4011    0.3537    1.6443 H   0  0  0  0  0  0  0  0  0  0  0  0
   -3.8800    0.8686    2.3507 H   0  0  0  0  0  0  0  0  0  0  0  0
   -2.4513    2.0310   -0.9962 H   0  0  0  0  0  0  0  0  0  0  0  0
   -2.3231    3.2320    1.1476 H   0  0  0  0  0  0  0  0  0  0  0  0
   -0.7965    2.4556    0.7333 H   0  0  0  0  0  0  0  0  0  0  0  0
   -1.8263    1.7594    1.9864 H   0  0  0  0  0  0  0  0  0  0  0  0
   -2.2698   -1.6237   -1.7105 H   0  0  0  0  0  0  0  0  0  0  0  0
   -2.5199   -0.0425   -2.4273 H   0  0  0  0  0  0  0  0  0  0  0  0
    3.0161   -1.6594    1.2090 H   0  0  0  0  0  0  0  0  0  0  0  0
    4.6157   -2.6946    2.7480 H   0  0  0  0  0  0  0  0  0  0  0  0
    7.0428   -2.2236    2.5426 H   0  0  0  0  0  0  0  0  0  0  0  0
    7.8550   -0.6821    0.7828 H   0  0  0  0  0  0  0  0  0  0  0  0
    6.3117    0.3881   -0.7460 H   0  0  0  0  0  0  0  0  0  0  0  0
  1  2  1  0
  2  3  2  0
  3  4  1  0
  4  5  1  0
  5  6  2  0
  5  7  1  0
  8  7  1  6
  8  9  1  0
  9 10  1  0
 10 11  1  0
 11 12  1  0
 12 13  1  0
 13 14  1  0
 14 15  1  0
 14 16  1  0
 16 17  1  0
 12 18  1  0
  4 19  2  0
 19 20  1  0
 20 21  1  0
 21 22  2  0
 22 23  1  0
 23 24  2  0
 24 25  1  0
 25 26  2  0
 20  2  1  0
 26 21  1  0
 16  8  1  0
 18  8  1  0
 15 10  1  0
  1 27  1  0
  1 28  1  0
  1 29  1  0
  7 30  1  0
  9 31  1  0
  9 32  1  0
 10 33  1  1
 11 34  1  0
 11 35  1  0
 12 36  1  6
 13 37  1  0
 13 38  1  0
 14 39  1  1
 15 40  1  0
 15 41  1  0
 16 42  1  6
 17 43  1  0
 17 44  1  0
 17 45  1  0
 18 46  1  0
 18 47  1  0
 22 48  1  0
 23 49  1  0
 24 50  1  0
 25 51  1  0
 26 52  1  0
M  END
>  <_SMILES>  (64) 
Cc1nc(C(=O)N[C@@]23C[C@@H]4C[C@@H](C[C@@H](C4)[C@H]2C)C3)nn1-c1ccccc1

$$$$

     RDKit          3D

 53 57  0  0  0  0  0  0  0  0999 V2000
    2.4400    2.1339    1.2354 C   0  0  0  0  0  0  0  0  0  0  0  0
    2.3918    0.8637    0.4659 C   0  0  0  0  0  0  0  0  0  0  0  0
    1.2188    0.1717    0.0356 C   0  0  0  0  0  0  0  0  0  0  0  0
   -0.1917    0.5496    0.2612 C   0  0  0  0  0  0  0  0  0  0  0  0
   -0.5248    1.5508    0.8859 O   0  0  0  0  0  0  0  0  0  0  0  0
   -1.0741   -0.3455   -0.3041 N   0  0  0  0  0  0  0  0  0  0  0  0
   -2.5299   -0.2695   -0.2610 C   0  0  2  0  0  0  0  0  0  0  0  0
   -3.1099   -1.4869   -1.0290 C   0  0  0  0  0  0  0  0  0  0  0  0
   -4.6467   -1.4635   -1.0189 C   0  0  1  0  0  0  0  0  0  0  0  0
   -5.1419   -1.5042    0.4353 C   0  0  0  0  0  0  0  0  0  0  0  0
   -4.5996   -0.2917    1.2085 C   0  0  2  0  0  0  0  0  0  0  0  0
   -5.0850    1.0008    0.5304 C   0  0  0  0  0  0  0  0  0  0  0  0
   -4.5931    1.0514   -0.9261 C   0  0  2  0  0  0  0  0  0  0  0  0
   -5.1354   -0.1688   -1.6870 C   0  0  0  0  0  0  0  0  0  0  0  0
   -3.0546    1.0186   -0.9425 C   0  0  0  0  0  0  0  0  0  0  0  0
   -3.0611   -0.3249    1.1927 C   0  0  0  0  0  0  0  0  0  0  0  0
    1.5363   -0.9463   -0.6506 N   0  0  0  0  0  0  0  0  0  0  0  0
    2.8821   -0.9681   -0.6420 N   0  0  0  0  0  0  0  0  0  0  0  0
    3.5682   -2.0717   -1.2756 C   0  0  0  0  0  0  0  0  0  0  0  0
    3.4534    0.1011    0.0023 C   0  0  0  0  0  0  0  0  0  0  0  0
    4.8915    0.3006    0.1364 C   0  0  0  0  0  0  0  0  0  0  0  0
    5.6573    0.7017   -0.9642 C   0  0  0  0  0  0  0  0  0  0  0  0
    7.0349    0.8865   -0.8326 C   0  0  0  0  0  0  0  0  0  0  0  0
    7.6528    0.6744    0.3993 C   0  0  0  0  0  0  0  0  0  0  0  0
    6.8946    0.2812    1.5013 C   0  0  0  0  0  0  0  0  0  0  0  0
    5.5169    0.0965    1.3713 C   0  0  0  0  0  0  0  0  0  0  0  0
    3.4660    2.4854    1.3799 H   0  0  0  0  0  0  0  0  0  0  0  0
    1.8929    2.9222    0.7083 H   0  0  0  0  0  0  0  0  0  0  0  0
    1.9900    1.9976    2.2239 H   0  0  0  0  0  0  0  0  0  0  0  0
   -0.6164   -1.1205   -0.7803 H   0  0  0  0  0  0  0  0  0  0  0  0
   -2.7467   -1.4872   -2.0655 H   0  0  0  0  0  0  0  0  0  0  0  0
   -2.7513   -2.4226   -0.5792 H   0  0  0  0  0  0  0  0  0  0  0  0
   -5.0338   -2.3306   -1.5656 H   0  0  0  0  0  0  0  0  0  0  0  0
   -6.2386   -1.5033    0.4581 H   0  0  0  0  0  0  0  0  0  0  0  0
   -4.8142   -2.4334    0.9174 H   0  0  0  0  0  0  0  0  0  0  0  0
   -4.9585   -0.3234    2.2433 H   0  0  0  0  0  0  0  0  0  0  0  0
   -4.7156    1.8745    1.0813 H   0  0  0  0  0  0  0  0  0  0  0  0
   -6.1806    1.0479    0.5567 H   0  0  0  0  0  0  0  0  0  0  0  0
   -4.9473    1.9716   -1.4040 H   0  0  0  0  0  0  0  0  0  0  0  0
   -4.8031   -0.1372   -2.7319 H   0  0  0  0  0  0  0  0  0  0  0  0
   -6.2320   -0.1449   -1.7008 H   0  0  0  0  0  0  0  0  0  0  0  0
   -2.6726    1.9127   -0.4355 H   0  0  0  0  0  0  0  0  0  0  0  0
   -2.6908    1.0734   -1.9769 H   0  0  0  0  0  0  0  0  0  0  0  0
   -2.7020   -1.2348    1.6914 H   0  0  0  0  0  0  0  0  0  0  0  0
   -2.6792    0.5180    1.7810 H   0  0  0  0  0  0  0  0  0  0  0  0
    4.3637   -2.4241   -0.6146 H   0  0  0  0  0  0  0  0  0  0  0  0
    2.8590   -2.8848   -1.4530 H   0  0  0  0  0  0  0  0  0  0  0  0
    3.9774   -1.7194   -2.2254 H   0  0  0  0  0  0  0  0  0  0  0  0
    5.1844    0.8836   -1.9265 H   0  0  0  0  0  0  0  0  0  0  0  0
    7.6248    1.2023   -1.6893 H   0  0  0  0  0  0  0  0  0  0  0  0
    8.7249    0.8217    0.5022 H   0  0  0  0  0  0  0  0  0  0  0  0
    7.3749    0.1215    2.4633 H   0  0  0  0  0  0  0  0  0  0  0  0
    4.9339   -0.2076    2.2378 H   0  0  0  0  0  0  0  0  0  0  0  0
  1  2  1  0
  2  3  1  0
  3  4  1  0
  4  5  2  0
  4  6  1  0
  7  6  1  1
  7  8  1  0
  8  9  1  0
  9 10  1  0
 10 11  1  0
 11 12  1  0
 12 13  1  0
 13 14  1  0
 13 15  1  0
 11 16  1  0
  3 17  2  0
 17 18  1  0
 18 19  1  0
 18 20  1  0
 20 21  1  0
 21 22  2  0
 22 23  1  0
 23 24  2  0
 24 25  1  0
 25 26  2  0
 20  2  2  0
 26 21  1  0
 15  7  1  0
 16  7  1  0
 14  9  1  0
  1 27  1  0
  1 28  1  0
  1 29  1  0
  6 30  1  0
  8 31  1  0
  8 32  1  0
  9 33  1  6
 10 34  1  0
 10 35  1  0
 11 36  1  1
 12 37  1  0
 12 38  1  0
 13 39  1  6
 14 40  1  0
 14 41  1  0
 15 42  1  0
 15 43  1  0
 16 44  1  0
 16 45  1  0
 19 46  1  0
 19 47  1  0
 19 48  1  0
 22 49  1  0
 23 50  1  0
 24 51  1  0
 25 52  1  0
 26 53  1  0
M  END
>  <_SMILES>  (65) 
Cc1c(C(=O)N[C@]23C[C@H]4C[C@H](C[C@H](C4)C2)C3)nn(C)c1-c1ccccc1

$$$$

     RDKit          3D

 62 66  0  0  0  0  0  0  0  0999 V2000
    1.0555    0.8722   -1.4539 C   0  0  0  0  0  0  0  0  0  0  0  0
    1.5406   -0.1977   -0.5424 C   0  0  0  0  0  0  0  0  0  0  0  0
    0.7543   -1.1887    0.1279 C   0  0  0  0  0  0  0  0  0  0  0  0
   -0.7143   -1.3523    0.1322 C   0  0  0  0  0  0  0  0  0  0  0  0
   -1.2653   -2.4456    0.0530 O   0  0  0  0  0  0  0  0  0  0  0  0
   -1.4029   -0.1564    0.2650 N   0  0  0  0  0  0  0  0  0  0  0  0
   -2.8554   -0.0450    0.4384 C   0  0  1  0  0  0  0  0  0  0  0  0
   -3.2157    1.4649    0.5392 C   0  0  0  0  0  0  0  0  0  0  0  0
   -4.7219    1.6640    0.7681 C   0  0  2  0  0  0  0  0  0  0  0  0
   -5.1248    0.9750    2.0810 C   0  0  0  0  0  0  0  0  0  0  0  0
   -4.8080   -0.5259    2.0005 C   0  0  1  0  0  0  0  0  0  0  0  0
   -5.5847   -1.1459    0.8273 C   0  0  0  0  0  0  0  0  0  0  0  0
   -5.1832   -0.4649   -0.4959 C   0  0  1  0  0  0  0  0  0  0  0  0
   -5.5063    1.0361   -0.3928 C   0  0  0  0  0  0  0  0  0  0  0  0
   -3.6664   -0.6922   -0.7338 C   0  0  1  0  0  0  0  0  0  0  0  0
   -3.2352   -0.2178   -2.1282 C   0  0  0  0  0  0  0  0  0  0  0  0
   -3.2990   -0.7139    1.7687 C   0  0  0  0  0  0  0  0  0  0  0  0
    1.5415   -2.0170    0.8295 N   0  0  0  0  0  0  0  0  0  0  0  0
    2.7929   -1.5877    0.6092 N   0  0  0  0  0  0  0  0  0  0  0  0
    3.8643   -2.3349    1.2265 C   0  0  0  0  0  0  0  0  0  0  0  0
    2.8566   -0.4604   -0.1747 C   0  0  0  0  0  0  0  0  0  0  0  0
    4.1131    0.2829   -0.5549 C   0  0  0  0  0  0  0  0  0  0  0  0
    4.9394   -0.4709   -1.6132 C   0  0  0  0  0  0  0  0  0  0  0  0
    6.4350   -0.1518   -1.5474 C   0  0  0  0  0  0  0  0  0  0  0  0
    6.6838    1.3000   -1.1597 C   0  0  0  0  0  0  0  0  0  0  0  0
    6.1074    1.6403    0.2168 C   0  0  0  0  0  0  0  0  0  0  0  0
    4.9579    0.7233    0.6459 C   0  0  0  0  0  0  0  0  0  0  0  0
    1.7914    1.0924   -2.2336 H   0  0  0  0  0  0  0  0  0  0  0  0
    0.1331    0.5753   -1.9620 H   0  0  0  0  0  0  0  0  0  0  0  0
    0.8631    1.7911   -0.8915 H   0  0  0  0  0  0  0  0  0  0  0  0
   -0.8416    0.6244    0.5784 H   0  0  0  0  0  0  0  0  0  0  0  0
   -2.8987    2.0021   -0.3629 H   0  0  0  0  0  0  0  0  0  0  0  0
   -2.6597    1.9263    1.3671 H   0  0  0  0  0  0  0  0  0  0  0  0
   -4.9481    2.7344    0.8308 H   0  0  0  0  0  0  0  0  0  0  0  0
   -6.1952    1.1232    2.2699 H   0  0  0  0  0  0  0  0  0  0  0  0
   -4.5878    1.4277    2.9236 H   0  0  0  0  0  0  0  0  0  0  0  0
   -5.1007   -1.0147    2.9364 H   0  0  0  0  0  0  0  0  0  0  0  0
   -5.3838   -2.2228    0.7716 H   0  0  0  0  0  0  0  0  0  0  0  0
   -6.6634   -1.0336    0.9927 H   0  0  0  0  0  0  0  0  0  0  0  0
   -5.7609   -0.9081   -1.3158 H   0  0  0  0  0  0  0  0  0  0  0  0
   -6.5829    1.1731   -0.2303 H   0  0  0  0  0  0  0  0  0  0  0  0
   -5.2694    1.5501   -1.3309 H   0  0  0  0  0  0  0  0  0  0  0  0
   -3.5016   -1.7778   -0.7250 H   0  0  0  0  0  0  0  0  0  0  0  0
   -2.2014   -0.5098   -2.3377 H   0  0  0  0  0  0  0  0  0  0  0  0
   -3.8628   -0.6802   -2.8979 H   0  0  0  0  0  0  0  0  0  0  0  0
   -3.3048    0.8656   -2.2517 H   0  0  0  0  0  0  0  0  0  0  0  0
   -3.0683   -1.7861    1.7616 H   0  0  0  0  0  0  0  0  0  0  0  0
   -2.7376   -0.2871    2.6105 H   0  0  0  0  0  0  0  0  0  0  0  0
    4.7507   -2.3111    0.5925 H   0  0  0  0  0  0  0  0  0  0  0  0
    4.0704   -1.8892    2.2025 H   0  0  0  0  0  0  0  0  0  0  0  0
    3.5495   -3.3751    1.3509 H   0  0  0  0  0  0  0  0  0  0  0  0
    3.7871    1.2191   -1.0322 H   0  0  0  0  0  0  0  0  0  0  0  0
    4.8099   -1.5572   -1.5455 H   0  0  0  0  0  0  0  0  0  0  0  0
    4.5574   -0.1973   -2.6061 H   0  0  0  0  0  0  0  0  0  0  0  0
    6.9173   -0.8107   -0.8145 H   0  0  0  0  0  0  0  0  0  0  0  0
    6.8982   -0.3688   -2.5166 H   0  0  0  0  0  0  0  0  0  0  0  0
    6.2274    1.9541   -1.9135 H   0  0  0  0  0  0  0  0  0  0  0  0
    7.7580    1.5169   -1.1716 H   0  0  0  0  0  0  0  0  0  0  0  0
    5.7664    2.6828    0.2075 H   0  0  0  0  0  0  0  0  0  0  0  0
    6.8997    1.5867    0.9734 H   0  0  0  0  0  0  0  0  0  0  0  0
    4.3403    1.2391    1.3915 H   0  0  0  0  0  0  0  0  0  0  0  0
    5.3894   -0.1447    1.1553 H   0  0  0  0  0  0  0  0  0  0  0  0
  1  2  1  0
  2  3  1  0
  3  4  1  0
  4  5  2  0
  4  6  1  0
  7  6  1  6
  7  8  1  0
  8  9  1  0
  9 10  1  0
 10 11  1  0
 11 12  1  0
 12 13  1  0
 13 14  1  0
 13 15  1  0
 15 16  1  0
 11 17  1  0
  3 18  2  0
 18 19  1  0
 19 20  1  0
 19 21  1  0
 21 22  1  0
 22 23  1  0
 23 24  1  0
 24 25  1  0
 25 26  1  0
 26 27  1  0
 21  2  2  0
 27 22  1  0
 15  7  1  0
 17  7  1  0
 14  9  1  0
  1 28  1  0
  1 29  1  0
  1 30  1  0
  6 31  1  0
  8 32  1  0
  8 33  1  0
  9 34  1  1
 10 35  1  0
 10 36  1  0
 11 37  1  1
 12 38  1  0
 12 39  1  0
 13 40  1  6
 14 41  1  0
 14 42  1  0
 15 43  1  6
 16 44  1  0
 16 45  1  0
 16 46  1  0
 17 47  1  0
 17 48  1  0
 20 49  1  0
 20 50  1  0
 20 51  1  0
 22 52  1  0
 23 53  1  0
 23 54  1  0
 24 55  1  0
 24 56  1  0
 25 57  1  0
 25 58  1  0
 26 59  1  0
 26 60  1  0
 27 61  1  0
 27 62  1  0
M  END
>  <_SMILES>  (66) 
Cc1c(C(=O)N[C@@]23C[C@@H]4C[C@@H](C[C@@H](C4)[C@H]2C)C3)nn(C)c1C1CCCCC1

$$$$

     RDKit          3D

 56 60  0  0  0  0  0  0  0  0999 V2000
    1.8506   -0.0075    1.5636 C   0  0  0  0  0  0  0  0  0  0  0  0
    2.2392   -0.4137    0.1877 C   0  0  0  0  0  0  0  0  0  0  0  0
    1.4013   -0.9876   -0.8257 C   0  0  0  0  0  0  0  0  0  0  0  0
   -0.0478   -1.2707   -0.7631 C   0  0  0  0  0  0  0  0  0  0  0  0
   -0.5436   -2.3034   -1.2016 O   0  0  0  0  0  0  0  0  0  0  0  0
   -0.7848   -0.2503   -0.1838 N   0  0  0  0  0  0  0  0  0  0  0  0
   -2.2468   -0.2319   -0.0509 C   0  0  1  0  0  0  0  0  0  0  0  0
   -2.7228   -1.4275    0.8248 C   0  0  0  0  0  0  0  0  0  0  0  0
   -4.2506   -1.4173    0.9923 C   0  0  2  0  0  0  0  0  0  0  0  0
   -4.9099   -1.5066   -0.3935 C   0  0  0  0  0  0  0  0  0  0  0  0
   -4.4859   -0.3059   -1.2559 C   0  0  1  0  0  0  0  0  0  0  0  0
   -4.9188    0.9901   -0.5551 C   0  0  0  0  0  0  0  0  0  0  0  0
   -4.2449    1.0941    0.8250 C   0  0  1  0  0  0  0  0  0  0  0  0
   -4.6768   -0.1118    1.6773 C   0  0  0  0  0  0  0  0  0  0  0  0
   -2.6995    1.0841    0.6823 C   0  0  2  0  0  0  0  0  0  0  0  0
   -2.2092    2.3872    0.0285 C   0  0  0  0  0  0  0  0  0  0  0  0
   -2.9563   -0.3220   -1.4275 C   0  0  0  0  0  0  0  0  0  0  0  0
    2.1103   -1.2548   -1.9353 N   0  0  0  0  0  0  0  0  0  0  0  0
    3.3626   -0.8737   -1.6423 N   0  0  0  0  0  0  0  0  0  0  0  0
    4.4010   -1.0617   -2.6300 C   0  0  0  0  0  0  0  0  0  0  0  0
    3.4982   -0.3307   -0.3894 C   0  0  0  0  0  0  0  0  0  0  0  0
    4.7558    0.1719    0.1486 C   0  0  0  0  0  0  0  0  0  0  0  0
    5.4940   -0.6004    1.0519 C   0  0  0  0  0  0  0  0  0  0  0  0
    6.7012   -0.1212    1.5637 C   0  0  0  0  0  0  0  0  0  0  0  0
    7.1742    1.1321    1.1769 C   0  0  0  0  0  0  0  0  0  0  0  0
    6.4411    1.9085    0.2802 C   0  0  0  0  0  0  0  0  0  0  0  0
    5.2338    1.4305   -0.2327 C   0  0  0  0  0  0  0  0  0  0  0  0
    1.4598    1.0149    1.5609 H   0  0  0  0  0  0  0  0  0  0  0  0
    2.7023   -0.0435    2.2497 H   0  0  0  0  0  0  0  0  0  0  0  0
    1.0812   -0.6733    1.9674 H   0  0  0  0  0  0  0  0  0  0  0  0
   -0.2858    0.6177   -0.0552 H   0  0  0  0  0  0  0  0  0  0  0  0
   -2.4266   -2.3846    0.3805 H   0  0  0  0  0  0  0  0  0  0  0  0
   -2.2386   -1.3877    1.8096 H   0  0  0  0  0  0  0  0  0  0  0  0
   -4.5603   -2.2723    1.6036 H   0  0  0  0  0  0  0  0  0  0  0  0
   -6.0016   -1.5249   -0.2878 H   0  0  0  0  0  0  0  0  0  0  0  0
   -4.6227   -2.4434   -0.8866 H   0  0  0  0  0  0  0  0  0  0  0  0
   -4.9668   -0.3721   -2.2384 H   0  0  0  0  0  0  0  0  0  0  0  0
   -4.6693    1.8570   -1.1767 H   0  0  0  0  0  0  0  0  0  0  0  0
   -6.0097    1.0011   -0.4362 H   0  0  0  0  0  0  0  0  0  0  0  0
   -4.5706    2.0153    1.3225 H   0  0  0  0  0  0  0  0  0  0  0  0
   -4.2275   -0.0467    2.6758 H   0  0  0  0  0  0  0  0  0  0  0  0
   -5.7647   -0.1006    1.8185 H   0  0  0  0  0  0  0  0  0  0  0  0
   -2.2662    1.0778    1.6935 H   0  0  0  0  0  0  0  0  0  0  0  0
   -2.4726    2.4587   -1.0295 H   0  0  0  0  0  0  0  0  0  0  0  0
   -2.6427    3.2550    0.5379 H   0  0  0  0  0  0  0  0  0  0  0  0
   -1.1227    2.4884    0.1076 H   0  0  0  0  0  0  0  0  0  0  0  0
   -2.6407    0.4981   -2.0829 H   0  0  0  0  0  0  0  0  0  0  0  0
   -2.6740   -1.2431   -1.9511 H   0  0  0  0  0  0  0  0  0  0  0  0
    4.6623   -0.0840   -3.0419 H   0  0  0  0  0  0  0  0  0  0  0  0
    5.2661   -1.5265   -2.1509 H   0  0  0  0  0  0  0  0  0  0  0  0
    4.0322   -1.7153   -3.4252 H   0  0  0  0  0  0  0  0  0  0  0  0
    5.1334   -1.5795    1.3594 H   0  0  0  0  0  0  0  0  0  0  0  0
    7.2715   -0.7257    2.2643 H   0  0  0  0  0  0  0  0  0  0  0  0
    8.1139    1.5051    1.5769 H   0  0  0  0  0  0  0  0  0  0  0  0
    6.8083    2.8873   -0.0175 H   0  0  0  0  0  0  0  0  0  0  0  0
    4.6668    2.0473   -0.9261 H   0  0  0  0  0  0  0  0  0  0  0  0
  1  2  1  0
  2  3  1  0
  3  4  1  0
  4  5  2  0
  4  6  1  0
  7  6  1  6
  7  8  1  0
  8  9  1  0
  9 10  1  0
 10 11  1  0
 11 12  1  0
 12 13  1  0
 13 14  1  0
 13 15  1  0
 15 16  1  0
 11 17  1  0
  3 18  2  0
 18 19  1  0
 19 20  1  0
 19 21  1  0
 21 22  1  0
 22 23  2  0
 23 24  1  0
 24 25  2  0
 25 26  1  0
 26 27  2  0
 21  2  2  0
 27 22  1  0
 15  7  1  0
 17  7  1  0
 14  9  1  0
  1 28  1  0
  1 29  1  0
  1 30  1  0
  6 31  1  0
  8 32  1  0
  8 33  1  0
  9 34  1  1
 10 35  1  0
 10 36  1  0
 11 37  1  6
 12 38  1  0
 12 39  1  0
 13 40  1  1
 14 41  1  0
 14 42  1  0
 15 43  1  1
 16 44  1  0
 16 45  1  0
 16 46  1  0
 17 47  1  0
 17 48  1  0
 20 49  1  0
 20 50  1  0
 20 51  1  0
 23 52  1  0
 24 53  1  0
 25 54  1  0
 26 55  1  0
 27 56  1  0
M  END
>  <_SMILES>  (67) 
Cc1c(C(=O)N[C@@]23C[C@@H]4C[C@@H](C[C@@H](C4)[C@@H]2C)C3)nn(C)c1-c1ccccc1

$$$$

     RDKit          3D

 53 57  0  0  0  0  0  0  0  0999 V2000
    3.0484    0.0273   -2.4647 C   0  0  0  0  0  0  0  0  0  0  0  0
    2.9530    0.1041   -0.9833 C   0  0  0  0  0  0  0  0  0  0  0  0
    1.7587    0.0191   -0.2040 C   0  0  0  0  0  0  0  0  0  0  0  0
    0.3731   -0.1707   -0.6816 C   0  0  0  0  0  0  0  0  0  0  0  0
    0.0824   -0.2867   -1.8670 O   0  0  0  0  0  0  0  0  0  0  0  0
   -0.5406   -0.1976    0.3502 N   0  0  0  0  0  0  0  0  0  0  0  0
   -1.9865   -0.3627    0.2242 C   0  0  1  0  0  0  0  0  0  0  0  0
   -2.6092   -0.3584    1.6480 C   0  0  0  0  0  0  0  0  0  0  0  0
   -4.1309   -0.5644    1.5888 C   0  0  2  0  0  0  0  0  0  0  0  0
   -4.4282   -1.9204    0.9305 C   0  0  0  0  0  0  0  0  0  0  0  0
   -3.8475   -1.9474   -0.4911 C   0  0  1  0  0  0  0  0  0  0  0  0
   -4.4801   -0.8176   -1.3201 C   0  0  0  0  0  0  0  0  0  0  0  0
   -4.1829    0.5487   -0.6717 C   0  0  1  0  0  0  0  0  0  0  0  0
   -4.7701    0.5532    0.7513 C   0  0  0  0  0  0  0  0  0  0  0  0
   -2.6461    0.7624   -0.6389 C   0  0  1  0  0  0  0  0  0  0  0  0
   -2.2827    2.1853   -0.1920 C   0  0  0  0  0  0  0  0  0  0  0  0
   -2.3257   -1.7353   -0.4210 C   0  0  0  0  0  0  0  0  0  0  0  0
    2.0263    0.1398    1.1133 N   0  0  0  0  0  0  0  0  0  0  0  0
    3.3669    0.2628    1.1687 N   0  0  0  0  0  0  0  0  0  0  0  0
    3.9958    0.3105    2.4692 C   0  0  0  0  0  0  0  0  0  0  0  0
    3.9727    0.2817   -0.0608 C   0  0  0  0  0  0  0  0  0  0  0  0
    5.3800    0.4238   -0.2855 C   0  0  0  0  0  0  0  0  0  0  0  0
    6.2875    1.2848    0.3114 C   0  0  0  0  0  0  0  0  0  0  0  0
    7.5541    1.0335   -0.2710 C   0  0  0  0  0  0  0  0  0  0  0  0
    7.3523    0.0410   -1.1967 C   0  0  0  0  0  0  0  0  0  0  0  0
    6.0484   -0.3281   -1.2174 O   0  0  0  0  0  0  0  0  0  0  0  0
    2.3403    0.7188   -2.9326 H   0  0  0  0  0  0  0  0  0  0  0  0
    4.0449    0.2931   -2.8285 H   0  0  0  0  0  0  0  0  0  0  0  0
    2.8222   -0.9876   -2.8070 H   0  0  0  0  0  0  0  0  0  0  0  0
   -0.1190   -0.0806    1.2694 H   0  0  0  0  0  0  0  0  0  0  0  0
   -2.3789    0.5776    2.1713 H   0  0  0  0  0  0  0  0  0  0  0  0
   -2.1566   -1.1547    2.2551 H   0  0  0  0  0  0  0  0  0  0  0  0
   -4.5458   -0.5497    2.6029 H   0  0  0  0  0  0  0  0  0  0  0  0
   -3.9956   -2.7318    1.5286 H   0  0  0  0  0  0  0  0  0  0  0  0
   -5.5111   -2.0926    0.8971 H   0  0  0  0  0  0  0  0  0  0  0  0
   -4.0638   -2.9143   -0.9590 H   0  0  0  0  0  0  0  0  0  0  0  0
   -4.0894   -0.8399   -2.3449 H   0  0  0  0  0  0  0  0  0  0  0  0
   -5.5643   -0.9690   -1.3918 H   0  0  0  0  0  0  0  0  0  0  0  0
   -4.6578    1.3379   -1.2664 H   0  0  0  0  0  0  0  0  0  0  0  0
   -5.8565    0.4060    0.7039 H   0  0  0  0  0  0  0  0  0  0  0  0
   -4.6127    1.5241    1.2338 H   0  0  0  0  0  0  0  0  0  0  0  0
   -2.2828    0.6734   -1.6720 H   0  0  0  0  0  0  0  0  0  0  0  0
   -2.7973    2.9230   -0.8175 H   0  0  0  0  0  0  0  0  0  0  0  0
   -2.5514    2.3881    0.8475 H   0  0  0  0  0  0  0  0  0  0  0  0
   -1.2083    2.3663   -0.2976 H   0  0  0  0  0  0  0  0  0  0  0  0
   -1.9091   -1.8049   -1.4329 H   0  0  0  0  0  0  0  0  0  0  0  0
   -1.8630   -2.5474    0.1556 H   0  0  0  0  0  0  0  0  0  0  0  0
    3.3047   -0.0850    3.2190 H   0  0  0  0  0  0  0  0  0  0  0  0
    4.8980   -0.3054    2.4564 H   0  0  0  0  0  0  0  0  0  0  0  0
    4.2332    1.3523    2.6958 H   0  0  0  0  0  0  0  0  0  0  0  0
    6.0618    2.0241    1.0666 H   0  0  0  0  0  0  0  0  0  0  0  0
    8.4928    1.5220   -0.0515 H   0  0  0  0  0  0  0  0  0  0  0  0
    7.9964   -0.4820   -1.8900 H   0  0  0  0  0  0  0  0  0  0  0  0
  1  2  1  0
  2  3  1  0
  3  4  1  0
  4  5  2  0
  4  6  1  0
  7  6  1  1
  7  8  1  0
  8  9  1  0
  9 10  1  0
 10 11  1  0
 11 12  1  0
 12 13  1  0
 13 14  1  0
 13 15  1  0
 15 16  1  0
 11 17  1  0
  3 18  2  0
 18 19  1  0
 19 20  1  0
 19 21  1  0
 21 22  1  0
 22 23  2  0
 23 24  1  0
 24 25  2  0
 25 26  1  0
 21  2  2  0
 26 22  1  0
 15  7  1  0
 17  7  1  0
 14  9  1  0
  1 27  1  0
  1 28  1  0
  1 29  1  0
  6 30  1  0
  8 31  1  0
  8 32  1  0
  9 33  1  1
 10 34  1  0
 10 35  1  0
 11 36  1  6
 12 37  1  0
 12 38  1  0
 13 39  1  6
 14 40  1  0
 14 41  1  0
 15 42  1  6
 16 43  1  0
 16 44  1  0
 16 45  1  0
 17 46  1  0
 17 47  1  0
 20 48  1  0
 20 49  1  0
 20 50  1  0
 23 51  1  0
 24 52  1  0
 25 53  1  0
M  END
>  <_SMILES>  (68) 
Cc1c(C(=O)N[C@@]23C[C@@H]4C[C@@H](C[C@@H](C4)[C@H]2C)C3)nn(C)c1-c1ccco1

$$$$

     RDKit          3D

 55 59  0  0  0  0  0  0  0  0999 V2000
    2.0726   -0.6744   -1.3092 C   0  0  0  0  0  0  0  0  0  0  0  0
    2.3814    0.3397   -0.2677 C   0  0  0  0  0  0  0  0  0  0  0  0
    1.4800    1.2784    0.3348 C   0  0  0  0  0  0  0  0  0  0  0  0
    0.0300    1.4385    0.0996 C   0  0  0  0  0  0  0  0  0  0  0  0
   -0.5074    2.5356   -0.0088 O   0  0  0  0  0  0  0  0  0  0  0  0
   -0.6582    0.2361    0.0473 N   0  0  0  0  0  0  0  0  0  0  0  0
   -2.1193    0.1104   -0.0329 C   0  0  1  0  0  0  0  0  0  0  0  0
   -2.7088    0.8335   -1.2741 C   0  0  0  0  0  0  0  0  0  0  0  0
   -4.2386    0.6709   -1.3263 C   0  0  2  0  0  0  0  0  0  0  0  0
   -4.8525    1.2752   -0.0522 C   0  0  0  0  0  0  0  0  0  0  0  0
   -4.3116    0.5464    1.1885 C   0  0  1  0  0  0  0  0  0  0  0  0
   -4.6663   -0.9452    1.0968 C   0  0  0  0  0  0  0  0  0  0  0  0
   -4.0454   -1.5583   -0.1715 C   0  0  1  0  0  0  0  0  0  0  0  0
   -4.6030   -0.8187   -1.4002 C   0  0  0  0  0  0  0  0  0  0  0  0
   -2.5039   -1.4112   -0.0954 C   0  0  1  0  0  0  0  0  0  0  0  0
   -1.8149   -2.1896   -1.2270 C   0  0  0  0  0  0  0  0  0  0  0  0
   -2.7830    0.7043    1.2407 C   0  0  0  0  0  0  0  0  0  0  0  0
    2.1255    2.0577    1.2187 N   0  0  0  0  0  0  0  0  0  0  0  0
    3.4001    1.6445    1.1758 N   0  0  0  0  0  0  0  0  0  0  0  0
    4.3816    2.3162    1.9976 C   0  0  0  0  0  0  0  0  0  0  0  0
    3.6123    0.5913    0.3218 C   0  0  0  0  0  0  0  0  0  0  0  0
    4.9069   -0.0450    0.1160 C   0  0  0  0  0  0  0  0  0  0  0  0
    5.3893   -0.9768    1.0338 C   0  0  0  0  0  0  0  0  0  0  0  0
    6.6252   -1.5524    0.7931 C   0  0  0  0  0  0  0  0  0  0  0  0
    7.3916   -1.2626   -0.2798 N   0  0  0  0  0  0  0  0  0  0  0  0
    6.8983   -0.3614   -1.1560 C   0  0  0  0  0  0  0  0  0  0  0  0
    5.6744    0.2675   -1.0050 C   0  0  0  0  0  0  0  0  0  0  0  0
    2.9449   -0.8831   -1.9362 H   0  0  0  0  0  0  0  0  0  0  0  0
    1.2729   -0.3300   -1.9724 H   0  0  0  0  0  0  0  0  0  0  0  0
    1.7581   -1.6122   -0.8410 H   0  0  0  0  0  0  0  0  0  0  0  0
   -0.1545   -0.5533    0.4296 H   0  0  0  0  0  0  0  0  0  0  0  0
   -2.2557    0.4544   -2.1976 H   0  0  0  0  0  0  0  0  0  0  0  0
   -2.4790    1.9046   -1.2511 H   0  0  0  0  0  0  0  0  0  0  0  0
   -4.6340    1.1910   -2.2061 H   0  0  0  0  0  0  0  0  0  0  0  0
   -4.6166    2.3448    0.0078 H   0  0  0  0  0  0  0  0  0  0  0  0
   -5.9458    1.1926   -0.0877 H   0  0  0  0  0  0  0  0  0  0  0  0
   -4.7575    0.9764    2.0923 H   0  0  0  0  0  0  0  0  0  0  0  0
   -4.3024   -1.4734    1.9866 H   0  0  0  0  0  0  0  0  0  0  0  0
   -5.7561   -1.0704    1.0782 H   0  0  0  0  0  0  0  0  0  0  0  0
   -4.3195   -2.6185   -0.2265 H   0  0  0  0  0  0  0  0  0  0  0  0
   -5.6938   -0.9327   -1.4377 H   0  0  0  0  0  0  0  0  0  0  0  0
   -4.2169   -1.2566   -2.3271 H   0  0  0  0  0  0  0  0  0  0  0  0
   -2.1671   -1.8864    0.8381 H   0  0  0  0  0  0  0  0  0  0  0  0
   -2.0101   -1.7687   -2.2162 H   0  0  0  0  0  0  0  0  0  0  0  0
   -0.7303   -2.2112   -1.0848 H   0  0  0  0  0  0  0  0  0  0  0  0
   -2.1573   -3.2303   -1.2356 H   0  0  0  0  0  0  0  0  0  0  0  0
   -2.3875    0.2087    2.1372 H   0  0  0  0  0  0  0  0  0  0  0  0
   -2.5379    1.7678    1.3486 H   0  0  0  0  0  0  0  0  0  0  0  0
    3.9520    3.2393    2.3961 H   0  0  0  0  0  0  0  0  0  0  0  0
    4.6560    1.6480    2.8174 H   0  0  0  0  0  0  0  0  0  0  0  0
    5.2525    2.5569    1.3831 H   0  0  0  0  0  0  0  0  0  0  0  0
    4.8187   -1.2558    1.9128 H   0  0  0  0  0  0  0  0  0  0  0  0
    7.0447   -2.2850    1.4769 H   0  0  0  0  0  0  0  0  0  0  0  0
    7.5341   -0.1509   -2.0114 H   0  0  0  0  0  0  0  0  0  0  0  0
    5.3319    0.9837   -1.7443 H   0  0  0  0  0  0  0  0  0  0  0  0
  1  2  1  0
  2  3  1  0
  3  4  1  0
  4  5  2  0
  4  6  1  0
  7  6  1  1
  7  8  1  0
  8  9  1  0
  9 10  1  0
 10 11  1  0
 11 12  1  0
 12 13  1  0
 13 14  1  0
 13 15  1  0
 15 16  1  0
 11 17  1  0
  3 18  2  0
 18 19  1  0
 19 20  1  0
 19 21  1  0
 21 22  1  0
 22 23  2  0
 23 24  1  0
 24 25  2  0
 25 26  1  0
 26 27  2  0
 21  2  2  0
 27 22  1  0
 15  7  1  0
 17  7  1  0
 14  9  1  0
  1 28  1  0
  1 29  1  0
  1 30  1  0
  6 31  1  0
  8 32  1  0
  8 33  1  0
  9 34  1  6
 10 35  1  0
 10 36  1  0
 11 37  1  1
 12 38  1  0
 12 39  1  0
 13 40  1  6
 14 41  1  0
 14 42  1  0
 15 43  1  1
 16 44  1  0
 16 45  1  0
 16 46  1  0
 17 47  1  0
 17 48  1  0
 20 49  1  0
 20 50  1  0
 20 51  1  0
 23 52  1  0
 24 53  1  0
 26 54  1  0
 27 55  1  0
M  END
>  <_SMILES>  (69) 
Cc1c(C(=O)N[C@@]23C[C@@H]4C[C@@H](C[C@@H](C4)[C@H]2C)C3)nn(C)c1-c1ccncc1

$$$$

     RDKit          3D

 52 56  0  0  0  0  0  0  0  0999 V2000
    3.0904    0.9755    1.7881 C   0  0  0  0  0  0  0  0  0  0  0  0
    2.8862    0.4286    0.4255 C   0  0  0  0  0  0  0  0  0  0  0  0
    1.6373    0.1671   -0.2210 C   0  0  0  0  0  0  0  0  0  0  0  0
    0.2791    0.3414    0.3146 C   0  0  0  0  0  0  0  0  0  0  0  0
    0.0670    0.7252    1.4598 O   0  0  0  0  0  0  0  0  0  0  0  0
   -0.7148    0.0227   -0.5884 N   0  0  0  0  0  0  0  0  0  0  0  0
   -2.1557    0.0691   -0.3352 C   0  0  1  0  0  0  0  0  0  0  0  0
   -2.8976   -0.3415   -1.6380 C   0  0  0  0  0  0  0  0  0  0  0  0
   -4.4218   -0.2810   -1.4518 C   0  0  2  0  0  0  0  0  0  0  0  0
   -4.8265    1.1570   -1.0935 C   0  0  0  0  0  0  0  0  0  0  0  0
   -4.1294    1.5852    0.2063 C   0  0  1  0  0  0  0  0  0  0  0  0
   -4.5395    0.6321    1.3409 C   0  0  0  0  0  0  0  0  0  0  0  0
   -4.1330   -0.8137    0.9945 C   0  0  1  0  0  0  0  0  0  0  0  0
   -4.8393   -1.2211   -0.3112 C   0  0  0  0  0  0  0  0  0  0  0  0
   -2.5906   -0.8743    0.8338 C   0  0  1  0  0  0  0  0  0  0  0  0
   -2.0939   -2.3193    0.6870 C   0  0  0  0  0  0  0  0  0  0  0  0
   -2.6054    1.5162    0.0106 C   0  0  0  0  0  0  0  0  0  0  0  0
    1.8314   -0.2937   -1.4700 N   0  0  0  0  0  0  0  0  0  0  0  0
    3.1971   -0.3526   -1.6440 O   0  0  0  0  0  0  0  0  0  0  0  0
    3.8321    0.0639   -0.5132 C   0  0  0  0  0  0  0  0  0  0  0  0
    5.2875    0.0133   -0.5643 C   0  0  0  0  0  0  0  0  0  0  0  0
    5.9717    0.3247   -1.7490 C   0  0  0  0  0  0  0  0  0  0  0  0
    7.3673    0.2797   -1.8022 C   0  0  0  0  0  0  0  0  0  0  0  0
    8.0965   -0.0813   -0.6719 C   0  0  0  0  0  0  0  0  0  0  0  0
    7.4317   -0.4001    0.5099 C   0  0  0  0  0  0  0  0  0  0  0  0
    6.0356   -0.3543    0.5628 C   0  0  0  0  0  0  0  0  0  0  0  0
    4.1012    1.3734    1.9178 H   0  0  0  0  0  0  0  0  0  0  0  0
    2.9285    0.1962    2.5392 H   0  0  0  0  0  0  0  0  0  0  0  0
    2.3985    1.7999    1.9872 H   0  0  0  0  0  0  0  0  0  0  0  0
   -0.3835   -0.3103   -1.4900 H   0  0  0  0  0  0  0  0  0  0  0  0
   -2.6037    0.3255   -2.4602 H   0  0  0  0  0  0  0  0  0  0  0  0
   -2.5999   -1.3484   -1.9551 H   0  0  0  0  0  0  0  0  0  0  0  0
   -4.9201   -0.5822   -2.3801 H   0  0  0  0  0  0  0  0  0  0  0  0
   -5.9151    1.2227   -0.9751 H   0  0  0  0  0  0  0  0  0  0  0  0
   -4.5538    1.8387   -1.9084 H   0  0  0  0  0  0  0  0  0  0  0  0
   -4.4224    2.6099    0.4609 H   0  0  0  0  0  0  0  0  0  0  0  0
   -5.6234    0.6870    1.5014 H   0  0  0  0  0  0  0  0  0  0  0  0
   -4.0649    0.9408    2.2805 H   0  0  0  0  0  0  0  0  0  0  0  0
   -4.4510   -1.4790    1.8059 H   0  0  0  0  0  0  0  0  0  0  0  0
   -4.6055   -2.2591   -0.5722 H   0  0  0  0  0  0  0  0  0  0  0  0
   -5.9271   -1.1765   -0.1731 H   0  0  0  0  0  0  0  0  0  0  0  0
   -2.1511   -0.5026    1.7697 H   0  0  0  0  0  0  0  0  0  0  0  0
   -1.0001   -2.3610    0.7064 H   0  0  0  0  0  0  0  0  0  0  0  0
   -2.4551   -2.9317    1.5205 H   0  0  0  0  0  0  0  0  0  0  0  0
   -2.4262   -2.7930   -0.2399 H   0  0  0  0  0  0  0  0  0  0  0  0
   -2.1135    1.8713    0.9239 H   0  0  0  0  0  0  0  0  0  0  0  0
   -2.3008    2.2063   -0.7875 H   0  0  0  0  0  0  0  0  0  0  0  0
    5.4210    0.6120   -2.6428 H   0  0  0  0  0  0  0  0  0  0  0  0
    7.8828    0.5261   -2.7271 H   0  0  0  0  0  0  0  0  0  0  0  0
    9.1821   -0.1182   -0.7134 H   0  0  0  0  0  0  0  0  0  0  0  0
    7.9989   -0.6900    1.3908 H   0  0  0  0  0  0  0  0  0  0  0  0
    5.5408   -0.6264    1.4919 H   0  0  0  0  0  0  0  0  0  0  0  0
  1  2  1  0
  2  3  1  0
  3  4  1  0
  4  5  2  0
  4  6  1  0
  7  6  1  6
  7  8  1  0
  8  9  1  0
  9 10  1  0
 10 11  1  0
 11 12  1  0
 12 13  1  0
 13 14  1  0
 13 15  1  0
 15 16  1  0
 11 17  1  0
  3 18  2  0
 18 19  1  0
 19 20  1  0
 20 21  1  0
 21 22  2  0
 22 23  1  0
 23 24  2  0
 24 25  1  0
 25 26  2  0
 20  2  2  0
 26 21  1  0
 15  7  1  0
 17  7  1  0
 14  9  1  0
  1 27  1  0
  1 28  1  0
  1 29  1  0
  6 30  1  0
  8 31  1  0
  8 32  1  0
  9 33  1  6
 10 34  1  0
 10 35  1  0
 11 36  1  1
 12 37  1  0
 12 38  1  0
 13 39  1  1
 14 40  1  0
 14 41  1  0
 15 42  1  1
 16 43  1  0
 16 44  1  0
 16 45  1  0
 17 46  1  0
 17 47  1  0
 22 48  1  0
 23 49  1  0
 24 50  1  0
 25 51  1  0
 26 52  1  0
M  END
>  <_SMILES>  (70) 
Cc1c(C(=O)N[C@@]23C[C@@H]4C[C@@H](C[C@@H](C4)[C@H]2C)C3)noc1-c1ccccc1

$$$$

     RDKit          3D

 45 48  0  0  0  0  0  0  0  0999 V2000
    4.4729   -1.5338    0.6644 C   0  0  0  0  0  0  0  0  0  0  0  0
    4.0678   -0.2442    0.0613 C   0  0  0  0  0  0  0  0  0  0  0  0
    2.8182    0.3232   -0.1309 C   0  0  0  0  0  0  0  0  0  0  0  0
    1.5116   -0.2238    0.2213 C   0  0  0  0  0  0  0  0  0  0  0  0
    1.3727   -1.3207    0.7511 O   0  0  0  0  0  0  0  0  0  0  0  0
    0.4706    0.6169   -0.1104 N   0  0  0  0  0  0  0  0  0  0  0  0
   -0.9520    0.3454    0.1033 C   0  0  1  0  0  0  0  0  0  0  0  0
   -1.7673    1.5728   -0.3922 C   0  0  0  0  0  0  0  0  0  0  0  0
   -3.2732    1.3684   -0.1642 C   0  0  2  0  0  0  0  0  0  0  0  0
   -3.5325    1.1861    1.3391 C   0  0  0  0  0  0  0  0  0  0  0  0
   -2.7606   -0.0371    1.8557 C   0  0  1  0  0  0  0  0  0  0  0  0
   -3.2232   -1.2894    1.0929 C   0  0  0  0  0  0  0  0  0  0  0  0
   -2.9624   -1.1196   -0.4166 C   0  0  1  0  0  0  0  0  0  0  0  0
   -3.7418    0.1117   -0.9125 C   0  0  0  0  0  0  0  0  0  0  0  0
   -1.4376   -0.9403   -0.6433 C   0  0  1  0  0  0  0  0  0  0  0  0
   -1.0811   -0.9669   -2.1361 C   0  0  0  0  0  0  0  0  0  0  0  0
   -1.2559    0.1757    1.6183 C   0  0  0  0  0  0  0  0  0  0  0  0
    2.9722    1.5492   -0.7397 N   0  0  0  0  0  0  0  0  0  0  0  0
    4.2655    1.7580   -0.9336 N   0  0  0  0  0  0  0  0  0  0  0  0
    4.9254    0.6863   -0.4618 N   0  0  0  0  0  0  0  0  0  0  0  0
    6.3618    0.6351   -0.5502 C   0  0  0  0  0  0  0  0  0  0  0  0
    5.5556   -1.6089    0.8002 H   0  0  0  0  0  0  0  0  0  0  0  0
    4.0105   -1.6580    1.6490 H   0  0  0  0  0  0  0  0  0  0  0  0
    4.1547   -2.3657    0.0281 H   0  0  0  0  0  0  0  0  0  0  0  0
    0.7398    1.4879   -0.5588 H   0  0  0  0  0  0  0  0  0  0  0  0
   -1.4377    2.4774    0.1374 H   0  0  0  0  0  0  0  0  0  0  0  0
   -1.5733    1.7664   -1.4542 H   0  0  0  0  0  0  0  0  0  0  0  0
   -3.8243    2.2426   -0.5284 H   0  0  0  0  0  0  0  0  0  0  0  0
   -4.6063    1.0574    1.5223 H   0  0  0  0  0  0  0  0  0  0  0  0
   -3.2222    2.0848    1.8860 H   0  0  0  0  0  0  0  0  0  0  0  0
   -2.9501   -0.1665    2.9272 H   0  0  0  0  0  0  0  0  0  0  0  0
   -2.6944   -2.1742    1.4682 H   0  0  0  0  0  0  0  0  0  0  0  0
   -4.2922   -1.4610    1.2703 H   0  0  0  0  0  0  0  0  0  0  0  0
   -3.3164   -2.0136   -0.9436 H   0  0  0  0  0  0  0  0  0  0  0  0
   -3.6127    0.2447   -1.9922 H   0  0  0  0  0  0  0  0  0  0  0  0
   -4.8162   -0.0391   -0.7476 H   0  0  0  0  0  0  0  0  0  0  0  0
   -0.9386   -1.8144   -0.2029 H   0  0  0  0  0  0  0  0  0  0  0  0
    0.0042   -0.9716   -2.2792 H   0  0  0  0  0  0  0  0  0  0  0  0
   -1.4723   -1.8769   -2.6040 H   0  0  0  0  0  0  0  0  0  0  0  0
   -1.4832   -0.1128   -2.6865 H   0  0  0  0  0  0  0  0  0  0  0  0
   -0.7063   -0.6769    2.0345 H   0  0  0  0  0  0  0  0  0  0  0  0
   -0.9128    1.0594    2.1726 H   0  0  0  0  0  0  0  0  0  0  0  0
    6.7699    0.6486    0.4633 H   0  0  0  0  0  0  0  0  0  0  0  0
    6.6463   -0.2834   -1.0693 H   0  0  0  0  0  0  0  0  0  0  0  0
    6.7270    1.5007   -1.1092 H   0  0  0  0  0  0  0  0  0  0  0  0
  1  2  1  0
  2  3  2  0
  3  4  1  0
  4  5  2  0
  4  6  1  0
  7  6  1  1
  7  8  1  0
  8  9  1  0
  9 10  1  0
 10 11  1  0
 11 12  1  0
 12 13  1  0
 13 14  1  0
 13 15  1  0
 15 16  1  0
 11 17  1  0
  3 18  1  0
 18 19  2  0
 19 20  1  0
 20 21  1  0
 20  2  1  0
 15  7  1  0
 17  7  1  0
 14  9  1  0
  1 22  1  0
  1 23  1  0
  1 24  1  0
  6 25  1  0
  8 26  1  0
  8 27  1  0
  9 28  1  6
 10 29  1  0
 10 30  1  0
 11 31  1  1
 12 32  1  0
 12 33  1  0
 13 34  1  6
 14 35  1  0
 14 36  1  0
 15 37  1  1
 16 38  1  0
 16 39  1  0
 16 40  1  0
 17 41  1  0
 17 42  1  0
 21 43  1  0
 21 44  1  0
 21 45  1  0
M  END
>  <_SMILES>  (71) 
Cc1c(C(=O)N[C@@]23C[C@@H]4C[C@@H](C[C@@H](C4)[C@H]2C)C3)nnn1C

$$$$

     RDKit          3D

 47 50  0  0  0  0  0  0  0  0999 V2000
    2.5136   -0.7699    2.2651 C   0  0  0  0  0  0  0  0  0  0  0  0
    3.2610   -0.6173    0.9899 C   0  0  0  0  0  0  0  0  0  0  0  0
    2.7385   -0.6495   -0.3469 C   0  0  0  0  0  0  0  0  0  0  0  0
    1.3332   -0.8016   -0.7806 C   0  0  0  0  0  0  0  0  0  0  0  0
    1.0066   -1.5151   -1.7224 O   0  0  0  0  0  0  0  0  0  0  0  0
    0.4393   -0.0422   -0.0420 N   0  0  0  0  0  0  0  0  0  0  0  0
   -0.9919    0.0945   -0.3467 C   0  0  1  0  0  0  0  0  0  0  0  0
   -1.7253   -1.2739   -0.3730 C   0  0  0  0  0  0  0  0  0  0  0  0
   -3.2208   -1.0867   -0.6860 C   0  0  2  0  0  0  0  0  0  0  0  0
   -3.3664   -0.4101   -2.0596 C   0  0  0  0  0  0  0  0  0  0  0  0
   -2.6803    0.9654   -2.0433 C   0  0  1  0  0  0  0  0  0  0  0  0
   -3.3255    1.8425   -0.9601 C   0  0  0  0  0  0  0  0  0  0  0  0
   -3.1734    1.1754    0.4190 C   0  0  1  0  0  0  0  0  0  0  0  0
   -3.8704   -0.1960    0.3825 C   0  0  0  0  0  0  0  0  0  0  0  0
   -1.6638    1.0155    0.7338 C   0  0  1  0  0  0  0  0  0  0  0  0
   -1.4443    0.5516    2.1822 C   0  0  0  0  0  0  0  0  0  0  0  0
   -1.1868    0.7812   -1.7271 C   0  0  0  0  0  0  0  0  0  0  0  0
    3.7279   -0.5113   -1.2480 N   0  0  0  0  0  0  0  0  0  0  0  0
    4.8471   -0.4014   -0.5175 N   0  0  0  0  0  0  0  0  0  0  0  0
    6.1192   -0.2553   -1.1888 C   0  0  0  0  0  0  0  0  0  0  0  0
    4.6238   -0.4404    0.8272 C   0  0  0  0  0  0  0  0  0  0  0  0
    5.6356   -0.3300    1.8175 C   0  0  0  0  0  0  0  0  0  0  0  0
    6.4719   -0.2316    2.6143 N   0  0  0  0  0  0  0  0  0  0  0  0
    1.6522   -1.4338    2.1419 H   0  0  0  0  0  0  0  0  0  0  0  0
    3.1459   -1.2006    3.0482 H   0  0  0  0  0  0  0  0  0  0  0  0
    2.1566    0.2045    2.6127 H   0  0  0  0  0  0  0  0  0  0  0  0
    0.8591    0.7048    0.4948 H   0  0  0  0  0  0  0  0  0  0  0  0
   -1.6007   -1.8011    0.5801 H   0  0  0  0  0  0  0  0  0  0  0  0
   -1.2965   -1.9353   -1.1341 H   0  0  0  0  0  0  0  0  0  0  0  0
   -3.7180   -2.0631   -0.7037 H   0  0  0  0  0  0  0  0  0  0  0  0
   -2.9227   -1.0421   -2.8387 H   0  0  0  0  0  0  0  0  0  0  0  0
   -4.4283   -0.2957   -2.3100 H   0  0  0  0  0  0  0  0  0  0  0  0
   -2.7932    1.4453   -3.0219 H   0  0  0  0  0  0  0  0  0  0  0  0
   -4.3879    1.9961   -1.1866 H   0  0  0  0  0  0  0  0  0  0  0  0
   -2.8573    2.8344   -0.9516 H   0  0  0  0  0  0  0  0  0  0  0  0
   -3.6503    1.8087    1.1764 H   0  0  0  0  0  0  0  0  0  0  0  0
   -3.8214   -0.6841    1.3620 H   0  0  0  0  0  0  0  0  0  0  0  0
   -4.9364   -0.0640    0.1580 H   0  0  0  0  0  0  0  0  0  0  0  0
   -1.2002    2.0113    0.6687 H   0  0  0  0  0  0  0  0  0  0  0  0
   -0.3838    0.5855    2.4488 H   0  0  0  0  0  0  0  0  0  0  0  0
   -1.9705    1.2150    2.8775 H   0  0  0  0  0  0  0  0  0  0  0  0
   -1.7983   -0.4660    2.3636 H   0  0  0  0  0  0  0  0  0  0  0  0
   -0.7235    0.1899   -2.5260 H   0  0  0  0  0  0  0  0  0  0  0  0
   -0.6808    1.7557   -1.7376 H   0  0  0  0  0  0  0  0  0  0  0  0
    6.7705   -1.0761   -0.8786 H   0  0  0  0  0  0  0  0  0  0  0  0
    5.9679   -0.2925   -2.2709 H   0  0  0  0  0  0  0  0  0  0  0  0
    6.5484    0.7095   -0.9072 H   0  0  0  0  0  0  0  0  0  0  0  0
  1  2  1  0
  2  3  1  0
  3  4  1  0
  4  5  2  0
  4  6  1  0
  7  6  1  1
  7  8  1  0
  8  9  1  0
  9 10  1  0
 10 11  1  0
 11 12  1  0
 12 13  1  0
 13 14  1  0
 13 15  1  0
 15 16  1  0
 11 17  1  0
  3 18  2  0
 18 19  1  0
 19 20  1  0
 19 21  1  0
 21 22  1  0
 22 23  3  0
 21  2  2  0
 15  7  1  0
 17  7  1  0
 14  9  1  0
  1 24  1  0
  1 25  1  0
  1 26  1  0
  6 27  1  0
  8 28  1  0
  8 29  1  0
  9 30  1  6
 10 31  1  0
 10 32  1  0
 11 33  1  6
 12 34  1  0
 12 35  1  0
 13 36  1  1
 14 37  1  0
 14 38  1  0
 15 39  1  1
 16 40  1  0
 16 41  1  0
 16 42  1  0
 17 43  1  0
 17 44  1  0
 20 45  1  0
 20 46  1  0
 20 47  1  0
M  END
>  <_SMILES>  (72) 
Cc1c(C(=O)N[C@@]23C[C@@H]4C[C@@H](C[C@@H](C4)[C@H]2C)C3)nn(C)c1C#N

$$$$

     RDKit          3D

 51 53  0  0  0  0  0  0  0  0999 V2000
   -1.1358    1.0259    2.9513 C   0  0  0  0  0  0  0  0  0  0  0  0
   -1.1858    0.5916    1.5312 C   0  0  0  0  0  0  0  0  0  0  0  0
   -0.0741    0.4087    0.6566 C   0  0  0  0  0  0  0  0  0  0  0  0
    1.3582    0.5969    0.9594 C   0  0  0  0  0  0  0  0  0  0  0  0
    1.7818    0.8994    2.0708 O   0  0  0  0  0  0  0  0  0  0  0  0
    2.1694    0.3800   -0.1354 N   0  0  0  0  0  0  0  0  0  0  0  0
    3.6128    0.3006   -0.0431 C   0  0  0  0  0  0  0  0  0  0  0  0
    4.0519   -1.0669    0.5090 C   0  0  0  0  0  0  0  0  0  0  0  0
    5.4534   -1.4876    0.0593 C   0  0  0  0  0  0  0  0  0  0  0  0
    6.3495   -0.2870   -0.2095 C   0  0  0  0  0  0  0  0  0  0  0  0
    5.7840    0.6084   -1.3133 C   0  0  0  0  0  0  0  0  0  0  0  0
    4.2564    0.5828   -1.4003 C   0  0  0  0  0  0  0  0  0  0  0  0
   -0.4768    0.0083   -0.5664 N   0  0  0  0  0  0  0  0  0  0  0  0
   -1.8214   -0.0633   -0.4721 N   0  0  0  0  0  0  0  0  0  0  0  0
   -2.5921   -0.4829   -1.6428 C   0  0  0  0  0  0  0  0  0  0  0  0
   -2.1725   -1.8732   -2.1220 C   0  0  0  0  0  0  0  0  0  0  0  0
   -2.4912    0.5481   -2.7666 C   0  0  0  0  0  0  0  0  0  0  0  0
   -2.3024    0.2844    0.7686 C   0  0  0  0  0  0  0  0  0  0  0  0
   -3.7133    0.2988    1.1315 C   0  0  0  0  0  0  0  0  0  0  0  0
   -4.5034    1.4173    0.8443 C   0  0  0  0  0  0  0  0  0  0  0  0
   -5.8564    1.4271    1.1873 C   0  0  0  0  0  0  0  0  0  0  0  0
   -6.4234    0.3219    1.8211 C   0  0  0  0  0  0  0  0  0  0  0  0
   -5.6388   -0.7928    2.1158 C   0  0  0  0  0  0  0  0  0  0  0  0
   -4.2856   -0.8045    1.7736 C   0  0  0  0  0  0  0  0  0  0  0  0
   -0.6361    1.9961    3.0374 H   0  0  0  0  0  0  0  0  0  0  0  0
   -0.5866    0.2956    3.5541 H   0  0  0  0  0  0  0  0  0  0  0  0
   -2.1363    1.1294    3.3823 H   0  0  0  0  0  0  0  0  0  0  0  0
    1.6783    0.0083   -0.9457 H   0  0  0  0  0  0  0  0  0  0  0  0
    3.9363    1.0776    0.6624 H   0  0  0  0  0  0  0  0  0  0  0  0
    4.0159   -1.0294    1.6054 H   0  0  0  0  0  0  0  0  0  0  0  0
    3.3438   -1.8531    0.2163 H   0  0  0  0  0  0  0  0  0  0  0  0
    5.3750   -2.0884   -0.8557 H   0  0  0  0  0  0  0  0  0  0  0  0
    5.9039   -2.1357    0.8195 H   0  0  0  0  0  0  0  0  0  0  0  0
    7.3571   -0.6182   -0.4852 H   0  0  0  0  0  0  0  0  0  0  0  0
    6.4549    0.2964    0.7139 H   0  0  0  0  0  0  0  0  0  0  0  0
    6.1289    1.6354   -1.1426 H   0  0  0  0  0  0  0  0  0  0  0  0
    6.1956    0.3061   -2.2840 H   0  0  0  0  0  0  0  0  0  0  0  0
    3.9471   -0.1888   -2.1184 H   0  0  0  0  0  0  0  0  0  0  0  0
    3.8984    1.5353   -1.8102 H   0  0  0  0  0  0  0  0  0  0  0  0
   -3.6423   -0.5453   -1.3389 H   0  0  0  0  0  0  0  0  0  0  0  0
   -2.8177   -2.2103   -2.9402 H   0  0  0  0  0  0  0  0  0  0  0  0
   -2.2474   -2.6045   -1.3095 H   0  0  0  0  0  0  0  0  0  0  0  0
   -1.1387   -1.8828   -2.4845 H   0  0  0  0  0  0  0  0  0  0  0  0
   -2.8067    1.5376   -2.4177 H   0  0  0  0  0  0  0  0  0  0  0  0
   -3.1326    0.2667   -3.6084 H   0  0  0  0  0  0  0  0  0  0  0  0
   -1.4654    0.6393   -3.1405 H   0  0  0  0  0  0  0  0  0  0  0  0
   -4.0677    2.2872    0.3582 H   0  0  0  0  0  0  0  0  0  0  0  0
   -6.4665    2.2988    0.9650 H   0  0  0  0  0  0  0  0  0  0  0  0
   -7.4764    0.3315    2.0912 H   0  0  0  0  0  0  0  0  0  0  0  0
   -6.0795   -1.6513    2.6159 H   0  0  0  0  0  0  0  0  0  0  0  0
   -3.6798   -1.6757    2.0123 H   0  0  0  0  0  0  0  0  0  0  0  0
  1  2  1  0
  2  3  1  0
  3  4  1  0
  4  5  2  0
  4  6  1  0
  6  7  1  0
  7  8  1  0
  8  9  1  0
  9 10  1  0
 10 11  1  0
 11 12  1  0
  3 13  2  0
 13 14  1  0
 14 15  1  0
 15 16  1  0
 15 17  1  0
 14 18  1  0
 18 19  1  0
 19 20  2  0
 20 21  1  0
 21 22  2  0
 22 23  1  0
 23 24  2  0
 18  2  2  0
 24 19  1  0
 12  7  1  0
  1 25  1  0
  1 26  1  0
  1 27  1  0
  6 28  1  0
  7 29  1  0
  8 30  1  0
  8 31  1  0
  9 32  1  0
  9 33  1  0
 10 34  1  0
 10 35  1  0
 11 36  1  0
 11 37  1  0
 12 38  1  0
 12 39  1  0
 15 40  1  0
 16 41  1  0
 16 42  1  0
 16 43  1  0
 17 44  1  0
 17 45  1  0
 17 46  1  0
 20 47  1  0
 21 48  1  0
 22 49  1  0
 23 50  1  0
 24 51  1  0
M  END
>  <_SMILES>  (73) 
Cc1c(C(=O)NC2CCCCC2)nn(C(C)C)c1-c1ccccc1

$$$$

     RDKit          3D

 48 52  0  0  0  0  0  0  0  0999 V2000
   -0.5310    2.2040   -0.5300 O   0  0  0  0  0  0  0  0  0  0  0  0
   -0.0736    1.0976   -0.2683 C   0  0  0  0  0  0  0  0  0  0  0  0
   -0.8299   -0.0140    0.0447 N   0  0  0  0  0  0  0  0  0  0  0  0
   -2.2910   -0.0593    0.1141 C   0  0  2  0  0  0  0  0  0  0  0  0
   -2.9381    0.2833   -1.2507 C   0  0  0  0  0  0  0  0  0  0  0  0
   -4.4713    0.1814   -1.1635 C   0  0  1  0  0  0  0  0  0  0  0  0
   -4.8639   -1.2527   -0.7748 C   0  0  0  0  0  0  0  0  0  0  0  0
   -4.2517   -1.6133    0.5878 C   0  0  2  0  0  0  0  0  0  0  0  0
   -4.7681   -0.6337    1.6532 C   0  0  0  0  0  0  0  0  0  0  0  0
   -4.3748    0.8040    1.2788 C   0  0  2  0  0  0  0  0  0  0  0  0
   -4.9831    1.1564   -0.0894 C   0  0  0  0  0  0  0  0  0  0  0  0
   -2.8416    0.9062    1.1928 C   0  0  0  0  0  0  0  0  0  0  0  0
   -2.7215   -1.5003    0.4986 C   0  0  0  0  0  0  0  0  0  0  0  0
    1.4009    0.8717   -0.2724 C   0  0  0  0  0  0  0  0  0  0  0  0
    2.2818    1.8952   -0.5682 C   0  0  0  0  0  0  0  0  0  0  0  0
    3.6469    1.6141   -0.5542 C   0  0  0  0  0  0  0  0  0  0  0  0
    4.0804    0.3255   -0.2496 C   0  0  0  0  0  0  0  0  0  0  0  0
    5.5011   -0.0716   -0.2076 C   0  0  0  0  0  0  0  0  0  0  0  0
    5.9386   -1.0862    0.6655 C   0  0  0  0  0  0  0  0  0  0  0  0
    7.2811   -1.4728    0.7236 C   0  0  0  0  0  0  0  0  0  0  0  0
    8.2194   -0.8549   -0.0964 C   0  0  0  0  0  0  0  0  0  0  0  0
    7.8152    0.1449   -0.9757 C   0  0  0  0  0  0  0  0  0  0  0  0
    6.4713    0.5303   -1.0313 C   0  0  0  0  0  0  0  0  0  0  0  0
    3.1756   -0.6437    0.0410 N   0  0  0  0  0  0  0  0  0  0  0  0
    1.8268   -0.3763    0.0295 N   0  0  0  0  0  0  0  0  0  0  0  0
   -0.3080   -0.8659    0.2359 H   0  0  0  0  0  0  0  0  0  0  0  0
   -2.6652    1.2960   -1.5702 H   0  0  0  0  0  0  0  0  0  0  0  0
   -2.5622   -0.3953   -2.0276 H   0  0  0  0  0  0  0  0  0  0  0  0
   -4.9134    0.4349   -2.1335 H   0  0  0  0  0  0  0  0  0  0  0  0
   -4.5166   -1.9571   -1.5405 H   0  0  0  0  0  0  0  0  0  0  0  0
   -5.9562   -1.3434   -0.7308 H   0  0  0  0  0  0  0  0  0  0  0  0
   -4.5321   -2.6370    0.8598 H   0  0  0  0  0  0  0  0  0  0  0  0
   -4.3517   -0.8928    2.6344 H   0  0  0  0  0  0  0  0  0  0  0  0
   -5.8587   -0.7138    1.7389 H   0  0  0  0  0  0  0  0  0  0  0  0
   -4.7485    1.4987    2.0393 H   0  0  0  0  0  0  0  0  0  0  0  0
   -6.0778    1.1107   -0.0346 H   0  0  0  0  0  0  0  0  0  0  0  0
   -4.7208    2.1860   -0.3623 H   0  0  0  0  0  0  0  0  0  0  0  0
   -2.5651    1.9431    0.9682 H   0  0  0  0  0  0  0  0  0  0  0  0
   -2.3964    0.6746    2.1693 H   0  0  0  0  0  0  0  0  0  0  0  0
   -2.2730   -1.7842    1.4601 H   0  0  0  0  0  0  0  0  0  0  0  0
   -2.3402   -2.2178   -0.2404 H   0  0  0  0  0  0  0  0  0  0  0  0
    1.9186    2.8912   -0.8001 H   0  0  0  0  0  0  0  0  0  0  0  0
    4.3538    2.4101   -0.7647 H   0  0  0  0  0  0  0  0  0  0  0  0
    5.2256   -1.5875    1.3193 H   0  0  0  0  0  0  0  0  0  0  0  0
    7.5888   -2.2584    1.4091 H   0  0  0  0  0  0  0  0  0  0  0  0
    9.2628   -1.1563   -0.0543 H   0  0  0  0  0  0  0  0  0  0  0  0
    8.5443    0.6228   -1.6254 H   0  0  0  0  0  0  0  0  0  0  0  0
    6.1925    1.3000   -1.7476 H   0  0  0  0  0  0  0  0  0  0  0  0
  1  2  2  0
  2  3  1  0
  4  3  1  6
  4  5  1  0
  5  6  1  0
  6  7  1  0
  7  8  1  0
  8  9  1  0
  9 10  1  0
 10 11  1  0
 10 12  1  0
  8 13  1  0
  2 14  1  0
 14 15  2  0
 15 16  1  0
 16 17  2  0
 17 18  1  0
 18 19  2  0
 19 20  1  0
 20 21  2  0
 21 22  1  0
 22 23  2  0
 17 24  1  0
 24 25  2  0
 12  4  1  0
 25 14  1  0
 13  4  1  0
 23 18  1  0
 11  6  1  0
  3 26  1  0
  5 27  1  0
  5 28  1  0
  6 29  1  6
  7 30  1  0
  7 31  1  0
  8 32  1  1
  9 33  1  0
  9 34  1  0
 10 35  1  1
 11 36  1  0
 11 37  1  0
 12 38  1  0
 12 39  1  0
 13 40  1  0
 13 41  1  0
 15 42  1  0
 16 43  1  0
 19 44  1  0
 20 45  1  0
 21 46  1  0
 22 47  1  0
 23 48  1  0
M  END
>  <_SMILES>  (74) 
O=C(N[C@]12C[C@H]3C[C@H](C[C@H](C3)C1)C2)c1ccc(-c2ccccc2)nn1

$$$$

     RDKit          3D

 45 49  0  0  0  0  0  0  0  0999 V2000
    0.3319    0.8258    1.1394 O   0  0  0  0  0  0  0  0  0  0  0  0
    0.5117    0.1383    0.1374 C   0  0  0  0  0  0  0  0  0  0  0  0
   -0.5307   -0.3401   -0.6416 N   0  0  0  0  0  0  0  0  0  0  0  0
   -1.9558   -0.1084   -0.3996 C   0  0  2  0  0  0  0  0  0  0  0  0
   -2.4075   -0.6891    0.9636 C   0  0  0  0  0  0  0  0  0  0  0  0
   -3.9179   -0.4769    1.1688 C   0  0  1  0  0  0  0  0  0  0  0  0
   -4.2291    1.0288    1.1187 C   0  0  0  0  0  0  0  0  0  0  0  0
   -3.8188    1.6094   -0.2454 C   0  0  2  0  0  0  0  0  0  0  0  0
   -4.5900    0.8826   -1.3583 C   0  0  0  0  0  0  0  0  0  0  0  0
   -4.2758   -0.6210   -1.3183 C   0  0  2  0  0  0  0  0  0  0  0  0
   -4.6885   -1.1913    0.0475 C   0  0  0  0  0  0  0  0  0  0  0  0
   -2.7651   -0.8255   -1.5141 C   0  0  0  0  0  0  0  0  0  0  0  0
   -2.3083    1.3990   -0.4518 C   0  0  0  0  0  0  0  0  0  0  0  0
    1.8224   -0.2512   -0.3458 C   0  0  0  0  0  0  0  0  0  0  0  0
    2.0734   -0.9864   -1.4133 N   0  0  0  0  0  0  0  0  0  0  0  0
    3.4472   -1.1001   -1.4847 N   0  0  0  0  0  0  0  0  0  0  0  0
    3.9372   -0.4287   -0.4592 C   0  0  0  0  0  0  0  0  0  0  0  0
    5.3203   -0.2180   -0.0509 C   0  0  0  0  0  0  0  0  0  0  0  0
    6.3610   -0.7802   -0.8065 C   0  0  0  0  0  0  0  0  0  0  0  0
    7.6957   -0.5938   -0.4371 C   0  0  0  0  0  0  0  0  0  0  0  0
    8.0070    0.1579    0.6935 C   0  0  0  0  0  0  0  0  0  0  0  0
    6.9863    0.7230    1.4548 C   0  0  0  0  0  0  0  0  0  0  0  0
    5.6511    0.5365    1.0854 C   0  0  0  0  0  0  0  0  0  0  0  0
    2.9574    0.1407    0.3125 O   0  0  0  0  0  0  0  0  0  0  0  0
   -0.2617   -0.8986   -1.4470 H   0  0  0  0  0  0  0  0  0  0  0  0
   -2.1702   -1.7598    1.0149 H   0  0  0  0  0  0  0  0  0  0  0  0
   -1.8658   -0.2155    1.7907 H   0  0  0  0  0  0  0  0  0  0  0  0
   -4.2187   -0.8842    2.1406 H   0  0  0  0  0  0  0  0  0  0  0  0
   -5.3000    1.1948    1.2886 H   0  0  0  0  0  0  0  0  0  0  0  0
   -3.6950    1.5488    1.9234 H   0  0  0  0  0  0  0  0  0  0  0  0
   -4.0493    2.6802   -0.2755 H   0  0  0  0  0  0  0  0  0  0  0  0
   -5.6679    1.0438   -1.2343 H   0  0  0  0  0  0  0  0  0  0  0  0
   -4.3166    1.2973   -2.3363 H   0  0  0  0  0  0  0  0  0  0  0  0
   -4.8253   -1.1348   -2.1149 H   0  0  0  0  0  0  0  0  0  0  0  0
   -4.4860   -2.2689    0.0810 H   0  0  0  0  0  0  0  0  0  0  0  0
   -5.7681   -1.0656    0.1955 H   0  0  0  0  0  0  0  0  0  0  0  0
   -2.5347   -1.8994   -1.5161 H   0  0  0  0  0  0  0  0  0  0  0  0
   -2.4657   -0.4469   -2.5007 H   0  0  0  0  0  0  0  0  0  0  0  0
   -1.9999    1.8254   -1.4154 H   0  0  0  0  0  0  0  0  0  0  0  0
   -1.7626    1.9565    0.3184 H   0  0  0  0  0  0  0  0  0  0  0  0
    6.1366   -1.3710   -1.6937 H   0  0  0  0  0  0  0  0  0  0  0  0
    8.4904   -1.0358   -1.0330 H   0  0  0  0  0  0  0  0  0  0  0  0
    9.0452    0.3033    0.9814 H   0  0  0  0  0  0  0  0  0  0  0  0
    7.2278    1.3100    2.3377 H   0  0  0  0  0  0  0  0  0  0  0  0
    4.8727    0.9887    1.6973 H   0  0  0  0  0  0  0  0  0  0  0  0
  1  2  2  0
  2  3  1  0
  4  3  1  6
  4  5  1  0
  5  6  1  0
  6  7  1  0
  7  8  1  0
  8  9  1  0
  9 10  1  0
 10 11  1  0
 10 12  1  0
  8 13  1  0
  2 14  1  0
 14 15  2  0
 15 16  1  0
 16 17  2  0
 17 18  1  0
 18 19  2  0
 19 20  1  0
 20 21  2  0
 21 22  1  0
 22 23  2  0
 17 24  1  0
 12  4  1  0
 24 14  1  0
 13  4  1  0
 23 18  1  0
 11  6  1  0
  3 25  1  0
  5 26  1  0
  5 27  1  0
  6 28  1  1
  7 29  1  0
  7 30  1  0
  8 31  1  1
  9 32  1  0
  9 33  1  0
 10 34  1  6
 11 35  1  0
 11 36  1  0
 12 37  1  0
 12 38  1  0
 13 39  1  0
 13 40  1  0
 19 41  1  0
 20 42  1  0
 21 43  1  0
 22 44  1  0
 23 45  1  0
M  END
>  <_SMILES>  (75) 
O=C(N[C@]12C[C@H]3C[C@H](C[C@H](C3)C1)C2)c1nnc(-c2ccccc2)o1

$$$$

     RDKit          3D

 51 55  0  0  0  0  0  0  0  0999 V2000
    4.5395    1.4140    1.8498 C   0  0  0  0  0  0  0  0  0  0  0  0
    3.4872    0.7248    1.0308 C   0  0  0  0  0  0  0  0  0  0  0  0
    2.1376    1.0186    1.2613 C   0  0  0  0  0  0  0  0  0  0  0  0
    1.1755    0.3874    0.4920 C   0  0  0  0  0  0  0  0  0  0  0  0
   -0.2769    0.6669    0.6902 C   0  0  0  0  0  0  0  0  0  0  0  0
   -0.6435    1.4654    1.5445 O   0  0  0  0  0  0  0  0  0  0  0  0
   -1.1217   -0.0338   -0.1472 N   0  0  0  0  0  0  0  0  0  0  0  0
   -2.5823    0.0558   -0.1548 C   0  0  2  0  0  0  0  0  0  0  0  0
   -3.0648    1.4896   -0.4869 C   0  0  0  0  0  0  0  0  0  0  0  0
   -4.6019    1.5456   -0.5361 C   0  0  1  0  0  0  0  0  0  0  0  0
   -5.1108    0.5870   -1.6242 C   0  0  0  0  0  0  0  0  0  0  0  0
   -4.6637   -0.8491   -1.3090 C   0  0  2  0  0  0  0  0  0  0  0  0
   -5.2332   -1.2720    0.0541 C   0  0  0  0  0  0  0  0  0  0  0  0
   -4.7251   -0.3243    1.1520 C   0  0  2  0  0  0  0  0  0  0  0  0
   -5.1681    1.1125    0.8269 C   0  0  0  0  0  0  0  0  0  0  0  0
   -3.1880   -0.3812    1.2021 C   0  0  0  0  0  0  0  0  0  0  0  0
   -3.1286   -0.8978   -1.2510 C   0  0  0  0  0  0  0  0  0  0  0  0
    1.4950   -0.5045   -0.4727 N   0  0  0  0  0  0  0  0  0  0  0  0
    2.8129   -0.8071   -0.6933 N   0  0  0  0  0  0  0  0  0  0  0  0
    3.7923   -0.2221    0.0455 C   0  0  0  0  0  0  0  0  0  0  0  0
    5.1532   -0.6597   -0.2921 C   0  0  0  0  0  0  0  0  0  0  0  0
    5.9725   -1.3044    0.6503 C   0  0  0  0  0  0  0  0  0  0  0  0
    7.2662   -1.7149    0.3172 C   0  0  0  0  0  0  0  0  0  0  0  0
    7.7589   -1.4940   -0.9666 C   0  0  0  0  0  0  0  0  0  0  0  0
    6.9581   -0.8698   -1.9197 C   0  0  0  0  0  0  0  0  0  0  0  0
    5.6648   -0.4601   -1.5856 C   0  0  0  0  0  0  0  0  0  0  0  0
    5.3803    1.7308    1.2245 H   0  0  0  0  0  0  0  0  0  0  0  0
    4.1412    2.3184    2.3230 H   0  0  0  0  0  0  0  0  0  0  0  0
    4.9008    0.7501    2.6409 H   0  0  0  0  0  0  0  0  0  0  0  0
    1.8382    1.7333    2.0226 H   0  0  0  0  0  0  0  0  0  0  0  0
   -0.6701   -0.6648   -0.8050 H   0  0  0  0  0  0  0  0  0  0  0  0
   -2.7052    2.2068    0.2604 H   0  0  0  0  0  0  0  0  0  0  0  0
   -2.6480    1.8146   -1.4493 H   0  0  0  0  0  0  0  0  0  0  0  0
   -4.9265    2.5672   -0.7633 H   0  0  0  0  0  0  0  0  0  0  0  0
   -4.7251    0.8935   -2.6042 H   0  0  0  0  0  0  0  0  0  0  0  0
   -6.2051    0.6344   -1.6837 H   0  0  0  0  0  0  0  0  0  0  0  0
   -5.0265   -1.5286   -2.0882 H   0  0  0  0  0  0  0  0  0  0  0  0
   -4.9356   -2.3030    0.2816 H   0  0  0  0  0  0  0  0  0  0  0  0
   -6.3296   -1.2566    0.0235 H   0  0  0  0  0  0  0  0  0  0  0  0
   -5.1370   -0.6276    2.1210 H   0  0  0  0  0  0  0  0  0  0  0  0
   -4.8229    1.7976    1.6110 H   0  0  0  0  0  0  0  0  0  0  0  0
   -6.2634    1.1715    0.8124 H   0  0  0  0  0  0  0  0  0  0  0  0
   -2.8331    0.2633    2.0150 H   0  0  0  0  0  0  0  0  0  0  0  0
   -2.8598   -1.3988    1.4517 H   0  0  0  0  0  0  0  0  0  0  0  0
   -2.7985   -1.9268   -1.0548 H   0  0  0  0  0  0  0  0  0  0  0  0
   -2.7126   -0.6247   -2.2301 H   0  0  0  0  0  0  0  0  0  0  0  0
    5.6008   -1.5053    1.6531 H   0  0  0  0  0  0  0  0  0  0  0  0
    7.8854   -2.2140    1.0583 H   0  0  0  0  0  0  0  0  0  0  0  0
    8.7636   -1.8167   -1.2274 H   0  0  0  0  0  0  0  0  0  0  0  0
    7.3357   -0.7057   -2.9257 H   0  0  0  0  0  0  0  0  0  0  0  0
    5.0484    0.0185   -2.3451 H   0  0  0  0  0  0  0  0  0  0  0  0
  1  2  1  0
  2  3  1  0
  3  4  2  0
  4  5  1  0
  5  6  2  0
  5  7  1  0
  8  7  1  1
  8  9  1  0
  9 10  1  0
 10 11  1  0
 11 12  1  0
 12 13  1  0
 13 14  1  0
 14 15  1  0
 14 16  1  0
 12 17  1  0
  4 18  1  0
 18 19  2  0
 19 20  1  0
 20 21  1  0
 21 22  2  0
 22 23  1  0
 23 24  2  0
 24 25  1  0
 25 26  2  0
 20  2  2  0
 26 21  1  0
 16  8  1  0
 17  8  1  0
 15 10  1  0
  1 27  1  0
  1 28  1  0
  1 29  1  0
  3 30  1  0
  7 31  1  0
  9 32  1  0
  9 33  1  0
 10 34  1  6
 11 35  1  0
 11 36  1  0
 12 37  1  6
 13 38  1  0
 13 39  1  0
 14 40  1  1
 15 41  1  0
 15 42  1  0
 16 43  1  0
 16 44  1  0
 17 45  1  0
 17 46  1  0
 22 47  1  0
 23 48  1  0
 24 49  1  0
 25 50  1  0
 26 51  1  0
M  END
>  <_SMILES>  (76) 
Cc1cc(C(=O)N[C@]23C[C@H]4C[C@H](C[C@H](C4)C2)C3)nnc1-c1ccccc1

$$$$

     RDKit          3D

 56 60  0  0  0  0  0  0  0  0999 V2000
    4.3413    3.0320   -0.6136 C   0  0  0  0  0  0  0  0  0  0  0  0
    4.1629    1.8313   -1.5257 C   0  0  0  0  0  0  0  0  0  0  0  0
    3.0710    0.9736   -1.0985 N   0  0  0  0  0  0  0  0  0  0  0  0
    1.8256    1.2752   -1.5015 N   0  0  0  0  0  0  0  0  0  0  0  0
    1.0498    0.3112   -0.9787 C   0  0  0  0  0  0  0  0  0  0  0  0
   -0.4113    0.3088   -1.1995 C   0  0  0  0  0  0  0  0  0  0  0  0
   -0.9231    0.5798   -2.2810 O   0  0  0  0  0  0  0  0  0  0  0  0
   -1.1422    0.0003   -0.0633 N   0  0  0  0  0  0  0  0  0  0  0  0
   -2.6039    0.0370    0.0217 C   0  0  2  0  0  0  0  0  0  0  0  0
   -3.0164   -0.4048    1.4526 C   0  0  0  0  0  0  0  0  0  0  0  0
   -4.5440   -0.3839    1.6191 C   0  0  1  0  0  0  0  0  0  0  0  0
   -5.0595    1.0408    1.3616 C   0  0  0  0  0  0  0  0  0  0  0  0
   -4.6860    1.4854   -0.0614 C   0  0  2  0  0  0  0  0  0  0  0  0
   -5.3115    0.5136   -1.0766 C   0  0  0  0  0  0  0  0  0  0  0  0
   -4.8007   -0.9156   -0.8263 C   0  0  2  0  0  0  0  0  0  0  0  0
   -5.1746   -1.3456    0.6005 C   0  0  0  0  0  0  0  0  0  0  0  0
   -3.2695   -0.9399   -0.9810 C   0  0  0  0  0  0  0  0  0  0  0  0
   -3.1549    1.4642   -0.2158 C   0  0  0  0  0  0  0  0  0  0  0  0
    1.8366   -0.6211   -0.2254 C   0  0  0  0  0  0  0  0  0  0  0  0
    1.3702   -1.8457    0.4759 C   0  0  0  0  0  0  0  0  0  0  0  0
    3.1381   -0.1483   -0.3105 C   0  0  0  0  0  0  0  0  0  0  0  0
    4.3683   -0.6802    0.2600 C   0  0  0  0  0  0  0  0  0  0  0  0
    4.8081   -0.2464    1.5150 C   0  0  0  0  0  0  0  0  0  0  0  0
    5.9879   -0.7560    2.0600 C   0  0  0  0  0  0  0  0  0  0  0  0
    6.7297   -1.7035    1.3554 C   0  0  0  0  0  0  0  0  0  0  0  0
    6.2924   -2.1447    0.1069 C   0  0  0  0  0  0  0  0  0  0  0  0
    5.1131   -1.6358   -0.4397 C   0  0  0  0  0  0  0  0  0  0  0  0
    4.5639    2.7223    0.4124 H   0  0  0  0  0  0  0  0  0  0  0  0
    3.4348    3.6459   -0.5866 H   0  0  0  0  0  0  0  0  0  0  0  0
    5.1662    3.6579   -0.9675 H   0  0  0  0  0  0  0  0  0  0  0  0
    3.9431    2.1568   -2.5491 H   0  0  0  0  0  0  0  0  0  0  0  0
    5.0799    1.2356   -1.5651 H   0  0  0  0  0  0  0  0  0  0  0  0
   -0.6286    0.0566    0.8060 H   0  0  0  0  0  0  0  0  0  0  0  0
   -2.5563    0.2566    2.1992 H   0  0  0  0  0  0  0  0  0  0  0  0
   -2.6338   -1.4131    1.6610 H   0  0  0  0  0  0  0  0  0  0  0  0
   -4.8100   -0.6953    2.6354 H   0  0  0  0  0  0  0  0  0  0  0  0
   -6.1483    1.0745    1.4911 H   0  0  0  0  0  0  0  0  0  0  0  0
   -4.6301    1.7336    2.0957 H   0  0  0  0  0  0  0  0  0  0  0  0
   -5.0605    2.4993   -0.2414 H   0  0  0  0  0  0  0  0  0  0  0  0
   -5.0627    0.8272   -2.0979 H   0  0  0  0  0  0  0  0  0  0  0  0
   -6.4051    0.5393   -0.9934 H   0  0  0  0  0  0  0  0  0  0  0  0
   -5.2551   -1.6023   -1.5493 H   0  0  0  0  0  0  0  0  0  0  0  0
   -4.8281   -2.3695    0.7866 H   0  0  0  0  0  0  0  0  0  0  0  0
   -6.2654   -1.3525    0.7166 H   0  0  0  0  0  0  0  0  0  0  0  0
   -2.8932   -1.9588   -0.8209 H   0  0  0  0  0  0  0  0  0  0  0  0
   -3.0165   -0.6791   -2.0148 H   0  0  0  0  0  0  0  0  0  0  0  0
   -2.8905    1.8237   -1.2174 H   0  0  0  0  0  0  0  0  0  0  0  0
   -2.6985    2.1677    0.4929 H   0  0  0  0  0  0  0  0  0  0  0  0
    0.5499   -2.3229   -0.0695 H   0  0  0  0  0  0  0  0  0  0  0  0
    1.0210   -1.5964    1.4828 H   0  0  0  0  0  0  0  0  0  0  0  0
    2.1717   -2.5854    0.5678 H   0  0  0  0  0  0  0  0  0  0  0  0
    4.2344    0.4888    2.0744 H   0  0  0  0  0  0  0  0  0  0  0  0
    6.3271   -0.4158    3.0351 H   0  0  0  0  0  0  0  0  0  0  0  0
    7.6477   -2.1012    1.7809 H   0  0  0  0  0  0  0  0  0  0  0  0
    6.8683   -2.8866   -0.4404 H   0  0  0  0  0  0  0  0  0  0  0  0
    4.7775   -1.9889   -1.4123 H   0  0  0  0  0  0  0  0  0  0  0  0
  1  2  1  0
  2  3  1  0
  3  4  1  0
  4  5  2  0
  5  6  1  0
  6  7  2  0
  6  8  1  0
  9  8  1  1
  9 10  1  0
 10 11  1  0
 11 12  1  0
 12 13  1  0
 13 14  1  0
 14 15  1  0
 15 16  1  0
 15 17  1  0
 13 18  1  0
  5 19  1  0
 19 20  1  0
 19 21  2  0
 21 22  1  0
 22 23  2  0
 23 24  1  0
 24 25  2  0
 25 26  1  0
 26 27  2  0
 21  3  1  0
 27 22  1  0
 17  9  1  0
 18  9  1  0
 16 11  1  0
  1 28  1  0
  1 29  1  0
  1 30  1  0
  2 31  1  0
  2 32  1  0
  8 33  1  0
 10 34  1  0
 10 35  1  0
 11 36  1  1
 12 37  1  0
 12 38  1  0
 13 39  1  6
 14 40  1  0
 14 41  1  0
 15 42  1  6
 16 43  1  0
 16 44  1  0
 17 45  1  0
 17 46  1  0
 18 47  1  0
 18 48  1  0
 20 49  1  0
 20 50  1  0
 20 51  1  0
 23 52  1  0
 24 53  1  0
 25 54  1  0
 26 55  1  0
 27 56  1  0
M  END
>  <_SMILES>  (77) 
CCn1nc(C(=O)N[C@]23C[C@H]4C[C@H](C[C@H](C4)C2)C3)c(C)c1-c1ccccc1

$$$$

     RDKit          3D

 50 54  0  0  0  0  0  0  0  0999 V2000
    2.7767    1.7673    1.2266 C   0  0  0  0  0  0  0  0  0  0  0  0
    2.6576    0.5620    0.3654 C   0  0  0  0  0  0  0  0  0  0  0  0
    1.4441   -0.0252   -0.1143 C   0  0  0  0  0  0  0  0  0  0  0  0
    0.0572    0.4122    0.1506 C   0  0  0  0  0  0  0  0  0  0  0  0
   -0.2174    1.3687    0.8670 O   0  0  0  0  0  0  0  0  0  0  0  0
   -0.8757   -0.3743   -0.4900 N   0  0  0  0  0  0  0  0  0  0  0  0
   -2.3252   -0.2244   -0.4231 C   0  0  2  0  0  0  0  0  0  0  0  0
   -2.9757   -1.3264   -1.3011 C   0  0  0  0  0  0  0  0  0  0  0  0
   -4.5088   -1.2216   -1.2709 C   0  0  1  0  0  0  0  0  0  0  0  0
   -4.9963   -1.3800    0.1779 C   0  0  0  0  0  0  0  0  0  0  0  0
   -4.3838   -0.2813    1.0609 C   0  0  2  0  0  0  0  0  0  0  0  0
   -4.8021    1.0965    0.5197 C   0  0  0  0  0  0  0  0  0  0  0  0
   -4.3173    1.2651   -0.9304 C   0  0  2  0  0  0  0  0  0  0  0  0
   -4.9303    0.1575   -1.8019 C   0  0  0  0  0  0  0  0  0  0  0  0
   -2.7830    1.1513   -0.9677 C   0  0  0  0  0  0  0  0  0  0  0  0
   -2.8496   -0.3954    1.0241 C   0  0  0  0  0  0  0  0  0  0  0  0
    1.6969   -1.1004   -0.8912 N   0  0  0  0  0  0  0  0  0  0  0  0
    3.0348   -1.1931   -0.8889 N   0  0  0  0  0  0  0  0  0  0  0  0
    3.6704   -0.2284   -0.1553 C   0  0  0  0  0  0  0  0  0  0  0  0
    5.1212   -0.1854   -0.0182 C   0  0  0  0  0  0  0  0  0  0  0  0
    5.7121   -0.1665    1.2509 C   0  0  0  0  0  0  0  0  0  0  0  0
    7.1020   -0.1388    1.3852 C   0  0  0  0  0  0  0  0  0  0  0  0
    7.9122   -0.1287    0.2514 C   0  0  0  0  0  0  0  0  0  0  0  0
    7.3343   -0.1450   -1.0167 C   0  0  0  0  0  0  0  0  0  0  0  0
    5.9442   -0.1741   -1.1519 C   0  0  0  0  0  0  0  0  0  0  0  0
    2.1871    2.5939    0.8175 H   0  0  0  0  0  0  0  0  0  0  0  0
    3.8113    2.1148    1.3011 H   0  0  0  0  0  0  0  0  0  0  0  0
    2.4179    1.5489    2.2373 H   0  0  0  0  0  0  0  0  0  0  0  0
   -0.4658   -1.1345   -1.0291 H   0  0  0  0  0  0  0  0  0  0  0  0
   -2.6194   -1.2430   -2.3367 H   0  0  0  0  0  0  0  0  0  0  0  0
   -2.6660   -2.3201   -0.9505 H   0  0  0  0  0  0  0  0  0  0  0  0
   -4.9461   -2.0079   -1.8962 H   0  0  0  0  0  0  0  0  0  0  0  0
   -4.7169   -2.3688    0.5618 H   0  0  0  0  0  0  0  0  0  0  0  0
   -6.0912   -1.3225    0.2134 H   0  0  0  0  0  0  0  0  0  0  0  0
   -4.7375   -0.3963    2.0916 H   0  0  0  0  0  0  0  0  0  0  0  0
   -4.3821    1.8900    1.1499 H   0  0  0  0  0  0  0  0  0  0  0  0
   -5.8933    1.1995    0.5632 H   0  0  0  0  0  0  0  0  0  0  0  0
   -4.6237    2.2459   -1.3108 H   0  0  0  0  0  0  0  0  0  0  0  0
   -4.6033    0.2749   -2.8423 H   0  0  0  0  0  0  0  0  0  0  0  0
   -6.0240    0.2415   -1.8005 H   0  0  0  0  0  0  0  0  0  0  0  0
   -2.4232    1.2890   -1.9959 H   0  0  0  0  0  0  0  0  0  0  0  0
   -2.3499    1.9690   -0.3795 H   0  0  0  0  0  0  0  0  0  0  0  0
   -2.4183    0.3630    1.6883 H   0  0  0  0  0  0  0  0  0  0  0  0
   -2.5377   -1.3684    1.4261 H   0  0  0  0  0  0  0  0  0  0  0  0
    3.4662   -1.9552   -1.4002 H   0  0  0  0  0  0  0  0  0  0  0  0
    5.0935   -0.1810    2.1456 H   0  0  0  0  0  0  0  0  0  0  0  0
    7.5508   -0.1249    2.3751 H   0  0  0  0  0  0  0  0  0  0  0  0
    8.9939   -0.1040    0.3565 H   0  0  0  0  0  0  0  0  0  0  0  0
    7.9660   -0.1284   -1.9012 H   0  0  0  0  0  0  0  0  0  0  0  0
    5.5128   -0.1671   -2.1501 H   0  0  0  0  0  0  0  0  0  0  0  0
  1  2  1  0
  2  3  1  0
  3  4  1  0
  4  5  2  0
  4  6  1  0
  7  6  1  1
  7  8  1  0
  8  9  1  0
  9 10  1  0
 10 11  1  0
 11 12  1  0
 12 13  1  0
 13 14  1  0
 13 15  1  0
 11 16  1  0
  3 17  2  0
 17 18  1  0
 18 19  1  0
 19 20  1  0
 20 21  2  0
 21 22  1  0
 22 23  2  0
 23 24  1  0
 24 25  2  0
 19  2  2  0
 25 20  1  0
 15  7  1  0
 16  7  1  0
 14  9  1  0
  1 26  1  0
  1 27  1  0
  1 28  1  0
  6 29  1  0
  8 30  1  0
  8 31  1  0
  9 32  1  6
 10 33  1  0
 10 34  1  0
 11 35  1  1
 12 36  1  0
 12 37  1  0
 13 38  1  6
 14 39  1  0
 14 40  1  0
 15 41  1  0
 15 42  1  0
 16 43  1  0
 16 44  1  0
 18 45  1  0
 21 46  1  0
 22 47  1  0
 23 48  1  0
 24 49  1  0
 25 50  1  0
M  END
>  <_SMILES>  (78) 
Cc1c(C(=O)N[C@]23C[C@H]4C[C@H](C[C@H](C4)C2)C3)n[nH]c1-c1ccccc1

$$$$

     RDKit          3D

 50 54  0  0  0  0  0  0  0  0999 V2000
    1.9560   -0.1751   -1.5858 C   0  0  0  0  0  0  0  0  0  0  0  0
    2.2927   -0.7153   -0.2421 C   0  0  0  0  0  0  0  0  0  0  0  0
    3.4339   -1.5180    0.0995 C   0  0  0  0  0  0  0  0  0  0  0  0
    4.4712   -2.0564   -0.7813 C   0  0  0  0  0  0  0  0  0  0  0  0
    5.8212   -1.9572   -0.4175 C   0  0  0  0  0  0  0  0  0  0  0  0
    6.8204   -2.4634   -1.2518 C   0  0  0  0  0  0  0  0  0  0  0  0
    6.4779   -3.0803   -2.4537 C   0  0  0  0  0  0  0  0  0  0  0  0
    5.1378   -3.1976   -2.8194 C   0  0  0  0  0  0  0  0  0  0  0  0
    4.1375   -2.6909   -1.9855 C   0  0  0  0  0  0  0  0  0  0  0  0
    3.4887   -1.7347    1.4210 N   0  0  0  0  0  0  0  0  0  0  0  0
    2.4103   -1.1128    1.9066 N   0  0  0  0  0  0  0  0  0  0  0  0
    1.6178   -0.5263    0.9592 C   0  0  0  0  0  0  0  0  0  0  0  0
    0.3993    0.1379    1.3528 C   0  0  0  0  0  0  0  0  0  0  0  0
    0.1899    0.4453    2.5209 O   0  0  0  0  0  0  0  0  0  0  0  0
   -0.5111    0.3413    0.3418 N   0  0  0  0  0  0  0  0  0  0  0  0
   -1.8497    0.9135    0.5178 C   0  0  2  0  0  0  0  0  0  0  0  0
   -2.7382    0.0208    1.4184 C   0  0  0  0  0  0  0  0  0  0  0  0
   -4.1536    0.6130    1.5387 C   0  0  1  0  0  0  0  0  0  0  0  0
   -4.0626    2.0262    2.1394 C   0  0  0  0  0  0  0  0  0  0  0  0
   -3.2131    2.9336    1.2332 C   0  0  2  0  0  0  0  0  0  0  0  0
   -3.8558    3.0035   -0.1606 C   0  0  0  0  0  0  0  0  0  0  0  0
   -3.9402    1.5955   -0.7694 C   0  0  2  0  0  0  0  0  0  0  0  0
   -4.7900    0.6963    0.1422 C   0  0  0  0  0  0  0  0  0  0  0  0
   -2.5242    1.0081   -0.8783 C   0  0  0  0  0  0  0  0  0  0  0  0
   -1.7965    2.3440    1.1120 C   0  0  0  0  0  0  0  0  0  0  0  0
    1.2596   -0.8428   -2.1023 H   0  0  0  0  0  0  0  0  0  0  0  0
    1.4992    0.8167   -1.5096 H   0  0  0  0  0  0  0  0  0  0  0  0
    2.8493   -0.0607   -2.2076 H   0  0  0  0  0  0  0  0  0  0  0  0
    6.0968   -1.4847    0.5234 H   0  0  0  0  0  0  0  0  0  0  0  0
    7.8635   -2.3800   -0.9585 H   0  0  0  0  0  0  0  0  0  0  0  0
    7.2557   -3.4781   -3.1005 H   0  0  0  0  0  0  0  0  0  0  0  0
    4.8707   -3.6915   -3.7500 H   0  0  0  0  0  0  0  0  0  0  0  0
    3.0977   -2.8131   -2.2761 H   0  0  0  0  0  0  0  0  0  0  0  0
    2.2439   -1.1269    2.9084 H   0  0  0  0  0  0  0  0  0  0  0  0
   -0.3487   -0.1754   -0.5096 H   0  0  0  0  0  0  0  0  0  0  0  0
   -2.3046   -0.0778    2.4207 H   0  0  0  0  0  0  0  0  0  0  0  0
   -2.7924   -0.9954    1.0064 H   0  0  0  0  0  0  0  0  0  0  0  0
   -4.7661   -0.0249    2.1857 H   0  0  0  0  0  0  0  0  0  0  0  0
   -3.6212    1.9792    3.1425 H   0  0  0  0  0  0  0  0  0  0  0  0
   -5.0684    2.4489    2.2538 H   0  0  0  0  0  0  0  0  0  0  0  0
   -3.1581    3.9393    1.6647 H   0  0  0  0  0  0  0  0  0  0  0  0
   -4.8587    3.4422   -0.0897 H   0  0  0  0  0  0  0  0  0  0  0  0
   -3.2666    3.6597   -0.8128 H   0  0  0  0  0  0  0  0  0  0  0  0
   -4.3961    1.6496   -1.7643 H   0  0  0  0  0  0  0  0  0  0  0  0
   -5.8089    1.0956    0.2179 H   0  0  0  0  0  0  0  0  0  0  0  0
   -4.8730   -0.3074   -0.2926 H   0  0  0  0  0  0  0  0  0  0  0  0
   -1.9154    1.6283   -1.5499 H   0  0  0  0  0  0  0  0  0  0  0  0
   -2.5734    0.0136   -1.3419 H   0  0  0  0  0  0  0  0  0  0  0  0
   -1.1744    2.9918    0.4805 H   0  0  0  0  0  0  0  0  0  0  0  0
   -1.3295    2.3431    2.1034 H   0  0  0  0  0  0  0  0  0  0  0  0
  1  2  1  0
  2  3  1  0
  3  4  1  0
  4  5  2  0
  5  6  1  0
  6  7  2  0
  7  8  1  0
  8  9  2  0
  3 10  2  0
 10 11  1  0
 11 12  1  0
 12 13  1  0
 13 14  2  0
 13 15  1  0
 16 15  1  6
 16 17  1  0
 17 18  1  0
 18 19  1  0
 19 20  1  0
 20 21  1  0
 21 22  1  0
 22 23  1  0
 22 24  1  0
 20 25  1  0
 12  2  2  0
 24 16  1  0
  9  4  1  0
 25 16  1  0
 23 18  1  0
  1 26  1  0
  1 27  1  0
  1 28  1  0
  5 29  1  0
  6 30  1  0
  7 31  1  0
  8 32  1  0
  9 33  1  0
 11 34  1  0
 15 35  1  0
 17 36  1  0
 17 37  1  0
 18 38  1  1
 19 39  1  0
 19 40  1  0
 20 41  1  1
 21 42  1  0
 21 43  1  0
 22 44  1  6
 23 45  1  0
 23 46  1  0
 24 47  1  0
 24 48  1  0
 25 49  1  0
 25 50  1  0
M  END
>  <_SMILES>  (79) 
Cc1c(-c2ccccc2)n[nH]c1C(=O)N[C@]12C[C@H]3C[C@H](C[C@H](C3)C1)C2

$$$$

     RDKit          3D

 53 57  0  0  0  0  0  0  0  0999 V2000
    1.0057   -2.2949   -1.8360 C   0  0  0  0  0  0  0  0  0  0  0  0
    1.8300   -1.3549   -1.0317 C   0  0  0  0  0  0  0  0  0  0  0  0
    1.4174   -0.1279   -0.4397 C   0  0  0  0  0  0  0  0  0  0  0  0
    0.0749    0.4876   -0.4406 C   0  0  0  0  0  0  0  0  0  0  0  0
   -0.1065    1.6873   -0.6188 O   0  0  0  0  0  0  0  0  0  0  0  0
   -0.9470   -0.4148   -0.1928 N   0  0  0  0  0  0  0  0  0  0  0  0
   -2.3558   -0.0497   -0.0252 C   0  0  2  0  0  0  0  0  0  0  0  0
   -3.1690   -1.3529    0.2050 C   0  0  0  0  0  0  0  0  0  0  0  0
   -4.6626   -1.0460    0.3972 C   0  0  1  0  0  0  0  0  0  0  0  0
   -4.8348   -0.1213    1.6125 C   0  0  0  0  0  0  0  0  0  0  0  0
   -4.0600    1.1874    1.3907 C   0  0  2  0  0  0  0  0  0  0  0  0
   -4.5926    1.8837    0.1267 C   0  0  0  0  0  0  0  0  0  0  0  0
   -4.4240    0.9648   -1.0955 C   0  0  2  0  0  0  0  0  0  0  0  0
   -5.1974   -0.3414   -0.8588 C   0  0  0  0  0  0  0  0  0  0  0  0
   -2.9305    0.6454   -1.2859 C   0  0  0  0  0  0  0  0  0  0  0  0
   -2.5661    0.8689    1.2032 C   0  0  0  0  0  0  0  0  0  0  0  0
    2.4346    0.4509    0.2082 N   0  0  0  0  0  0  0  0  0  0  0  0
    3.5275   -0.3170   -0.0277 N   0  0  0  0  0  0  0  0  0  0  0  0
    4.8033    0.1608    0.4135 C   0  0  0  0  0  0  0  0  0  0  0  0
    6.0132   -0.3844   -0.0313 C   0  0  0  0  0  0  0  0  0  0  0  0
    7.2333    0.1238    0.4314 C   0  0  0  0  0  0  0  0  0  0  0  0
    7.2593    1.1860    1.3315 C   0  0  0  0  0  0  0  0  0  0  0  0
    6.0652    1.7531    1.7643 C   0  0  0  0  0  0  0  0  0  0  0  0
    4.8457    1.2495    1.3045 C   0  0  0  0  0  0  0  0  0  0  0  0
    3.1666   -1.4940   -0.6802 C   0  0  0  0  0  0  0  0  0  0  0  0
    4.0505   -2.6673   -0.9083 C   0  0  0  0  0  0  0  0  0  0  0  0
    0.5095   -3.0199   -1.1833 H   0  0  0  0  0  0  0  0  0  0  0  0
    1.6217   -2.8449   -2.5547 H   0  0  0  0  0  0  0  0  0  0  0  0
    0.2411   -1.7605   -2.4087 H   0  0  0  0  0  0  0  0  0  0  0  0
   -0.6522   -1.3007    0.1961 H   0  0  0  0  0  0  0  0  0  0  0  0
   -3.0364   -2.0353   -0.6454 H   0  0  0  0  0  0  0  0  0  0  0  0
   -2.7870   -1.8856    1.0864 H   0  0  0  0  0  0  0  0  0  0  0  0
   -5.2141   -1.9785    0.5610 H   0  0  0  0  0  0  0  0  0  0  0  0
   -5.8984    0.0951    1.7710 H   0  0  0  0  0  0  0  0  0  0  0  0
   -4.4733   -0.6220    2.5191 H   0  0  0  0  0  0  0  0  0  0  0  0
   -4.1906    1.8448    2.2575 H   0  0  0  0  0  0  0  0  0  0  0  0
   -4.0560    2.8264   -0.0362 H   0  0  0  0  0  0  0  0  0  0  0  0
   -5.6513    2.1390    0.2588 H   0  0  0  0  0  0  0  0  0  0  0  0
   -4.8108    1.4654   -1.9902 H   0  0  0  0  0  0  0  0  0  0  0  0
   -5.0968   -1.0000   -1.7302 H   0  0  0  0  0  0  0  0  0  0  0  0
   -6.2671   -0.1283   -0.7426 H   0  0  0  0  0  0  0  0  0  0  0  0
   -2.3964    1.5775   -1.5020 H   0  0  0  0  0  0  0  0  0  0  0  0
   -2.7943    0.0029   -2.1657 H   0  0  0  0  0  0  0  0  0  0  0  0
   -2.1709    0.3868    2.1070 H   0  0  0  0  0  0  0  0  0  0  0  0
   -2.0108    1.8075    1.0890 H   0  0  0  0  0  0  0  0  0  0  0  0
    6.0614   -1.1735   -0.7696 H   0  0  0  0  0  0  0  0  0  0  0  0
    8.1676   -0.3039    0.0753 H   0  0  0  0  0  0  0  0  0  0  0  0
    8.2086    1.5799    1.6848 H   0  0  0  0  0  0  0  0  0  0  0  0
    6.0769    2.5910    2.4568 H   0  0  0  0  0  0  0  0  0  0  0  0
    3.9281    1.7173    1.6596 H   0  0  0  0  0  0  0  0  0  0  0  0
    4.6942   -2.8634   -0.0458 H   0  0  0  0  0  0  0  0  0  0  0  0
    3.4567   -3.5757   -1.0584 H   0  0  0  0  0  0  0  0  0  0  0  0
    4.6597   -2.5271   -1.8060 H   0  0  0  0  0  0  0  0  0  0  0  0
  1  2  1  0
  2  3  1  0
  3  4  1  0
  4  5  2  0
  4  6  1  0
  7  6  1  6
  7  8  1  0
  8  9  1  0
  9 10  1  0
 10 11  1  0
 11 12  1  0
 12 13  1  0
 13 14  1  0
 13 15  1  0
 11 16  1  0
  3 17  2  0
 17 18  1  0
 18 19  1  0
 19 20  2  0
 20 21  1  0
 21 22  2  0
 22 23  1  0
 23 24  2  0
 18 25  1  0
 25 26  1  0
 25  2  2  0
 15  7  1  0
 24 19  1  0
 16  7  1  0
 14  9  1  0
  1 27  1  0
  1 28  1  0
  1 29  1  0
  6 30  1  0
  8 31  1  0
  8 32  1  0
  9 33  1  1
 10 34  1  0
 10 35  1  0
 11 36  1  1
 12 37  1  0
 12 38  1  0
 13 39  1  6
 14 40  1  0
 14 41  1  0
 15 42  1  0
 15 43  1  0
 16 44  1  0
 16 45  1  0
 20 46  1  0
 21 47  1  0
 22 48  1  0
 23 49  1  0
 24 50  1  0
 26 51  1  0
 26 52  1  0
 26 53  1  0
M  END
>  <_SMILES>  (80) 
Cc1c(C(=O)N[C@]23C[C@H]4C[C@H](C[C@H](C4)C2)C3)nn(-c2ccccc2)c1C

$$$$

     RDKit          3D

 39 41  0  0  0  0  0  0  0  0999 V2000
    3.9769   -1.2582    0.3922 C   0  0  0  0  0  0  0  0  0  0  0  0
    3.5864    0.1928    0.6566 C   0  0  0  0  0  0  0  0  0  0  0  0
    4.0020    1.1039   -0.4945 C   0  0  0  0  0  0  0  0  0  0  0  0
    2.0954    0.3205    0.9545 C   0  0  0  0  0  0  0  0  0  0  0  0
    1.7002    0.7325    2.0408 O   0  0  0  0  0  0  0  0  0  0  0  0
    1.2620   -0.0571   -0.0751 N   0  0  0  0  0  0  0  0  0  0  0  0
   -0.2036   -0.0232   -0.0264 C   0  0  2  0  0  0  0  0  0  0  0  0
   -0.7623   -0.9500    1.0821 C   0  0  0  0  0  0  0  0  0  0  0  0
   -2.3013   -0.9344    1.0759 C   0  0  1  0  0  0  0  0  0  0  0  0
   -2.7940    0.5046    1.3062 C   0  0  0  0  0  0  0  0  0  0  0  0
   -2.2762    1.4271    0.1894 C   0  0  2  0  0  0  0  0  0  0  0  0
   -2.7843    0.9151   -1.1675 C   0  0  0  0  0  0  0  0  0  0  0  0
   -2.2871   -0.5191   -1.4063 C   0  0  2  0  0  0  0  0  0  0  0  0
   -2.8092   -1.4323   -0.2862 C   0  0  0  0  0  0  0  0  0  0  0  0
   -0.7504   -0.5291   -1.3893 C   0  0  0  0  0  0  0  0  0  0  0  0
   -0.7372    1.4142    0.1946 C   0  0  0  0  0  0  0  0  0  0  0  0
    5.0650   -1.3572    0.3187 H   0  0  0  0  0  0  0  0  0  0  0  0
    3.6312   -1.9075    1.2039 H   0  0  0  0  0  0  0  0  0  0  0  0
    3.5434   -1.6357   -0.5399 H   0  0  0  0  0  0  0  0  0  0  0  0
    4.1150    0.5261    1.5593 H   0  0  0  0  0  0  0  0  0  0  0  0
    3.6742    2.1332   -0.3130 H   0  0  0  0  0  0  0  0  0  0  0  0
    5.0913    1.1098   -0.6074 H   0  0  0  0  0  0  0  0  0  0  0  0
    3.5691    0.7828   -1.4478 H   0  0  0  0  0  0  0  0  0  0  0  0
    1.6886   -0.3832   -0.9317 H   0  0  0  0  0  0  0  0  0  0  0  0
   -0.4075   -0.6375    2.0711 H   0  0  0  0  0  0  0  0  0  0  0  0
   -0.3982   -1.9753    0.9355 H   0  0  0  0  0  0  0  0  0  0  0  0
   -2.6796   -1.5862    1.8714 H   0  0  0  0  0  0  0  0  0  0  0  0
   -2.4489    0.8673    2.2822 H   0  0  0  0  0  0  0  0  0  0  0  0
   -3.8906    0.5247    1.3289 H   0  0  0  0  0  0  0  0  0  0  0  0
   -2.6367    2.4482    0.3568 H   0  0  0  0  0  0  0  0  0  0  0  0
   -3.8806    0.9406   -1.1912 H   0  0  0  0  0  0  0  0  0  0  0  0
   -2.4330    1.5729   -1.9719 H   0  0  0  0  0  0  0  0  0  0  0  0
   -2.6490   -0.8792   -2.3758 H   0  0  0  0  0  0  0  0  0  0  0  0
   -3.9060   -1.4467   -0.2950 H   0  0  0  0  0  0  0  0  0  0  0  0
   -2.4759   -2.4634   -0.4567 H   0  0  0  0  0  0  0  0  0  0  0  0
   -0.3852   -1.5456   -1.5883 H   0  0  0  0  0  0  0  0  0  0  0  0
   -0.3677    0.0984   -2.2055 H   0  0  0  0  0  0  0  0  0  0  0  0
   -0.3551    2.0828   -0.5879 H   0  0  0  0  0  0  0  0  0  0  0  0
   -0.3813    1.8231    1.1474 H   0  0  0  0  0  0  0  0  0  0  0  0
  1  2  1  0
  2  3  1  0
  2  4  1  0
  4  5  2  0
  4  6  1  0
  7  6  1  6
  7  8  1  0
  8  9  1  0
  9 10  1  0
 10 11  1  0
 11 12  1  0
 12 13  1  0
 13 14  1  0
 13 15  1  0
 11 16  1  0
 15  7  1  0
 16  7  1  0
 14  9  1  0
  1 17  1  0
  1 18  1  0
  1 19  1  0
  2 20  1  0
  3 21  1  0
  3 22  1  0
  3 23  1  0
  6 24  1  0
  8 25  1  0
  8 26  1  0
  9 27  1  1
 10 28  1  0
 10 29  1  0
 11 30  1  1
 12 31  1  0
 12 32  1  0
 13 33  1  6
 14 34  1  0
 14 35  1  0
 15 36  1  0
 15 37  1  0
 16 38  1  0
 16 39  1  0
M  END
>  <_SMILES>  (81) 
CC(C)C(=O)N[C@]12C[C@H]3C[C@H](C[C@H](C3)C1)C2

$$$$

     RDKit          3D

 47 51  0  0  0  0  0  0  0  0999 V2000
    0.2444   -1.4323    0.5173 O   0  0  0  0  0  0  0  0  0  0  0  0
    0.3762   -0.2373    0.2708 C   0  0  0  0  0  0  0  0  0  0  0  0
   -0.6978    0.5967   -0.0039 N   0  0  0  0  0  0  0  0  0  0  0  0
   -2.0924    0.1520   -0.0994 C   0  0  2  0  0  0  0  0  0  0  0  0
   -2.2926   -0.8596   -1.2547 C   0  0  0  0  0  0  0  0  0  0  0  0
   -3.7733   -1.2633   -1.3702 C   0  0  1  0  0  0  0  0  0  0  0  0
   -4.2320   -1.8937   -0.0443 C   0  0  0  0  0  0  0  0  0  0  0  0
   -4.0747   -0.8837    1.1053 C   0  0  2  0  0  0  0  0  0  0  0  0
   -4.9203    0.3633    0.8044 C   0  0  0  0  0  0  0  0  0  0  0  0
   -4.4592    1.0024   -0.5143 C   0  0  2  0  0  0  0  0  0  0  0  0
   -4.6200   -0.0130   -1.6564 C   0  0  0  0  0  0  0  0  0  0  0  0
   -2.9781    1.3944   -0.3932 C   0  0  0  0  0  0  0  0  0  0  0  0
   -2.5945   -0.4791    1.2245 C   0  0  0  0  0  0  0  0  0  0  0  0
    1.6972    0.4300    0.2249 C   0  0  0  0  0  0  0  0  0  0  0  0
    1.9888    1.8180    0.2759 C   0  0  0  0  0  0  0  0  0  0  0  0
    3.3578    1.9095    0.2050 C   0  0  0  0  0  0  0  0  0  0  0  0
    3.8431    0.6238    0.1226 N   0  0  0  0  0  0  0  0  0  0  0  0
    5.2001    0.2018    0.0337 C   0  0  0  0  0  0  0  0  0  0  0  0
    6.2527    1.1278    0.0163 C   0  0  0  0  0  0  0  0  0  0  0  0
    7.5753    0.6823   -0.0722 C   0  0  0  0  0  0  0  0  0  0  0  0
    7.8550   -0.6815   -0.1432 C   0  0  0  0  0  0  0  0  0  0  0  0
    6.8141   -1.6070   -0.1259 C   0  0  0  0  0  0  0  0  0  0  0  0
    5.4907   -1.1700   -0.0379 C   0  0  0  0  0  0  0  0  0  0  0  0
    2.8347   -0.2791    0.1315 N   0  0  0  0  0  0  0  0  0  0  0  0
   -0.4809    1.4983   -0.4024 H   0  0  0  0  0  0  0  0  0  0  0  0
   -1.9495   -0.4232   -2.2020 H   0  0  0  0  0  0  0  0  0  0  0  0
   -1.6879   -1.7603   -1.0958 H   0  0  0  0  0  0  0  0  0  0  0  0
   -3.8956   -1.9859   -2.1848 H   0  0  0  0  0  0  0  0  0  0  0  0
   -5.2796   -2.2093   -0.1234 H   0  0  0  0  0  0  0  0  0  0  0  0
   -3.6432   -2.7952    0.1656 H   0  0  0  0  0  0  0  0  0  0  0  0
   -4.4093   -1.3381    2.0446 H   0  0  0  0  0  0  0  0  0  0  0  0
   -4.8278    1.0860    1.6243 H   0  0  0  0  0  0  0  0  0  0  0  0
   -5.9807    0.0905    0.7384 H   0  0  0  0  0  0  0  0  0  0  0  0
   -5.0619    1.8931   -0.7240 H   0  0  0  0  0  0  0  0  0  0  0  0
   -4.3116    0.4393   -2.6069 H   0  0  0  0  0  0  0  0  0  0  0  0
   -5.6755   -0.2918   -1.7642 H   0  0  0  0  0  0  0  0  0  0  0  0
   -2.6497    1.8808   -1.3217 H   0  0  0  0  0  0  0  0  0  0  0  0
   -2.8558    2.1413    0.4027 H   0  0  0  0  0  0  0  0  0  0  0  0
   -2.0078   -1.3663    1.4876 H   0  0  0  0  0  0  0  0  0  0  0  0
   -2.4660    0.2301    2.0527 H   0  0  0  0  0  0  0  0  0  0  0  0
    1.3000    2.6447    0.3720 H   0  0  0  0  0  0  0  0  0  0  0  0
    4.0056    2.7719    0.2177 H   0  0  0  0  0  0  0  0  0  0  0  0
    6.0837    2.1982    0.0695 H   0  0  0  0  0  0  0  0  0  0  0  0
    8.3906    1.4017   -0.0854 H   0  0  0  0  0  0  0  0  0  0  0  0
    8.8845   -1.0239   -0.2113 H   0  0  0  0  0  0  0  0  0  0  0  0
    7.0288   -2.6714   -0.1800 H   0  0  0  0  0  0  0  0  0  0  0  0
    4.6940   -1.9127   -0.0245 H   0  0  0  0  0  0  0  0  0  0  0  0
  1  2  2  0
  2  3  1  0
  4  3  1  1
  4  5  1  0
  5  6  1  0
  6  7  1  0
  7  8  1  0
  8  9  1  0
  9 10  1  0
 10 11  1  0
 10 12  1  0
  8 13  1  0
  2 14  1  0
 14 15  1  0
 15 16  2  0
 16 17  1  0
 17 18  1  0
 18 19  2  0
 19 20  1  0
 20 21  2  0
 21 22  1  0
 22 23  2  0
 17 24  1  0
 12  4  1  0
 24 14  2  0
 13  4  1  0
 23 18  1  0
 11  6  1  0
  3 25  1  0
  5 26  1  0
  5 27  1  0
  6 28  1  6
  7 29  1  0
  7 30  1  0
  8 31  1  1
  9 32  1  0
  9 33  1  0
 10 34  1  6
 11 35  1  0
 11 36  1  0
 12 37  1  0
 12 38  1  0
 13 39  1  0
 13 40  1  0
 15 41  1  0
 16 42  1  0
 19 43  1  0
 20 44  1  0
 21 45  1  0
 22 46  1  0
 23 47  1  0
M  END
>  <_SMILES>  (82) 
O=C(N[C@]12C[C@H]3C[C@H](C[C@H](C3)C1)C2)c1ccn(-c2ccccc2)n1

$$$$

     RDKit          3D

 48 50  0  0  0  0  0  0  0  0999 V2000
   -0.6245   -2.5007   -0.1337 C   0  0  0  0  0  0  0  0  0  0  0  0
   -0.6697   -1.0888   -0.5959 C   0  0  0  0  0  0  0  0  0  0  0  0
    0.3950   -0.3115   -1.1584 C   0  0  0  0  0  0  0  0  0  0  0  0
    1.8068   -0.6923   -1.3703 C   0  0  0  0  0  0  0  0  0  0  0  0
    2.4633   -0.3311   -2.3440 O   0  0  0  0  0  0  0  0  0  0  0  0
    2.3431   -1.4683   -0.3584 N   0  0  0  0  0  0  0  0  0  0  0  0
    3.7555   -1.7618   -0.3076 C   0  0  0  0  0  0  0  0  0  0  0  0
    4.4525   -0.8617    0.6797 C   0  0  0  0  0  0  0  0  0  0  0  0
    4.7823   -1.3212    1.9627 C   0  0  0  0  0  0  0  0  0  0  0  0
    5.4094   -0.4735    2.8778 C   0  0  0  0  0  0  0  0  0  0  0  0
    5.7068    0.8411    2.5224 C   0  0  0  0  0  0  0  0  0  0  0  0
    5.3768    1.3107    1.2527 C   0  0  0  0  0  0  0  0  0  0  0  0
    4.7513    0.4649    0.3361 C   0  0  0  0  0  0  0  0  0  0  0  0
   -0.0435    0.9087   -1.5086 N   0  0  0  0  0  0  0  0  0  0  0  0
   -1.3425    0.9294   -1.1612 N   0  0  0  0  0  0  0  0  0  0  0  0
   -2.1203    2.1439   -1.4054 C   0  0  0  0  0  0  0  0  0  0  0  0
   -2.2835    2.4021   -2.9030 C   0  0  0  0  0  0  0  0  0  0  0  0
   -1.5134    3.3538   -0.6934 C   0  0  0  0  0  0  0  0  0  0  0  0
   -1.7747   -0.2493   -0.6021 C   0  0  0  0  0  0  0  0  0  0  0  0
   -3.1378   -0.4989   -0.1524 C   0  0  0  0  0  0  0  0  0  0  0  0
   -4.1197   -0.8982   -1.0659 C   0  0  0  0  0  0  0  0  0  0  0  0
   -5.4255   -1.1349   -0.6334 C   0  0  0  0  0  0  0  0  0  0  0  0
   -5.7540   -0.9765    0.7126 C   0  0  0  0  0  0  0  0  0  0  0  0
   -4.7779   -0.5841    1.6281 C   0  0  0  0  0  0  0  0  0  0  0  0
   -3.4713   -0.3472    1.1976 C   0  0  0  0  0  0  0  0  0  0  0  0
   -1.6113   -2.9716   -0.1859 H   0  0  0  0  0  0  0  0  0  0  0  0
    0.0506   -3.0969   -0.7556 H   0  0  0  0  0  0  0  0  0  0  0  0
   -0.2796   -2.5498    0.9038 H   0  0  0  0  0  0  0  0  0  0  0  0
    1.8360   -1.4993    0.5140 H   0  0  0  0  0  0  0  0  0  0  0  0
    3.8532   -2.8093   -0.0018 H   0  0  0  0  0  0  0  0  0  0  0  0
    4.2175   -1.6696   -1.2967 H   0  0  0  0  0  0  0  0  0  0  0  0
    4.5561   -2.3431    2.2580 H   0  0  0  0  0  0  0  0  0  0  0  0
    5.6663   -0.8379    3.8691 H   0  0  0  0  0  0  0  0  0  0  0  0
    6.1945    1.5010    3.2350 H   0  0  0  0  0  0  0  0  0  0  0  0
    5.6034    2.3367    0.9742 H   0  0  0  0  0  0  0  0  0  0  0  0
    4.4916    0.8454   -0.6514 H   0  0  0  0  0  0  0  0  0  0  0  0
   -3.1177    1.9835   -0.9825 H   0  0  0  0  0  0  0  0  0  0  0  0
   -1.3204    2.6010   -3.3860 H   0  0  0  0  0  0  0  0  0  0  0  0
   -2.9328    3.2663   -3.0780 H   0  0  0  0  0  0  0  0  0  0  0  0
   -2.7325    1.5360   -3.4016 H   0  0  0  0  0  0  0  0  0  0  0  0
   -1.3996    3.1583    0.3786 H   0  0  0  0  0  0  0  0  0  0  0  0
   -2.1565    4.2325   -0.8100 H   0  0  0  0  0  0  0  0  0  0  0  0
   -0.5251    3.6063   -1.0930 H   0  0  0  0  0  0  0  0  0  0  0  0
   -3.8711   -1.0303   -2.1166 H   0  0  0  0  0  0  0  0  0  0  0  0
   -6.1854   -1.4454   -1.3459 H   0  0  0  0  0  0  0  0  0  0  0  0
   -6.7710   -1.1621    1.0489 H   0  0  0  0  0  0  0  0  0  0  0  0
   -5.0340   -0.4637    2.6776 H   0  0  0  0  0  0  0  0  0  0  0  0
   -2.7167   -0.0426    1.9190 H   0  0  0  0  0  0  0  0  0  0  0  0
  1  2  1  0
  2  3  1  0
  3  4  1  0
  4  5  2  0
  4  6  1  0
  6  7  1  0
  7  8  1  0
  8  9  2  0
  9 10  1  0
 10 11  2  0
 11 12  1  0
 12 13  2  0
  3 14  2  0
 14 15  1  0
 15 16  1  0
 16 17  1  0
 16 18  1  0
 15 19  1  0
 19 20  1  0
 20 21  2  0
 21 22  1  0
 22 23  2  0
 23 24  1  0
 24 25  2  0
 19  2  2  0
 25 20  1  0
 13  8  1  0
  1 26  1  0
  1 27  1  0
  1 28  1  0
  6 29  1  0
  7 30  1  0
  7 31  1  0
  9 32  1  0
 10 33  1  0
 11 34  1  0
 12 35  1  0
 13 36  1  0
 16 37  1  0
 17 38  1  0
 17 39  1  0
 17 40  1  0
 18 41  1  0
 18 42  1  0
 18 43  1  0
 21 44  1  0
 22 45  1  0
 23 46  1  0
 24 47  1  0
 25 48  1  0
M  END
>  <_SMILES>  (83) 
Cc1c(C(=O)NCc2ccccc2)nn(C(C)C)c1-c1ccccc1

$$$$

     RDKit          3D

 54 56  0  0  0  0  0  0  0  0999 V2000
    0.0154    0.8876   -1.3037 C   0  0  0  0  0  0  0  0  0  0  0  0
    0.8407   -0.0378   -0.4841 C   0  0  0  0  0  0  0  0  0  0  0  0
    0.4070   -1.2033    0.2273 C   0  0  0  0  0  0  0  0  0  0  0  0
   -0.9627   -1.7373    0.3635 C   0  0  0  0  0  0  0  0  0  0  0  0
   -1.2297   -2.9349    0.3130 O   0  0  0  0  0  0  0  0  0  0  0  0
   -1.9253   -0.7647    0.5819 N   0  0  0  0  0  0  0  0  0  0  0  0
   -3.3319   -1.0920    0.7862 C   0  0  0  0  0  0  0  0  0  0  0  0
   -4.0528    0.0082    1.5836 C   0  0  0  0  0  0  0  0  0  0  0  0
   -4.0625    1.3926    0.9347 C   0  0  0  0  0  0  0  0  0  0  0  0
   -5.1922    1.6382   -0.0592 C   0  0  0  0  0  0  0  0  0  0  0  0
   -5.5184    0.5130   -1.0346 C   0  0  0  0  0  0  0  0  0  0  0  0
   -4.3269   -0.3226   -1.4911 C   0  0  0  0  0  0  0  0  0  0  0  0
   -4.0178   -1.4743   -0.5334 C   0  0  0  0  0  0  0  0  0  0  0  0
    1.4474   -1.8171    0.8134 N   0  0  0  0  0  0  0  0  0  0  0  0
    2.5191   -1.0663    0.5009 N   0  0  0  0  0  0  0  0  0  0  0  0
    3.8354   -1.4737    0.9919 C   0  0  0  0  0  0  0  0  0  0  0  0
    3.8668   -1.5502    2.5189 C   0  0  0  0  0  0  0  0  0  0  0  0
    4.2768   -2.7926    0.3581 C   0  0  0  0  0  0  0  0  0  0  0  0
    2.2105    0.0272   -0.2730 C   0  0  0  0  0  0  0  0  0  0  0  0
    3.1835    0.9969   -0.7577 C   0  0  0  0  0  0  0  0  0  0  0  0
    3.9008    0.7481   -1.9331 C   0  0  0  0  0  0  0  0  0  0  0  0
    4.8344    1.6771   -2.3950 C   0  0  0  0  0  0  0  0  0  0  0  0
    5.0523    2.8583   -1.6864 C   0  0  0  0  0  0  0  0  0  0  0  0
    4.3361    3.1137   -0.5173 C   0  0  0  0  0  0  0  0  0  0  0  0
    3.4017    2.1859   -0.0538 C   0  0  0  0  0  0  0  0  0  0  0  0
   -0.7849    0.3476   -1.8193 H   0  0  0  0  0  0  0  0  0  0  0  0
    0.6150    1.3871   -2.0712 H   0  0  0  0  0  0  0  0  0  0  0  0
   -0.4350    1.6578   -0.6698 H   0  0  0  0  0  0  0  0  0  0  0  0
   -1.5949    0.1640    0.8019 H   0  0  0  0  0  0  0  0  0  0  0  0
   -3.3413   -1.9931    1.4146 H   0  0  0  0  0  0  0  0  0  0  0  0
   -5.0778   -0.3070    1.8138 H   0  0  0  0  0  0  0  0  0  0  0  0
   -3.5383    0.1034    2.5496 H   0  0  0  0  0  0  0  0  0  0  0  0
   -3.1039    1.6063    0.4500 H   0  0  0  0  0  0  0  0  0  0  0  0
   -4.1588    2.1444    1.7290 H   0  0  0  0  0  0  0  0  0  0  0  0
   -6.1080    1.8864    0.4925 H   0  0  0  0  0  0  0  0  0  0  0  0
   -4.9423    2.5407   -0.6321 H   0  0  0  0  0  0  0  0  0  0  0  0
   -5.9914    0.9646   -1.9162 H   0  0  0  0  0  0  0  0  0  0  0  0
   -6.2832   -0.1388   -0.5938 H   0  0  0  0  0  0  0  0  0  0  0  0
   -3.4437    0.3001   -1.6702 H   0  0  0  0  0  0  0  0  0  0  0  0
   -4.5898   -0.7696   -2.4586 H   0  0  0  0  0  0  0  0  0  0  0  0
   -4.9508   -2.0048   -0.3022 H   0  0  0  0  0  0  0  0  0  0  0  0
   -3.3925   -2.1984   -1.0707 H   0  0  0  0  0  0  0  0  0  0  0  0
    4.5505   -0.7016    0.6890 H   0  0  0  0  0  0  0  0  0  0  0  0
    3.5489   -0.6005    2.9633 H   0  0  0  0  0  0  0  0  0  0  0  0
    3.2036   -2.3347    2.8997 H   0  0  0  0  0  0  0  0  0  0  0  0
    4.8800   -1.7665    2.8737 H   0  0  0  0  0  0  0  0  0  0  0  0
    3.6186   -3.6198    0.6461 H   0  0  0  0  0  0  0  0  0  0  0  0
    5.2952   -3.0492    0.6685 H   0  0  0  0  0  0  0  0  0  0  0  0
    4.2644   -2.7234   -0.7353 H   0  0  0  0  0  0  0  0  0  0  0  0
    3.7332   -0.1680   -2.4952 H   0  0  0  0  0  0  0  0  0  0  0  0
    5.3894    1.4805   -3.3087 H   0  0  0  0  0  0  0  0  0  0  0  0
    5.7788    3.5820   -2.0475 H   0  0  0  0  0  0  0  0  0  0  0  0
    4.5044    4.0360    0.0326 H   0  0  0  0  0  0  0  0  0  0  0  0
    2.8470    2.3943    0.8579 H   0  0  0  0  0  0  0  0  0  0  0  0
  1  2  1  0
  2  3  1  0
  3  4  1  0
  4  5  2  0
  4  6  1  0
  6  7  1  0
  7  8  1  0
  8  9  1  0
  9 10  1  0
 10 11  1  0
 11 12  1  0
 12 13  1  0
  3 14  2  0
 14 15  1  0
 15 16  1  0
 16 17  1  0
 16 18  1  0
 15 19  1  0
 19 20  1  0
 20 21  2  0
 21 22  1  0
 22 23  2  0
 23 24  1  0
 24 25  2  0
 19  2  2  0
 25 20  1  0
 13  7  1  0
  1 26  1  0
  1 27  1  0
  1 28  1  0
  6 29  1  0
  7 30  1  0
  8 31  1  0
  8 32  1  0
  9 33  1  0
  9 34  1  0
 10 35  1  0
 10 36  1  0
 11 37  1  0
 11 38  1  0
 12 39  1  0
 12 40  1  0
 13 41  1  0
 13 42  1  0
 16 43  1  0
 17 44  1  0
 17 45  1  0
 17 46  1  0
 18 47  1  0
 18 48  1  0
 18 49  1  0
 21 50  1  0
 22 51  1  0
 23 52  1  0
 24 53  1  0
 25 54  1  0
M  END
>  <_SMILES>  (84) 
Cc1c(C(=O)NC2CCCCCC2)nn(C(C)C)c1-c1ccccc1

$$$$
